REMARK SMILES O=C(NCCCCNC(=O)c1ccc(-c2c3nc(c(-c4ccc(S(=O)(=O)[O-])cc4)c4ccc([nH]4)c(-c4ccc(S(=O)(=O)[O-])cc4)c4nc(c(-c5ccc(S(=O)(=O)[O-])cc5)c5ccc2[nH]5)C=C4)C=C3)cc1)c1ccc(Nc2ccnc(Cl)n2)cc1
REMARK SMILES IDX 6 1 5 2 4 3 3 4 1 5 2 6 71 8 72 9 84 10 73 11 83 12 74 13
REMARK SMILES IDX 75 14 76 16 77 17 82 18 78 19 80 20 79 21 81 22 7 23 8 24
REMARK SMILES IDX 9 25 10 27 11 28 12 29 70 30 13 31 69 32 14 33 15 34 16 35
REMARK SMILES IDX 63 36 17 37 68 38 62 39 64 40 18 41 67 42 61 43 60 44 19 46
REMARK SMILES IDX 49 47 30 48 48 49 31 50 34 51 47 52 65 53 32 54 33 55 46 57
REMARK SMILES IDX 66 58 35 59 20 60 21 61 29 62 22 63 28 64 23 65 24 66 25 67
REMARK SMILES IDX 26 68 27 69 50 70 51 71 59 72 52 73 58 74 53 75 54 76 55 77
REMARK SMILES IDX 56 78 57 79 36 80 37 81 45 82 38 83 44 84 39 85 40 86 41 87
REMARK SMILES IDX 42 88 43 89
REMARK H PARENT 3 7 75 15 8 26 64 45 34 56
REMARK Flexibility Score: inf
ROOT
ATOM      1  C   UNL     1       4.455  -2.636   2.671  1.00  0.00     0.023 C 
ENDROOT
BRANCH   1   2
ATOM      2  C   UNL     1       4.905  -1.310   2.061  1.00  0.00     0.023 C 
BRANCH   2   3
ATOM      3  C   UNL     1       4.495  -1.087   0.609  1.00  0.00     0.116 C 
BRANCH   3   4
ATOM      4  N   UNL     1       3.050  -1.026   0.432  1.00  0.00    -0.352 N 
ATOM      5  O   UNL     1       1.055  -0.049  -0.013  1.00  0.00    -0.269 OA
ATOM      6  C   UNL     1       2.280   0.001  -0.061  1.00  0.00     0.251 C 
ATOM      7  H   UNL     1       2.556  -1.832   0.705  1.00  0.00     0.163 HD
BRANCH   6   8
ATOM      8  C   UNL     1       2.941   1.188  -0.634  1.00  0.00     0.039 A 
ATOM      9  C   UNL     1       3.905   1.044  -1.630  1.00  0.00     0.016 A 
ATOM     10  C   UNL     1       2.622   2.454  -0.144  1.00  0.00     0.016 A 
ATOM     11  C   UNL     1       4.649   2.151  -2.035  1.00  0.00     0.027 A 
ATOM     12  C   UNL     1       3.353   3.565  -0.579  1.00  0.00     0.027 A 
ATOM     13  C   UNL     1       4.413   3.420  -1.489  1.00  0.00     0.040 A 
BRANCH  13  14
ATOM     14  N   UNL     1       5.192   4.549  -1.811  1.00  0.00    -0.340 N 
ATOM     15  H   UNL     1       4.955   5.368  -1.320  1.00  0.00     0.168 HD
BRANCH  14  16
ATOM     16  C   UNL     1       6.248   4.692  -2.717  1.00  0.00     0.135 A 
ATOM     17  C   UNL     1       6.202   4.152  -3.990  1.00  0.00     0.067 A 
ATOM     18  N   UNL     1       7.322   5.361  -2.271  1.00  0.00    -0.200 NA
ATOM     19  C   UNL     1       7.337   4.267  -4.758  1.00  0.00     0.118 A 
ATOM     20  C   UNL     1       8.371   5.398  -3.103  1.00  0.00     0.224 A 
ATOM     21  N   UNL     1       8.451   4.879  -4.334  1.00  0.00    -0.226 NA
ATOM     22  Cl  UNL     1       9.776   6.167  -2.512  1.00  0.00    -0.041 Cl
ENDBRANCH  14  16
ENDBRANCH  13  14
ENDBRANCH   6   8
ENDBRANCH   3   4
ENDBRANCH   2   3
ENDBRANCH   1   2
BRANCH   1  23
ATOM     23  C   UNL     1       4.847  -3.887   1.891  1.00  0.00     0.116 C 
BRANCH  23  24
ATOM     24  N   UNL     1       6.285  -4.034   1.726  1.00  0.00    -0.352 N 
ATOM     25  C   UNL     1       7.072  -5.144   1.924  1.00  0.00     0.251 C 
ATOM     26  H   UNL     1       6.761  -3.225   1.431  1.00  0.00     0.163 HD
ATOM     27  O   UNL     1       8.294  -5.046   1.844  1.00  0.00    -0.269 OA
BRANCH  25  28
ATOM     28  C   UNL     1       6.452  -6.444   2.267  1.00  0.00     0.039 A 
ATOM     29  C   UNL     1       7.000  -7.199   3.307  1.00  0.00     0.014 A 
ATOM     30  C   UNL     1       5.334  -6.916   1.573  1.00  0.00     0.014 A 
ATOM     31  C   UNL     1       6.387  -8.394   3.696  1.00  0.00     0.010 A 
ATOM     32  C   UNL     1       4.685  -8.070   2.007  1.00  0.00     0.010 A 
ATOM     33  C   UNL     1       5.205  -8.823   3.071  1.00  0.00    -0.014 A 
BRANCH  33  34
ATOM     34  C   UNL     1       4.506 -10.063   3.499  1.00  0.00     0.031 A 
ATOM     35  C   UNL     1       4.385 -11.223   2.547  1.00  0.00     0.074 A 
ATOM     36  C   UNL     1       3.927 -10.125   4.716  1.00  0.00     0.049 A 
ATOM     37  N   UNL     1       3.731 -12.347   2.695  1.00  0.00    -0.248 NA
ATOM     38  C   UNL     1       5.067 -11.093   1.249  1.00  0.00     0.031 C 
ATOM     39  C   UNL     1       3.940  -9.059   5.720  1.00  0.00     0.029 A 
ATOM     40  N   UNL     1       3.203 -11.129   5.310  1.00  0.00    -0.354 N 
ATOM     41  C   UNL     1       3.908 -13.047   1.507  1.00  0.00     0.074 A 
ATOM     42  C   UNL     1       4.691 -12.204   0.632  1.00  0.00     0.031 C 
ATOM     43  C   UNL     1       3.271  -9.471   6.810  1.00  0.00     0.029 A 
ATOM     44  C   UNL     1       2.751 -10.814   6.571  1.00  0.00     0.049 A 
ATOM     45  H   UNL     1       3.023 -11.993   4.875  1.00  0.00     0.167 HD
ATOM     46  C   UNL     1       3.477 -14.289   1.181  1.00  0.00     0.031 A 
ATOM     47  C   UNL     1       1.995 -11.521   7.433  1.00  0.00     0.031 A 
ATOM     48  C   UNL     1       2.718 -15.139   2.058  1.00  0.00     0.049 A 
ATOM     49  C   UNL     1       1.536 -12.903   7.048  1.00  0.00     0.074 A 
ATOM     50  C   UNL     1       2.262 -16.425   1.827  1.00  0.00     0.029 A 
ATOM     51  N   UNL     1       2.316 -14.795   3.339  1.00  0.00    -0.354 N 
ATOM     52  N   UNL     1       1.745 -13.559   5.932  1.00  0.00    -0.248 NA
ATOM     53  C   UNL     1       0.752 -13.644   8.047  1.00  0.00     0.031 C 
ATOM     54  C   UNL     1       1.559 -16.850   2.959  1.00  0.00     0.029 A 
ATOM     55  C   UNL     1       1.617 -15.844   3.911  1.00  0.00     0.049 A 
ATOM     56  H   UNL     1       2.500 -13.933   3.777  1.00  0.00     0.167 HD
ATOM     57  C   UNL     1       1.147 -14.802   6.108  1.00  0.00     0.074 A 
ATOM     58  C   UNL     1       0.580 -14.811   7.440  1.00  0.00     0.031 C 
ATOM     59  C   UNL     1       1.075 -15.844   5.244  1.00  0.00     0.031 A 
BRANCH  46  60
ATOM     60  C   UNL     1       3.831 -14.811  -0.185  1.00  0.00    -0.014 A 
ATOM     61  C   UNL     1       5.150 -15.194  -0.489  1.00  0.00     0.010 A 
ATOM     62  C   UNL     1       2.829 -14.975  -1.158  1.00  0.00     0.010 A 
ATOM     63  C   UNL     1       5.467 -15.701  -1.751  1.00  0.00     0.020 A 
ATOM     64  C   UNL     1       3.137 -15.507  -2.414  1.00  0.00     0.020 A 
ATOM     65  C   UNL     1       4.458 -15.854  -2.706  1.00  0.00     0.054 A 
BRANCH  65  66
ATOM     66  S   UNL     1       4.891 -16.552  -4.323  1.00  0.00     0.124 S 
ATOM     67  O   UNL     1       5.586 -15.434  -4.957  1.00  0.00    -0.237 OA
ATOM     68  O   UNL     1       5.732 -17.692  -3.966  1.00  0.00    -0.237 OA
ATOM     69  O   UNL     1       3.598 -16.895  -4.910  1.00  0.00    -0.744 OA
ENDBRANCH  65  66
ENDBRANCH  46  60
BRANCH  47  70
ATOM     70  C   UNL     1       1.626 -10.946   8.756  1.00  0.00    -0.014 A 
ATOM     71  C   UNL     1       2.187 -11.458   9.939  1.00  0.00     0.010 A 
ATOM     72  C   UNL     1       0.689  -9.900   8.840  1.00  0.00     0.010 A 
ATOM     73  C   UNL     1       1.792 -10.960  11.184  1.00  0.00     0.020 A 
ATOM     74  C   UNL     1       0.312  -9.381  10.082  1.00  0.00     0.020 A 
ATOM     75  C   UNL     1       0.852  -9.928  11.247  1.00  0.00     0.054 A 
BRANCH  75  76
ATOM     76  S   UNL     1       0.363  -9.283  12.871  1.00  0.00     0.124 S 
ATOM     77  O   UNL     1      -0.555 -10.315  13.343  1.00  0.00    -0.237 OA
ATOM     78  O   UNL     1       1.639  -9.199  13.578  1.00  0.00    -0.237 OA
ATOM     79  O   UNL     1      -0.249  -7.995  12.554  1.00  0.00    -0.744 OA
ENDBRANCH  75  76
ENDBRANCH  47  70
BRANCH  59  80
ATOM     80  C   UNL     1       0.408 -17.102   5.729  1.00  0.00    -0.014 A 
ATOM     81  C   UNL     1      -0.988 -17.183   5.866  1.00  0.00     0.010 A 
ATOM     82  C   UNL     1       1.193 -18.239   5.998  1.00  0.00     0.010 A 
ATOM     83  C   UNL     1      -1.586 -18.371   6.296  1.00  0.00     0.020 A 
ATOM     84  C   UNL     1       0.597 -19.435   6.404  1.00  0.00     0.020 A 
ATOM     85  C   UNL     1      -0.789 -19.489   6.564  1.00  0.00     0.054 A 
BRANCH  85  86
ATOM     86  S   UNL     1      -1.591 -21.032   7.078  1.00  0.00     0.124 S 
ATOM     87  O   UNL     1      -1.920 -20.754   8.473  1.00  0.00    -0.237 OA
ATOM     88  O   UNL     1      -2.731 -21.122   6.168  1.00  0.00    -0.237 OA
ATOM     89  O   UNL     1      -0.557 -22.044   6.871  1.00  0.00    -0.744 OA
ENDBRANCH  85  86
ENDBRANCH  59  80
ENDBRANCH  33  34
ENDBRANCH  25  28
ENDBRANCH  23  24
ENDBRANCH   1  23
TORSDOF 16
