REMARK SMILES O=C(NCCCCNC(=O)c1cc(-c2cccc(Cl)c2)oc1C(F)(F)F)c1ccc(-c2c3nc(c(-c4ccc(S(=O)(=O)[O-])cc4)c4ccc([nH]4)c(-c4ccc(S(=O)(=O)[O-])cc4)c4nc(c(-c5ccc(S(=O)(=O)[O-])cc5)c5ccc2[nH]5)C=C4)C=C3)cc1
REMARK SMILES IDX 4 1 3 2 1 3 2 4 27 6 28 7 86 8 29 9 85 10 30 11 31 12 32 13
REMARK SMILES IDX 79 14 33 15 84 16 78 17 80 18 34 19 83 20 77 21 76 22 35 24
REMARK SMILES IDX 65 25 46 26 64 27 47 28 50 29 63 30 81 31 48 32 49 33 62 35
REMARK SMILES IDX 82 36 51 37 36 38 37 39 45 40 38 41 44 42 39 43 40 44 41 45
REMARK SMILES IDX 42 46 43 47 66 48 67 49 75 50 68 51 74 52 69 53 70 54 71 55
REMARK SMILES IDX 72 56 73 57 52 58 53 59 61 60 54 61 60 62 55 63 56 64 57 65
REMARK SMILES IDX 58 66 59 67 5 68 6 69 7 70 8 71 9 72 10 74 11 75 12 76 22 77
REMARK SMILES IDX 13 78 21 79 23 80 24 81 25 82 26 83 14 84 15 85 20 86 16 87
REMARK SMILES IDX 18 88 17 89 19 90
REMARK H PARENT 3 5 80 23 50 34 8 73
REMARK Flexibility Score: inf
ROOT
ATOM      1  C   UNL     1       4.540  -1.099  -0.553  1.00  0.00     0.116 C 
ENDROOT
BRANCH   1   2
ATOM      2  N   UNL     1       3.120  -0.805  -0.675  1.00  0.00    -0.352 N 
ATOM      3  O   UNL     1       1.151   0.180  -0.180  1.00  0.00    -0.269 OA
ATOM      4  C   UNL     1       2.368   0.145  -0.020  1.00  0.00     0.251 C 
ATOM      5  H   UNL     1       2.626  -1.365  -1.317  1.00  0.00     0.163 HD
BRANCH   4   6
ATOM      6  C   UNL     1       3.026   1.092   0.908  1.00  0.00     0.039 A 
ATOM      7  C   UNL     1       4.209   1.738   0.548  1.00  0.00     0.014 A 
ATOM      8  C   UNL     1       2.470   1.304   2.174  1.00  0.00     0.014 A 
ATOM      9  C   UNL     1       4.930   2.439   1.509  1.00  0.00     0.010 A 
ATOM     10  C   UNL     1       3.153   2.087   3.111  1.00  0.00     0.010 A 
ATOM     11  C   UNL     1       4.416   2.616   2.805  1.00  0.00    -0.014 A 
BRANCH  11  12
ATOM     12  C   UNL     1       5.223   3.360   3.809  1.00  0.00     0.031 A 
ATOM     13  C   UNL     1       5.751   2.679   5.046  1.00  0.00     0.074 A 
ATOM     14  C   UNL     1       5.534   4.650   3.569  1.00  0.00     0.049 A 
ATOM     15  N   UNL     1       6.534   3.162   5.978  1.00  0.00    -0.248 NA
ATOM     16  C   UNL     1       5.345   1.283   5.273  1.00  0.00     0.031 C 
ATOM     17  C   UNL     1       5.078   5.426   2.412  1.00  0.00     0.029 A 
ATOM     18  N   UNL     1       6.331   5.524   4.261  1.00  0.00    -0.354 N 
ATOM     19  C   UNL     1       6.691   2.144   6.913  1.00  0.00     0.074 A 
ATOM     20  C   UNL     1       5.906   1.022   6.446  1.00  0.00     0.031 C 
ATOM     21  C   UNL     1       5.656   6.636   2.440  1.00  0.00     0.029 A 
ATOM     22  C   UNL     1       6.476   6.743   3.641  1.00  0.00     0.049 A 
ATOM     23  H   UNL     1       6.759   5.301   5.120  1.00  0.00     0.167 HD
ATOM     24  C   UNL     1       7.423   2.141   8.054  1.00  0.00     0.031 A 
ATOM     25  C   UNL     1       7.189   7.828   3.994  1.00  0.00     0.031 A 
ATOM     26  C   UNL     1       8.219   3.251   8.511  1.00  0.00     0.049 A 
ATOM     27  C   UNL     1       8.002   7.795   5.255  1.00  0.00     0.074 A 
ATOM     28  C   UNL     1       9.023   3.329   9.636  1.00  0.00     0.029 A 
ATOM     29  N   UNL     1       8.316   4.475   7.867  1.00  0.00    -0.354 N 
ATOM     30  N   UNL     1       8.155   6.811   6.109  1.00  0.00    -0.248 NA
ATOM     31  C   UNL     1       8.741   9.017   5.597  1.00  0.00     0.031 C 
ATOM     32  C   UNL     1       9.575   4.614   9.693  1.00  0.00     0.029 A 
ATOM     33  C   UNL     1       9.152   5.319   8.579  1.00  0.00     0.049 A 
ATOM     34  H   UNL     1       7.857   4.709   7.028  1.00  0.00     0.167 HD
ATOM     35  C   UNL     1       9.024   7.291   7.082  1.00  0.00     0.074 A 
ATOM     36  C   UNL     1       9.375   8.644   6.700  1.00  0.00     0.031 C 
ATOM     37  C   UNL     1       9.489   6.665   8.191  1.00  0.00     0.031 A 
BRANCH  24  38
ATOM     38  C   UNL     1       7.375   0.902   8.910  1.00  0.00    -0.014 A 
ATOM     39  C   UNL     1       8.041  -0.276   8.529  1.00  0.00     0.010 A 
ATOM     40  C   UNL     1       6.686   0.932  10.136  1.00  0.00     0.010 A 
ATOM     41  C   UNL     1       7.984  -1.415   9.339  1.00  0.00     0.020 A 
ATOM     42  C   UNL     1       6.646  -0.197  10.960  1.00  0.00     0.020 A 
ATOM     43  C   UNL     1       7.280  -1.370  10.546  1.00  0.00     0.054 A 
BRANCH  43  44
ATOM     44  S   UNL     1       7.229  -2.856  11.586  1.00  0.00     0.124 S 
ATOM     45  O   UNL     1       6.258  -3.685  10.875  1.00  0.00    -0.237 OA
ATOM     46  O   UNL     1       8.610  -3.330  11.541  1.00  0.00    -0.237 OA
ATOM     47  O   UNL     1       6.787  -2.355  12.885  1.00  0.00    -0.744 OA
ENDBRANCH  43  44
ENDBRANCH  24  38
BRANCH  25  48
ATOM     48  C   UNL     1       7.171   9.034   3.124  1.00  0.00    -0.014 A 
ATOM     49  C   UNL     1       8.300   9.382   2.363  1.00  0.00     0.010 A 
ATOM     50  C   UNL     1       6.008   9.820   3.028  1.00  0.00     0.010 A 
ATOM     51  C   UNL     1       8.270  10.501   1.527  1.00  0.00     0.020 A 
ATOM     52  C   UNL     1       5.966  10.924   2.174  1.00  0.00     0.020 A 
ATOM     53  C   UNL     1       7.102  11.264   1.436  1.00  0.00     0.054 A 
BRANCH  53  54
ATOM     54  S   UNL     1       7.059  12.674   0.295  1.00  0.00     0.124 S 
ATOM     55  O   UNL     1       7.787  13.692   1.046  1.00  0.00    -0.237 OA
ATOM     56  O   UNL     1       7.739  12.149  -0.886  1.00  0.00    -0.237 OA
ATOM     57  O   UNL     1       5.630  12.924   0.119  1.00  0.00    -0.744 OA
ENDBRANCH  53  54
ENDBRANCH  25  48
BRANCH  37  58
ATOM     58  C   UNL     1      10.452   7.432   9.054  1.00  0.00    -0.014 A 
ATOM     59  C   UNL     1      10.014   8.486   9.874  1.00  0.00     0.010 A 
ATOM     60  C   UNL     1      11.812   7.075   9.060  1.00  0.00     0.010 A 
ATOM     61  C   UNL     1      10.928   9.199  10.654  1.00  0.00     0.020 A 
ATOM     62  C   UNL     1      12.725   7.770   9.856  1.00  0.00     0.020 A 
ATOM     63  C   UNL     1      12.279   8.841  10.635  1.00  0.00     0.054 A 
BRANCH  63  64
ATOM     64  S   UNL     1      13.448   9.765  11.670  1.00  0.00     0.124 S 
ATOM     65  O   UNL     1      13.649  10.981  10.887  1.00  0.00    -0.237 OA
ATOM     66  O   UNL     1      12.709   9.936  12.919  1.00  0.00    -0.237 OA
ATOM     67  O   UNL     1      14.606   8.879  11.756  1.00  0.00    -0.744 OA
ENDBRANCH  63  64
ENDBRANCH  37  58
ENDBRANCH  11  12
ENDBRANCH   4   6
ENDBRANCH   1   2
BRANCH   1  68
ATOM     68  C   UNL     1       4.837  -2.572  -0.302  1.00  0.00     0.023 C 
BRANCH  68  69
ATOM     69  C   UNL     1       4.380  -3.531  -1.398  1.00  0.00     0.023 C 
BRANCH  69  70
ATOM     70  C   UNL     1       4.832  -3.174  -2.812  1.00  0.00     0.116 C 
BRANCH  70  71
ATOM     71  N   UNL     1       6.281  -3.149  -2.952  1.00  0.00    -0.352 N 
ATOM     72  C   UNL     1       7.088  -3.901  -3.766  1.00  0.00     0.255 C 
ATOM     73  H   UNL     1       6.749  -2.498  -2.381  1.00  0.00     0.163 HD
ATOM     74  O   UNL     1       8.310  -3.836  -3.659  1.00  0.00    -0.269 OA
BRANCH  72  75
ATOM     75  C   UNL     1       6.459  -4.769  -4.734  1.00  0.00     0.091 A 
ATOM     76  C   UNL     1       5.470  -4.456  -5.707  1.00  0.00     0.065 A 
ATOM     77  C   UNL     1       6.746  -6.113  -4.899  1.00  0.00     0.221 A 
ATOM     78  C   UNL     1       5.119  -5.642  -6.308  1.00  0.00     0.135 A 
ATOM     79  O   UNL     1       5.900  -6.654  -5.836  1.00  0.00    -0.451 OA
BRANCH  77  80
ATOM     80  C   UNL     1       7.717  -7.029  -4.248  1.00  0.00     0.450 C 
ATOM     81  F   UNL     1       7.180  -8.260  -4.030  1.00  0.00    -0.163 F 
ATOM     82  F   UNL     1       8.825  -7.219  -5.009  1.00  0.00    -0.163 F 
ATOM     83  F   UNL     1       8.134  -6.582  -3.037  1.00  0.00    -0.163 F 
ENDBRANCH  77  80
BRANCH  78  84
ATOM     84  C   UNL     1       4.107  -5.996  -7.285  1.00  0.00     0.019 A 
ATOM     85  C   UNL     1       3.910  -5.195  -8.418  1.00  0.00     0.012 A 
ATOM     86  C   UNL     1       3.264  -7.093  -7.067  1.00  0.00     0.032 A 
ATOM     87  C   UNL     1       2.885  -5.483  -9.321  1.00  0.00     0.002 A 
ATOM     88  C   UNL     1       2.233  -7.367  -7.965  1.00  0.00     0.041 A 
ATOM     89  C   UNL     1       2.040  -6.567  -9.090  1.00  0.00     0.020 A 
ATOM     90  Cl  UNL     1       1.172  -8.690  -7.669  1.00  0.00    -0.084 Cl
ENDBRANCH  78  84
ENDBRANCH  72  75
ENDBRANCH  70  71
ENDBRANCH  69  70
ENDBRANCH  68  69
ENDBRANCH   1  68
TORSDOF 16
