REMARK SMILES C[C@@]1(C(=O)c2ccccc2N)[C@H](C(=O)NCCCCNC(=O)c2ccc(-c3c4nc(c(-c5ccc(S(=O)(=O)[O-])cc5)c5ccc([nH]5)c(-c5ccc(S(=O)(=O)[O-])cc5)c5nc(c(-c6ccc(S(=O)(=O)[O-])cc6)c6ccc3[nH]6)C=C5)C=C4)cc2)[C@@H]1C(=O)N1CCOCC1
REMARK SMILES IDX 17 1 16 2 15 3 13 4 14 5 12 7 1 8 2 9 83 10 3 11 4 12 5 13
REMARK SMILES IDX 6 14 10 15 7 16 9 17 8 18 11 19 84 22 85 23 86 24 87 25
REMARK SMILES IDX 91 26 88 27 90 28 89 29 18 30 19 31 20 32 21 33 22 35 23 36
REMARK SMILES IDX 24 37 82 38 25 39 81 40 26 41 27 42 28 43 75 44 29 45 80 46
REMARK SMILES IDX 74 47 76 48 30 49 79 50 73 51 72 52 31 54 61 55 42 56 60 57
REMARK SMILES IDX 43 58 46 59 59 60 77 61 44 62 45 63 58 65 78 66 47 67 32 68
REMARK SMILES IDX 33 69 41 70 34 71 40 72 35 73 36 74 37 75 38 76 39 77 62 78
REMARK SMILES IDX 63 79 71 80 64 81 70 82 65 83 66 84 67 85 68 86 69 87 48 88
REMARK SMILES IDX 49 89 57 90 50 91 56 92 51 93 52 94 53 95 54 96 55 97
REMARK H PARENT 15 6 11 20 11 21 20 34 76 53 46 64
REMARK Flexibility Score: inf
ROOT
ATOM      1  C   UNL     1      -1.763  -2.761  -4.172  1.00  0.00     0.023 C 
ENDROOT
BRANCH   1   2
ATOM      2  C   UNL     1      -1.171  -3.326  -2.885  1.00  0.00     0.116 C 
BRANCH   2   3
ATOM      3  N   UNL     1       0.268  -3.237  -2.886  1.00  0.00    -0.356 N 
ATOM      4  C   UNL     1       1.207  -2.821  -1.993  1.00  0.00     0.224 C 
ATOM      5  O   UNL     1       2.370  -2.849  -2.401  1.00  0.00    -0.275 OA
ATOM      6  H   UNL     1       0.664  -3.551  -3.730  1.00  0.00     0.163 HD
BRANCH   4   7
ATOM      7  C   UNL     1       1.021  -2.430  -0.571  1.00  0.00     0.106 C 
ATOM      8  C   UNL     1       0.958  -0.398   1.038  1.00  0.00     0.022 C 
ATOM      9  C   UNL     1       0.222  -1.203  -0.052  1.00  0.00     0.056 C 
ATOM     10  C   UNL     1      -0.088  -2.634   0.388  1.00  0.00     0.106 C 
BRANCH   9  11
ATOM     11  C   UNL     1      -0.243  -0.285  -1.169  1.00  0.00     0.172 C 
ATOM     12  O   UNL     1       0.640   0.465  -1.599  1.00  0.00    -0.293 OA
BRANCH  11  13
ATOM     13  C   UNL     1      -1.579  -0.107  -1.817  1.00  0.00     0.041 A 
ATOM     14  C   UNL     1      -1.486   0.345  -3.161  1.00  0.00     0.014 A 
ATOM     15  C   UNL     1      -2.863  -0.269  -1.272  1.00  0.00     0.042 A 
ATOM     16  C   UNL     1      -2.608   0.566  -3.963  1.00  0.00     0.001 A 
ATOM     17  C   UNL     1      -3.988  -0.058  -2.106  1.00  0.00     0.026 A 
ATOM     18  C   UNL     1      -3.867   0.331  -3.441  1.00  0.00     0.002 A 
BRANCH  15  19
ATOM     19  N   UNL     1      -3.129  -0.440   0.089  1.00  0.00    -0.398 N 
ATOM     20  H   UNL     1      -2.389  -0.590   0.721  1.00  0.00     0.156 HD
ATOM     21  H   UNL     1      -4.057  -0.408   0.417  1.00  0.00     0.156 HD
ENDBRANCH  15  19
ENDBRANCH  11  13
ENDBRANCH   9  11
BRANCH  10  22
ATOM     22  C   UNL     1      -1.326  -3.384   0.214  1.00  0.00     0.227 C 
ATOM     23  O   UNL     1      -2.399  -2.797   0.393  1.00  0.00    -0.275 OA
ATOM     24  N   UNL     1      -1.281  -4.746   0.013  1.00  0.00    -0.338 N 
ATOM     25  C   UNL     1      -0.213  -5.596   0.549  1.00  0.00     0.148 C 
ATOM     26  C   UNL     1      -2.551  -5.431  -0.240  1.00  0.00     0.148 C 
ATOM     27  C   UNL     1      -0.138  -6.956  -0.148  1.00  0.00     0.181 C 
ATOM     28  C   UNL     1      -2.340  -6.760  -0.958  1.00  0.00     0.181 C 
ATOM     29  O   UNL     1      -1.425  -7.584  -0.224  1.00  0.00    -0.378 OA
ENDBRANCH  10  22
ENDBRANCH   4   7
ENDBRANCH   2   3
ENDBRANCH   1   2
BRANCH   1  30
ATOM     30  C   UNL     1      -2.325  -3.779  -5.147  1.00  0.00     0.023 C 
BRANCH  30  31
ATOM     31  C   UNL     1      -3.428  -4.668  -4.587  1.00  0.00     0.116 C 
BRANCH  31  32
ATOM     32  N   UNL     1      -4.487  -3.966  -3.862  1.00  0.00    -0.352 N 
ATOM     33  C   UNL     1      -5.854  -4.113  -3.966  1.00  0.00     0.251 C 
ATOM     34  H   UNL     1      -4.181  -3.296  -3.210  1.00  0.00     0.163 HD
ATOM     35  O   UNL     1      -6.613  -3.412  -3.305  1.00  0.00    -0.269 OA
BRANCH  33  36
ATOM     36  C   UNL     1      -6.387  -5.088  -4.939  1.00  0.00     0.039 A 
ATOM     37  C   UNL     1      -7.274  -4.646  -5.922  1.00  0.00     0.014 A 
ATOM     38  C   UNL     1      -5.870  -6.383  -4.977  1.00  0.00     0.014 A 
ATOM     39  C   UNL     1      -7.528  -5.459  -7.029  1.00  0.00     0.010 A 
ATOM     40  C   UNL     1      -6.034  -7.138  -6.130  1.00  0.00     0.010 A 
ATOM     41  C   UNL     1      -6.840  -6.674  -7.182  1.00  0.00    -0.014 A 
BRANCH  41  42
ATOM     42  C   UNL     1      -6.883  -7.449  -8.451  1.00  0.00     0.031 A 
ATOM     43  C   UNL     1      -7.298  -8.894  -8.437  1.00  0.00     0.074 A 
ATOM     44  C   UNL     1      -6.405  -6.900  -9.587  1.00  0.00     0.049 A 
ATOM     45  N   UNL     1      -7.236  -9.780  -9.398  1.00  0.00    -0.248 NA
ATOM     46  C   UNL     1      -7.794  -9.427  -7.158  1.00  0.00     0.031 C 
ATOM     47  C   UNL     1      -5.879  -5.538  -9.724  1.00  0.00     0.029 A 
ATOM     48  N   UNL     1      -6.261  -7.434 -10.845  1.00  0.00    -0.354 N 
ATOM     49  C   UNL     1      -7.625 -10.984  -8.824  1.00  0.00     0.074 A 
ATOM     50  C   UNL     1      -7.882 -10.721  -7.424  1.00  0.00     0.031 C 
ATOM     51  C   UNL     1      -5.495  -5.337 -10.994  1.00  0.00     0.029 A 
ATOM     52  C   UNL     1      -5.707  -6.564 -11.755  1.00  0.00     0.049 A 
ATOM     53  H   UNL     1      -6.528  -8.353 -11.074  1.00  0.00     0.167 HD
ATOM     54  C   UNL     1      -7.772 -12.197  -9.409  1.00  0.00     0.031 A 
ATOM     55  C   UNL     1      -5.396  -6.730 -13.055  1.00  0.00     0.031 A 
ATOM     56  C   UNL     1      -7.573 -12.445 -10.810  1.00  0.00     0.049 A 
ATOM     57  C   UNL     1      -5.668  -8.052 -13.713  1.00  0.00     0.074 A 
ATOM     58  C   UNL     1      -7.799 -13.611 -11.519  1.00  0.00     0.029 A 
ATOM     59  N   UNL     1      -7.110 -11.505 -11.719  1.00  0.00    -0.354 N 
ATOM     60  N   UNL     1      -6.118  -9.159 -13.172  1.00  0.00    -0.248 NA
ATOM     61  C   UNL     1      -5.407  -8.144 -15.155  1.00  0.00     0.031 C 
ATOM     62  C   UNL     1      -7.449 -13.383 -12.855  1.00  0.00     0.029 A 
ATOM     63  C   UNL     1      -7.037 -12.066 -12.982  1.00  0.00     0.049 A 
ATOM     64  H   UNL     1      -6.868 -10.577 -11.498  1.00  0.00     0.167 HD
ATOM     65  C   UNL     1      -6.208 -10.077 -14.211  1.00  0.00     0.074 A 
ATOM     66  C   UNL     1      -5.780  -9.391 -15.414  1.00  0.00     0.031 C 
ATOM     67  C   UNL     1      -6.610 -11.371 -14.169  1.00  0.00     0.031 A 
BRANCH  54  68
ATOM     68  C   UNL     1      -8.165 -13.341  -8.514  1.00  0.00    -0.014 A 
ATOM     69  C   UNL     1      -9.448 -13.411  -7.942  1.00  0.00     0.010 A 
ATOM     70  C   UNL     1      -7.226 -14.345  -8.216  1.00  0.00     0.010 A 
ATOM     71  C   UNL     1      -9.761 -14.420  -7.029  1.00  0.00     0.020 A 
ATOM     72  C   UNL     1      -7.546 -15.374  -7.326  1.00  0.00     0.020 A 
ATOM     73  C   UNL     1      -8.801 -15.386  -6.714  1.00  0.00     0.054 A 
BRANCH  73  74
ATOM     74  S   UNL     1      -9.214 -16.668  -5.499  1.00  0.00     0.124 S 
ATOM     75  O   UNL     1      -9.018 -15.957  -4.238  1.00  0.00    -0.237 OA
ATOM     76  O   UNL     1     -10.600 -16.993  -5.827  1.00  0.00    -0.237 OA
ATOM     77  O   UNL     1      -8.248 -17.728  -5.776  1.00  0.00    -0.744 OA
ENDBRANCH  73  74
ENDBRANCH  54  68
BRANCH  55  78
ATOM     78  C   UNL     1      -4.821  -5.592 -13.821  1.00  0.00    -0.014 A 
ATOM     79  C   UNL     1      -5.633  -4.845 -14.692  1.00  0.00     0.010 A 
ATOM     80  C   UNL     1      -3.481  -5.210 -13.634  1.00  0.00     0.010 A 
ATOM     81  C   UNL     1      -5.116  -3.732 -15.361  1.00  0.00     0.020 A 
ATOM     82  C   UNL     1      -2.966  -4.086 -14.287  1.00  0.00     0.020 A 
ATOM     83  C   UNL     1      -3.786  -3.356 -15.149  1.00  0.00     0.054 A 
BRANCH  83  84
ATOM     84  S   UNL     1      -3.163  -1.851 -15.951  1.00  0.00     0.124 S 
ATOM     85  O   UNL     1      -2.923  -2.310 -17.315  1.00  0.00    -0.237 OA
ATOM     86  O   UNL     1      -4.275  -0.918 -15.783  1.00  0.00    -0.237 OA
ATOM     87  O   UNL     1      -1.967  -1.526 -15.177  1.00  0.00    -0.744 OA
ENDBRANCH  83  84
ENDBRANCH  55  78
BRANCH  67  88
ATOM     88  C   UNL     1      -6.629 -12.130 -15.466  1.00  0.00    -0.014 A 
ATOM     89  C   UNL     1      -5.439 -12.603 -16.045  1.00  0.00     0.010 A 
ATOM     90  C   UNL     1      -7.860 -12.429 -16.077  1.00  0.00     0.010 A 
ATOM     91  C   UNL     1      -5.479 -13.348 -17.226  1.00  0.00     0.020 A 
ATOM     92  C   UNL     1      -7.904 -13.190 -17.247  1.00  0.00     0.020 A 
ATOM     93  C   UNL     1      -6.712 -13.636 -17.821  1.00  0.00     0.054 A 
BRANCH  93  94
ATOM     94  S   UNL     1      -6.745 -14.654 -19.322  1.00  0.00     0.124 S 
ATOM     95  O   UNL     1      -6.356 -13.691 -20.349  1.00  0.00    -0.237 OA
ATOM     96  O   UNL     1      -5.763 -15.694 -19.030  1.00  0.00    -0.237 OA
ATOM     97  O   UNL     1      -8.130 -15.117 -19.393  1.00  0.00    -0.744 OA
ENDBRANCH  93  94
ENDBRANCH  67  88
ENDBRANCH  41  42
ENDBRANCH  33  36
ENDBRANCH  31  32
ENDBRANCH  30  31
ENDBRANCH   1  30
TORSDOF 18
