REMARK SMILES O=C(NCCCCNC(=O)c1cc2c(c(S(=O)(=O)Nc3cc(C(F)(F)F)ccc3-n3cccn3)c1)CCC2)c1ccc(-c2c3nc(c(-c4ccc(S(=O)(=O)[O-])cc4)c4ccc([nH]4)c(-c4ccc(S(=O)(=O)[O-])cc4)c4nc(c(-c5ccc(S(=O)(=O)[O-])cc5)c5ccc2[nH]5)C=C4)C=C3)cc1
REMARK SMILES IDX 6 1 5 2 4 3 3 4 1 5 2 6 39 8 40 9 98 10 41 11 97 12 42 13
REMARK SMILES IDX 43 14 44 15 91 16 45 17 96 18 90 19 92 20 46 21 95 22 89 23
REMARK SMILES IDX 88 24 47 26 77 27 58 28 76 29 59 30 62 31 75 32 93 33 60 34
REMARK SMILES IDX 61 35 74 37 94 38 63 39 48 40 49 41 57 42 50 43 56 44 51 45
REMARK SMILES IDX 52 46 53 47 54 48 55 49 78 50 79 51 87 52 80 53 86 54 81 55
REMARK SMILES IDX 82 56 83 57 84 58 85 59 64 60 65 61 73 62 66 63 72 64 67 65
REMARK SMILES IDX 68 66 69 67 70 68 71 69 7 70 8 71 9 72 10 74 11 75 12 76
REMARK SMILES IDX 35 77 13 78 15 79 14 80 38 81 36 82 37 83 16 84 17 85 18 86
REMARK SMILES IDX 19 87 20 89 21 90 29 91 22 92 28 93 27 94 30 95 31 96 34 97
REMARK SMILES IDX 32 98 33 99 23 100 24 101 25 102 26 103
REMARK H PARENT 3 7 92 25 62 36 8 73 19 88
REMARK Flexibility Score: inf
ROOT
ATOM      1  C   UNL     1       4.705  -2.132  -2.687  1.00  0.00     0.023 C 
ENDROOT
BRANCH   1   2
ATOM      2  C   UNL     1       5.174  -1.528  -1.366  1.00  0.00     0.023 C 
BRANCH   2   3
ATOM      3  C   UNL     1       4.949  -0.024  -1.199  1.00  0.00     0.116 C 
BRANCH   3   4
ATOM      4  N   UNL     1       3.574   0.425  -1.306  1.00  0.00    -0.352 N 
ATOM      5  O   UNL     1       1.504   1.049  -0.832  1.00  0.00    -0.269 OA
ATOM      6  C   UNL     1       2.494   0.411  -0.462  1.00  0.00     0.251 C 
ATOM      7  H   UNL     1       3.371   0.830  -2.180  1.00  0.00     0.163 HD
BRANCH   6   8
ATOM      8  C   UNL     1       2.418  -0.366   0.804  1.00  0.00     0.039 A 
ATOM      9  C   UNL     1       3.511  -0.903   1.485  1.00  0.00     0.014 A 
ATOM     10  C   UNL     1       1.129  -0.599   1.317  1.00  0.00     0.014 A 
ATOM     11  C   UNL     1       3.324  -1.770   2.557  1.00  0.00     0.010 A 
ATOM     12  C   UNL     1       0.939  -1.426   2.420  1.00  0.00     0.010 A 
ATOM     13  C   UNL     1       2.037  -2.059   3.003  1.00  0.00    -0.014 A 
BRANCH  13  14
ATOM     14  C   UNL     1       1.895  -2.990   4.122  1.00  0.00     0.031 A 
ATOM     15  C   UNL     1       2.427  -2.546   5.446  1.00  0.00     0.074 A 
ATOM     16  C   UNL     1       1.169  -4.122   4.024  1.00  0.00     0.049 A 
ATOM     17  N   UNL     1       3.217  -3.171   6.261  1.00  0.00    -0.248 NA
ATOM     18  C   UNL     1       2.043  -1.199   5.899  1.00  0.00     0.031 C 
ATOM     19  C   UNL     1       0.325  -4.537   2.900  1.00  0.00     0.029 A 
ATOM     20  N   UNL     1       0.911  -5.062   4.978  1.00  0.00    -0.354 N 
ATOM     21  C   UNL     1       3.304  -2.373   7.402  1.00  0.00     0.074 A 
ATOM     22  C   UNL     1       2.644  -1.131   7.086  1.00  0.00     0.031 C 
ATOM     23  C   UNL     1      -0.541  -5.479   3.330  1.00  0.00     0.029 A 
ATOM     24  C   UNL     1      -0.222  -5.815   4.708  1.00  0.00     0.049 A 
ATOM     25  H   UNL     1       1.472  -5.193   5.776  1.00  0.00     0.167 HD
ATOM     26  C   UNL     1       3.759  -2.822   8.605  1.00  0.00     0.031 A 
ATOM     27  C   UNL     1      -0.926  -6.569   5.587  1.00  0.00     0.031 A 
ATOM     28  C   UNL     1       4.500  -4.045   8.512  1.00  0.00     0.049 A 
ATOM     29  C   UNL     1      -0.057  -6.858   6.750  1.00  0.00     0.074 A 
ATOM     30  C   UNL     1       5.672  -4.437   7.898  1.00  0.00     0.029 A 
ATOM     31  N   UNL     1       3.875  -5.205   8.899  1.00  0.00    -0.354 N 
ATOM     32  N   UNL     1       1.014  -7.598   6.692  1.00  0.00    -0.248 NA
ATOM     33  C   UNL     1      -0.169  -6.025   7.937  1.00  0.00     0.031 C 
ATOM     34  C   UNL     1       5.467  -5.800   7.537  1.00  0.00     0.029 A 
ATOM     35  C   UNL     1       4.184  -6.155   7.959  1.00  0.00     0.049 A 
ATOM     36  H   UNL     1       3.314  -5.330   9.698  1.00  0.00     0.167 HD
ATOM     37  C   UNL     1       1.890  -7.040   7.611  1.00  0.00     0.074 A 
ATOM     38  C   UNL     1       1.062  -6.164   8.433  1.00  0.00     0.031 C 
ATOM     39  C   UNL     1       3.243  -7.128   7.445  1.00  0.00     0.031 A 
BRANCH  26  40
ATOM     40  C   UNL     1       3.247  -2.296   9.923  1.00  0.00    -0.014 A 
ATOM     41  C   UNL     1       3.916  -2.625  11.119  1.00  0.00     0.010 A 
ATOM     42  C   UNL     1       1.968  -1.711  10.040  1.00  0.00     0.010 A 
ATOM     43  C   UNL     1       3.312  -2.417  12.368  1.00  0.00     0.020 A 
ATOM     44  C   UNL     1       1.377  -1.460  11.280  1.00  0.00     0.020 A 
ATOM     45  C   UNL     1       2.038  -1.851  12.437  1.00  0.00     0.054 A 
BRANCH  45  46
ATOM     46  S   UNL     1       1.213  -1.704  14.043  1.00  0.00     0.124 S 
ATOM     47  O   UNL     1       0.937  -3.101  14.365  1.00  0.00    -0.237 OA
ATOM     48  O   UNL     1       2.232  -1.054  14.862  1.00  0.00    -0.237 OA
ATOM     49  O   UNL     1       0.040  -0.884  13.750  1.00  0.00    -0.744 OA
ENDBRANCH  45  46
ENDBRANCH  26  40
BRANCH  27  50
ATOM     50  C   UNL     1      -2.399  -6.734   5.607  1.00  0.00    -0.014 A 
ATOM     51  C   UNL     1      -3.012  -7.763   6.342  1.00  0.00     0.010 A 
ATOM     52  C   UNL     1      -3.227  -5.717   5.083  1.00  0.00     0.010 A 
ATOM     53  C   UNL     1      -4.399  -7.754   6.571  1.00  0.00     0.020 A 
ATOM     54  C   UNL     1      -4.607  -5.709   5.294  1.00  0.00     0.020 A 
ATOM     55  C   UNL     1      -5.186  -6.719   6.054  1.00  0.00     0.054 A 
BRANCH  55  56
ATOM     56  S   UNL     1      -6.950  -6.634   6.475  1.00  0.00     0.124 S 
ATOM     57  O   UNL     1      -7.502  -7.755   5.721  1.00  0.00    -0.237 OA
ATOM     58  O   UNL     1      -6.937  -6.793   7.927  1.00  0.00    -0.237 OA
ATOM     59  O   UNL     1      -7.354  -5.311   6.003  1.00  0.00    -0.744 OA
ENDBRANCH  55  56
ENDBRANCH  27  50
BRANCH  39  60
ATOM     60  C   UNL     1       3.772  -8.086   6.401  1.00  0.00    -0.014 A 
ATOM     61  C   UNL     1       3.482  -7.945   5.029  1.00  0.00     0.010 A 
ATOM     62  C   UNL     1       4.719  -9.050   6.789  1.00  0.00     0.010 A 
ATOM     63  C   UNL     1       4.104  -8.760   4.074  1.00  0.00     0.020 A 
ATOM     64  C   UNL     1       5.356  -9.856   5.839  1.00  0.00     0.020 A 
ATOM     65  C   UNL     1       5.042  -9.710   4.486  1.00  0.00     0.054 A 
BRANCH  65  66
ATOM     66  S   UNL     1       5.899 -10.704   3.232  1.00  0.00     0.124 S 
ATOM     67  O   UNL     1       4.846 -11.599   2.762  1.00  0.00    -0.237 OA
ATOM     68  O   UNL     1       6.346  -9.698   2.271  1.00  0.00    -0.237 OA
ATOM     69  O   UNL     1       6.975 -11.353   3.980  1.00  0.00    -0.744 OA
ENDBRANCH  65  66
ENDBRANCH  39  60
ENDBRANCH  13  14
ENDBRANCH   6   8
ENDBRANCH   3   4
ENDBRANCH   2   3
ENDBRANCH   1   2
BRANCH   1  70
ATOM     70  C   UNL     1       5.161  -1.419  -3.953  1.00  0.00     0.116 C 
BRANCH  70  71
ATOM     71  N   UNL     1       6.609  -1.369  -4.143  1.00  0.00    -0.352 N 
ATOM     72  C   UNL     1       7.314  -1.406  -5.333  1.00  0.00     0.251 C 
ATOM     73  H   UNL     1       7.149  -1.300  -3.323  1.00  0.00     0.163 HD
ATOM     74  O   UNL     1       8.539  -1.373  -5.355  1.00  0.00    -0.269 OA
BRANCH  72  75
ATOM     75  C   UNL     1       6.554  -1.522  -6.600  1.00  0.00     0.041 A 
ATOM     76  C   UNL     1       5.536  -0.601  -6.848  1.00  0.00     0.018 A 
ATOM     77  C   UNL     1       6.736  -2.657  -7.420  1.00  0.00     0.036 A 
ATOM     78  C   UNL     1       4.567  -0.961  -7.758  1.00  0.00    -0.043 A 
ATOM     79  C   UNL     1       5.776  -2.978  -8.397  1.00  0.00     0.092 A 
ATOM     80  C   UNL     1       4.641  -2.173  -8.468  1.00  0.00    -0.024 A 
ATOM     81  C   UNL     1       3.253  -0.271  -7.970  1.00  0.00     0.036 C 
ATOM     82  C   UNL     1       3.291  -2.445  -9.059  1.00  0.00     0.037 C 
ATOM     83  C   UNL     1       2.731  -1.027  -9.190  1.00  0.00     0.010 C 
BRANCH  79  84
ATOM     84  S   UNL     1       5.898  -4.520  -9.281  1.00  0.00     0.262 S 
ATOM     85  O   UNL     1       7.086  -5.201  -8.821  1.00  0.00    -0.201 OA
ATOM     86  O   UNL     1       4.609  -5.186  -9.219  1.00  0.00    -0.201 OA
BRANCH  84  87
ATOM     87  N   UNL     1       6.214  -4.211 -10.936  1.00  0.00    -0.277 N 
ATOM     88  H   UNL     1       6.995  -4.625 -11.370  1.00  0.00     0.180 HD
BRANCH  87  89
ATOM     89  C   UNL     1       5.351  -3.352 -11.694  1.00  0.00     0.075 A 
ATOM     90  C   UNL     1       4.145  -3.872 -12.194  1.00  0.00     0.042 A 
ATOM     91  C   UNL     1       5.609  -1.976 -11.809  1.00  0.00     0.089 A 
ATOM     92  C   UNL     1       3.168  -3.023 -12.754  1.00  0.00     0.058 A 
ATOM     93  C   UNL     1       4.649  -1.131 -12.390  1.00  0.00     0.031 A 
ATOM     94  C   UNL     1       3.442  -1.653 -12.863  1.00  0.00     0.015 A 
BRANCH  91  95
ATOM     95  N   UNL     1       6.800  -1.396 -11.300  1.00  0.00    -0.239 N 
ATOM     96  C   UNL     1       8.038  -1.982 -11.147  1.00  0.00     0.115 A 
ATOM     97  N   UNL     1       6.802  -0.123 -10.825  1.00  0.00    -0.177 NA
ATOM     98  C   UNL     1       8.778  -1.149 -10.346  1.00  0.00     0.042 A 
ATOM     99  C   UNL     1       7.952  -0.033 -10.151  1.00  0.00     0.135 A 
ENDBRANCH  91  95
BRANCH  92 100
ATOM    100  C   UNL     1       1.818  -3.572 -13.158  1.00  0.00     0.416 C 
ATOM    101  F   UNL     1       1.880  -4.324 -14.290  1.00  0.00    -0.166 F 
ATOM    102  F   UNL     1       1.270  -4.370 -12.202  1.00  0.00    -0.166 F 
ATOM    103  F   UNL     1       0.893  -2.602 -13.404  1.00  0.00    -0.166 F 
ENDBRANCH  92 100
ENDBRANCH  87  89
ENDBRANCH  84  87
ENDBRANCH  79  84
ENDBRANCH  72  75
ENDBRANCH  70  71
ENDBRANCH   1  70
TORSDOF 19
