REMARK SMILES COc1ccc2c(c1)c(Cc1nc(-c3ccc(C(=O)NCCCCNC(=O)c4ccc(-c5c6nc(c(-c7ccc(S(=O)(=O)[O-])cc7)c7ccc([nH]7)c(-c7ccc(S(=O)(=O)[O-])cc7)c7nc(c(-c8ccc(S(=O)(=O)[O-])cc8)c8ccc5[nH]8)C=C7)C=C6)cc4)cc3)cs1)c(C)n2C(=O)c1ccc(Cl)cc1
REMARK SMILES IDX 21 1 20 2 18 3 19 4 17 6 14 7 15 8 89 9 16 10 88 11 13 12
REMARK SMILES IDX 11 13 12 14 91 15 90 16 10 17 9 18 3 19 4 20 8 21 5 22 7 23
REMARK SMILES IDX 6 24 94 25 92 26 93 27 2 28 1 29 95 30 96 31 97 32 98 33
REMARK SMILES IDX 103 34 99 35 102 36 100 37 101 38 22 39 23 40 24 41 25 42
REMARK SMILES IDX 26 43 27 45 28 46 29 47 87 48 30 49 86 50 31 51 32 52 33 53
REMARK SMILES IDX 80 54 34 55 85 56 79 57 81 58 35 59 84 60 78 61 77 62 36 64
REMARK SMILES IDX 66 65 47 66 65 67 48 68 51 69 64 70 82 71 49 72 50 73 63 75
REMARK SMILES IDX 83 76 52 77 37 78 38 79 46 80 39 81 45 82 40 83 41 84 42 85
REMARK SMILES IDX 43 86 44 87 67 88 68 89 76 90 69 91 75 92 70 93 71 94 72 95
REMARK SMILES IDX 73 96 74 97 53 98 54 99 62 100 55 101 61 102 56 103 57 104
REMARK SMILES IDX 58 105 59 106 60 107
REMARK H PARENT 20 5 25 44 81 63 51 74
REMARK Flexibility Score: inf
ROOT
ATOM      1  C   UNL     1      -4.142   4.893   2.644  1.00  0.00     0.116 C 
ENDROOT
BRANCH   1   2
ATOM      2  N   UNL     1      -3.356   5.571   3.662  1.00  0.00    -0.352 N 
ATOM      3  C   UNL     1      -2.491   5.088   4.619  1.00  0.00     0.251 C 
ATOM      4  O   UNL     1      -1.905   5.896   5.340  1.00  0.00    -0.269 OA
ATOM      5  H   UNL     1      -3.461   6.550   3.668  1.00  0.00     0.163 HD
BRANCH   3   6
ATOM      6  C   UNL     1      -2.294   3.632   4.867  1.00  0.00     0.039 A 
ATOM      7  C   UNL     1      -2.225   0.892   5.538  1.00  0.00     0.001 A 
ATOM      8  C   UNL     1      -2.041   1.864   6.526  1.00  0.00     0.011 A 
ATOM      9  C   UNL     1      -2.308   1.306   4.200  1.00  0.00     0.011 A 
ATOM     10  C   UNL     1      -2.082   3.224   6.193  1.00  0.00     0.014 A 
ATOM     11  C   UNL     1      -2.308   2.664   3.864  1.00  0.00     0.014 A 
BRANCH   7  12
ATOM     12  C   UNL     1      -2.333  -0.526   5.852  1.00  0.00     0.081 A 
ATOM     13  C   UNL     1      -2.181  -2.691   5.377  1.00  0.00     0.098 A 
ATOM     14  N   UNL     1      -2.040  -1.475   4.895  1.00  0.00    -0.241 NA
ATOM     15  S   UNL     1      -2.767  -2.764   6.990  1.00  0.00    -0.126 S 
ATOM     16  C   UNL     1      -2.791  -1.046   7.046  1.00  0.00     0.095 A 
BRANCH  13  17
ATOM     17  C   UNL     1      -1.902  -3.937   4.588  1.00  0.00     0.105 C 
BRANCH  17  18
ATOM     18  C   UNL     1      -0.439  -4.101   4.251  1.00  0.00    -0.012 A 
ATOM     19  C   UNL     1       0.881  -1.539   1.733  1.00  0.00     0.119 A 
ATOM     20  C   UNL     1       2.131  -2.111   1.581  1.00  0.00     0.048 A 
ATOM     21  C   UNL     1      -0.038  -2.139   2.591  1.00  0.00     0.057 A 
ATOM     22  C   UNL     1       2.481  -3.267   2.293  1.00  0.00     0.031 A 
ATOM     23  C   UNL     1       0.298  -3.286   3.348  1.00  0.00     0.008 A 
ATOM     24  C   UNL     1       1.582  -3.824   3.231  1.00  0.00     0.057 A 
ATOM     25  N   UNL     1       1.692  -4.891   4.148  1.00  0.00    -0.280 N 
ATOM     26  C   UNL     1       0.425  -5.080   4.727  1.00  0.00     0.028 A 
ATOM     27  C   UNL     1       0.061  -6.148   5.713  1.00  0.00     0.065 C 
BRANCH  19  28
ATOM     28  O   UNL     1       0.445  -0.394   1.127  1.00  0.00    -0.497 OA
ATOM     29  C   UNL     1       1.082  -0.049  -0.095  1.00  0.00     0.278 C 
ENDBRANCH  19  28
BRANCH  25  30
ATOM     30  C   UNL     1       2.875  -5.641   4.413  1.00  0.00     0.262 C 
ATOM     31  O   UNL     1       2.803  -6.660   5.110  1.00  0.00    -0.268 OA
BRANCH  30  32
ATOM     32  C   UNL     1       4.218  -5.343   3.890  1.00  0.00     0.040 A 
ATOM     33  C   UNL     1       4.876  -4.152   4.218  1.00  0.00     0.015 A 
ATOM     34  C   UNL     1       4.808  -6.271   3.023  1.00  0.00     0.015 A 
ATOM     35  C   UNL     1       6.092  -3.851   3.597  1.00  0.00     0.021 A 
ATOM     36  C   UNL     1       6.026  -5.969   2.414  1.00  0.00     0.021 A 
ATOM     37  C   UNL     1       6.652  -4.752   2.688  1.00  0.00     0.041 A 
ATOM     38  Cl  UNL     1       8.115  -4.350   1.878  1.00  0.00    -0.084 Cl
ENDBRANCH  30  32
ENDBRANCH  25  30
ENDBRANCH  17  18
ENDBRANCH  13  17
ENDBRANCH   7  12
ENDBRANCH   3   6
ENDBRANCH   1   2
BRANCH   1  39
ATOM     39  C   UNL     1      -5.574   5.395   2.496  1.00  0.00     0.023 C 
BRANCH  39  40
ATOM     40  C   UNL     1      -5.774   6.851   2.077  1.00  0.00     0.023 C 
BRANCH  40  41
ATOM     41  C   UNL     1      -5.008   7.324   0.842  1.00  0.00     0.116 C 
BRANCH  41  42
ATOM     42  N   UNL     1      -5.131   6.487  -0.334  1.00  0.00    -0.352 N 
ATOM     43  C   UNL     1      -5.983   6.436  -1.405  1.00  0.00     0.251 C 
ATOM     44  H   UNL     1      -4.438   5.789  -0.373  1.00  0.00     0.163 HD
ATOM     45  O   UNL     1      -5.602   5.744  -2.353  1.00  0.00    -0.269 OA
BRANCH  43  46
ATOM     46  C   UNL     1      -7.326   7.079  -1.483  1.00  0.00     0.039 A 
ATOM     47  C   UNL     1      -7.872   7.944  -0.537  1.00  0.00     0.014 A 
ATOM     48  C   UNL     1      -8.120   6.718  -2.592  1.00  0.00     0.014 A 
ATOM     49  C   UNL     1      -9.200   8.357  -0.644  1.00  0.00     0.010 A 
ATOM     50  C   UNL     1      -9.443   7.141  -2.712  1.00  0.00     0.010 A 
ATOM     51  C   UNL     1      -9.997   7.934  -1.715  1.00  0.00    -0.014 A 
BRANCH  51  52
ATOM     52  C   UNL     1     -11.357   8.466  -1.813  1.00  0.00     0.031 A 
ATOM     53  C   UNL     1     -11.440   9.947  -1.966  1.00  0.00     0.074 A 
ATOM     54  C   UNL     1     -12.483   7.723  -1.862  1.00  0.00     0.049 A 
ATOM     55  N   UNL     1     -11.963  10.797  -1.145  1.00  0.00    -0.248 NA
ATOM     56  C   UNL     1     -10.767  10.563  -3.118  1.00  0.00     0.031 C 
ATOM     57  C   UNL     1     -12.606   6.272  -2.006  1.00  0.00     0.029 A 
ATOM     58  N   UNL     1     -13.782   8.145  -1.888  1.00  0.00    -0.354 N 
ATOM     59  C   UNL     1     -11.830  12.050  -1.738  1.00  0.00     0.074 A 
ATOM     60  C   UNL     1     -10.985  11.860  -2.892  1.00  0.00     0.031 C 
ATOM     61  C   UNL     1     -13.883   5.964  -2.336  1.00  0.00     0.029 A 
ATOM     62  C   UNL     1     -14.692   7.170  -2.281  1.00  0.00     0.049 A 
ATOM     63  H   UNL     1     -14.051   9.062  -1.649  1.00  0.00     0.167 HD
ATOM     64  C   UNL     1     -12.548  13.130  -1.319  1.00  0.00     0.031 A 
ATOM     65  C   UNL     1     -16.000   7.357  -2.596  1.00  0.00     0.031 A 
ATOM     66  C   UNL     1     -13.154  12.898  -0.036  1.00  0.00     0.049 A 
ATOM     67  C   UNL     1     -16.436   8.627  -1.971  1.00  0.00     0.074 A 
ATOM     68  C   UNL     1     -12.668  12.644   1.230  1.00  0.00     0.029 A 
ATOM     69  N   UNL     1     -14.484  12.555  -0.016  1.00  0.00    -0.354 N 
ATOM     70  N   UNL     1     -16.573   8.793  -0.687  1.00  0.00    -0.248 NA
ATOM     71  C   UNL     1     -16.347   9.849  -2.755  1.00  0.00     0.031 C 
ATOM     72  C   UNL     1     -13.594  11.726   1.798  1.00  0.00     0.029 A 
ATOM     73  C   UNL     1     -14.627  11.528   0.879  1.00  0.00     0.049 A 
ATOM     74  H   UNL     1     -15.202  12.970  -0.547  1.00  0.00     0.167 HD
ATOM     75  C   UNL     1     -16.144  10.090  -0.455  1.00  0.00     0.074 A 
ATOM     76  C   UNL     1     -16.122  10.723  -1.771  1.00  0.00     0.031 C 
ATOM     77  C   UNL     1     -15.582  10.447   0.737  1.00  0.00     0.031 A 
BRANCH  64  78
ATOM     78  C   UNL     1     -12.951  14.295  -2.187  1.00  0.00    -0.014 A 
ATOM     79  C   UNL     1     -12.859  14.280  -3.592  1.00  0.00     0.010 A 
ATOM     80  C   UNL     1     -13.676  15.360  -1.607  1.00  0.00     0.010 A 
ATOM     81  C   UNL     1     -13.450  15.270  -4.382  1.00  0.00     0.020 A 
ATOM     82  C   UNL     1     -14.311  16.333  -2.391  1.00  0.00     0.020 A 
ATOM     83  C   UNL     1     -14.187  16.283  -3.777  1.00  0.00     0.054 A 
BRANCH  83  84
ATOM     84  S   UNL     1     -15.030  17.480  -4.840  1.00  0.00     0.124 S 
ATOM     85  O   UNL     1     -13.905  18.210  -5.419  1.00  0.00    -0.237 OA
ATOM     86  O   UNL     1     -15.763  16.618  -5.762  1.00  0.00    -0.237 OA
ATOM     87  O   UNL     1     -15.857  18.244  -3.909  1.00  0.00    -0.744 OA
ENDBRANCH  83  84
ENDBRANCH  64  78
BRANCH  65  88
ATOM     88  C   UNL     1     -16.790   6.719  -3.682  1.00  0.00    -0.014 A 
ATOM     89  C   UNL     1     -16.134   6.191  -4.811  1.00  0.00     0.010 A 
ATOM     90  C   UNL     1     -18.181   6.933  -3.770  1.00  0.00     0.010 A 
ATOM     91  C   UNL     1     -16.814   5.989  -6.016  1.00  0.00     0.020 A 
ATOM     92  C   UNL     1     -18.869   6.739  -4.980  1.00  0.00     0.020 A 
ATOM     93  C   UNL     1     -18.167   6.312  -6.107  1.00  0.00     0.054 A 
BRANCH  93  94
ATOM     94  S   UNL     1     -18.951   6.275  -7.745  1.00  0.00     0.124 S 
ATOM     95  O   UNL     1     -18.268   7.371  -8.430  1.00  0.00    -0.237 OA
ATOM     96  O   UNL     1     -18.617   4.935  -8.225  1.00  0.00    -0.237 OA
ATOM     97  O   UNL     1     -20.364   6.498  -7.462  1.00  0.00    -0.744 OA
ENDBRANCH  93  94
ENDBRANCH  65  88
BRANCH  77  98
ATOM     98  C   UNL     1     -15.718   9.528   1.933  1.00  0.00    -0.014 A 
ATOM     99  C   UNL     1     -16.089  10.122   3.155  1.00  0.00     0.010 A 
ATOM    100  C   UNL     1     -15.313   8.179   1.943  1.00  0.00     0.010 A 
ATOM    101  C   UNL     1     -16.020   9.413   4.354  1.00  0.00     0.020 A 
ATOM    102  C   UNL     1     -15.274   7.449   3.142  1.00  0.00     0.020 A 
ATOM    103  C   UNL     1     -15.603   8.082   4.343  1.00  0.00     0.054 A 
BRANCH 103 104
ATOM    104  S   UNL     1     -15.479   7.214   5.930  1.00  0.00     0.124 S 
ATOM    105  O   UNL     1     -14.303   7.838   6.532  1.00  0.00    -0.237 OA
ATOM    106  O   UNL     1     -16.752   7.535   6.573  1.00  0.00    -0.237 OA
ATOM    107  O   UNL     1     -15.314   5.812   5.556  1.00  0.00    -0.744 OA
ENDBRANCH 103 104
ENDBRANCH  77  98
ENDBRANCH  51  52
ENDBRANCH  43  46
ENDBRANCH  41  42
ENDBRANCH  40  41
ENDBRANCH  39  40
ENDBRANCH   1  39
TORSDOF 20
