REMARK SMILES NC(=O)c1ccc(NC(=O)Cc2ccccc2C(=O)NCCCCNC(=O)c2ccc(-c3c4nc(c(-c5ccc(S(=O)(=O)[O-])cc5)c5ccc([nH]5)c(-c5ccc(S(=O)(=O)[O-])cc5)c5nc(c(-c6ccc(S(=O)(=O)[O-])cc6)c6ccc3[nH]6)C=C5)C=C4)cc2)cc1
REMARK SMILES IDX 22 1 21 2 20 3 18 4 19 5 17 7 12 8 13 9 14 10 16 11 15 12
REMARK SMILES IDX 11 13 9 14 8 15 10 17 7 18 4 19 5 20 89 21 6 22 88 23 2 24
REMARK SMILES IDX 1 25 3 28 23 29 24 30 25 31 26 32 27 34 28 35 29 36 87 37
REMARK SMILES IDX 30 38 86 39 31 40 32 41 33 42 80 43 34 44 85 45 79 46 81 47
REMARK SMILES IDX 35 48 84 49 78 50 77 51 36 53 66 54 47 55 65 56 48 57 51 58
REMARK SMILES IDX 64 59 82 60 49 61 50 62 63 64 83 65 52 66 37 67 38 68 46 69
REMARK SMILES IDX 39 70 45 71 40 72 41 73 42 74 43 75 44 76 67 77 68 78 76 79
REMARK SMILES IDX 69 80 75 81 70 82 71 83 72 84 73 85 74 86 53 87 54 88 62 89
REMARK SMILES IDX 55 90 61 91 56 92 57 93 58 94 59 95 60 96
REMARK H PARENT 20 6 8 16 1 26 1 27 25 33 81 52 51 63
REMARK Flexibility Score: inf
ROOT
ATOM      1  C   UNL     1       1.986   3.627   7.431  1.00  0.00     0.023 C 
ENDROOT
BRANCH   1   2
ATOM      2  C   UNL     1       1.529   3.083   6.070  1.00  0.00     0.116 C 
BRANCH   2   3
ATOM      3  N   UNL     1       0.075   2.996   6.040  1.00  0.00    -0.352 N 
ATOM      4  C   UNL     1      -1.030   3.683   5.626  1.00  0.00     0.251 C 
ATOM      5  O   UNL     1      -2.085   3.162   6.016  1.00  0.00    -0.269 OA
ATOM      6  H   UNL     1      -0.207   2.154   6.464  1.00  0.00     0.163 HD
BRANCH   4   7
ATOM      7  C   UNL     1      -1.164   4.888   4.721  1.00  0.00     0.043 A 
ATOM      8  C   UNL     1      -0.290   5.966   4.442  1.00  0.00    -0.026 A 
ATOM      9  C   UNL     1      -0.731   7.015   3.592  1.00  0.00     0.005 A 
ATOM     10  C   UNL     1      -1.971   6.987   2.965  1.00  0.00     0.000 A 
ATOM     11  C   UNL     1      -2.404   4.880   4.027  1.00  0.00     0.014 A 
ATOM     12  C   UNL     1      -2.802   5.902   3.163  1.00  0.00     0.001 A 
BRANCH   8  13
ATOM     13  C   UNL     1       1.083   6.162   5.007  1.00  0.00     0.136 C 
BRANCH  13  14
ATOM     14  C   UNL     1       2.259   6.357   4.049  1.00  0.00     0.228 C 
ATOM     15  N   UNL     1       2.649   5.590   2.994  1.00  0.00    -0.326 N 
ATOM     16  H   UNL     1       3.480   5.938   2.597  1.00  0.00     0.169 HD
ATOM     17  O   UNL     1       3.011   7.323   4.273  1.00  0.00    -0.274 OA
BRANCH  15  18
ATOM     18  C   UNL     1       2.208   4.445   2.305  1.00  0.00     0.041 A 
ATOM     19  C   UNL     1       1.381   2.211   0.770  1.00  0.00     0.039 A 
ATOM     20  C   UNL     1       0.682   2.585   1.908  1.00  0.00     0.016 A 
ATOM     21  C   UNL     1       2.515   2.935   0.397  1.00  0.00     0.016 A 
ATOM     22  C   UNL     1       1.120   3.674   2.663  1.00  0.00     0.027 A 
ATOM     23  C   UNL     1       2.918   4.049   1.161  1.00  0.00     0.027 A 
BRANCH  19  24
ATOM     24  C   UNL     1       0.863   1.056   0.002  1.00  0.00     0.248 C 
ATOM     25  N   UNL     1       1.784   0.187  -0.502  1.00  0.00    -0.366 N 
ATOM     26  H   UNL     1       1.489  -0.597  -1.020  1.00  0.00     0.159 HD
ATOM     27  H   UNL     1       2.744   0.344  -0.349  1.00  0.00     0.159 HD
ATOM     28  O   UNL     1      -0.339   0.864  -0.127  1.00  0.00    -0.270 OA
ENDBRANCH  19  24
ENDBRANCH  15  18
ENDBRANCH  13  14
ENDBRANCH   8  13
ENDBRANCH   4   7
ENDBRANCH   2   3
ENDBRANCH   1   2
BRANCH   1  29
ATOM     29  C   UNL     1       2.899   2.668   8.188  1.00  0.00     0.023 C 
BRANCH  29  30
ATOM     30  C   UNL     1       4.273   2.501   7.553  1.00  0.00     0.116 C 
BRANCH  30  31
ATOM     31  N   UNL     1       5.093   3.702   7.647  1.00  0.00    -0.352 N 
ATOM     32  C   UNL     1       6.415   3.804   8.023  1.00  0.00     0.251 C 
ATOM     33  H   UNL     1       4.646   4.547   7.411  1.00  0.00     0.163 HD
ATOM     34  O   UNL     1       6.944   4.896   8.166  1.00  0.00    -0.269 OA
BRANCH  32  35
ATOM     35  C   UNL     1       7.168   2.562   8.294  1.00  0.00     0.039 A 
ATOM     36  C   UNL     1       7.803   2.412   9.528  1.00  0.00     0.014 A 
ATOM     37  C   UNL     1       7.159   1.518   7.365  1.00  0.00     0.014 A 
ATOM     38  C   UNL     1       8.357   1.176   9.866  1.00  0.00     0.010 A 
ATOM     39  C   UNL     1       7.643   0.268   7.735  1.00  0.00     0.010 A 
ATOM     40  C   UNL     1       8.239   0.082   8.992  1.00  0.00    -0.014 A 
BRANCH  40  41
ATOM     41  C   UNL     1       8.710  -1.268   9.388  1.00  0.00     0.031 A 
ATOM     42  C   UNL     1       9.824  -1.934   8.629  1.00  0.00     0.074 A 
ATOM     43  C   UNL     1       8.090  -1.921  10.392  1.00  0.00     0.049 A 
ATOM     44  N   UNL     1      10.351  -3.118   8.810  1.00  0.00    -0.248 NA
ATOM     45  C   UNL     1      10.402  -1.185   7.501  1.00  0.00     0.031 C 
ATOM     46  C   UNL     1       6.954  -1.410  11.164  1.00  0.00     0.029 A 
ATOM     47  N   UNL     1       8.326  -3.160  10.934  1.00  0.00    -0.354 N 
ATOM     48  C   UNL     1      11.309  -3.261   7.814  1.00  0.00     0.074 A 
ATOM     49  C   UNL     1      11.252  -2.068   6.998  1.00  0.00     0.031 C 
ATOM     50  C   UNL     1       6.617  -2.311  12.101  1.00  0.00     0.029 A 
ATOM     51  C   UNL     1       7.488  -3.474  11.979  1.00  0.00     0.049 A 
ATOM     52  H   UNL     1       9.029  -3.766  10.606  1.00  0.00     0.167 HD
ATOM     53  C   UNL     1      12.174  -4.283   7.609  1.00  0.00     0.031 A 
ATOM     54  C   UNL     1       7.431  -4.574  12.755  1.00  0.00     0.031 A 
ATOM     55  C   UNL     1      12.241  -5.460   8.432  1.00  0.00     0.049 A 
ATOM     56  C   UNL     1       8.418  -5.685  12.523  1.00  0.00     0.074 A 
ATOM     57  C   UNL     1      13.124  -6.522   8.346  1.00  0.00     0.029 A 
ATOM     58  N   UNL     1      11.391  -5.731   9.494  1.00  0.00    -0.354 N 
ATOM     59  N   UNL     1       9.367  -5.768  11.621  1.00  0.00    -0.248 NA
ATOM     60  C   UNL     1       8.336  -6.842  13.424  1.00  0.00     0.031 C 
ATOM     61  C   UNL     1      12.782  -7.455   9.332  1.00  0.00     0.029 A 
ATOM     62  C   UNL     1      11.717  -6.951  10.061  1.00  0.00     0.049 A 
ATOM     63  H   UNL     1      10.663  -5.142   9.799  1.00  0.00     0.167 HD
ATOM     64  C   UNL     1      10.008  -6.979  11.858  1.00  0.00     0.074 A 
ATOM     65  C   UNL     1       9.351  -7.582  13.001  1.00  0.00     0.031 C 
ATOM     66  C   UNL     1      11.046  -7.540  11.191  1.00  0.00     0.031 A 
BRANCH  53  67
ATOM     67  C   UNL     1      13.120  -4.162   6.444  1.00  0.00    -0.014 A 
ATOM     68  C   UNL     1      14.175  -3.232   6.463  1.00  0.00     0.010 A 
ATOM     69  C   UNL     1      12.968  -5.002   5.327  1.00  0.00     0.010 A 
ATOM     70  C   UNL     1      15.031  -3.109   5.365  1.00  0.00     0.020 A 
ATOM     71  C   UNL     1      13.839  -4.902   4.238  1.00  0.00     0.020 A 
ATOM     72  C   UNL     1      14.853  -3.942   4.256  1.00  0.00     0.054 A 
BRANCH  72  73
ATOM     73  S   UNL     1      15.984  -3.769   2.849  1.00  0.00     0.124 S 
ATOM     74  O   UNL     1      15.503  -2.538   2.227  1.00  0.00    -0.237 OA
ATOM     75  O   UNL     1      17.291  -3.677   3.495  1.00  0.00    -0.237 OA
ATOM     76  O   UNL     1      15.760  -4.987   2.074  1.00  0.00    -0.744 OA
ENDBRANCH  72  73
ENDBRANCH  53  67
BRANCH  54  77
ATOM     77  C   UNL     1       6.423  -4.664  13.846  1.00  0.00    -0.014 A 
ATOM     78  C   UNL     1       6.819  -4.553  15.190  1.00  0.00     0.010 A 
ATOM     79  C   UNL     1       5.061  -4.846  13.546  1.00  0.00     0.010 A 
ATOM     80  C   UNL     1       5.874  -4.641  16.217  1.00  0.00     0.020 A 
ATOM     81  C   UNL     1       4.110  -4.910  14.569  1.00  0.00     0.020 A 
ATOM     82  C   UNL     1       4.525  -4.818  15.899  1.00  0.00     0.054 A 
BRANCH  82  83
ATOM     83  S   UNL     1       3.308  -4.874  17.244  1.00  0.00     0.124 S 
ATOM     84  O   UNL     1       3.512  -6.214  17.782  1.00  0.00    -0.237 OA
ATOM     85  O   UNL     1       3.735  -3.773  18.104  1.00  0.00    -0.237 OA
ATOM     86  O   UNL     1       2.035  -4.659  16.559  1.00  0.00    -0.744 OA
ENDBRANCH  82  83
ENDBRANCH  54  77
BRANCH  66  87
ATOM     87  C   UNL     1      11.547  -8.867  11.694  1.00  0.00    -0.014 A 
ATOM     88  C   UNL     1      10.807 -10.045  11.495  1.00  0.00     0.010 A 
ATOM     89  C   UNL     1      12.793  -8.939  12.343  1.00  0.00     0.010 A 
ATOM     90  C   UNL     1      11.287 -11.268  11.969  1.00  0.00     0.020 A 
ATOM     91  C   UNL     1      13.289 -10.164  12.795  1.00  0.00     0.020 A 
ATOM     92  C   UNL     1      12.523 -11.319  12.621  1.00  0.00     0.054 A 
BRANCH  92  93
ATOM     93  S   UNL     1      13.140 -12.922  13.203  1.00  0.00     0.124 S 
ATOM     94  O   UNL     1      12.337 -13.138  14.403  1.00  0.00    -0.237 OA
ATOM     95  O   UNL     1      12.844 -13.809  12.080  1.00  0.00    -0.237 OA
ATOM     96  O   UNL     1      14.562 -12.680  13.439  1.00  0.00    -0.744 OA
ENDBRANCH  92  93
ENDBRANCH  66  87
ENDBRANCH  40  41
ENDBRANCH  32  35
ENDBRANCH  30  31
ENDBRANCH  29  30
ENDBRANCH   1  29
TORSDOF 18
