REMARK SMILES Cc1ccc(S(=O)(=O)n2cc(C(=O)C(=O)NCC(=O)NCCCCNC(=O)c3ccc(-c4c5nc(c(-c6ccc(S(=O)(=O)[O-])cc6)c6ccc([nH]6)c(-c6ccc(S(=O)(=O)[O-])cc6)c6nc(c(-c7ccc(S(=O)(=O)[O-])cc7)c7ccc4[nH]7)C=C6)C=C5)cc3)c3ccccc32)cc1
REMARK SMILES IDX 21 1 20 2 18 3 19 4 17 6 16 7 14 8 15 9 12 11 13 12 11 13
REMARK SMILES IDX 9 14 10 15 93 16 88 17 92 18 89 19 91 20 90 21 6 22 7 23
REMARK SMILES IDX 8 24 5 25 1 26 2 27 3 28 95 29 4 30 94 31 22 32 23 33 24 34
REMARK SMILES IDX 25 35 26 36 27 38 28 39 29 40 87 41 30 42 86 43 31 44 32 45
REMARK SMILES IDX 33 46 80 47 34 48 85 49 79 50 81 51 35 52 84 53 78 54 77 55
REMARK SMILES IDX 36 57 66 58 47 59 65 60 48 61 51 62 64 63 82 64 49 65 50 66
REMARK SMILES IDX 63 68 83 69 52 70 37 71 38 72 46 73 39 74 45 75 40 76 41 77
REMARK SMILES IDX 42 78 43 79 44 80 67 81 68 82 76 83 69 84 75 85 70 86 71 87
REMARK SMILES IDX 72 88 73 89 74 90 53 91 54 92 62 93 55 94 61 95 56 96 57 97
REMARK SMILES IDX 58 98 59 99 60 100
REMARK H PARENT 20 5 16 10 25 37 81 56 51 67
REMARK Flexibility Score: inf
ROOT
ATOM      1  C   UNL     1      -9.367   4.718   0.919  1.00  0.00     0.116 C 
ENDROOT
BRANCH   1   2
ATOM      2  N   UNL     1      -9.910   5.721   1.821  1.00  0.00    -0.355 N 
ATOM      3  C   UNL     1      -9.287   6.439   2.800  1.00  0.00     0.239 C 
ATOM      4  O   UNL     1      -9.941   7.275   3.429  1.00  0.00    -0.273 OA
ATOM      5  H   UNL     1     -10.870   5.909   1.710  1.00  0.00     0.163 HD
BRANCH   3   6
ATOM      6  C   UNL     1      -7.784   6.282   3.027  1.00  0.00     0.216 C 
BRANCH   6   7
ATOM      7  N   UNL     1      -7.395   4.927   3.400  1.00  0.00    -0.340 N 
ATOM      8  C   UNL     1      -6.445   4.085   2.863  1.00  0.00     0.292 C 
ATOM      9  O   UNL     1      -6.243   3.005   3.409  1.00  0.00    -0.265 OA
ATOM     10  H   UNL     1      -7.894   4.551   4.161  1.00  0.00     0.164 HD
BRANCH   8  11
ATOM     11  C   UNL     1      -5.638   4.490   1.604  1.00  0.00     0.252 C 
ATOM     12  O   UNL     1      -5.467   5.689   1.393  1.00  0.00    -0.283 OA
BRANCH  11  13
ATOM     13  C   UNL     1      -5.050   3.489   0.700  1.00  0.00     0.054 A 
ATOM     14  N   UNL     1      -4.202   1.587  -0.118  1.00  0.00    -0.240 N 
ATOM     15  C   UNL     1      -4.870   2.139   0.947  1.00  0.00     0.117 A 
ATOM     16  C   UNL     1      -3.963   2.528  -1.096  1.00  0.00     0.065 A 
ATOM     17  C   UNL     1      -4.491   3.732  -0.608  1.00  0.00     0.012 A 
ATOM     18  C   UNL     1      -3.308   2.453  -2.340  1.00  0.00     0.028 A 
ATOM     19  C   UNL     1      -4.374   4.888  -1.414  1.00  0.00     0.011 A 
ATOM     20  C   UNL     1      -3.185   3.621  -3.097  1.00  0.00     0.002 A 
ATOM     21  C   UNL     1      -3.717   4.822  -2.646  1.00  0.00     0.001 A 
BRANCH  14  22
ATOM     22  S   UNL     1      -3.590  -0.004  -0.110  1.00  0.00     0.268 S 
ATOM     23  O   UNL     1      -3.884  -0.545  -1.429  1.00  0.00    -0.201 OA
ATOM     24  O   UNL     1      -4.062  -0.616   1.109  1.00  0.00    -0.201 OA
BRANCH  22  25
ATOM     25  C   UNL     1      -1.818   0.077   0.016  1.00  0.00     0.088 A 
ATOM     26  C   UNL     1       2.484  -0.018   0.025  1.00  0.00     0.044 C 
ATOM     27  C   UNL     1       0.984   0.021   0.048  1.00  0.00    -0.051 A 
ATOM     28  C   UNL     1       0.257  -1.172  -0.029  1.00  0.00     0.005 A 
ATOM     29  C   UNL     1       0.294   1.237   0.141  1.00  0.00     0.005 A 
ATOM     30  C   UNL     1      -1.137  -1.146  -0.051  1.00  0.00     0.022 A 
ATOM     31  C   UNL     1      -1.105   1.269   0.137  1.00  0.00     0.022 A 
ENDBRANCH  22  25
ENDBRANCH  14  22
ENDBRANCH  11  13
ENDBRANCH   8  11
ENDBRANCH   6   7
ENDBRANCH   3   6
ENDBRANCH   1   2
BRANCH   1  32
ATOM     32  C   UNL     1      -9.714   3.289   1.355  1.00  0.00     0.023 C 
BRANCH  32  33
ATOM     33  C   UNL     1     -11.212   2.987   1.402  1.00  0.00     0.023 C 
BRANCH  33  34
ATOM     34  C   UNL     1     -11.900   3.028   0.045  1.00  0.00     0.116 C 
BRANCH  34  35
ATOM     35  N   UNL     1     -12.122   1.724  -0.562  1.00  0.00    -0.352 N 
ATOM     36  C   UNL     1     -13.097   1.421  -1.507  1.00  0.00     0.251 C 
ATOM     37  H   UNL     1     -11.530   0.991  -0.279  1.00  0.00     0.163 HD
ATOM     38  O   UNL     1     -13.631   0.325  -1.604  1.00  0.00    -0.269 OA
BRANCH  36  39
ATOM     39  C   UNL     1     -13.345   2.459  -2.529  1.00  0.00     0.039 A 
ATOM     40  C   UNL     1     -12.845   2.223  -3.817  1.00  0.00     0.014 A 
ATOM     41  C   UNL     1     -13.699   3.734  -2.110  1.00  0.00     0.014 A 
ATOM     42  C   UNL     1     -12.470   3.300  -4.604  1.00  0.00     0.010 A 
ATOM     43  C   UNL     1     -13.192   4.792  -2.813  1.00  0.00     0.010 A 
ATOM     44  C   UNL     1     -12.547   4.563  -4.034  1.00  0.00    -0.014 A 
BRANCH  44  45
ATOM     45  C   UNL     1     -12.083   5.777  -4.658  1.00  0.00     0.031 A 
ATOM     46  C   UNL     1     -13.106   6.586  -5.334  1.00  0.00     0.074 A 
ATOM     47  C   UNL     1     -10.838   6.198  -4.354  1.00  0.00     0.049 A 
ATOM     48  N   UNL     1     -12.854   7.584  -6.094  1.00  0.00    -0.248 NA
ATOM     49  C   UNL     1     -14.538   6.295  -5.227  1.00  0.00     0.031 C 
ATOM     50  C   UNL     1     -10.259   7.529  -4.477  1.00  0.00     0.029 A 
ATOM     51  N   UNL     1      -9.751   5.383  -4.053  1.00  0.00    -0.354 N 
ATOM     52  C   UNL     1     -14.041   8.257  -6.280  1.00  0.00     0.074 A 
ATOM     53  C   UNL     1     -15.072   7.361  -5.828  1.00  0.00     0.031 C 
ATOM     54  C   UNL     1      -8.917   7.413  -4.521  1.00  0.00     0.029 A 
ATOM     55  C   UNL     1      -8.614   5.991  -4.602  1.00  0.00     0.049 A 
ATOM     56  H   UNL     1      -9.777   4.537  -3.550  1.00  0.00     0.167 HD
ATOM     57  C   UNL     1     -13.976   9.567  -6.636  1.00  0.00     0.031 A 
ATOM     58  C   UNL     1      -8.016   5.397  -5.681  1.00  0.00     0.031 A 
ATOM     59  C   UNL     1     -12.588   9.934  -6.922  1.00  0.00     0.049 A 
ATOM     60  C   UNL     1      -8.167   6.218  -6.950  1.00  0.00     0.074 A 
ATOM     61  C   UNL     1     -11.611  10.571  -6.176  1.00  0.00     0.029 A 
ATOM     62  N   UNL     1     -11.929   9.268  -7.948  1.00  0.00    -0.354 N 
ATOM     63  N   UNL     1      -9.095   7.117  -7.155  1.00  0.00    -0.248 NA
ATOM     64  C   UNL     1      -7.229   6.129  -8.060  1.00  0.00     0.031 C 
ATOM     65  C   UNL     1     -10.346  10.214  -6.726  1.00  0.00     0.029 A 
ATOM     66  C   UNL     1     -10.559   9.390  -7.819  1.00  0.00     0.049 A 
ATOM     67  H   UNL     1     -12.379   8.774  -8.671  1.00  0.00     0.167 HD
ATOM     68  C   UNL     1      -8.880   7.751  -8.357  1.00  0.00     0.074 A 
ATOM     69  C   UNL     1      -7.697   7.087  -8.880  1.00  0.00     0.031 C 
ATOM     70  C   UNL     1      -9.679   8.770  -8.810  1.00  0.00     0.031 A 
BRANCH  57  71
ATOM     71  C   UNL     1     -15.094  10.568  -6.464  1.00  0.00    -0.014 A 
ATOM     72  C   UNL     1     -14.768  11.940  -6.458  1.00  0.00     0.010 A 
ATOM     73  C   UNL     1     -16.450  10.254  -6.246  1.00  0.00     0.010 A 
ATOM     74  C   UNL     1     -15.722  12.935  -6.205  1.00  0.00     0.020 A 
ATOM     75  C   UNL     1     -17.417  11.238  -5.981  1.00  0.00     0.020 A 
ATOM     76  C   UNL     1     -17.044  12.577  -5.958  1.00  0.00     0.054 A 
BRANCH  76  77
ATOM     77  S   UNL     1     -18.256  13.880  -5.629  1.00  0.00     0.124 S 
ATOM     78  O   UNL     1     -17.722  14.506  -4.422  1.00  0.00    -0.237 OA
ATOM     79  O   UNL     1     -18.184  14.688  -6.843  1.00  0.00    -0.237 OA
ATOM     80  O   UNL     1     -19.509  13.152  -5.443  1.00  0.00    -0.744 OA
ENDBRANCH  76  77
ENDBRANCH  57  71
BRANCH  58  81
ATOM     81  C   UNL     1      -8.009   3.897  -5.580  1.00  0.00    -0.014 A 
ATOM     82  C   UNL     1      -7.282   3.334  -4.502  1.00  0.00     0.010 A 
ATOM     83  C   UNL     1      -9.016   3.121  -6.181  1.00  0.00     0.010 A 
ATOM     84  C   UNL     1      -7.685   2.131  -3.912  1.00  0.00     0.020 A 
ATOM     85  C   UNL     1      -9.406   1.897  -5.603  1.00  0.00     0.020 A 
ATOM     86  C   UNL     1      -8.787   1.453  -4.429  1.00  0.00     0.054 A 
BRANCH  86  87
ATOM     87  S   UNL     1      -9.513   0.116  -3.424  1.00  0.00     0.124 S 
ATOM     88  O   UNL     1      -8.455  -0.887  -3.432  1.00  0.00    -0.237 OA
ATOM     89  O   UNL     1      -9.744   0.781  -2.138  1.00  0.00    -0.237 OA
ATOM     90  O   UNL     1     -10.720  -0.244  -4.161  1.00  0.00    -0.744 OA
ENDBRANCH  86  87
ENDBRANCH  58  81
BRANCH  70  91
ATOM     91  C   UNL     1      -9.717   9.349 -10.220  1.00  0.00    -0.014 A 
ATOM     92  C   UNL     1      -8.919   8.927 -11.289  1.00  0.00     0.010 A 
ATOM     93  C   UNL     1     -10.685  10.344 -10.531  1.00  0.00     0.010 A 
ATOM     94  C   UNL     1      -9.053   9.474 -12.574  1.00  0.00     0.020 A 
ATOM     95  C   UNL     1     -10.870  10.858 -11.817  1.00  0.00     0.020 A 
ATOM     96  C   UNL     1     -10.033  10.430 -12.832  1.00  0.00     0.054 A 
BRANCH  96  97
ATOM     97  S   UNL     1     -10.202  11.076 -14.508  1.00  0.00     0.124 S 
ATOM     98  O   UNL     1      -8.989  11.879 -14.644  1.00  0.00    -0.237 OA
ATOM     99  O   UNL     1     -10.241   9.857 -15.312  1.00  0.00    -0.237 OA
ATOM    100  O   UNL     1     -11.451  11.832 -14.468  1.00  0.00    -0.744 OA
ENDBRANCH  96  97
ENDBRANCH  70  91
ENDBRANCH  44  45
ENDBRANCH  36  39
ENDBRANCH  34  35
ENDBRANCH  33  34
ENDBRANCH  32  33
ENDBRANCH   1  32
TORSDOF 19
