REMARK SMILES Cc1n[nH]c2c1[C@@]1(C(=O)N([C@@H](C)C(=O)NCCCCNC(=O)c3ccc(-c4c5nc(c(-c6ccc(S(=O)(=O)[O-])cc6)c6ccc([nH]6)c(-c6ccc(S(=O)(=O)[O-])cc6)c6nc(c(-c7ccc(S(=O)(=O)[O-])cc7)c7ccc4[nH]7)C=C6)C=C5)cc3)c3ccccc31)C(C#N)=C(N)O2
REMARK SMILES IDX 18 1 17 2 16 3 15 4 13 5 14 6 11 8 12 9 10 10 1 11 2 12 3 13
REMARK SMILES IDX 6 14 4 15 5 16 7 17 94 19 8 20 88 21 89 22 92 23 9 24 83 25
REMARK SMILES IDX 87 26 84 27 86 28 85 29 90 30 91 31 93 32 19 35 20 36 21 37
REMARK SMILES IDX 22 39 23 40 24 41 82 42 25 43 81 44 26 45 27 46 28 47 75 48
REMARK SMILES IDX 29 49 80 50 74 51 76 52 30 53 79 54 73 55 72 56 31 58 61 59
REMARK SMILES IDX 42 60 60 61 43 62 46 63 59 64 77 65 44 66 45 67 58 69 78 70
REMARK SMILES IDX 47 71 32 72 33 73 41 74 34 75 40 76 35 77 36 78 37 79 38 80
REMARK SMILES IDX 39 81 62 82 63 83 71 84 64 85 70 86 65 87 66 88 67 89 68 90
REMARK SMILES IDX 69 91 48 92 49 93 57 94 50 95 56 96 51 97 52 98 53 99 54 100
REMARK SMILES IDX 55 101
REMARK H PARENT 15 7 4 18 93 33 93 34 20 38 76 57 46 68
REMARK Flexibility Score: inf
ROOT
ATOM      1  C   UNL     1       6.713  -0.633  -4.014  1.00  0.00     0.023 C 
ENDROOT
BRANCH   1   2
ATOM      2  C   UNL     1       5.584  -0.223  -3.071  1.00  0.00     0.023 C 
BRANCH   2   3
ATOM      3  C   UNL     1       5.990   0.660  -1.889  1.00  0.00     0.116 C 
BRANCH   3   4
ATOM      4  N   UNL     1       5.880   2.077  -2.193  1.00  0.00    -0.354 N 
ATOM      5  C   UNL     1       4.987   3.038  -1.838  1.00  0.00     0.242 C 
ATOM      6  O   UNL     1       5.244   4.186  -2.230  1.00  0.00    -0.273 OA
ATOM      7  H   UNL     1       6.600   2.409  -2.777  1.00  0.00     0.163 HD
BRANCH   5   8
ATOM      8  C   UNL     1       3.690   2.807  -1.021  1.00  0.00     0.176 C 
ATOM      9  C   UNL     1       3.876   2.212   0.371  1.00  0.00     0.042 C 
BRANCH   8  10
ATOM     10  N   UNL     1       2.620   2.197  -1.804  1.00  0.00    -0.298 N 
ATOM     11  C   UNL     1       0.218  -0.058   0.102  1.00  0.00     0.069 C 
ATOM     12  C   UNL     1      -0.038  -0.746  -1.189  1.00  0.00     0.068 A 
ATOM     13  N   UNL     1      -0.755  -1.883  -1.208  1.00  0.00    -0.177 NA
ATOM     14  C   UNL     1       0.445  -0.416  -2.482  1.00  0.00     0.063 A 
ATOM     15  N   UNL     1      -0.653  -2.317  -2.483  1.00  0.00    -0.246 N 
ATOM     16  C   UNL     1       0.065  -1.473  -3.265  1.00  0.00     0.222 A 
ATOM     17  C   UNL     1       1.344   0.632  -3.051  1.00  0.00     0.149 C 
ATOM     18  H   UNL     1      -1.056  -3.154  -2.809  1.00  0.00     0.193 HD
ATOM     19  O   UNL     1       0.391  -1.714  -4.527  1.00  0.00    -0.422 OA
ATOM     20  C   UNL     1       2.538   0.840  -2.112  1.00  0.00     0.248 C 
ATOM     21  C   UNL     1       0.639   1.959  -2.950  1.00  0.00     0.002 A 
ATOM     22  C   UNL     1       1.779   0.276  -4.470  1.00  0.00     0.114 C 
ATOM     23  C   UNL     1       1.298  -0.821  -5.125  1.00  0.00     0.208 C 
ATOM     24  O   UNL     1       3.230  -0.058  -1.631  1.00  0.00    -0.273 OA
ATOM     25  C   UNL     1       1.459   2.861  -2.255  1.00  0.00     0.050 A 
ATOM     26  C   UNL     1      -0.597   2.346  -3.453  1.00  0.00     0.008 A 
ATOM     27  C   UNL     1       1.058   4.169  -2.052  1.00  0.00     0.027 A 
ATOM     28  C   UNL     1      -1.016   3.656  -3.233  1.00  0.00     0.001 A 
ATOM     29  C   UNL     1      -0.195   4.560  -2.541  1.00  0.00     0.002 A 
BRANCH  22  30
ATOM     30  C   UNL     1       2.731   1.174  -5.242  1.00  0.00     0.102 C 
ATOM     31  N   UNL     1       3.521   1.920  -5.883  1.00  0.00    -0.193 NA
ENDBRANCH  22  30
BRANCH  23  32
ATOM     32  N   UNL     1       1.605  -1.175  -6.404  1.00  0.00    -0.369 N 
ATOM     33  H   UNL     1       2.232  -0.627  -6.929  1.00  0.00     0.159 HD
ATOM     34  H   UNL     1       1.201  -1.979  -6.803  1.00  0.00     0.159 HD
ENDBRANCH  23  32
ENDBRANCH   8  10
ENDBRANCH   5   8
ENDBRANCH   3   4
ENDBRANCH   2   3
ENDBRANCH   1   2
BRANCH   1  35
ATOM     35  C   UNL     1       7.776  -1.536  -3.377  1.00  0.00     0.116 C 
BRANCH  35  36
ATOM     36  N   UNL     1       7.218  -2.680  -2.677  1.00  0.00    -0.352 N 
ATOM     37  C   UNL     1       6.992  -3.991  -2.999  1.00  0.00     0.251 C 
ATOM     38  H   UNL     1       6.937  -2.462  -1.759  1.00  0.00     0.163 HD
ATOM     39  O   UNL     1       6.616  -4.718  -2.075  1.00  0.00    -0.269 OA
BRANCH  37  40
ATOM     40  C   UNL     1       7.161  -4.585  -4.354  1.00  0.00     0.039 A 
ATOM     41  C   UNL     1       7.320  -3.856  -5.530  1.00  0.00     0.014 A 
ATOM     42  C   UNL     1       7.076  -5.989  -4.448  1.00  0.00     0.014 A 
ATOM     43  C   UNL     1       7.378  -4.502  -6.763  1.00  0.00     0.010 A 
ATOM     44  C   UNL     1       7.134  -6.642  -5.681  1.00  0.00     0.010 A 
ATOM     45  C   UNL     1       7.266  -5.894  -6.846  1.00  0.00    -0.014 A 
BRANCH  45  46
ATOM     46  C   UNL     1       7.309  -6.476  -8.187  1.00  0.00     0.031 A 
ATOM     47  C   UNL     1       8.544  -6.241  -8.989  1.00  0.00     0.074 A 
ATOM     48  C   UNL     1       6.330  -7.221  -8.736  1.00  0.00     0.049 A 
ATOM     49  N   UNL     1       8.668  -5.568 -10.089  1.00  0.00    -0.248 NA
ATOM     50  C   UNL     1       9.804  -6.795  -8.478  1.00  0.00     0.031 C 
ATOM     51  C   UNL     1       5.179  -7.848  -8.085  1.00  0.00     0.029 A 
ATOM     52  N   UNL     1       6.226  -7.636 -10.032  1.00  0.00    -0.354 N 
ATOM     53  C   UNL     1       9.998  -5.702 -10.485  1.00  0.00     0.074 A 
ATOM     54  C   UNL     1      10.668  -6.412  -9.420  1.00  0.00     0.031 C 
ATOM     55  C   UNL     1       4.620  -8.736  -8.940  1.00  0.00     0.029 A 
ATOM     56  C   UNL     1       5.270  -8.613 -10.235  1.00  0.00     0.049 A 
ATOM     57  H   UNL     1       6.783  -7.271 -10.757  1.00  0.00     0.167 HD
ATOM     58  C   UNL     1      10.455  -5.314 -11.709  1.00  0.00     0.031 A 
ATOM     59  C   UNL     1       5.071  -9.315 -11.374  1.00  0.00     0.031 A 
ATOM     60  C   UNL     1       9.518  -4.481 -12.408  1.00  0.00     0.049 A 
ATOM     61  C   UNL     1       5.621  -8.532 -12.505  1.00  0.00     0.074 A 
ATOM     62  C   UNL     1       9.006  -3.215 -12.214  1.00  0.00     0.029 A 
ATOM     63  N   UNL     1       8.727  -5.073 -13.360  1.00  0.00    -0.354 N 
ATOM     64  N   UNL     1       5.124  -7.400 -12.919  1.00  0.00    -0.248 NA
ATOM     65  C   UNL     1       6.945  -8.851 -13.015  1.00  0.00     0.031 C 
ATOM     66  C   UNL     1       7.681  -3.262 -12.736  1.00  0.00     0.029 A 
ATOM     67  C   UNL     1       7.463  -4.552 -13.229  1.00  0.00     0.049 A 
ATOM     68  H   UNL     1       9.013  -5.748 -14.017  1.00  0.00     0.167 HD
ATOM     69  C   UNL     1       6.209  -6.688 -13.404  1.00  0.00     0.074 A 
ATOM     70  C   UNL     1       7.263  -7.681 -13.572  1.00  0.00     0.031 C 
ATOM     71  C   UNL     1       6.239  -5.322 -13.366  1.00  0.00     0.031 A 
BRANCH  58  72
ATOM     72  C   UNL     1      11.687  -5.860 -12.381  1.00  0.00    -0.014 A 
ATOM     73  C   UNL     1      12.226  -7.122 -12.061  1.00  0.00     0.010 A 
ATOM     74  C   UNL     1      12.208  -5.211 -13.521  1.00  0.00     0.010 A 
ATOM     75  C   UNL     1      13.256  -7.697 -12.812  1.00  0.00     0.020 A 
ATOM     76  C   UNL     1      13.213  -5.798 -14.305  1.00  0.00     0.020 A 
ATOM     77  C   UNL     1      13.736  -7.037 -13.939  1.00  0.00     0.054 A 
BRANCH  77  78
ATOM     78  S   UNL     1      14.975  -7.874 -14.962  1.00  0.00     0.124 S 
ATOM     79  O   UNL     1      16.164  -7.799 -14.117  1.00  0.00    -0.237 OA
ATOM     80  O   UNL     1      14.400  -9.206 -15.125  1.00  0.00    -0.237 OA
ATOM     81  O   UNL     1      15.021  -7.065 -16.178  1.00  0.00    -0.744 OA
ENDBRANCH  77  78
ENDBRANCH  58  72
BRANCH  59  82
ATOM     82  C   UNL     1       4.802 -10.769 -11.472  1.00  0.00    -0.014 A 
ATOM     83  C   UNL     1       5.259 -11.632 -10.455  1.00  0.00     0.010 A 
ATOM     84  C   UNL     1       4.382 -11.339 -12.687  1.00  0.00     0.010 A 
ATOM     85  C   UNL     1       5.372 -13.007 -10.668  1.00  0.00     0.020 A 
ATOM     86  C   UNL     1       4.498 -12.720 -12.910  1.00  0.00     0.020 A 
ATOM     87  C   UNL     1       5.028 -13.537 -11.910  1.00  0.00     0.054 A 
BRANCH  87  88
ATOM     88  S   UNL     1       5.383 -15.290 -12.216  1.00  0.00     0.124 S 
ATOM     89  O   UNL     1       6.843 -15.310 -12.197  1.00  0.00    -0.237 OA
ATOM     90  O   UNL     1       4.732 -15.945 -11.084  1.00  0.00    -0.237 OA
ATOM     91  O   UNL     1       4.770 -15.546 -13.517  1.00  0.00    -0.744 OA
ENDBRANCH  87  88
ENDBRANCH  59  82
BRANCH  71  92
ATOM     92  C   UNL     1       4.946  -4.571 -13.118  1.00  0.00    -0.014 A 
ATOM     93  C   UNL     1       4.612  -3.513 -13.985  1.00  0.00     0.010 A 
ATOM     94  C   UNL     1       4.162  -4.757 -11.962  1.00  0.00     0.010 A 
ATOM     95  C   UNL     1       3.551  -2.648 -13.693  1.00  0.00     0.020 A 
ATOM     96  C   UNL     1       3.080  -3.912 -11.678  1.00  0.00     0.020 A 
ATOM     97  C   UNL     1       2.799  -2.845 -12.532  1.00  0.00     0.054 A 
BRANCH  97  98
ATOM     98  S   UNL     1       1.476  -1.666 -12.143  1.00  0.00     0.124 S 
ATOM     99  O   UNL     1       2.228  -0.467 -11.777  1.00  0.00    -0.237 OA
ATOM    100  O   UNL     1       0.737  -1.580 -13.400  1.00  0.00    -0.237 OA
ATOM    101  O   UNL     1       0.751  -2.295 -11.040  1.00  0.00    -0.744 OA
ENDBRANCH  97  98
ENDBRANCH  71  92
ENDBRANCH  45  46
ENDBRANCH  37  40
ENDBRANCH  35  36
ENDBRANCH   1  35
TORSDOF 17
