REMARK SMILES CC(C)Cc1s/c(=N/C(=O)CCC(=O)Nc2nccs2)[nH]c1C(=O)NCCCCNC(=O)c1ccc(-c2c3nc(c(-c4ccc(S(=O)(=O)[O-])cc4)c4ccc([nH]4)c(-c4ccc(S(=O)(=O)[O-])cc4)c4nc(c(-c5ccc(S(=O)(=O)[O-])cc5)c5ccc2[nH]5)C=C4)C=C3)cc1
REMARK SMILES IDX 26 1 25 2 23 3 24 4 22 6 5 7 6 8 7 9 21 10 8 11 4 13 2 14
REMARK SMILES IDX 1 15 3 16 9 17 10 18 11 19 12 20 13 21 14 22 15 23 16 25
REMARK SMILES IDX 17 26 20 27 18 28 19 29 27 30 28 31 29 32 30 33 31 34 32 36
REMARK SMILES IDX 33 37 34 38 92 39 35 40 91 41 36 42 37 43 38 44 85 45 39 46
REMARK SMILES IDX 90 47 84 48 86 49 40 50 89 51 83 52 82 53 41 55 71 56 52 57
REMARK SMILES IDX 70 58 53 59 56 60 69 61 87 62 54 63 55 64 68 66 88 67 57 68
REMARK SMILES IDX 42 69 43 70 51 71 44 72 50 73 45 74 46 75 47 76 48 77 49 78
REMARK SMILES IDX 72 79 73 80 81 81 74 82 80 83 75 84 76 85 77 86 78 87 79 88
REMARK SMILES IDX 58 89 59 90 67 91 60 92 66 93 61 94 62 95 63 96 64 97 65 98
REMARK H PARENT 25 5 21 12 15 24 30 35 86 54 56 65
REMARK Flexibility Score: inf
ROOT
ATOM      1  C   UNL     1      -2.619  -2.366  -1.011  1.00  0.00     0.116 C 
ENDROOT
BRANCH   1   2
ATOM      2  N   UNL     1      -3.008  -1.895  -2.321  1.00  0.00    -0.351 N 
ATOM      3  C   UNL     1      -2.665  -0.783  -3.028  1.00  0.00     0.268 C 
ATOM      4  O   UNL     1      -3.258  -0.603  -4.099  1.00  0.00    -0.268 OA
ATOM      5  H   UNL     1      -3.638  -2.490  -2.790  1.00  0.00     0.163 HD
BRANCH   3   6
ATOM      6  C   UNL     1      -1.714   0.301  -2.574  1.00  0.00     0.119 A 
ATOM      7  C   UNL     1      -0.619   0.307  -1.770  1.00  0.00     0.038 A 
ATOM      8  S   UNL     1       0.078   1.932  -1.685  1.00  0.00    -0.101 S 
ATOM      9  C   UNL     1      -1.125   2.581  -2.813  1.00  0.00     0.190 A 
ATOM     10  N   UNL     1      -1.947   1.554  -3.152  1.00  0.00    -0.326 N 
ATOM     11  N   UNL     1      -1.063   3.831  -3.093  1.00  0.00    -0.185 NA
ATOM     12  H   UNL     1      -2.688   1.687  -3.787  1.00  0.00     0.169 HD
BRANCH   7  13
ATOM     13  C   UNL     1       0.027  -0.839  -1.051  1.00  0.00     0.052 C 
BRANCH  13  14
ATOM     14  C   UNL     1       1.528  -0.894  -0.681  1.00  0.00    -0.012 C 
ATOM     15  C   UNL     1       1.929   0.049   0.457  1.00  0.00     0.008 C 
ATOM     16  C   UNL     1       1.837  -2.333  -0.228  1.00  0.00     0.008 C 
ENDBRANCH  13  14
ENDBRANCH   7  13
BRANCH  11  17
ATOM     17  C   UNL     1      -2.012   4.361  -3.920  1.00  0.00     0.248 C 
ATOM     18  O   UNL     1      -2.693   3.721  -4.723  1.00  0.00    -0.273 OA
BRANCH  17  19
ATOM     19  C   UNL     1      -2.121   5.869  -3.800  1.00  0.00     0.112 C 
BRANCH  19  20
ATOM     20  C   UNL     1      -2.964   6.350  -2.626  1.00  0.00     0.110 C 
BRANCH  20  21
ATOM     21  C   UNL     1      -2.415   5.932  -1.274  1.00  0.00     0.226 C 
ATOM     22  O   UNL     1      -1.537   6.615  -0.733  1.00  0.00    -0.275 OA
ATOM     23  N   UNL     1      -2.856   4.823  -0.621  1.00  0.00    -0.302 N 
ATOM     24  H   UNL     1      -2.473   4.657   0.271  1.00  0.00     0.172 HD
BRANCH  23  25
ATOM     25  C   UNL     1      -3.769   3.916  -1.068  1.00  0.00     0.189 A 
ATOM     26  N   UNL     1      -4.450   3.922  -2.182  1.00  0.00    -0.229 NA
ATOM     27  S   UNL     1      -3.990   2.561  -0.052  1.00  0.00    -0.105 S 
ATOM     28  C   UNL     1      -5.171   2.750  -2.289  1.00  0.00     0.125 A 
ATOM     29  C   UNL     1      -5.043   1.880  -1.227  1.00  0.00     0.088 A 
ENDBRANCH  23  25
ENDBRANCH  20  21
ENDBRANCH  19  20
ENDBRANCH  17  19
ENDBRANCH  11  17
ENDBRANCH   3   6
ENDBRANCH   1   2
BRANCH   1  30
ATOM     30  C   UNL     1      -3.542  -3.400  -0.374  1.00  0.00     0.023 C 
BRANCH  30  31
ATOM     31  C   UNL     1      -3.666  -4.745  -1.095  1.00  0.00     0.023 C 
BRANCH  31  32
ATOM     32  C   UNL     1      -2.373  -5.413  -1.560  1.00  0.00     0.116 C 
BRANCH  32  33
ATOM     33  N   UNL     1      -1.457  -5.767  -0.483  1.00  0.00    -0.352 N 
ATOM     34  C   UNL     1      -0.976  -7.003  -0.101  1.00  0.00     0.251 C 
ATOM     35  H   UNL     1      -1.133  -5.009   0.055  1.00  0.00     0.163 HD
ATOM     36  O   UNL     1      -0.247  -7.097   0.882  1.00  0.00    -0.269 OA
BRANCH  34  37
ATOM     37  C   UNL     1      -1.378  -8.218  -0.845  1.00  0.00     0.039 A 
ATOM     38  C   UNL     1      -1.890  -9.310  -0.137  1.00  0.00     0.014 A 
ATOM     39  C   UNL     1      -1.297  -8.264  -2.237  1.00  0.00     0.014 A 
ATOM     40  C   UNL     1      -2.435 -10.395  -0.832  1.00  0.00     0.010 A 
ATOM     41  C   UNL     1      -1.913  -9.305  -2.926  1.00  0.00     0.010 A 
ATOM     42  C   UNL     1      -2.508 -10.372  -2.234  1.00  0.00    -0.014 A 
BRANCH  42  43
ATOM     43  C   UNL     1      -3.210 -11.428  -3.013  1.00  0.00     0.031 A 
ATOM     44  C   UNL     1      -2.450 -12.229  -4.036  1.00  0.00     0.074 A 
ATOM     45  C   UNL     1      -4.545 -11.584  -2.895  1.00  0.00     0.049 A 
ATOM     46  N   UNL     1      -2.906 -13.038  -4.957  1.00  0.00    -0.248 NA
ATOM     47  C   UNL     1      -0.987 -12.069  -4.045  1.00  0.00     0.031 C 
ATOM     48  C   UNL     1      -5.410 -10.857  -1.962  1.00  0.00     0.029 A 
ATOM     49  N   UNL     1      -5.416 -12.393  -3.586  1.00  0.00    -0.354 N 
ATOM     50  C   UNL     1      -1.793 -13.449  -5.681  1.00  0.00     0.074 A 
ATOM     51  C   UNL     1      -0.646 -12.775  -5.113  1.00  0.00     0.031 C 
ATOM     52  C   UNL     1      -6.680 -11.261  -2.130  1.00  0.00     0.029 A 
ATOM     53  C   UNL     1      -6.732 -12.236  -3.216  1.00  0.00     0.049 A 
ATOM     54  H   UNL     1      -5.125 -13.027  -4.281  1.00  0.00     0.167 HD
ATOM     55  C   UNL     1      -1.728 -14.318  -6.718  1.00  0.00     0.031 A 
ATOM     56  C   UNL     1      -7.857 -12.794  -3.706  1.00  0.00     0.031 A 
ATOM     57  C   UNL     1      -2.864 -15.014  -7.259  1.00  0.00     0.049 A 
ATOM     58  C   UNL     1      -7.761 -13.765  -4.851  1.00  0.00     0.074 A 
ATOM     59  C   UNL     1      -2.892 -15.952  -8.277  1.00  0.00     0.029 A 
ATOM     60  N   UNL     1      -4.169 -14.859  -6.820  1.00  0.00    -0.354 N 
ATOM     61  N   UNL     1      -6.695 -14.163  -5.503  1.00  0.00    -0.248 NA
ATOM     62  C   UNL     1      -9.016 -14.366  -5.325  1.00  0.00     0.031 C 
ATOM     63  C   UNL     1      -4.220 -16.341  -8.475  1.00  0.00     0.029 A 
ATOM     64  C   UNL     1      -5.011 -15.680  -7.548  1.00  0.00     0.049 A 
ATOM     65  H   UNL     1      -4.455 -14.254  -6.098  1.00  0.00     0.167 HD
ATOM     66  C   UNL     1      -7.147 -15.089  -6.438  1.00  0.00     0.074 A 
ATOM     67  C   UNL     1      -8.581 -15.191  -6.269  1.00  0.00     0.031 C 
ATOM     68  C   UNL     1      -6.434 -15.793  -7.349  1.00  0.00     0.031 A 
BRANCH  55  69
ATOM     69  C   UNL     1      -0.378 -14.560  -7.337  1.00  0.00    -0.014 A 
ATOM     70  C   UNL     1       0.616 -15.279  -6.651  1.00  0.00     0.010 A 
ATOM     71  C   UNL     1      -0.110 -14.087  -8.635  1.00  0.00     0.010 A 
ATOM     72  C   UNL     1       1.872 -15.478  -7.229  1.00  0.00     0.020 A 
ATOM     73  C   UNL     1       1.136 -14.309  -9.229  1.00  0.00     0.020 A 
ATOM     74  C   UNL     1       2.126 -14.985  -8.513  1.00  0.00     0.054 A 
BRANCH  74  75
ATOM     75  S   UNL     1       3.761 -15.265  -9.244  1.00  0.00     0.124 S 
ATOM     76  O   UNL     1       4.581 -14.293  -8.524  1.00  0.00    -0.237 OA
ATOM     77  O   UNL     1       4.022 -16.666  -8.924  1.00  0.00    -0.237 OA
ATOM     78  O   UNL     1       3.559 -14.980 -10.663  1.00  0.00    -0.744 OA
ENDBRANCH  74  75
ENDBRANCH  55  69
BRANCH  56  79
ATOM     79  C   UNL     1      -9.178 -12.456  -3.108  1.00  0.00    -0.014 A 
ATOM     80  C   UNL     1      -9.862 -13.400  -2.321  1.00  0.00     0.010 A 
ATOM     81  C   UNL     1      -9.756 -11.190  -3.313  1.00  0.00     0.010 A 
ATOM     82  C   UNL     1     -11.107 -13.092  -1.765  1.00  0.00     0.020 A 
ATOM     83  C   UNL     1     -10.990 -10.870  -2.738  1.00  0.00     0.020 A 
ATOM     84  C   UNL     1     -11.663 -11.827  -1.976  1.00  0.00     0.054 A 
BRANCH  84  85
ATOM     85  S   UNL     1     -13.256 -11.429  -1.202  1.00  0.00     0.124 S 
ATOM     86  O   UNL     1     -14.194 -12.157  -2.050  1.00  0.00    -0.237 OA
ATOM     87  O   UNL     1     -13.089 -11.951   0.152  1.00  0.00    -0.237 OA
ATOM     88  O   UNL     1     -13.324  -9.973  -1.295  1.00  0.00    -0.744 OA
ENDBRANCH  84  85
ENDBRANCH  56  79
BRANCH  68  89
ATOM     89  C   UNL     1      -7.168 -16.792  -8.200  1.00  0.00    -0.014 A 
ATOM     90  C   UNL     1      -7.951 -16.384  -9.293  1.00  0.00     0.010 A 
ATOM     91  C   UNL     1      -6.977 -18.166  -7.963  1.00  0.00     0.010 A 
ATOM     92  C   UNL     1      -8.532 -17.336 -10.135  1.00  0.00     0.020 A 
ATOM     93  C   UNL     1      -7.539 -19.119  -8.815  1.00  0.00     0.020 A 
ATOM     94  C   UNL     1      -8.317 -18.698  -9.895  1.00  0.00     0.054 A 
BRANCH  94  95
ATOM     95  S   UNL     1      -9.002 -19.911 -11.057  1.00  0.00     0.124 S 
ATOM     96  O   UNL     1     -10.418 -19.905 -10.702  1.00  0.00    -0.237 OA
ATOM     97  O   UNL     1      -8.678 -19.330 -12.357  1.00  0.00    -0.237 OA
ATOM     98  O   UNL     1      -8.284 -21.142 -10.736  1.00  0.00    -0.744 OA
ENDBRANCH  94  95
ENDBRANCH  68  89
ENDBRANCH  42  43
ENDBRANCH  34  37
ENDBRANCH  32  33
ENDBRANCH  31  32
ENDBRANCH  30  31
ENDBRANCH   1  30
TORSDOF 21
