REMARK SMILES CCCCCC[C@@H](C)N1C[C@H](C(=O)NCCCCNC(=O)c2ccc(-c3c4nc(c(-c5ccc(S(=O)(=O)[O-])cc5)c5ccc([nH]5)c(-c5ccc(S(=O)(=O)[O-])cc5)c5nc(c(-c6ccc(S(=O)(=O)[O-])cc6)c6ccc3[nH]6)C=C5)C=C4)cc2)CC1=O
REMARK SMILES IDX 15 1 14 2 12 3 13 4 11 6 9 7 10 8 83 9 82 10 84 11 7 12 8 13
REMARK SMILES IDX 6 14 5 15 4 16 3 17 2 18 1 19 16 20 17 21 18 22 19 23 20 24
REMARK SMILES IDX 21 26 22 27 23 28 81 29 24 30 80 31 25 32 26 33 27 34 74 35
REMARK SMILES IDX 28 36 79 37 73 38 75 39 29 40 78 41 72 42 71 43 30 45 60 46
REMARK SMILES IDX 41 47 59 48 42 49 45 50 58 51 76 52 43 53 44 54 57 56 77 57
REMARK SMILES IDX 46 58 31 59 32 60 40 61 33 62 39 63 34 64 35 65 36 66 37 67
REMARK SMILES IDX 38 68 61 69 62 70 70 71 63 72 69 73 64 74 65 75 66 76 67 77
REMARK SMILES IDX 68 78 47 79 48 80 56 81 49 82 55 83 50 84 51 85 52 86 53 87
REMARK SMILES IDX 54 88
REMARK H PARENT 14 5 19 25 75 44 45 55
REMARK Flexibility Score: inf
ROOT
ATOM      1  C   UNL     1       0.625 -10.297   1.330  1.00  0.00     0.116 C 
ENDROOT
BRANCH   1   2
ATOM      2  N   UNL     1       0.643  -9.299   0.277  1.00  0.00    -0.356 N 
ATOM      3  C   UNL     1      -0.337  -8.428  -0.107  1.00  0.00     0.225 C 
ATOM      4  O   UNL     1      -0.167  -7.763  -1.126  1.00  0.00    -0.275 OA
ATOM      5  H   UNL     1       1.482  -9.241  -0.235  1.00  0.00     0.163 HD
BRANCH   3   6
ATOM      6  C   UNL     1      -1.555  -8.271   0.783  1.00  0.00     0.107 C 
ATOM      7  N   UNL     1      -1.698  -6.026   1.462  1.00  0.00    -0.339 N 
ATOM      8  C   UNL     1      -1.217  -7.314   1.910  1.00  0.00     0.133 C 
ATOM      9  C   UNL     1      -2.630  -6.160   0.442  1.00  0.00     0.223 C 
ATOM     10  C   UNL     1      -2.736  -7.619   0.077  1.00  0.00     0.115 C 
ATOM     11  O   UNL     1      -3.321  -5.287  -0.065  1.00  0.00    -0.275 OA
BRANCH   7  12
ATOM     12  C   UNL     1      -1.246  -4.781   2.114  1.00  0.00     0.082 C 
ATOM     13  C   UNL     1      -1.701  -4.745   3.575  1.00  0.00     0.031 C 
BRANCH  12  14
ATOM     14  C   UNL     1      -1.646  -3.492   1.364  1.00  0.00     0.025 C 
BRANCH  14  15
ATOM     15  C   UNL     1      -1.008  -2.196   1.884  1.00  0.00     0.002 C 
BRANCH  15  16
ATOM     16  C   UNL     1       0.520  -2.145   1.802  1.00  0.00     0.000 C 
BRANCH  16  17
ATOM     17  C   UNL     1       1.100  -2.253   0.387  1.00  0.00    -0.000 C 
BRANCH  17  18
ATOM     18  C   UNL     1       0.641  -1.168  -0.592  1.00  0.00    -0.003 C 
ATOM     19  C   UNL     1       1.007   0.240  -0.148  1.00  0.00     0.004 C 
ENDBRANCH  17  18
ENDBRANCH  16  17
ENDBRANCH  15  16
ENDBRANCH  14  15
ENDBRANCH  12  14
ENDBRANCH   7  12
ENDBRANCH   3   6
ENDBRANCH   1   2
BRANCH   1  20
ATOM     20  C   UNL     1       0.419 -11.699   0.757  1.00  0.00     0.023 C 
BRANCH  20  21
ATOM     21  C   UNL     1       1.559 -12.187  -0.144  1.00  0.00     0.023 C 
BRANCH  21  22
ATOM     22  C   UNL     1       2.943 -12.172   0.495  1.00  0.00     0.116 C 
BRANCH  22  23
ATOM     23  N   UNL     1       3.020 -13.001   1.687  1.00  0.00    -0.352 N 
ATOM     24  C   UNL     1       3.976 -13.918   2.048  1.00  0.00     0.251 C 
ATOM     25  H   UNL     1       2.280 -12.889   2.327  1.00  0.00     0.163 HD
ATOM     26  O   UNL     1       3.784 -14.637   3.025  1.00  0.00    -0.269 OA
BRANCH  24  27
ATOM     27  C   UNL     1       5.216 -14.058   1.253  1.00  0.00     0.039 A 
ATOM     28  C   UNL     1       5.701 -15.340   0.984  1.00  0.00     0.014 A 
ATOM     29  C   UNL     1       5.909 -12.937   0.785  1.00  0.00     0.014 A 
ATOM     30  C   UNL     1       6.854 -15.498   0.211  1.00  0.00     0.010 A 
ATOM     31  C   UNL     1       7.008 -13.099  -0.056  1.00  0.00     0.010 A 
ATOM     32  C   UNL     1       7.505 -14.380  -0.338  1.00  0.00    -0.014 A 
BRANCH  32  33
ATOM     33  C   UNL     1       8.715 -14.541  -1.186  1.00  0.00     0.031 A 
ATOM     34  C   UNL     1      10.037 -13.972  -0.742  1.00  0.00     0.074 A 
ATOM     35  C   UNL     1       8.620 -15.171  -2.373  1.00  0.00     0.049 A 
ATOM     36  N   UNL     1      11.200 -14.021  -1.341  1.00  0.00    -0.248 NA
ATOM     37  C   UNL     1      10.052 -13.229   0.530  1.00  0.00     0.031 C 
ATOM     38  C   UNL     1       7.389 -15.726  -2.942  1.00  0.00     0.029 A 
ATOM     39  N   UNL     1       9.577 -15.456  -3.316  1.00  0.00    -0.354 N 
ATOM     40  C   UNL     1      12.076 -13.307  -0.530  1.00  0.00     0.074 A 
ATOM     41  C   UNL     1      11.299 -12.785   0.571  1.00  0.00     0.031 C 
ATOM     42  C   UNL     1       7.673 -16.316  -4.114  1.00  0.00     0.029 A 
ATOM     43  C   UNL     1       9.095 -16.149  -4.401  1.00  0.00     0.049 A 
ATOM     44  H   UNL     1      10.520 -15.188  -3.223  1.00  0.00     0.167 HD
ATOM     45  C   UNL     1      13.411 -13.122  -0.674  1.00  0.00     0.031 A 
ATOM     46  C   UNL     1       9.723 -16.603  -5.502  1.00  0.00     0.031 A 
ATOM     47  C   UNL     1      14.183 -13.645  -1.771  1.00  0.00     0.049 A 
ATOM     48  C   UNL     1      11.205 -16.385  -5.642  1.00  0.00     0.074 A 
ATOM     49  C   UNL     1      15.548 -13.559  -1.981  1.00  0.00     0.029 A 
ATOM     50  N   UNL     1      13.657 -14.345  -2.847  1.00  0.00    -0.354 N 
ATOM     51  N   UNL     1      12.030 -15.771  -4.827  1.00  0.00    -0.248 NA
ATOM     52  C   UNL     1      11.844 -16.942  -6.841  1.00  0.00     0.031 C 
ATOM     53  C   UNL     1      15.839 -14.152  -3.214  1.00  0.00     0.029 A 
ATOM     54  C   UNL     1      14.667 -14.674  -3.737  1.00  0.00     0.049 A 
ATOM     55  H   UNL     1      12.707 -14.574  -2.962  1.00  0.00     0.167 HD
ATOM     56  C   UNL     1      13.291 -15.895  -5.401  1.00  0.00     0.074 A 
ATOM     57  C   UNL     1      13.120 -16.659  -6.620  1.00  0.00     0.031 C 
ATOM     58  C   UNL     1      14.483 -15.423  -4.956  1.00  0.00     0.031 A 
BRANCH  45  59
ATOM     59  C   UNL     1      14.116 -12.305   0.380  1.00  0.00    -0.014 A 
ATOM     60  C   UNL     1      14.247 -12.771   1.702  1.00  0.00     0.010 A 
ATOM     61  C   UNL     1      14.675 -11.059   0.040  1.00  0.00     0.010 A 
ATOM     62  C   UNL     1      14.873 -11.985   2.674  1.00  0.00     0.020 A 
ATOM     63  C   UNL     1      15.332 -10.285   1.001  1.00  0.00     0.020 A 
ATOM     64  C   UNL     1      15.408 -10.744   2.317  1.00  0.00     0.054 A 
BRANCH  64  65
ATOM     65  S   UNL     1      16.219  -9.748   3.598  1.00  0.00     0.124 S 
ATOM     66  O   UNL     1      15.081  -9.311   4.404  1.00  0.00    -0.237 OA
ATOM     67  O   UNL     1      17.108 -10.713   4.238  1.00  0.00    -0.237 OA
ATOM     68  O   UNL     1      16.889  -8.691   2.844  1.00  0.00    -0.744 OA
ENDBRANCH  64  65
ENDBRANCH  45  59
BRANCH  46  69
ATOM     69  C   UNL     1       8.953 -17.335  -6.546  1.00  0.00    -0.014 A 
ATOM     70  C   UNL     1       9.141 -18.715  -6.743  1.00  0.00     0.010 A 
ATOM     71  C   UNL     1       8.006 -16.656  -7.336  1.00  0.00     0.010 A 
ATOM     72  C   UNL     1       8.409 -19.399  -7.718  1.00  0.00     0.020 A 
ATOM     73  C   UNL     1       7.250 -17.343  -8.290  1.00  0.00     0.020 A 
ATOM     74  C   UNL     1       7.463 -18.709  -8.481  1.00  0.00     0.054 A 
BRANCH  74  75
ATOM     75  S   UNL     1       6.479 -19.631  -9.695  1.00  0.00     0.124 S 
ATOM     76  O   UNL     1       7.465 -19.919 -10.731  1.00  0.00    -0.237 OA
ATOM     77  O   UNL     1       6.020 -20.780  -8.919  1.00  0.00    -0.237 OA
ATOM     78  O   UNL     1       5.430 -18.686 -10.074  1.00  0.00    -0.744 OA
ENDBRANCH  74  75
ENDBRANCH  46  69
BRANCH  58  79
ATOM     79  C   UNL     1      15.706 -15.757  -5.774  1.00  0.00    -0.014 A 
ATOM     80  C   UNL     1      15.911 -15.206  -7.052  1.00  0.00     0.010 A 
ATOM     81  C   UNL     1      16.676 -16.626  -5.241  1.00  0.00     0.010 A 
ATOM     82  C   UNL     1      17.034 -15.565  -7.804  1.00  0.00     0.020 A 
ATOM     83  C   UNL     1      17.817 -16.958  -5.974  1.00  0.00     0.020 A 
ATOM     84  C   UNL     1      17.977 -16.444  -7.262  1.00  0.00     0.054 A 
BRANCH  84  85
ATOM     85  S   UNL     1      19.426 -16.893  -8.256  1.00  0.00     0.124 S 
ATOM     86  O   UNL     1      18.843 -17.782  -9.257  1.00  0.00    -0.237 OA
ATOM     87  O   UNL     1      19.886 -15.599  -8.754  1.00  0.00    -0.237 OA
ATOM     88  O   UNL     1      20.319 -17.537  -7.295  1.00  0.00    -0.744 OA
ENDBRANCH  84  85
ENDBRANCH  58  79
ENDBRANCH  32  33
ENDBRANCH  24  27
ENDBRANCH  22  23
ENDBRANCH  21  22
ENDBRANCH  20  21
ENDBRANCH   1  20
TORSDOF 20
