REMARK SMILES O=C(NCCCCNC(=O)[C@@H]1C=C[C@@H]([NH+]2CC3(CCOCC3)C2)C1)c1ccc(-c2c3nc(c(-c4ccc(S(=O)(=O)[O-])cc4)c4ccc([nH]4)c(-c4ccc(S(=O)(=O)[O-])cc4)c4nc(c(-c5ccc(S(=O)(=O)[O-])cc5)c5ccc2[nH]5)C=C4)C=C3)cc1
REMARK SMILES IDX 4 1 3 2 1 3 2 4 25 6 26 7 84 8 27 9 83 10 28 11 29 12 30 13
REMARK SMILES IDX 77 14 31 15 82 16 76 17 78 18 32 19 81 20 75 21 74 22 33 24
REMARK SMILES IDX 63 25 44 26 62 27 45 28 48 29 61 30 79 31 46 32 47 33 60 35
REMARK SMILES IDX 80 36 49 37 34 38 35 39 43 40 36 41 42 42 37 43 38 44 39 45
REMARK SMILES IDX 40 46 41 47 64 48 65 49 73 50 66 51 72 52 67 53 68 54 69 55
REMARK SMILES IDX 70 56 71 57 50 58 51 59 59 60 52 61 58 62 53 63 54 64 55 65
REMARK SMILES IDX 56 66 57 67 5 68 6 69 7 70 8 71 9 72 10 74 11 75 12 76 24 77
REMARK SMILES IDX 13 78 14 79 15 80 16 81 23 82 17 84 18 85 22 86 19 87 21 88
REMARK SMILES IDX 20 89
REMARK H PARENT 3 5 78 23 48 34 8 73 15 83
REMARK Flexibility Score: inf
ROOT
ATOM      1  C   UNL     1       1.109   8.664   0.004  1.00  0.00     0.116 C 
ENDROOT
BRANCH   1   2
ATOM      2  N   UNL     1       1.123  10.097   0.260  1.00  0.00    -0.352 N 
ATOM      3  O   UNL     1       0.189  12.152   0.418  1.00  0.00    -0.269 OA
ATOM      4  C   UNL     1       0.038  10.947   0.292  1.00  0.00     0.251 C 
ATOM      5  H   UNL     1       2.004  10.503   0.427  1.00  0.00     0.163 HD
BRANCH   4   6
ATOM      6  C   UNL     1      -1.308  10.360   0.124  1.00  0.00     0.039 A 
ATOM      7  C   UNL     1      -1.694   9.269   0.905  1.00  0.00     0.014 A 
ATOM      8  C   UNL     1      -2.152  10.860  -0.870  1.00  0.00     0.014 A 
ATOM      9  C   UNL     1      -2.865   8.590   0.600  1.00  0.00     0.010 A 
ATOM     10  C   UNL     1      -3.372  10.225  -1.116  1.00  0.00     0.010 A 
ATOM     11  C   UNL     1      -3.725   9.070  -0.401  1.00  0.00    -0.014 A 
BRANCH  11  12
ATOM     12  C   UNL     1      -5.028   8.396  -0.610  1.00  0.00     0.031 A 
ATOM     13  C   UNL     1      -5.347   7.682  -1.894  1.00  0.00     0.074 A 
ATOM     14  C   UNL     1      -5.919   8.417   0.401  1.00  0.00     0.049 A 
ATOM     15  N   UNL     1      -6.438   7.038  -2.221  1.00  0.00    -0.248 NA
ATOM     16  C   UNL     1      -4.319   7.693  -2.947  1.00  0.00     0.031 C 
ATOM     17  C   UNL     1      -5.714   9.089   1.690  1.00  0.00     0.029 A 
ATOM     18  N   UNL     1      -7.159   7.849   0.519  1.00  0.00    -0.354 N 
ATOM     19  C   UNL     1      -6.242   6.588  -3.521  1.00  0.00     0.074 A 
ATOM     20  C   UNL     1      -4.930   7.041  -3.930  1.00  0.00     0.031 C 
ATOM     21  C   UNL     1      -6.770   8.854   2.482  1.00  0.00     0.029 A 
ATOM     22  C   UNL     1      -7.753   8.078   1.738  1.00  0.00     0.049 A 
ATOM     23  H   UNL     1      -7.585   7.327  -0.199  1.00  0.00     0.167 HD
ATOM     24  C   UNL     1      -7.085   5.866  -4.299  1.00  0.00     0.031 A 
ATOM     25  C   UNL     1      -8.965   7.726   2.201  1.00  0.00     0.031 A 
ATOM     26  C   UNL     1      -8.386   5.413  -3.876  1.00  0.00     0.049 A 
ATOM     27  C   UNL     1      -9.881   6.942   1.309  1.00  0.00     0.074 A 
ATOM     28  C   UNL     1      -9.296   4.642  -4.578  1.00  0.00     0.029 A 
ATOM     29  N   UNL     1      -8.963   5.690  -2.646  1.00  0.00    -0.354 N 
ATOM     30  N   UNL     1      -9.662   6.500   0.094  1.00  0.00    -0.248 NA
ATOM     31  C   UNL     1     -11.206   6.613   1.847  1.00  0.00     0.031 C 
ATOM     32  C   UNL     1     -10.444   4.494  -3.792  1.00  0.00     0.029 A 
ATOM     33  C   UNL     1     -10.227   5.128  -2.580  1.00  0.00     0.049 A 
ATOM     34  H   UNL     1      -8.537   6.209  -1.926  1.00  0.00     0.167 HD
ATOM     35  C   UNL     1     -10.822   5.833  -0.277  1.00  0.00     0.074 A 
ATOM     36  C   UNL     1     -11.726   5.906   0.854  1.00  0.00     0.031 C 
ATOM     37  C   UNL     1     -11.115   5.220  -1.449  1.00  0.00     0.031 A 
BRANCH  24  38
ATOM     38  C   UNL     1      -6.649   5.534  -5.701  1.00  0.00    -0.014 A 
ATOM     39  C   UNL     1      -5.691   4.535  -5.949  1.00  0.00     0.010 A 
ATOM     40  C   UNL     1      -7.278   6.165  -6.791  1.00  0.00     0.010 A 
ATOM     41  C   UNL     1      -5.359   4.184  -7.262  1.00  0.00     0.020 A 
ATOM     42  C   UNL     1      -6.963   5.803  -8.104  1.00  0.00     0.020 A 
ATOM     43  C   UNL     1      -5.999   4.820  -8.332  1.00  0.00     0.054 A 
BRANCH  43  44
ATOM     44  S   UNL     1      -5.588   4.307 -10.024  1.00  0.00     0.124 S 
ATOM     45  O   UNL     1      -4.262   4.892 -10.201  1.00  0.00    -0.237 OA
ATOM     46  O   UNL     1      -5.625   2.850  -9.935  1.00  0.00    -0.237 OA
ATOM     47  O   UNL     1      -6.646   4.905 -10.834  1.00  0.00    -0.744 OA
ENDBRANCH  43  44
ENDBRANCH  24  38
BRANCH  25  48
ATOM     48  C   UNL     1      -9.388   8.150   3.561  1.00  0.00    -0.014 A 
ATOM     49  C   UNL     1      -9.538   7.210   4.594  1.00  0.00     0.010 A 
ATOM     50  C   UNL     1      -9.627   9.511   3.831  1.00  0.00     0.010 A 
ATOM     51  C   UNL     1      -9.941   7.620   5.868  1.00  0.00     0.020 A 
ATOM     52  C   UNL     1     -10.000   9.928   5.110  1.00  0.00     0.020 A 
ATOM     53  C   UNL     1     -10.171   8.977   6.117  1.00  0.00     0.054 A 
BRANCH  53  54
ATOM     54  S   UNL     1     -10.655   9.497   7.785  1.00  0.00     0.124 S 
ATOM     55  O   UNL     1     -12.071   9.145   7.812  1.00  0.00    -0.237 OA
ATOM     56  O   UNL     1      -9.785   8.690   8.637  1.00  0.00    -0.237 OA
ATOM     57  O   UNL     1     -10.363  10.929   7.792  1.00  0.00    -0.744 OA
ENDBRANCH  53  54
ENDBRANCH  25  48
BRANCH  37  58
ATOM     58  C   UNL     1     -12.464   4.568  -1.556  1.00  0.00    -0.014 A 
ATOM     59  C   UNL     1     -13.631   5.339  -1.698  1.00  0.00     0.010 A 
ATOM     60  C   UNL     1     -12.562   3.165  -1.542  1.00  0.00     0.010 A 
ATOM     61  C   UNL     1     -14.879   4.718  -1.789  1.00  0.00     0.020 A 
ATOM     62  C   UNL     1     -13.806   2.540  -1.657  1.00  0.00     0.020 A 
ATOM     63  C   UNL     1     -14.958   3.322  -1.764  1.00  0.00     0.054 A 
BRANCH  63  64
ATOM     64  S   UNL     1     -16.585   2.536  -1.914  1.00  0.00     0.124 S 
ATOM     65  O   UNL     1     -17.143   2.737  -0.579  1.00  0.00    -0.237 OA
ATOM     66  O   UNL     1     -17.218   3.306  -2.982  1.00  0.00    -0.237 OA
ATOM     67  O   UNL     1     -16.270   1.151  -2.256  1.00  0.00    -0.744 OA
ENDBRANCH  63  64
ENDBRANCH  37  58
ENDBRANCH  11  12
ENDBRANCH   4   6
ENDBRANCH   1   2
BRANCH   1  68
ATOM     68  C   UNL     1       2.422   8.124  -0.538  1.00  0.00     0.023 C 
BRANCH  68  69
ATOM     69  C   UNL     1       3.639   8.393   0.347  1.00  0.00     0.023 C 
BRANCH  69  70
ATOM     70  C   UNL     1       3.562   7.816   1.764  1.00  0.00     0.116 C 
BRANCH  70  71
ATOM     71  N   UNL     1       3.871   6.405   1.822  1.00  0.00    -0.356 N 
ATOM     72  C   UNL     1       4.989   5.754   2.243  1.00  0.00     0.227 C 
ATOM     73  H   UNL     1       3.150   5.814   1.504  1.00  0.00     0.163 HD
ATOM     74  O   UNL     1       4.890   4.531   2.401  1.00  0.00    -0.274 OA
BRANCH  72  75
ATOM     75  C   UNL     1       6.342   6.439   2.498  1.00  0.00     0.107 C 
ATOM     76  C   UNL     1       6.508   7.275   3.726  1.00  0.00    -0.012 C 
ATOM     77  C   UNL     1       6.851   7.350   1.382  1.00  0.00     0.087 C 
ATOM     78  C   UNL     1       6.894   8.525   3.433  1.00  0.00     0.033 C 
ATOM     79  C   UNL     1       6.896   8.783   1.954  1.00  0.00     0.208 C 
BRANCH  79  80
ATOM     80  N   UNL     1       7.883   9.769   1.513  1.00  0.00    -0.328 N 
ATOM     81  C   UNL     1       7.548  10.328   0.192  1.00  0.00     0.275 C 
ATOM     82  C   UNL     1       9.161   9.250   1.023  1.00  0.00     0.275 C 
ATOM     83  H   UNL     1       7.909  10.352   2.350  1.00  0.00     0.348 HD
ATOM     84  C   UNL     1       8.764   9.603  -0.442  1.00  0.00     0.073 C 
ATOM     85  C   UNL     1       9.798  10.508  -1.126  1.00  0.00     0.047 C 
ATOM     86  C   UNL     1       8.424   8.422  -1.363  1.00  0.00     0.047 C 
ATOM     87  C   UNL     1       9.312  10.888  -2.520  1.00  0.00     0.161 C 
ATOM     88  C   UNL     1       8.025   8.929  -2.742  1.00  0.00     0.161 C 
ATOM     89  O   UNL     1       9.076   9.715  -3.299  1.00  0.00    -0.381 OA
ENDBRANCH  79  80
ENDBRANCH  72  75
ENDBRANCH  70  71
ENDBRANCH  69  70
ENDBRANCH  68  69
ENDBRANCH   1  68
TORSDOF 15
