REMARK SMILES O=C(NCCCCNC(=O)[C@H]1[C@H]2CC[C@H](C2)[C@@H]1C(=O)Nc1sc2c(c1C(=O)NC1CCCCC1)CCCC2)c1ccc(-c2c3nc(c(-c4ccc(S(=O)(=O)[O-])cc4)c4ccc([nH]4)c(-c4ccc(S(=O)(=O)[O-])cc4)c4nc(c(-c5ccc(S(=O)(=O)[O-])cc5)c5ccc2[nH]5)C=C4)C=C3)cc1
REMARK SMILES IDX 6 1 5 2 4 3 3 4 1 5 2 6 39 8 40 9 98 10 41 11 97 12 42 13
REMARK SMILES IDX 43 14 44 15 91 16 45 17 96 18 90 19 92 20 46 21 95 22 89 23
REMARK SMILES IDX 88 24 47 26 77 27 58 28 76 29 59 30 62 31 75 32 93 33 60 34
REMARK SMILES IDX 61 35 74 37 94 38 63 39 48 40 49 41 57 42 50 43 56 44 51 45
REMARK SMILES IDX 52 46 53 47 54 48 55 49 78 50 79 51 87 52 80 53 86 54 81 55
REMARK SMILES IDX 82 56 83 57 84 58 85 59 64 60 65 61 73 62 66 63 72 64 67 65
REMARK SMILES IDX 68 66 69 67 70 68 71 69 7 70 8 71 9 72 10 74 11 75 12 76
REMARK SMILES IDX 17 77 13 78 16 79 15 80 14 81 18 82 19 83 20 84 21 86 22 87
REMARK SMILES IDX 25 88 23 89 24 90 38 91 35 92 37 93 36 94 26 95 27 96 28 97
REMARK SMILES IDX 29 99 30 100 34 101 31 102 33 103 32 104
REMARK H PARENT 3 7 92 25 62 36 8 73 20 85 28 98
REMARK Flexibility Score: inf
ROOT
ATOM      1  C   UNL     1       8.478   0.107   6.717  1.00  0.00     0.023 C 
ENDROOT
BRANCH   1   2
ATOM      2  C   UNL     1       9.621   0.308   7.717  1.00  0.00     0.023 C 
BRANCH   2   3
ATOM      3  C   UNL     1      11.015   0.047   7.160  1.00  0.00     0.116 C 
BRANCH   3   4
ATOM      4  N   UNL     1      11.358   0.967   6.089  1.00  0.00    -0.352 N 
ATOM      5  O   UNL     1      12.437   2.695   5.120  1.00  0.00    -0.269 OA
ATOM      6  C   UNL     1      12.401   1.855   6.018  1.00  0.00     0.251 C 
ATOM      7  H   UNL     1      10.760   0.951   5.307  1.00  0.00     0.163 HD
BRANCH   6   8
ATOM      8  C   UNL     1      13.471   1.809   7.036  1.00  0.00     0.039 A 
ATOM      9  C   UNL     1      14.057   0.592   7.399  1.00  0.00     0.014 A 
ATOM     10  C   UNL     1      13.897   3.000   7.627  1.00  0.00     0.014 A 
ATOM     11  C   UNL     1      14.985   0.552   8.435  1.00  0.00     0.010 A 
ATOM     12  C   UNL     1      14.885   2.966   8.613  1.00  0.00     0.010 A 
ATOM     13  C   UNL     1      15.422   1.740   9.040  1.00  0.00    -0.014 A 
BRANCH  13  14
ATOM     14  C   UNL     1      16.494   1.703  10.065  1.00  0.00     0.031 A 
ATOM     15  C   UNL     1      16.233   2.150  11.475  1.00  0.00     0.074 A 
ATOM     16  C   UNL     1      17.727   1.299   9.701  1.00  0.00     0.049 A 
ATOM     17  N   UNL     1      17.072   2.254  12.474  1.00  0.00    -0.248 NA
ATOM     18  C   UNL     1      14.854   2.542  11.804  1.00  0.00     0.031 C 
ATOM     19  C   UNL     1      18.101   0.848   8.358  1.00  0.00     0.029 A 
ATOM     20  N   UNL     1      18.893   1.216  10.417  1.00  0.00    -0.354 N 
ATOM     21  C   UNL     1      16.333   2.748  13.543  1.00  0.00     0.074 A 
ATOM     22  C   UNL     1      14.982   2.944  13.061  1.00  0.00     0.031 C 
ATOM     23  C   UNL     1      19.403   0.530   8.349  1.00  0.00     0.029 A 
ATOM     24  C   UNL     1      19.970   0.818   9.662  1.00  0.00     0.049 A 
ATOM     25  H   UNL     1      18.953   1.421  11.378  1.00  0.00     0.167 HD
ATOM     26  C   UNL     1      16.747   3.015  14.806  1.00  0.00     0.031 A 
ATOM     27  C   UNL     1      21.278   0.734   9.969  1.00  0.00     0.031 A 
ATOM     28  C   UNL     1      18.101   2.835  15.264  1.00  0.00     0.049 A 
ATOM     29  C   UNL     1      21.726   1.077  11.359  1.00  0.00     0.074 A 
ATOM     30  C   UNL     1      18.613   3.037  16.533  1.00  0.00     0.029 A 
ATOM     31  N   UNL     1      19.163   2.432  14.465  1.00  0.00    -0.354 N 
ATOM     32  N   UNL     1      21.004   1.491  12.373  1.00  0.00    -0.248 NA
ATOM     33  C   UNL     1      23.157   0.937  11.652  1.00  0.00     0.031 C 
ATOM     34  C   UNL     1      19.995   2.826  16.485  1.00  0.00     0.029 A 
ATOM     35  C   UNL     1      20.334   2.414  15.205  1.00  0.00     0.049 A 
ATOM     36  H   UNL     1      19.094   2.193  13.512  1.00  0.00     0.167 HD
ATOM     37  C   UNL     1      21.890   1.638  13.433  1.00  0.00     0.074 A 
ATOM     38  C   UNL     1      23.199   1.263  12.938  1.00  0.00     0.031 C 
ATOM     39  C   UNL     1      21.634   2.040  14.702  1.00  0.00     0.031 A 
BRANCH  26  40
ATOM     40  C   UNL     1      15.731   3.586  15.765  1.00  0.00    -0.014 A 
ATOM     41  C   UNL     1      14.638   2.827  16.221  1.00  0.00     0.010 A 
ATOM     42  C   UNL     1      15.880   4.907  16.226  1.00  0.00     0.010 A 
ATOM     43  C   UNL     1      13.678   3.400  17.062  1.00  0.00     0.020 A 
ATOM     44  C   UNL     1      14.942   5.473  17.094  1.00  0.00     0.020 A 
ATOM     45  C   UNL     1      13.831   4.724  17.484  1.00  0.00     0.054 A 
BRANCH  45  46
ATOM     46  S   UNL     1      12.556   5.452  18.549  1.00  0.00     0.124 S 
ATOM     47  O   UNL     1      11.445   5.618  17.615  1.00  0.00    -0.237 OA
ATOM     48  O   UNL     1      12.367   4.426  19.571  1.00  0.00    -0.237 OA
ATOM     49  O   UNL     1      13.163   6.694  19.020  1.00  0.00    -0.744 OA
ENDBRANCH  45  46
ENDBRANCH  26  40
BRANCH  27  50
ATOM     50  C   UNL     1      22.241   0.329   8.909  1.00  0.00    -0.014 A 
ATOM     51  C   UNL     1      22.841  -0.940   8.927  1.00  0.00     0.010 A 
ATOM     52  C   UNL     1      22.487   1.189   7.821  1.00  0.00     0.010 A 
ATOM     53  C   UNL     1      23.663  -1.346   7.871  1.00  0.00     0.020 A 
ATOM     54  C   UNL     1      23.283   0.776   6.750  1.00  0.00     0.020 A 
ATOM     55  C   UNL     1      23.869  -0.490   6.784  1.00  0.00     0.054 A 
BRANCH  55  56
ATOM     56  S   UNL     1      24.855  -1.081   5.381  1.00  0.00     0.124 S 
ATOM     57  O   UNL     1      26.204  -1.087   5.939  1.00  0.00    -0.237 OA
ATOM     58  O   UNL     1      24.273  -2.395   5.119  1.00  0.00    -0.237 OA
ATOM     59  O   UNL     1      24.611  -0.082   4.343  1.00  0.00    -0.744 OA
ENDBRANCH  55  56
ENDBRANCH  27  50
BRANCH  39  60
ATOM     60  C   UNL     1      22.783   2.062  15.676  1.00  0.00    -0.014 A 
ATOM     61  C   UNL     1      23.776   3.054  15.617  1.00  0.00     0.010 A 
ATOM     62  C   UNL     1      22.806   1.130  16.731  1.00  0.00     0.010 A 
ATOM     63  C   UNL     1      24.774   3.112  16.595  1.00  0.00     0.020 A 
ATOM     64  C   UNL     1      23.784   1.201  17.725  1.00  0.00     0.020 A 
ATOM     65  C   UNL     1      24.765   2.191  17.649  1.00  0.00     0.054 A 
BRANCH  65  66
ATOM     66  S   UNL     1      26.014   2.347  18.955  1.00  0.00     0.124 S 
ATOM     67  O   UNL     1      27.230   1.920  18.268  1.00  0.00    -0.237 OA
ATOM     68  O   UNL     1      25.948   3.767  19.292  1.00  0.00    -0.237 OA
ATOM     69  O   UNL     1      25.539   1.443  20.000  1.00  0.00    -0.744 OA
ENDBRANCH  65  66
ENDBRANCH  39  60
ENDBRANCH  13  14
ENDBRANCH   6   8
ENDBRANCH   3   4
ENDBRANCH   2   3
ENDBRANCH   1   2
BRANCH   1  70
ATOM     70  C   UNL     1       8.476  -1.250   6.017  1.00  0.00     0.116 C 
BRANCH  70  71
ATOM     71  N   UNL     1       8.451  -2.324   6.986  1.00  0.00    -0.356 N 
ATOM     72  C   UNL     1       7.577  -3.341   7.168  1.00  0.00     0.224 C 
ATOM     73  H   UNL     1       9.200  -2.313   7.625  1.00  0.00     0.163 HD
ATOM     74  O   UNL     1       7.818  -4.104   8.103  1.00  0.00    -0.275 OA
BRANCH  72  75
ATOM     75  C   UNL     1       6.427  -3.554   6.195  1.00  0.00     0.094 C 
ATOM     76  C   UNL     1       5.871  -5.010   6.335  1.00  0.00     0.002 C 
ATOM     77  C   UNL     1       5.158  -2.691   6.404  1.00  0.00     0.094 C 
ATOM     78  C   UNL     1       5.207  -5.338   7.687  1.00  0.00     0.005 C 
ATOM     79  C   UNL     1       4.625  -4.881   5.492  1.00  0.00     0.009 C 
ATOM     80  C   UNL     1       4.029  -3.746   6.333  1.00  0.00     0.002 C 
ATOM     81  C   UNL     1       3.951  -4.457   7.697  1.00  0.00     0.005 C 
BRANCH  77  82
ATOM     82  C   UNL     1       5.000  -1.411   5.547  1.00  0.00     0.229 C 
ATOM     83  O   UNL     1       5.233  -0.326   6.106  1.00  0.00    -0.274 OA
ATOM     84  N   UNL     1       4.705  -1.316   4.218  1.00  0.00    -0.317 N 
ATOM     85  H   UNL     1       4.576  -0.407   3.862  1.00  0.00     0.170 HD
BRANCH  84  86
ATOM     86  C   UNL     1       4.568  -2.343   3.324  1.00  0.00     0.108 A 
ATOM     87  S   UNL     1       2.995  -2.993   3.172  1.00  0.00    -0.122 S 
ATOM     88  C   UNL     1       5.393  -2.758   2.276  1.00  0.00     0.078 A 
ATOM     89  C   UNL     1       3.660  -4.352   2.399  1.00  0.00     0.011 A 
ATOM     90  C   UNL     1       4.978  -4.123   2.016  1.00  0.00    -0.019 A 
ATOM     91  C   UNL     1       2.916  -5.653   2.321  1.00  0.00     0.047 C 
ATOM     92  C   UNL     1       5.803  -5.284   1.577  1.00  0.00     0.037 C 
ATOM     93  C   UNL     1       3.859  -6.816   1.977  1.00  0.00     0.006 C 
ATOM     94  C   UNL     1       4.939  -6.399   0.979  1.00  0.00     0.005 C 
BRANCH  88  95
ATOM     95  C   UNL     1       6.547  -1.930   1.890  1.00  0.00     0.254 C 
ATOM     96  O   UNL     1       6.908  -1.001   2.624  1.00  0.00    -0.269 OA
ATOM     97  N   UNL     1       7.227  -1.968   0.702  1.00  0.00    -0.349 N 
ATOM     98  H   UNL     1       7.725  -1.128   0.579  1.00  0.00     0.164 HD
BRANCH  97  99
ATOM     99  C   UNL     1       7.457  -2.850  -0.448  1.00  0.00     0.082 C 
ATOM    100  C   UNL     1       8.589  -3.833  -0.122  1.00  0.00     0.025 C 
ATOM    101  C   UNL     1       6.208  -3.396  -1.145  1.00  0.00     0.025 C 
ATOM    102  C   UNL     1       8.800  -4.898  -1.187  1.00  0.00     0.002 C 
ATOM    103  C   UNL     1       6.441  -4.615  -2.044  1.00  0.00     0.002 C 
ATOM    104  C   UNL     1       7.507  -5.598  -1.569  1.00  0.00     0.000 C 
ENDBRANCH  97  99
ENDBRANCH  88  95
ENDBRANCH  84  86
ENDBRANCH  77  82
ENDBRANCH  72  75
ENDBRANCH  70  71
ENDBRANCH   1  70
TORSDOF 18
