REMARK SMILES Cc1c(NC(=O)c2cccc(NC(=O)[C@H]3CC=CC[C@H]3C(=O)NCCCCNC(=O)c3ccc(-c4c5nc(c(-c6ccc(S(=O)(=O)[O-])cc6)c6ccc([nH]6)c(-c6ccc(S(=O)(=O)[O-])cc6)c6nc(c(-c7ccc(S(=O)(=O)[O-])cc7)c7ccc4[nH]7)C=C6)C=C5)cc3)c2)c(=O)n(-c2ccccc2)n1C
REMARK SMILES IDX 24 1 23 2 21 3 22 4 20 6 15 7 16 8 17 9 19 10 18 11 13 12
REMARK SMILES IDX 12 13 14 15 11 16 7 17 8 18 91 19 9 20 10 21 5 22 4 23 6 25
REMARK SMILES IDX 3 26 1 27 2 28 101 29 92 30 94 31 102 32 93 33 95 34 96 35
REMARK SMILES IDX 100 36 97 37 99 38 98 39 25 40 26 41 27 42 28 43 29 44 30 46
REMARK SMILES IDX 31 47 32 48 90 49 33 50 89 51 34 52 35 53 36 54 83 55 37 56
REMARK SMILES IDX 88 57 82 58 84 59 38 60 87 61 81 62 80 63 39 65 69 66 50 67
REMARK SMILES IDX 68 68 51 69 54 70 67 71 85 72 52 73 53 74 66 76 86 77 55 78
REMARK SMILES IDX 40 79 41 80 49 81 42 82 48 83 43 84 44 85 45 86 46 87 47 88
REMARK SMILES IDX 70 89 71 90 79 91 72 92 78 93 73 94 74 95 75 96 76 97 77 98
REMARK SMILES IDX 56 99 57 100 65 101 58 102 64 103 59 104 60 105 61 106
REMARK SMILES IDX 62 107 63 108
REMARK H PARENT 23 5 12 14 4 24 28 45 84 64 54 75
REMARK Flexibility Score: inf
ROOT
ATOM      1  C   UNL     1       1.696   6.796  -7.051  1.00  0.00     0.116 C 
ENDROOT
BRANCH   1   2
ATOM      2  N   UNL     1       0.463   6.477  -7.749  1.00  0.00    -0.356 N 
ATOM      3  C   UNL     1      -0.793   6.982  -7.654  1.00  0.00     0.224 C 
ATOM      4  O   UNL     1      -1.676   6.389  -8.283  1.00  0.00    -0.275 OA
ATOM      5  H   UNL     1       0.556   5.758  -8.416  1.00  0.00     0.163 HD
BRANCH   3   6
ATOM      6  C   UNL     1      -1.169   8.205  -6.819  1.00  0.00     0.095 C 
ATOM      7  C   UNL     1      -1.464   7.913  -5.337  1.00  0.00     0.095 C 
ATOM      8  C   UNL     1      -1.735   9.168  -4.489  1.00  0.00     0.041 C 
ATOM      9  C   UNL     1      -1.003  10.399  -4.918  1.00  0.00    -0.030 C 
ATOM     10  C   UNL     1      -0.362   9.466  -7.154  1.00  0.00     0.041 C 
ATOM     11  C   UNL     1      -0.391  10.528  -6.100  1.00  0.00    -0.030 C 
BRANCH   7  12
ATOM     12  C   UNL     1      -0.473   7.050  -4.587  1.00  0.00     0.228 C 
ATOM     13  N   UNL     1      -0.670   5.731  -4.309  1.00  0.00    -0.326 N 
ATOM     14  H   UNL     1       0.124   5.329  -3.888  1.00  0.00     0.169 HD
ATOM     15  O   UNL     1       0.601   7.533  -4.205  1.00  0.00    -0.274 OA
BRANCH  13  16
ATOM     16  C   UNL     1      -1.704   4.788  -4.461  1.00  0.00     0.041 A 
ATOM     17  C   UNL     1      -2.337   2.460  -4.125  1.00  0.00     0.042 A 
ATOM     18  C   UNL     1      -3.663   2.761  -4.435  1.00  0.00     0.014 A 
ATOM     19  C   UNL     1      -1.347   3.444  -4.252  1.00  0.00     0.040 A 
ATOM     20  C   UNL     1      -4.016   4.074  -4.710  1.00  0.00     0.003 A 
ATOM     21  C   UNL     1      -3.051   5.084  -4.662  1.00  0.00     0.026 A 
BRANCH  17  22
ATOM     22  C   UNL     1      -2.064   1.104  -3.603  1.00  0.00     0.255 C 
ATOM     23  N   UNL     1      -1.262   0.866  -2.507  1.00  0.00    -0.316 N 
ATOM     24  H   UNL     1      -1.125  -0.092  -2.325  1.00  0.00     0.170 HD
ATOM     25  O   UNL     1      -2.569   0.138  -4.178  1.00  0.00    -0.269 OA
BRANCH  23  26
ATOM     26  C   UNL     1      -0.617   1.684  -1.620  1.00  0.00     0.130 A 
ATOM     27  C   UNL     1       0.925  -0.028  -0.540  1.00  0.00     0.069 C 
ATOM     28  C   UNL     1       0.416   1.348  -0.823  1.00  0.00     0.061 A 
ATOM     29  N   UNL     1       1.040   2.474  -0.283  1.00  0.00    -0.283 N 
ATOM     30  C   UNL     1      -0.885   3.132  -1.291  1.00  0.00     0.295 A 
ATOM     31  N   UNL     1       0.282   3.592  -0.673  1.00  0.00    -0.216 N 
ATOM     32  C   UNL     1       1.753   2.526   0.985  1.00  0.00     0.172 C 
ATOM     33  O   UNL     1      -1.921   3.725  -1.516  1.00  0.00    -0.265 OA
BRANCH  31  34
ATOM     34  C   UNL     1       0.739   4.926  -0.617  1.00  0.00     0.067 A 
ATOM     35  C   UNL     1      -0.170   5.989  -0.552  1.00  0.00     0.028 A 
ATOM     36  C   UNL     1       2.108   5.225  -0.684  1.00  0.00     0.028 A 
ATOM     37  C   UNL     1       0.278   7.313  -0.500  1.00  0.00     0.002 A 
ATOM     38  C   UNL     1       2.557   6.549  -0.652  1.00  0.00     0.002 A 
ATOM     39  C   UNL     1       1.641   7.592  -0.547  1.00  0.00     0.000 A 
ENDBRANCH  31  34
ENDBRANCH  23  26
ENDBRANCH  17  22
ENDBRANCH  13  16
ENDBRANCH   7  12
ENDBRANCH   3   6
ENDBRANCH   1   2
BRANCH   1  40
ATOM     40  C   UNL     1       2.136   5.656  -6.128  1.00  0.00     0.023 C 
BRANCH  40  41
ATOM     41  C   UNL     1       2.705   4.399  -6.779  1.00  0.00     0.023 C 
BRANCH  41  42
ATOM     42  C   UNL     1       4.010   4.638  -7.503  1.00  0.00     0.116 C 
BRANCH  42  43
ATOM     43  N   UNL     1       5.067   5.132  -6.620  1.00  0.00    -0.352 N 
ATOM     44  C   UNL     1       6.365   5.441  -6.979  1.00  0.00     0.251 C 
ATOM     45  H   UNL     1       4.829   5.256  -5.672  1.00  0.00     0.163 HD
ATOM     46  O   UNL     1       7.261   5.522  -6.148  1.00  0.00    -0.269 OA
BRANCH  44  47
ATOM     47  C   UNL     1       6.620   5.678  -8.407  1.00  0.00     0.039 A 
ATOM     48  C   UNL     1       7.631   5.004  -9.092  1.00  0.00     0.014 A 
ATOM     49  C   UNL     1       5.710   6.498  -9.072  1.00  0.00     0.014 A 
ATOM     50  C   UNL     1       7.658   5.092 -10.481  1.00  0.00     0.010 A 
ATOM     51  C   UNL     1       5.638   6.444 -10.438  1.00  0.00     0.010 A 
ATOM     52  C   UNL     1       6.637   5.789 -11.150  1.00  0.00    -0.014 A 
BRANCH  52  53
ATOM     53  C   UNL     1       6.520   5.737 -12.603  1.00  0.00     0.031 A 
ATOM     54  C   UNL     1       6.484   4.360 -13.171  1.00  0.00     0.074 A 
ATOM     55  C   UNL     1       6.245   6.826 -13.354  1.00  0.00     0.049 A 
ATOM     56  N   UNL     1       7.399   3.779 -13.873  1.00  0.00    -0.248 NA
ATOM     57  C   UNL     1       5.375   3.467 -12.790  1.00  0.00     0.031 C 
ATOM     58  C   UNL     1       5.937   8.193 -12.911  1.00  0.00     0.029 A 
ATOM     59  N   UNL     1       6.066   6.912 -14.697  1.00  0.00    -0.354 N 
ATOM     60  C   UNL     1       6.886   2.534 -14.223  1.00  0.00     0.074 A 
ATOM     61  C   UNL     1       5.737   2.324 -13.379  1.00  0.00     0.031 C 
ATOM     62  C   UNL     1       5.370   8.884 -13.924  1.00  0.00     0.029 A 
ATOM     63  C   UNL     1       5.450   8.082 -15.130  1.00  0.00     0.049 A 
ATOM     64  H   UNL     1       6.349   6.201 -15.317  1.00  0.00     0.167 HD
ATOM     65  C   UNL     1       7.299   1.886 -15.349  1.00  0.00     0.031 A 
ATOM     66  C   UNL     1       5.022   8.364 -16.387  1.00  0.00     0.031 A 
ATOM     67  C   UNL     1       8.495   2.479 -15.891  1.00  0.00     0.049 A 
ATOM     68  C   UNL     1       5.758   7.454 -17.299  1.00  0.00     0.074 A 
ATOM     69  C   UNL     1       9.773   2.691 -15.413  1.00  0.00     0.029 A 
ATOM     70  N   UNL     1       8.337   3.350 -16.945  1.00  0.00    -0.354 N 
ATOM     71  N   UNL     1       7.051   7.507 -17.466  1.00  0.00    -0.248 NA
ATOM     72  C   UNL     1       5.137   6.183 -17.636  1.00  0.00     0.031 C 
ATOM     73  C   UNL     1      10.116   4.000 -15.862  1.00  0.00     0.029 A 
ATOM     74  C   UNL     1       9.076   4.472 -16.666  1.00  0.00     0.049 A 
ATOM     75  H   UNL     1       7.793   3.196 -17.751  1.00  0.00     0.167 HD
ATOM     76  C   UNL     1       7.459   6.181 -17.493  1.00  0.00     0.074 A 
ATOM     77  C   UNL     1       6.228   5.412 -17.680  1.00  0.00     0.031 C 
ATOM     78  C   UNL     1       8.709   5.812 -17.080  1.00  0.00     0.031 A 
BRANCH  65  79
ATOM     79  C   UNL     1       6.412   0.986 -16.174  1.00  0.00    -0.014 A 
ATOM     80  C   UNL     1       6.964   0.307 -17.279  1.00  0.00     0.010 A 
ATOM     81  C   UNL     1       5.006   0.990 -16.065  1.00  0.00     0.010 A 
ATOM     82  C   UNL     1       6.147  -0.286 -18.252  1.00  0.00     0.020 A 
ATOM     83  C   UNL     1       4.184   0.365 -17.005  1.00  0.00     0.020 A 
ATOM     84  C   UNL     1       4.760  -0.245 -18.110  1.00  0.00     0.054 A 
BRANCH  84  85
ATOM     85  S   UNL     1       3.713  -0.946 -19.409  1.00  0.00     0.124 S 
ATOM     86  O   UNL     1       4.000  -0.065 -20.536  1.00  0.00    -0.237 OA
ATOM     87  O   UNL     1       4.231  -2.307 -19.519  1.00  0.00    -0.237 OA
ATOM     88  O   UNL     1       2.365  -0.840 -18.856  1.00  0.00    -0.744 OA
ENDBRANCH  84  85
ENDBRANCH  65  79
BRANCH  66  89
ATOM     89  C   UNL     1       3.799   9.103 -16.799  1.00  0.00    -0.014 A 
ATOM     90  C   UNL     1       3.608   9.512 -18.133  1.00  0.00     0.010 A 
ATOM     91  C   UNL     1       2.682   9.146 -15.938  1.00  0.00     0.010 A 
ATOM     92  C   UNL     1       2.335   9.886 -18.604  1.00  0.00     0.020 A 
ATOM     93  C   UNL     1       1.413   9.520 -16.399  1.00  0.00     0.020 A 
ATOM     94  C   UNL     1       1.239   9.864 -17.737  1.00  0.00     0.054 A 
BRANCH  94  95
ATOM     95  S   UNL     1      -0.432  10.165 -18.393  1.00  0.00     0.124 S 
ATOM     96  O   UNL     1      -0.394  11.591 -18.702  1.00  0.00    -0.237 OA
ATOM     97  O   UNL     1      -0.487   9.270 -19.546  1.00  0.00    -0.237 OA
ATOM     98  O   UNL     1      -1.309   9.795 -17.283  1.00  0.00    -0.744 OA
ENDBRANCH  94  95
ENDBRANCH  66  89
BRANCH  78  99
ATOM     99  C   UNL     1       9.741   6.894 -16.834  1.00  0.00    -0.014 A 
ATOM    100  C   UNL     1       9.611   7.915 -15.868  1.00  0.00     0.010 A 
ATOM    101  C   UNL     1      10.967   6.774 -17.511  1.00  0.00     0.010 A 
ATOM    102  C   UNL     1      10.671   8.802 -15.612  1.00  0.00     0.020 A 
ATOM    103  C   UNL     1      12.030   7.640 -17.248  1.00  0.00     0.020 A 
ATOM    104  C   UNL     1      11.875   8.658 -16.308  1.00  0.00     0.054 A 
BRANCH 104 105
ATOM    105  S   UNL     1      13.258   9.783 -15.960  1.00  0.00     0.124 S 
ATOM    106  O   UNL     1      12.766  11.059 -16.471  1.00  0.00    -0.237 OA
ATOM    107  O   UNL     1      13.392   9.696 -14.507  1.00  0.00    -0.237 OA
ATOM    108  O   UNL     1      14.373   9.207 -16.710  1.00  0.00    -0.744 OA
ENDBRANCH 104 105
ENDBRANCH  78  99
ENDBRANCH  52  53
ENDBRANCH  44  47
ENDBRANCH  42  43
ENDBRANCH  41  42
ENDBRANCH  40  41
ENDBRANCH   1  40
TORSDOF 19
