REMARK SMILES O=C(NCCCCNC(=O)c1cc(-c2ccc(C(F)(F)F)cc2)cc([N+](=O)[O-])c1)c1ccc(-c2c3nc(c(-c4ccc(S(=O)(=O)[O-])cc4)c4ccc([nH]4)c(-c4ccc(S(=O)(=O)[O-])cc4)c4nc(c(-c5ccc(S(=O)(=O)[O-])cc5)c5ccc2[nH]5)C=C4)C=C3)cc1
REMARK SMILES IDX 5 1 4 2 3 3 1 4 2 5 30 7 31 8 89 9 32 10 88 11 33 12 34 13
REMARK SMILES IDX 35 14 82 15 36 16 87 17 81 18 83 19 37 20 86 21 80 22 79 23
REMARK SMILES IDX 38 25 68 26 49 27 67 28 50 29 53 30 66 31 84 32 51 33 52 34
REMARK SMILES IDX 65 36 85 37 54 38 39 39 40 40 48 41 41 42 47 43 42 44 43 45
REMARK SMILES IDX 44 46 45 47 46 48 69 49 70 50 78 51 71 52 77 53 72 54 73 55
REMARK SMILES IDX 74 56 75 57 76 58 55 59 56 60 64 61 57 62 63 63 58 64 59 65
REMARK SMILES IDX 60 66 61 67 62 68 6 69 7 70 8 71 9 72 10 74 11 75 12 76
REMARK SMILES IDX 29 77 13 78 25 79 24 80 14 81 15 82 23 83 16 84 22 85 17 86
REMARK SMILES IDX 18 87 19 88 20 89 21 90 26 91 27 92 28 93
REMARK H PARENT 3 6 83 24 53 35 8 73
REMARK Flexibility Score: inf
ROOT
ATOM      1  C   UNL     1       4.882  -2.328  -0.822  1.00  0.00     0.023 C 
ENDROOT
BRANCH   1   2
ATOM      2  C   UNL     1       4.558  -0.841  -0.853  1.00  0.00     0.116 C 
BRANCH   2   3
ATOM      3  N   UNL     1       3.128  -0.562  -0.890  1.00  0.00    -0.352 N 
ATOM      4  O   UNL     1       1.141   0.195  -0.131  1.00  0.00    -0.269 OA
ATOM      5  C   UNL     1       2.361   0.172  -0.013  1.00  0.00     0.251 C 
ATOM      6  H   UNL     1       2.641  -0.954  -1.651  1.00  0.00     0.163 HD
BRANCH   5   7
ATOM      7  C   UNL     1       3.021   0.895   1.096  1.00  0.00     0.039 A 
ATOM      8  C   UNL     1       4.177   1.639   0.859  1.00  0.00     0.014 A 
ATOM      9  C   UNL     1       2.513   0.779   2.392  1.00  0.00     0.014 A 
ATOM     10  C   UNL     1       4.934   2.085   1.933  1.00  0.00     0.010 A 
ATOM     11  C   UNL     1       3.220   1.333   3.464  1.00  0.00     0.010 A 
ATOM     12  C   UNL     1       4.465   1.945   3.250  1.00  0.00    -0.014 A 
BRANCH  12  13
ATOM     13  C   UNL     1       5.287   2.478   4.369  1.00  0.00     0.031 A 
ATOM     14  C   UNL     1       5.837   1.572   5.441  1.00  0.00     0.074 A 
ATOM     15  C   UNL     1       5.583   3.793   4.381  1.00  0.00     0.049 A 
ATOM     16  N   UNL     1       6.622   1.873   6.446  1.00  0.00    -0.248 NA
ATOM     17  C   UNL     1       5.454   0.152   5.389  1.00  0.00     0.031 C 
ATOM     18  C   UNL     1       5.109   4.772   3.397  1.00  0.00     0.029 A 
ATOM     19  N   UNL     1       6.377   4.529   5.222  1.00  0.00    -0.354 N 
ATOM     20  C   UNL     1       6.802   0.693   7.161  1.00  0.00     0.074 A 
ATOM     21  C   UNL     1       6.026  -0.326   6.486  1.00  0.00     0.031 C 
ATOM     22  C   UNL     1       5.678   5.959   3.647  1.00  0.00     0.029 A 
ATOM     23  C   UNL     1       6.493   5.848   4.851  1.00  0.00     0.049 A 
ATOM     24  H   UNL     1       6.820   4.151   6.015  1.00  0.00     0.167 HD
ATOM     25  C   UNL     1       7.545   0.479   8.274  1.00  0.00     0.031 A 
ATOM     26  C   UNL     1       7.170   6.864   5.417  1.00  0.00     0.031 A 
ATOM     27  C   UNL     1       8.322   1.497   8.936  1.00  0.00     0.049 A 
ATOM     28  C   UNL     1       7.966   6.603   6.661  1.00  0.00     0.074 A 
ATOM     29  C   UNL     1       9.140   1.369  10.046  1.00  0.00     0.029 A 
ATOM     30  N   UNL     1       8.372   2.830   8.557  1.00  0.00    -0.354 N 
ATOM     31  N   UNL     1       8.149   5.471   7.299  1.00  0.00    -0.248 NA
ATOM     32  C   UNL     1       8.649   7.756   7.261  1.00  0.00     0.031 C 
ATOM     33  C   UNL     1       9.637   2.635  10.373  1.00  0.00     0.029 A 
ATOM     34  C   UNL     1       9.184   3.541   9.428  1.00  0.00     0.049 A 
ATOM     35  H   UNL     1       7.901   3.215   7.784  1.00  0.00     0.167 HD
ATOM     36  C   UNL     1       8.991   5.772   8.363  1.00  0.00     0.074 A 
ATOM     37  C   UNL     1       9.293   7.187   8.270  1.00  0.00     0.031 C 
ATOM     38  C   UNL     1       9.471   4.950   9.329  1.00  0.00     0.031 A 
BRANCH  25  39
ATOM     39  C   UNL     1       7.526  -0.905   8.877  1.00  0.00    -0.014 A 
ATOM     40  C   UNL     1       8.151  -1.994   8.245  1.00  0.00     0.010 A 
ATOM     41  C   UNL     1       6.909  -1.106  10.127  1.00  0.00     0.010 A 
ATOM     42  C   UNL     1       8.119  -3.266   8.827  1.00  0.00     0.020 A 
ATOM     43  C   UNL     1       6.899  -2.369  10.726  1.00  0.00     0.020 A 
ATOM     44  C   UNL     1       7.489  -3.446  10.062  1.00  0.00     0.054 A 
BRANCH  44  45
ATOM     45  S   UNL     1       7.471  -5.104  10.799  1.00  0.00     0.124 S 
ATOM     46  O   UNL     1       6.513  -5.802   9.944  1.00  0.00    -0.237 OA
ATOM     47  O   UNL     1       8.861  -5.532  10.661  1.00  0.00    -0.237 OA
ATOM     48  O   UNL     1       7.027  -4.871  12.171  1.00  0.00    -0.744 OA
ENDBRANCH  44  45
ENDBRANCH  25  39
BRANCH  26  49
ATOM     49  C   UNL     1       7.116   8.219   4.805  1.00  0.00    -0.014 A 
ATOM     50  C   UNL     1       8.255   8.776   4.199  1.00  0.00     0.010 A 
ATOM     51  C   UNL     1       5.913   8.949   4.802  1.00  0.00     0.010 A 
ATOM     52  C   UNL     1       8.197  10.045   3.616  1.00  0.00     0.020 A 
ATOM     53  C   UNL     1       5.842  10.203   4.191  1.00  0.00     0.020 A 
ATOM     54  C   UNL     1       6.989  10.748   3.613  1.00  0.00     0.054 A 
BRANCH  54  55
ATOM     55  S   UNL     1       6.923  12.371   2.805  1.00  0.00     0.124 S 
ATOM     56  O   UNL     1       7.650  13.210   3.752  1.00  0.00    -0.237 OA
ATOM     57  O   UNL     1       7.598  12.117   1.534  1.00  0.00    -0.237 OA
ATOM     58  O   UNL     1       5.491  12.641   2.697  1.00  0.00    -0.744 OA
ENDBRANCH  54  55
ENDBRANCH  26  49
BRANCH  38  59
ATOM     59  C   UNL     1      10.409   5.555  10.339  1.00  0.00    -0.014 A 
ATOM     60  C   UNL     1       9.954   6.460  11.315  1.00  0.00     0.010 A 
ATOM     61  C   UNL     1      11.768   5.191  10.323  1.00  0.00     0.010 A 
ATOM     62  C   UNL     1      10.849   7.024  12.227  1.00  0.00     0.020 A 
ATOM     63  C   UNL     1      12.661   5.729  11.253  1.00  0.00     0.020 A 
ATOM     64  C   UNL     1      12.198   6.657  12.188  1.00  0.00     0.054 A 
BRANCH  64  65
ATOM     65  S   UNL     1      13.338   7.386  13.396  1.00  0.00     0.124 S 
ATOM     66  O   UNL     1      13.490   8.746  12.887  1.00  0.00    -0.237 OA
ATOM     67  O   UNL     1      12.598   7.263  14.650  1.00  0.00    -0.237 OA
ATOM     68  O   UNL     1      14.530   6.547  13.298  1.00  0.00    -0.744 OA
ENDBRANCH  64  65
ENDBRANCH  38  59
ENDBRANCH  12  13
ENDBRANCH   5   7
ENDBRANCH   2   3
ENDBRANCH   1   2
BRANCH   1  69
ATOM     69  C   UNL     1       4.410  -3.115  -2.038  1.00  0.00     0.023 C 
BRANCH  69  70
ATOM     70  C   UNL     1       4.829  -2.535  -3.383  1.00  0.00     0.116 C 
BRANCH  70  71
ATOM     71  N   UNL     1       6.273  -2.482  -3.554  1.00  0.00    -0.352 N 
ATOM     72  C   UNL     1       7.037  -2.983  -4.577  1.00  0.00     0.251 C 
ATOM     73  H   UNL     1       6.769  -2.023  -2.838  1.00  0.00     0.163 HD
ATOM     74  O   UNL     1       8.262  -2.971  -4.521  1.00  0.00    -0.269 OA
BRANCH  72  75
ATOM     75  C   UNL     1       6.369  -3.570  -5.753  1.00  0.00     0.047 A 
ATOM     76  C   UNL     1       6.750  -4.849  -6.174  1.00  0.00     0.023 A 
ATOM     77  C   UNL     1       5.375  -2.860  -6.430  1.00  0.00     0.099 A 
ATOM     78  C   UNL     1       6.098  -5.465  -7.252  1.00  0.00    -0.011 A 
ATOM     79  C   UNL     1       4.681  -3.492  -7.460  1.00  0.00     0.270 A 
ATOM     80  C   UNL     1       5.032  -4.785  -7.870  1.00  0.00     0.094 A 
BRANCH  78  81
ATOM     81  C   UNL     1       6.544  -6.767  -7.762  1.00  0.00    -0.018 A 
ATOM     82  C   UNL     1       6.574  -7.912  -6.955  1.00  0.00     0.009 A 
ATOM     83  C   UNL     1       6.973  -6.880  -9.094  1.00  0.00     0.009 A 
ATOM     84  C   UNL     1       7.016  -9.137  -7.469  1.00  0.00     0.014 A 
ATOM     85  C   UNL     1       7.418  -8.098  -9.608  1.00  0.00     0.014 A 
ATOM     86  C   UNL     1       7.444  -9.242  -8.801  1.00  0.00     0.056 A 
BRANCH  86  87
ATOM     87  C   UNL     1       7.927 -10.563  -9.347  1.00  0.00     0.416 C 
ATOM     88  F   UNL     1       9.009 -11.044  -8.675  1.00  0.00    -0.166 F 
ATOM     89  F   UNL     1       6.977 -11.536  -9.274  1.00  0.00    -0.166 F 
ATOM     90  F   UNL     1       8.299 -10.507 -10.657  1.00  0.00    -0.166 F 
ENDBRANCH  86  87
ENDBRANCH  78  81
BRANCH  79  91
ATOM     91  N   UNL     1       3.554  -2.804  -8.099  1.00  0.00     0.062 N 
ATOM     92  O   UNL     1       2.989  -3.377  -9.041  1.00  0.00    -0.258 OA
ATOM     93  O   UNL     1       3.225  -1.699  -7.647  1.00  0.00    -0.258 OA
ENDBRANCH  79  91
ENDBRANCH  72  75
ENDBRANCH  70  71
ENDBRANCH  69  70
ENDBRANCH   1  69
TORSDOF 17
