REMARK SMILES Cc1cnc(N2CCO[C@H](CC(=O)NCCCCNC(=O)c3ccc(-c4c5nc(c(-c6ccc(S(=O)(=O)[O-])cc6)c6ccc([nH]6)c(-c6ccc(S(=O)(=O)[O-])cc6)c6nc(c(-c7ccc(S(=O)(=O)[O-])cc7)c7ccc4[nH]7)C=C6)C=C5)cc3)C2)c([N+](=O)[O-])c1
REMARK SMILES IDX 16 1 15 2 14 3 12 4 13 5 11 7 10 8 6 9 7 10 82 11 8 12 9 13
REMARK SMILES IDX 5 14 1 15 2 16 3 17 87 18 4 19 83 20 84 21 85 22 86 23 17 24
REMARK SMILES IDX 18 25 19 26 20 27 21 29 22 30 23 31 81 32 24 33 80 34 25 35
REMARK SMILES IDX 26 36 27 37 74 38 28 39 79 40 73 41 75 42 29 43 78 44 72 45
REMARK SMILES IDX 71 46 30 48 60 49 41 50 59 51 42 52 45 53 58 54 76 55 43 56
REMARK SMILES IDX 44 57 57 59 77 60 46 61 31 62 32 63 40 64 33 65 39 66 34 67
REMARK SMILES IDX 35 68 36 69 37 70 38 71 61 72 62 73 70 74 63 75 69 76 64 77
REMARK SMILES IDX 65 78 66 79 67 80 68 81 47 82 48 83 56 84 49 85 55 86 50 87
REMARK SMILES IDX 51 88 52 89 53 90 54 91
REMARK H PARENT 14 6 19 28 75 47 45 58
REMARK Flexibility Score: inf
ROOT
ATOM      1  C   UNL     1      -7.928   2.614   2.350  1.00  0.00     0.023 C 
ENDROOT
BRANCH   1   2
ATOM      2  C   UNL     1      -6.605   3.374   2.376  1.00  0.00     0.116 C 
BRANCH   2   3
ATOM      3  N   UNL     1      -5.813   2.975   3.521  1.00  0.00    -0.356 N 
ATOM      4  C   UNL     1      -4.744   2.136   3.546  1.00  0.00     0.222 C 
ATOM      5  O   UNL     1      -4.302   1.751   4.629  1.00  0.00    -0.275 OA
ATOM      6  H   UNL     1      -6.082   3.359   4.387  1.00  0.00     0.163 HD
BRANCH   4   7
ATOM      7  C   UNL     1      -4.094   1.727   2.252  1.00  0.00     0.133 C 
BRANCH   7   8
ATOM      8  C   UNL     1      -4.778   0.516   1.595  1.00  0.00     0.147 C 
ATOM      9  N   UNL     1      -3.035   0.337  -0.051  1.00  0.00    -0.346 N 
ATOM     10  C   UNL     1      -3.920   0.654  -1.170  1.00  0.00     0.147 C 
ATOM     11  C   UNL     1      -3.703  -0.422   1.009  1.00  0.00     0.151 C 
ATOM     12  C   UNL     1      -5.120   1.455  -0.627  1.00  0.00     0.182 C 
ATOM     13  O   UNL     1      -5.722   0.876   0.552  1.00  0.00    -0.374 OA
BRANCH   9  14
ATOM     14  C   UNL     1      -1.676   0.260  -0.170  1.00  0.00     0.208 A 
ATOM     15  C   UNL     1       2.570  -0.326  -0.014  1.00  0.00     0.046 C 
ATOM     16  C   UNL     1       1.099  -0.084  -0.095  1.00  0.00    -0.026 A 
ATOM     17  C   UNL     1       0.196  -1.135  -0.049  1.00  0.00     0.117 A 
ATOM     18  C   UNL     1       0.569   1.198  -0.195  1.00  0.00     0.094 A 
ATOM     19  N   UNL     1      -1.149  -0.987  -0.082  1.00  0.00    -0.233 NA
ATOM     20  C   UNL     1      -0.824   1.368  -0.231  1.00  0.00     0.311 A 
BRANCH  20  21
ATOM     21  N   UNL     1      -1.321   2.732  -0.175  1.00  0.00     0.066 N 
ATOM     22  O   UNL     1      -2.251   3.061  -0.923  1.00  0.00    -0.258 OA
ATOM     23  O   UNL     1      -0.723   3.517   0.578  1.00  0.00    -0.258 OA
ENDBRANCH  20  21
ENDBRANCH   9  14
ENDBRANCH   7   8
ENDBRANCH   4   7
ENDBRANCH   2   3
ENDBRANCH   1   2
BRANCH   1  24
ATOM     24  C   UNL     1      -8.891   3.020   3.469  1.00  0.00     0.023 C 
BRANCH  24  25
ATOM     25  C   UNL     1      -9.244   4.504   3.498  1.00  0.00     0.116 C 
BRANCH  25  26
ATOM     26  N   UNL     1      -9.846   4.960   2.256  1.00  0.00    -0.352 N 
ATOM     27  C   UNL     1     -10.905   5.816   2.074  1.00  0.00     0.251 C 
ATOM     28  H   UNL     1      -9.438   4.608   1.432  1.00  0.00     0.163 HD
ATOM     29  O   UNL     1     -11.380   5.972   0.956  1.00  0.00    -0.269 OA
BRANCH  27  30
ATOM     30  C   UNL     1     -11.487   6.518   3.239  1.00  0.00     0.039 A 
ATOM     31  C   UNL     1     -12.876   6.556   3.370  1.00  0.00     0.014 A 
ATOM     32  C   UNL     1     -10.673   7.123   4.202  1.00  0.00     0.014 A 
ATOM     33  C   UNL     1     -13.446   7.153   4.495  1.00  0.00     0.010 A 
ATOM     34  C   UNL     1     -11.240   7.648   5.361  1.00  0.00     0.010 A 
ATOM     35  C   UNL     1     -12.633   7.673   5.518  1.00  0.00    -0.014 A 
BRANCH  35  36
ATOM     36  C   UNL     1     -13.240   8.222   6.758  1.00  0.00     0.031 A 
ATOM     37  C   UNL     1     -13.078   9.675   7.115  1.00  0.00     0.074 A 
ATOM     38  C   UNL     1     -13.921   7.398   7.579  1.00  0.00     0.049 A 
ATOM     39  N   UNL     1     -13.574  10.331   8.134  1.00  0.00    -0.248 NA
ATOM     40  C   UNL     1     -12.235  10.494   6.229  1.00  0.00     0.031 C 
ATOM     41  C   UNL     1     -14.101   5.958   7.373  1.00  0.00     0.029 A 
ATOM     42  N   UNL     1     -14.598   7.651   8.745  1.00  0.00    -0.354 N 
ATOM     43  C   UNL     1     -13.101  11.633   8.014  1.00  0.00     0.074 A 
ATOM     44  C   UNL     1     -12.232  11.661   6.858  1.00  0.00     0.031 C 
ATOM     45  C   UNL     1     -14.878   5.467   8.351  1.00  0.00     0.029 A 
ATOM     46  C   UNL     1     -15.218   6.544   9.275  1.00  0.00     0.049 A 
ATOM     47  H   UNL     1     -14.637   8.542   9.163  1.00  0.00     0.167 HD
ATOM     48  C   UNL     1     -13.383  12.714   8.782  1.00  0.00     0.031 A 
ATOM     49  C   UNL     1     -15.981   6.408  10.377  1.00  0.00     0.031 A 
ATOM     50  C   UNL     1     -14.248  12.682   9.933  1.00  0.00     0.049 A 
ATOM     51  C   UNL     1     -16.274   7.622  11.216  1.00  0.00     0.074 A 
ATOM     52  C   UNL     1     -14.639  13.733  10.744  1.00  0.00     0.029 A 
ATOM     53  N   UNL     1     -14.849  11.541  10.442  1.00  0.00    -0.354 N 
ATOM     54  N   UNL     1     -15.884   8.861  11.039  1.00  0.00    -0.248 NA
ATOM     55  C   UNL     1     -17.126   7.419  12.395  1.00  0.00     0.031 C 
ATOM     56  C   UNL     1     -15.427  13.218  11.779  1.00  0.00     0.029 A 
ATOM     57  C   UNL     1     -15.584  11.856  11.573  1.00  0.00     0.049 A 
ATOM     58  H   UNL     1     -14.766  10.639  10.056  1.00  0.00     0.167 HD
ATOM     59  C   UNL     1     -16.462   9.591  12.072  1.00  0.00     0.074 A 
ATOM     60  C   UNL     1     -17.249   8.657  12.851  1.00  0.00     0.031 C 
ATOM     61  C   UNL     1     -16.350  10.914  12.351  1.00  0.00     0.031 A 
BRANCH  48  62
ATOM     62  C   UNL     1     -12.743  14.025   8.401  1.00  0.00    -0.014 A 
ATOM     63  C   UNL     1     -13.113  14.701   7.223  1.00  0.00     0.010 A 
ATOM     64  C   UNL     1     -11.792  14.614   9.254  1.00  0.00     0.010 A 
ATOM     65  C   UNL     1     -12.513  15.917   6.885  1.00  0.00     0.020 A 
ATOM     66  C   UNL     1     -11.213  15.847   8.935  1.00  0.00     0.020 A 
ATOM     67  C   UNL     1     -11.566  16.482   7.743  1.00  0.00     0.054 A 
BRANCH  67  68
ATOM     68  S   UNL     1     -10.825  18.075   7.290  1.00  0.00     0.124 S 
ATOM     69  O   UNL     1      -9.964  17.699   6.171  1.00  0.00    -0.237 OA
ATOM     70  O   UNL     1     -11.991  18.882   6.941  1.00  0.00    -0.237 OA
ATOM     71  O   UNL     1     -10.124  18.490   8.502  1.00  0.00    -0.744 OA
ENDBRANCH  67  68
ENDBRANCH  48  62
BRANCH  49  72
ATOM     72  C   UNL     1     -16.538   5.075  10.738  1.00  0.00    -0.014 A 
ATOM     73  C   UNL     1     -17.919   4.826  10.647  1.00  0.00     0.010 A 
ATOM     74  C   UNL     1     -15.685   4.041  11.166  1.00  0.00     0.010 A 
ATOM     75  C   UNL     1     -18.439   3.576  10.998  1.00  0.00     0.020 A 
ATOM     76  C   UNL     1     -16.197   2.781  11.487  1.00  0.00     0.020 A 
ATOM     77  C   UNL     1     -17.573   2.560  11.413  1.00  0.00     0.054 A 
BRANCH  77  78
ATOM     78  S   UNL     1     -18.265   0.932  11.816  1.00  0.00     0.124 S 
ATOM     79  O   UNL     1     -18.935   1.193  13.086  1.00  0.00    -0.237 OA
ATOM     80  O   UNL     1     -19.143   0.673  10.678  1.00  0.00    -0.237 OA
ATOM     81  O   UNL     1     -17.088   0.070  11.894  1.00  0.00    -0.744 OA
ENDBRANCH  77  78
ENDBRANCH  49  72
BRANCH  61  82
ATOM     82  C   UNL     1     -17.118  11.432  13.540  1.00  0.00    -0.014 A 
ATOM     83  C   UNL     1     -16.759  11.078  14.854  1.00  0.00     0.010 A 
ATOM     84  C   UNL     1     -18.207  12.301  13.340  1.00  0.00     0.010 A 
ATOM     85  C   UNL     1     -17.508  11.539  15.940  1.00  0.00     0.020 A 
ATOM     86  C   UNL     1     -18.936  12.792  14.425  1.00  0.00     0.020 A 
ATOM     87  C   UNL     1     -18.595  12.389  15.718  1.00  0.00     0.054 A 
BRANCH  87  88
ATOM     88  S   UNL     1     -19.546  12.981  17.145  1.00  0.00     0.124 S 
ATOM     89  O   UNL     1     -20.284  11.783  17.535  1.00  0.00    -0.237 OA
ATOM     90  O   UNL     1     -18.501  13.405  18.073  1.00  0.00    -0.237 OA
ATOM     91  O   UNL     1     -20.360  14.063  16.595  1.00  0.00    -0.744 OA
ENDBRANCH  87  88
ENDBRANCH  61  82
ENDBRANCH  35  36
ENDBRANCH  27  30
ENDBRANCH  25  26
ENDBRANCH  24  25
ENDBRANCH   1  24
TORSDOF 17
