REMARK SMILES CCn1cnc(S(=O)(=O)N2CCC(C)(C(=O)NCCCCNC(=O)c3ccc(-c4c5nc(c(-c6ccc(S(=O)(=O)[O-])cc6)c6ccc([nH]6)c(-c6ccc(S(=O)(=O)[O-])cc6)c6nc(c(-c7ccc(S(=O)(=O)[O-])cc7)c7ccc4[nH]7)C=C6)C=C5)cc3)CC2)c1
REMARK SMILES IDX 19 1 18 2 17 3 15 4 16 5 13 7 10 8 11 9 86 10 12 11 85 12
REMARK SMILES IDX 14 13 7 14 8 15 9 16 6 17 3 18 4 19 87 20 5 21 2 22 1 23
REMARK SMILES IDX 20 24 21 25 22 26 23 27 24 29 25 30 26 31 84 32 27 33 83 34
REMARK SMILES IDX 28 35 29 36 30 37 77 38 31 39 82 40 76 41 78 42 32 43 81 44
REMARK SMILES IDX 75 45 74 46 33 48 63 49 44 50 62 51 45 52 48 53 61 54 79 55
REMARK SMILES IDX 46 56 47 57 60 59 80 60 49 61 34 62 35 63 43 64 36 65 42 66
REMARK SMILES IDX 37 67 38 68 39 69 40 70 41 71 64 72 65 73 73 74 66 75 72 76
REMARK SMILES IDX 67 77 68 78 69 79 70 80 71 81 50 82 51 83 59 84 52 85 58 86
REMARK SMILES IDX 53 87 54 88 55 89 56 90 57 91
REMARK H PARENT 17 6 22 28 78 47 48 58
REMARK Flexibility Score: inf
ROOT
ATOM      1  C   UNL     1       5.220  -4.883   4.488  1.00  0.00     0.023 C 
ENDROOT
BRANCH   1   2
ATOM      2  C   UNL     1       3.764  -4.832   4.013  1.00  0.00     0.116 C 
BRANCH   2   3
ATOM      3  N   UNL     1       2.818  -4.738   5.120  1.00  0.00    -0.356 N 
ATOM      4  C   UNL     1       1.979  -3.735   5.521  1.00  0.00     0.226 C 
ATOM      5  O   UNL     1       1.343  -3.914   6.560  1.00  0.00    -0.275 OA
ATOM      6  H   UNL     1       2.776  -5.546   5.682  1.00  0.00     0.163 HD
BRANCH   4   7
ATOM      7  C   UNL     1       1.859  -2.426   4.716  1.00  0.00     0.049 C 
ATOM      8  N   UNL     1       2.366   0.059   6.175  1.00  0.00    -0.196 NA
ATOM      9  C   UNL     1       3.491  -0.840   5.959  1.00  0.00     0.103 C 
ATOM     10  C   UNL     1       1.121  -0.652   6.489  1.00  0.00     0.103 C 
ATOM     11  C   UNL     1       3.245  -1.719   4.746  1.00  0.00     0.033 C 
ATOM     12  C   UNL     1       0.724  -1.521   5.304  1.00  0.00     0.033 C 
ATOM     13  C   UNL     1       1.405  -2.792   3.274  1.00  0.00     0.022 C 
BRANCH   8  14
ATOM     14  S   UNL     1       2.352   1.631   5.547  1.00  0.00     0.262 S 
ATOM     15  O   UNL     1       3.716   2.021   5.265  1.00  0.00    -0.205 OA
ATOM     16  O   UNL     1       1.499   2.426   6.412  1.00  0.00    -0.205 OA
BRANCH  14  17
ATOM     17  C   UNL     1       1.560   1.700   3.975  1.00  0.00     0.188 A 
ATOM     18  N   UNL     1       0.728   1.138   2.031  1.00  0.00    -0.336 N 
ATOM     19  C   UNL     1       0.151   2.299   2.453  1.00  0.00     0.201 A 
ATOM     20  C   UNL     1       1.739   0.845   2.905  1.00  0.00     0.129 A 
ATOM     21  N   UNL     1       0.611   2.657   3.632  1.00  0.00    -0.224 NA
BRANCH  18  22
ATOM     22  C   UNL     1       0.219   0.248   1.007  1.00  0.00     0.120 C 
ATOM     23  C   UNL     1       0.952   0.340  -0.315  1.00  0.00     0.027 C 
ENDBRANCH  18  22
ENDBRANCH  14  17
ENDBRANCH   8  14
ENDBRANCH   4   7
ENDBRANCH   2   3
ENDBRANCH   1   2
BRANCH   1  24
ATOM     24  C   UNL     1       5.599  -6.091   5.349  1.00  0.00     0.023 C 
BRANCH  24  25
ATOM     25  C   UNL     1       5.401  -7.433   4.663  1.00  0.00     0.116 C 
BRANCH  25  26
ATOM     26  N   UNL     1       6.209  -7.569   3.451  1.00  0.00    -0.352 N 
ATOM     27  C   UNL     1       6.171  -8.589   2.518  1.00  0.00     0.251 C 
ATOM     28  H   UNL     1       6.857  -6.848   3.279  1.00  0.00     0.163 HD
ATOM     29  O   UNL     1       7.123  -8.794   1.774  1.00  0.00    -0.269 OA
BRANCH  27  30
ATOM     30  C   UNL     1       4.956  -9.415   2.435  1.00  0.00     0.039 A 
ATOM     31  C   UNL     1       5.015 -10.805   2.322  1.00  0.00     0.014 A 
ATOM     32  C   UNL     1       3.733  -8.757   2.530  1.00  0.00     0.014 A 
ATOM     33  C   UNL     1       3.828 -11.532   2.392  1.00  0.00     0.010 A 
ATOM     34  C   UNL     1       2.592  -9.477   2.767  1.00  0.00     0.010 A 
ATOM     35  C   UNL     1       2.619 -10.860   2.636  1.00  0.00    -0.014 A 
BRANCH  35  36
ATOM     36  C   UNL     1       1.377 -11.592   2.861  1.00  0.00     0.031 A 
ATOM     37  C   UNL     1       1.432 -12.595   3.958  1.00  0.00     0.074 A 
ATOM     38  C   UNL     1       0.203 -11.230   2.299  1.00  0.00     0.049 A 
ATOM     39  N   UNL     1       1.409 -13.882   3.856  1.00  0.00    -0.248 NA
ATOM     40  C   UNL     1       1.685 -12.111   5.326  1.00  0.00     0.031 C 
ATOM     41  C   UNL     1      -0.081 -10.056   1.461  1.00  0.00     0.029 A 
ATOM     42  N   UNL     1      -1.031 -11.774   2.470  1.00  0.00    -0.354 N 
ATOM     43  C   UNL     1       1.402 -14.368   5.160  1.00  0.00     0.074 A 
ATOM     44  C   UNL     1       1.782 -13.260   6.000  1.00  0.00     0.031 C 
ATOM     45  C   UNL     1      -1.414  -9.844   1.413  1.00  0.00     0.029 A 
ATOM     46  C   UNL     1      -2.080 -10.966   2.045  1.00  0.00     0.049 A 
ATOM     47  H   UNL     1      -1.170 -12.666   2.862  1.00  0.00     0.167 HD
ATOM     48  C   UNL     1       0.825 -15.563   5.473  1.00  0.00     0.031 A 
ATOM     49  C   UNL     1      -3.406 -11.192   2.214  1.00  0.00     0.031 A 
ATOM     50  C   UNL     1       0.540 -16.339   4.292  1.00  0.00     0.049 A 
ATOM     51  C   UNL     1      -3.566 -12.643   2.471  1.00  0.00     0.074 A 
ATOM     52  C   UNL     1       1.294 -16.856   3.257  1.00  0.00     0.029 A 
ATOM     53  N   UNL     1      -0.762 -16.330   3.847  1.00  0.00    -0.354 N 
ATOM     54  N   UNL     1      -3.278 -13.561   1.591  1.00  0.00    -0.248 NA
ATOM     55  C   UNL     1      -3.604 -13.094   3.852  1.00  0.00     0.031 C 
ATOM     56  C   UNL     1       0.487 -16.680   2.094  1.00  0.00     0.029 A 
ATOM     57  C   UNL     1      -0.739 -16.138   2.490  1.00  0.00     0.049 A 
ATOM     58  H   UNL     1      -1.566 -16.442   4.403  1.00  0.00     0.167 HD
ATOM     59  C   UNL     1      -2.680 -14.580   2.320  1.00  0.00     0.074 A 
ATOM     60  C   UNL     1      -3.006 -14.282   3.714  1.00  0.00     0.031 C 
ATOM     61  C   UNL     1      -1.751 -15.407   1.753  1.00  0.00     0.031 A 
BRANCH  48  62
ATOM     62  C   UNL     1       0.129 -15.843   6.787  1.00  0.00    -0.014 A 
ATOM     63  C   UNL     1      -0.421 -17.125   7.004  1.00  0.00     0.010 A 
ATOM     64  C   UNL     1      -0.253 -14.828   7.689  1.00  0.00     0.010 A 
ATOM     65  C   UNL     1      -1.367 -17.352   8.013  1.00  0.00     0.020 A 
ATOM     66  C   UNL     1      -1.159 -15.054   8.726  1.00  0.00     0.020 A 
ATOM     67  C   UNL     1      -1.741 -16.307   8.857  1.00  0.00     0.054 A 
BRANCH  67  68
ATOM     68  S   UNL     1      -3.048 -16.574  10.079  1.00  0.00     0.124 S 
ATOM     69  O   UNL     1      -4.213 -16.786   9.227  1.00  0.00    -0.237 OA
ATOM     70  O   UNL     1      -2.563 -17.749  10.797  1.00  0.00    -0.237 OA
ATOM     71  O   UNL     1      -3.051 -15.334  10.851  1.00  0.00    -0.744 OA
ENDBRANCH  67  68
ENDBRANCH  48  62
BRANCH  49  72
ATOM     72  C   UNL     1      -4.478 -10.196   2.453  1.00  0.00    -0.014 A 
ATOM     73  C   UNL     1      -5.835 -10.521   2.276  1.00  0.00     0.010 A 
ATOM     74  C   UNL     1      -4.174  -8.992   3.122  1.00  0.00     0.010 A 
ATOM     75  C   UNL     1      -6.850  -9.693   2.790  1.00  0.00     0.020 A 
ATOM     76  C   UNL     1      -5.178  -8.161   3.634  1.00  0.00     0.020 A 
ATOM     77  C   UNL     1      -6.514  -8.525   3.482  1.00  0.00     0.054 A 
BRANCH  77  78
ATOM     78  S   UNL     1      -7.824  -7.540   4.269  1.00  0.00     0.124 S 
ATOM     79  O   UNL     1      -8.530  -6.986   3.118  1.00  0.00    -0.237 OA
ATOM     80  O   UNL     1      -8.556  -8.541   5.040  1.00  0.00    -0.237 OA
ATOM     81  O   UNL     1      -7.085  -6.563   5.069  1.00  0.00    -0.744 OA
ENDBRANCH  77  78
ENDBRANCH  49  72
BRANCH  61  82
ATOM     82  C   UNL     1      -1.604 -15.403   0.247  1.00  0.00    -0.014 A 
ATOM     83  C   UNL     1      -1.193 -14.283  -0.504  1.00  0.00     0.010 A 
ATOM     84  C   UNL     1      -1.733 -16.638  -0.414  1.00  0.00     0.010 A 
ATOM     85  C   UNL     1      -0.937 -14.397  -1.881  1.00  0.00     0.020 A 
ATOM     86  C   UNL     1      -1.463 -16.762  -1.778  1.00  0.00     0.020 A 
ATOM     87  C   UNL     1      -1.072 -15.639  -2.509  1.00  0.00     0.054 A 
BRANCH  87  88
ATOM     88  S   UNL     1      -0.688 -15.798  -4.276  1.00  0.00     0.124 S 
ATOM     89  O   UNL     1      -1.769 -15.043  -4.905  1.00  0.00    -0.237 OA
ATOM     90  O   UNL     1       0.640 -15.197  -4.376  1.00  0.00    -0.237 OA
ATOM     91  O   UNL     1      -0.724 -17.241  -4.513  1.00  0.00    -0.744 OA
ENDBRANCH  87  88
ENDBRANCH  61  82
ENDBRANCH  35  36
ENDBRANCH  27  30
ENDBRANCH  25  26
ENDBRANCH  24  25
ENDBRANCH   1  24
TORSDOF 17
