REMARK SMILES O=C(NCCCCNC(=O)[C@@H]1[C@H](C(=O)Nc2ccc(Cn3cncn3)cc2)[C@@H]2C=C[C@H]1CC2)c1ccc(-c2c3nc(c(-c4ccc(S(=O)(=O)[O-])cc4)c4ccc([nH]4)c(-c4ccc(S(=O)(=O)[O-])cc4)c4nc(c(-c5ccc(S(=O)(=O)[O-])cc5)c5ccc2[nH]5)C=C4)C=C3)cc1
REMARK SMILES IDX 6 1 5 2 4 3 3 4 1 5 2 6 34 8 35 9 93 10 36 11 92 12 37 13
REMARK SMILES IDX 38 14 39 15 86 16 40 17 91 18 85 19 87 20 41 21 90 22 84 23
REMARK SMILES IDX 83 24 42 26 72 27 53 28 71 29 54 30 57 31 70 32 88 33 55 34
REMARK SMILES IDX 56 35 69 37 89 38 58 39 43 40 44 41 52 42 45 43 51 44 46 45
REMARK SMILES IDX 47 46 48 47 49 48 50 49 73 50 74 51 82 52 75 53 81 54 76 55
REMARK SMILES IDX 77 56 78 57 79 58 80 59 59 60 60 61 68 62 61 63 67 64 62 65
REMARK SMILES IDX 63 66 64 67 65 68 66 69 7 70 8 71 9 72 10 74 11 75 12 76
REMARK SMILES IDX 31 77 28 78 30 79 32 80 29 81 33 82 13 83 14 84 15 85 16 87
REMARK SMILES IDX 17 88 27 89 18 90 26 91 19 92 20 93 21 94 22 95 25 96 23 97
REMARK SMILES IDX 24 98
REMARK H PARENT 3 7 87 25 57 36 8 73 15 86
REMARK Flexibility Score: inf
ROOT
ATOM      1  C   UNL     1       6.512  -1.237  -2.138  1.00  0.00     0.023 C 
ENDROOT
BRANCH   1   2
ATOM      2  C   UNL     1       6.143  -0.577  -0.805  1.00  0.00     0.023 C 
BRANCH   2   3
ATOM      3  C   UNL     1       5.131   0.569  -0.763  1.00  0.00     0.116 C 
BRANCH   3   4
ATOM      4  N   UNL     1       3.776   0.261  -1.174  1.00  0.00    -0.352 N 
ATOM      5  O   UNL     1       1.592   0.655  -1.018  1.00  0.00    -0.269 OA
ATOM      6  C   UNL     1       2.605   0.238  -0.450  1.00  0.00     0.251 C 
ATOM      7  H   UNL     1       3.677   0.030  -2.126  1.00  0.00     0.163 HD
BRANCH   6   8
ATOM      8  C   UNL     1       2.467  -0.420   0.881  1.00  0.00     0.039 A 
ATOM      9  C   UNL     1       3.523  -1.007   1.573  1.00  0.00     0.014 A 
ATOM     10  C   UNL     1       1.157  -0.611   1.365  1.00  0.00     0.014 A 
ATOM     11  C   UNL     1       3.280  -1.881   2.625  1.00  0.00     0.010 A 
ATOM     12  C   UNL     1       0.908  -1.471   2.432  1.00  0.00     0.010 A 
ATOM     13  C   UNL     1       1.970  -2.157   3.016  1.00  0.00    -0.014 A 
BRANCH  13  14
ATOM     14  C   UNL     1       1.775  -3.103   4.113  1.00  0.00     0.031 A 
ATOM     15  C   UNL     1       2.302  -2.651   5.435  1.00  0.00     0.074 A 
ATOM     16  C   UNL     1       1.042  -4.227   3.990  1.00  0.00     0.049 A 
ATOM     17  N   UNL     1       3.140  -3.238   6.228  1.00  0.00    -0.248 NA
ATOM     18  C   UNL     1       1.897  -1.307   5.882  1.00  0.00     0.031 C 
ATOM     19  C   UNL     1       0.224  -4.644   2.847  1.00  0.00     0.029 A 
ATOM     20  N   UNL     1       0.759  -5.172   4.930  1.00  0.00    -0.354 N 
ATOM     21  C   UNL     1       3.248  -2.416   7.349  1.00  0.00     0.074 A 
ATOM     22  C   UNL     1       2.572  -1.186   7.022  1.00  0.00     0.031 C 
ATOM     23  C   UNL     1      -0.648  -5.593   3.252  1.00  0.00     0.029 A 
ATOM     24  C   UNL     1      -0.366  -5.932   4.637  1.00  0.00     0.049 A 
ATOM     25  H   UNL     1       1.301  -5.303   5.742  1.00  0.00     0.167 HD
ATOM     26  C   UNL     1       3.706  -2.854   8.555  1.00  0.00     0.031 A 
ATOM     27  C   UNL     1      -1.081  -6.692   5.505  1.00  0.00     0.031 A 
ATOM     28  C   UNL     1       4.437  -4.085   8.458  1.00  0.00     0.049 A 
ATOM     29  C   UNL     1      -0.220  -6.959   6.684  1.00  0.00     0.074 A 
ATOM     30  C   UNL     1       5.599  -4.479   7.827  1.00  0.00     0.029 A 
ATOM     31  N   UNL     1       3.783  -5.245   8.797  1.00  0.00    -0.354 N 
ATOM     32  N   UNL     1       0.868  -7.675   6.634  1.00  0.00    -0.248 NA
ATOM     33  C   UNL     1      -0.327  -6.070   7.831  1.00  0.00     0.031 C 
ATOM     34  C   UNL     1       5.343  -5.810   7.385  1.00  0.00     0.029 A 
ATOM     35  C   UNL     1       4.059  -6.158   7.812  1.00  0.00     0.049 A 
ATOM     36  H   UNL     1       3.224  -5.392   9.594  1.00  0.00     0.167 HD
ATOM     37  C   UNL     1       1.755  -7.041   7.492  1.00  0.00     0.074 A 
ATOM     38  C   UNL     1       0.933  -6.120   8.273  1.00  0.00     0.031 C 
ATOM     39  C   UNL     1       3.106  -7.120   7.303  1.00  0.00     0.031 A 
BRANCH  26  40
ATOM     40  C   UNL     1       3.168  -2.335   9.865  1.00  0.00    -0.014 A 
ATOM     41  C   UNL     1       3.783  -2.715  11.074  1.00  0.00     0.010 A 
ATOM     42  C   UNL     1       1.907  -1.708   9.956  1.00  0.00     0.010 A 
ATOM     43  C   UNL     1       3.136  -2.528  12.305  1.00  0.00     0.020 A 
ATOM     44  C   UNL     1       1.275  -1.476  11.177  1.00  0.00     0.020 A 
ATOM     45  C   UNL     1       1.878  -1.923  12.344  1.00  0.00     0.054 A 
BRANCH  45  46
ATOM     46  S   UNL     1       0.990  -1.806  13.917  1.00  0.00     0.124 S 
ATOM     47  O   UNL     1       0.719  -3.210  14.212  1.00  0.00    -0.237 OA
ATOM     48  O   UNL     1       1.970  -1.153  14.780  1.00  0.00    -0.237 OA
ATOM     49  O   UNL     1      -0.182  -0.997  13.589  1.00  0.00    -0.744 OA
ENDBRANCH  45  46
ENDBRANCH  26  40
BRANCH  27  50
ATOM     50  C   UNL     1      -2.560  -6.842   5.529  1.00  0.00    -0.014 A 
ATOM     51  C   UNL     1      -3.190  -7.847   6.285  1.00  0.00     0.010 A 
ATOM     52  C   UNL     1      -3.374  -5.819   4.999  1.00  0.00     0.010 A 
ATOM     53  C   UNL     1      -4.576  -7.805   6.532  1.00  0.00     0.020 A 
ATOM     54  C   UNL     1      -4.752  -5.774   5.230  1.00  0.00     0.020 A 
ATOM     55  C   UNL     1      -5.345  -6.758   6.013  1.00  0.00     0.054 A 
BRANCH  55  56
ATOM     56  S   UNL     1      -7.102  -6.621   6.460  1.00  0.00     0.124 S 
ATOM     57  O   UNL     1      -7.694  -7.743   5.738  1.00  0.00    -0.237 OA
ATOM     58  O   UNL     1      -7.071  -6.748   7.914  1.00  0.00    -0.237 OA
ATOM     59  O   UNL     1      -7.480  -5.298   5.965  1.00  0.00    -0.744 OA
ENDBRANCH  55  56
ENDBRANCH  27  50
BRANCH  39  60
ATOM     60  C   UNL     1       3.627  -8.096   6.272  1.00  0.00    -0.014 A 
ATOM     61  C   UNL     1       3.338  -7.983   4.896  1.00  0.00     0.010 A 
ATOM     62  C   UNL     1       4.574  -9.049   6.681  1.00  0.00     0.010 A 
ATOM     63  C   UNL     1       3.964  -8.817   3.959  1.00  0.00     0.020 A 
ATOM     64  C   UNL     1       5.214  -9.873   5.750  1.00  0.00     0.020 A 
ATOM     65  C   UNL     1       4.902  -9.758   4.394  1.00  0.00     0.054 A 
BRANCH  65  66
ATOM     66  S   UNL     1       5.758 -10.786   3.168  1.00  0.00     0.124 S 
ATOM     67  O   UNL     1       4.693 -11.655   2.680  1.00  0.00    -0.237 OA
ATOM     68  O   UNL     1       6.261  -9.802   2.214  1.00  0.00    -0.237 OA
ATOM     69  O   UNL     1       6.798 -11.463   3.949  1.00  0.00    -0.744 OA
ENDBRANCH  65  66
ENDBRANCH  39  60
ENDBRANCH  13  14
ENDBRANCH   6   8
ENDBRANCH   3   4
ENDBRANCH   2   3
ENDBRANCH   1   2
BRANCH   1  70
ATOM     70  C   UNL     1       6.715  -0.373  -3.394  1.00  0.00     0.116 C 
BRANCH  70  71
ATOM     71  N   UNL     1       7.415  -1.130  -4.455  1.00  0.00    -0.356 N 
ATOM     72  C   UNL     1       7.265  -1.672  -5.679  1.00  0.00     0.224 C 
ATOM     73  H   UNL     1       8.336  -1.302  -4.153  1.00  0.00     0.163 HD
ATOM     74  O   UNL     1       8.297  -2.268  -6.049  1.00  0.00    -0.275 OA
BRANCH  72  75
ATOM     75  C   UNL     1       6.100  -1.671  -6.703  1.00  0.00     0.098 C 
ATOM     76  C   UNL     1       4.879  -0.744  -6.815  1.00  0.00     0.098 C 
ATOM     77  C   UNL     1       5.699  -3.118  -7.248  1.00  0.00     0.025 C 
ATOM     78  C   UNL     1       3.783  -1.420  -7.713  1.00  0.00     0.025 C 
ATOM     79  C   UNL     1       4.309  -3.566  -6.812  1.00  0.00    -0.027 C 
ATOM     80  C   UNL     1       5.500  -2.991  -8.780  1.00  0.00     0.009 C 
ATOM     81  C   UNL     1       3.320  -2.690  -7.052  1.00  0.00    -0.027 C 
ATOM     82  C   UNL     1       4.423  -1.900  -9.054  1.00  0.00     0.009 C 
BRANCH  76  83
ATOM     83  C   UNL     1       4.271   0.020  -5.642  1.00  0.00     0.228 C 
ATOM     84  O   UNL     1       4.393   1.256  -5.633  1.00  0.00    -0.274 OA
ATOM     85  N   UNL     1       3.482  -0.504  -4.662  1.00  0.00    -0.326 N 
ATOM     86  H   UNL     1       2.826   0.141  -4.313  1.00  0.00     0.169 HD
BRANCH  85  87
ATOM     87  C   UNL     1       3.398  -1.762  -4.038  1.00  0.00     0.041 A 
ATOM     88  C   UNL     1       2.318  -2.034  -3.202  1.00  0.00     0.026 A 
ATOM     89  C   UNL     1       4.400  -2.713  -4.100  1.00  0.00     0.026 A 
ATOM     90  C   UNL     1       2.249  -3.247  -2.493  1.00  0.00     0.008 A 
ATOM     91  C   UNL     1       4.348  -3.926  -3.420  1.00  0.00     0.008 A 
ATOM     92  C   UNL     1       3.265  -4.208  -2.604  1.00  0.00    -0.026 A 
BRANCH  92  93
ATOM     93  C   UNL     1       3.276  -5.491  -1.818  1.00  0.00     0.181 C 
BRANCH  93  94
ATOM     94  N   UNL     1       4.093  -5.367  -0.627  1.00  0.00    -0.249 N 
ATOM     95  C   UNL     1       3.848  -4.599   0.465  1.00  0.00     0.220 A 
ATOM     96  N   UNL     1       5.218  -6.088  -0.469  1.00  0.00    -0.160 NA
ATOM     97  N   UNL     1       4.769  -4.818   1.373  1.00  0.00    -0.224 NA
ATOM     98  C   UNL     1       5.540  -5.790   0.795  1.00  0.00     0.246 A 
ENDBRANCH  93  94
ENDBRANCH  92  93
ENDBRANCH  85  87
ENDBRANCH  76  83
ENDBRANCH  72  75
ENDBRANCH  70  71
ENDBRANCH   1  70
TORSDOF 18
