REMARK SMILES CC[C@@](C)([NH3+])C(=O)Nc1cc(C(=O)NCCCCNC(=O)c2ccc(-c3c4nc(c(-c5ccc(S(=O)(=O)[O-])cc5)c5ccc([nH]5)c(-c5ccc(S(=O)(=O)[O-])cc5)c5nc(c(-c6ccc(S(=O)(=O)[O-])cc6)c6ccc3[nH]6)C=C5)C=C4)cc2)cc(C(F)(F)F)c1
REMARK SMILES IDX 16 1 15 2 14 3 12 4 13 5 11 7 9 8 10 9 88 10 83 11 82 12
REMARK SMILES IDX 8 13 6 14 7 15 3 17 4 18 2 19 1 20 5 21 84 25 85 26 86 27
REMARK SMILES IDX 87 28 17 29 18 30 19 31 20 32 21 34 22 35 23 36 81 37 24 38
REMARK SMILES IDX 80 39 25 40 26 41 27 42 74 43 28 44 79 45 73 46 75 47 29 48
REMARK SMILES IDX 78 49 72 50 71 51 30 53 60 54 41 55 59 56 42 57 45 58 58 59
REMARK SMILES IDX 76 60 43 61 44 62 57 64 77 65 46 66 31 67 32 68 40 69 33 70
REMARK SMILES IDX 39 71 34 72 35 73 36 74 37 75 38 76 61 77 62 78 70 79 63 80
REMARK SMILES IDX 69 81 64 82 65 83 66 84 67 85 68 86 47 87 48 88 56 89 49 90
REMARK SMILES IDX 55 91 50 92 51 93 52 94 53 95 54 96
REMARK H PARENT 14 6 8 16 5 22 5 23 5 24 19 33 75 52 45 63
REMARK Flexibility Score: inf
ROOT
ATOM      1  C   UNL     1       2.001  -0.536 -11.252  1.00  0.00     0.023 C 
ENDROOT
BRANCH   1   2
ATOM      2  C   UNL     1       1.450  -1.049  -9.932  1.00  0.00     0.116 C 
BRANCH   2   3
ATOM      3  N   UNL     1       2.266  -2.031  -9.232  1.00  0.00    -0.352 N 
ATOM      4  C   UNL     1       2.545  -2.160  -7.883  1.00  0.00     0.251 C 
ATOM      5  O   UNL     1       3.245  -3.090  -7.490  1.00  0.00    -0.269 OA
ATOM      6  H   UNL     1       2.685  -2.710  -9.809  1.00  0.00     0.163 HD
BRANCH   4   7
ATOM      7  C   UNL     1       2.066  -1.150  -6.901  1.00  0.00     0.042 A 
ATOM      8  C   UNL     1       2.477   0.220  -4.960  1.00  0.00     0.042 A 
ATOM      9  C   UNL     1       2.869  -0.823  -5.798  1.00  0.00     0.040 A 
ATOM     10  C   UNL     1       1.461   1.070  -5.379  1.00  0.00     0.039 A 
ATOM     11  C   UNL     1       0.589   0.694  -6.397  1.00  0.00     0.058 A 
ATOM     12  C   UNL     1       0.842  -0.500  -7.067  1.00  0.00     0.027 A 
BRANCH   8  13
ATOM     13  N   UNL     1       3.116   0.419  -3.731  1.00  0.00    -0.321 N 
ATOM     14  C   UNL     1       2.585   0.796  -2.513  1.00  0.00     0.285 C 
ATOM     15  O   UNL     1       3.398   1.140  -1.643  1.00  0.00    -0.267 OA
ATOM     16  H   UNL     1       4.089   0.268  -3.736  1.00  0.00     0.170 HD
BRANCH  14  17
ATOM     17  C   UNL     1       1.037   0.657  -2.172  1.00  0.00     0.171 C 
ATOM     18  C   UNL     1       0.509  -0.738  -2.553  1.00  0.00     0.090 C 
BRANCH  17  19
ATOM     19  C   UNL     1       0.787   0.917  -0.656  1.00  0.00     0.075 C 
ATOM     20  C   UNL     1       1.280  -0.164   0.297  1.00  0.00     0.011 C 
ENDBRANCH  17  19
BRANCH  17  21
ATOM     21  N   UNL     1       0.252   1.707  -2.869  1.00  0.00    -0.345 N 
ATOM     22  H   UNL     1      -0.736   1.602  -2.639  1.00  0.00     0.345 HD
ATOM     23  H   UNL     1       0.378   1.614  -3.877  1.00  0.00     0.345 HD
ATOM     24  H   UNL     1       0.574   2.627  -2.570  1.00  0.00     0.345 HD
ENDBRANCH  17  21
ENDBRANCH  14  17
ENDBRANCH   8  13
BRANCH  11  25
ATOM     25  C   UNL     1      -0.558   1.570  -6.816  1.00  0.00     0.416 C 
ATOM     26  F   UNL     1      -0.316   2.192  -8.002  1.00  0.00    -0.166 F 
ATOM     27  F   UNL     1      -1.709   0.866  -6.990  1.00  0.00    -0.166 F 
ATOM     28  F   UNL     1      -0.854   2.553  -5.924  1.00  0.00    -0.166 F 
ENDBRANCH  11  25
ENDBRANCH   4   7
ENDBRANCH   2   3
ENDBRANCH   1   2
BRANCH   1  29
ATOM     29  C   UNL     1       2.177  -1.560 -12.361  1.00  0.00     0.023 C 
BRANCH  29  30
ATOM     30  C   UNL     1       1.001  -2.501 -12.596  1.00  0.00     0.116 C 
BRANCH  30  31
ATOM     31  N   UNL     1      -0.253  -1.825 -12.907  1.00  0.00    -0.352 N 
ATOM     32  C   UNL     1      -1.038  -1.892 -14.037  1.00  0.00     0.251 C 
ATOM     33  H   UNL     1      -0.592  -1.230 -12.200  1.00  0.00     0.163 HD
ATOM     34  O   UNL     1      -2.043  -1.192 -14.129  1.00  0.00    -0.269 OA
BRANCH  32  35
ATOM     35  C   UNL     1      -0.635  -2.763 -15.160  1.00  0.00     0.039 A 
ATOM     36  C   UNL     1      -0.541  -2.210 -16.439  1.00  0.00     0.014 A 
ATOM     37  C   UNL     1      -0.273  -4.093 -14.938  1.00  0.00     0.014 A 
ATOM     38  C   UNL     1       0.043  -2.951 -17.468  1.00  0.00     0.010 A 
ATOM     39  C   UNL     1       0.384  -4.799 -15.941  1.00  0.00     0.010 A 
ATOM     40  C   UNL     1       0.577  -4.224 -17.206  1.00  0.00    -0.014 A 
BRANCH  40  41
ATOM     41  C   UNL     1       1.404  -4.941 -18.210  1.00  0.00     0.031 A 
ATOM     42  C   UNL     1       0.969  -6.278 -18.740  1.00  0.00     0.074 A 
ATOM     43  C   UNL     1       2.603  -4.432 -18.563  1.00  0.00     0.049 A 
ATOM     44  N   UNL     1       1.615  -7.101 -19.526  1.00  0.00    -0.248 NA
ATOM     45  C   UNL     1      -0.351  -6.766 -18.309  1.00  0.00     0.031 C 
ATOM     46  C   UNL     1       3.164  -3.165 -18.084  1.00  0.00     0.029 A 
ATOM     47  N   UNL     1       3.577  -4.928 -19.395  1.00  0.00    -0.354 N 
ATOM     48  C   UNL     1       0.791  -8.210 -19.669  1.00  0.00     0.074 A 
ATOM     49  C   UNL     1      -0.383  -7.973 -18.856  1.00  0.00     0.031 C 
ATOM     50  C   UNL     1       4.368  -2.975 -18.645  1.00  0.00     0.029 A 
ATOM     51  C   UNL     1       4.689  -4.123 -19.485  1.00  0.00     0.049 A 
ATOM     52  H   UNL     1       3.487  -5.779 -19.882  1.00  0.00     0.167 HD
ATOM     53  C   UNL     1       0.987  -9.319 -20.421  1.00  0.00     0.031 A 
ATOM     54  C   UNL     1       5.846  -4.295 -20.152  1.00  0.00     0.031 A 
ATOM     55  C   UNL     1       2.149  -9.549 -21.237  1.00  0.00     0.049 A 
ATOM     56  C   UNL     1       6.049  -5.544 -20.963  1.00  0.00     0.074 A 
ATOM     57  C   UNL     1       2.406 -10.611 -22.086  1.00  0.00     0.029 A 
ATOM     58  N   UNL     1       3.248  -8.707 -21.304  1.00  0.00    -0.354 N 
ATOM     59  N   UNL     1       5.228  -6.552 -21.138  1.00  0.00    -0.248 NA
ATOM     60  C   UNL     1       7.332  -5.679 -21.666  1.00  0.00     0.031 C 
ATOM     61  C   UNL     1       3.683 -10.435 -22.631  1.00  0.00     0.029 A 
ATOM     62  C   UNL     1       4.200  -9.240 -22.157  1.00  0.00     0.049 A 
ATOM     63  H   UNL     1       3.340  -7.857 -20.817  1.00  0.00     0.167 HD
ATOM     64  C   UNL     1       5.891  -7.435 -21.981  1.00  0.00     0.074 A 
ATOM     65  C   UNL     1       7.172  -6.836 -22.296  1.00  0.00     0.031 C 
ATOM     66  C   UNL     1       5.474  -8.636 -22.452  1.00  0.00     0.031 A 
BRANCH  53  67
ATOM     67  C   UNL     1      -0.085 -10.375 -20.389  1.00  0.00    -0.014 A 
ATOM     68  C   UNL     1      -1.326 -10.164 -21.016  1.00  0.00     0.010 A 
ATOM     69  C   UNL     1       0.162 -11.605 -19.753  1.00  0.00     0.010 A 
ATOM     70  C   UNL     1      -2.317 -11.147 -20.971  1.00  0.00     0.020 A 
ATOM     71  C   UNL     1      -0.818 -12.601 -19.727  1.00  0.00     0.020 A 
ATOM     72  C   UNL     1      -2.059 -12.358 -20.321  1.00  0.00     0.054 A 
BRANCH  72  73
ATOM     73  S   UNL     1      -3.358 -13.623 -20.289  1.00  0.00     0.124 S 
ATOM     74  O   UNL     1      -4.280 -13.080 -19.294  1.00  0.00    -0.237 OA
ATOM     75  O   UNL     1      -3.846 -13.617 -21.666  1.00  0.00    -0.237 OA
ATOM     76  O   UNL     1      -2.651 -14.836 -19.888  1.00  0.00    -0.744 OA
ENDBRANCH  72  73
ENDBRANCH  53  67
BRANCH  54  77
ATOM     77  C   UNL     1       6.906  -3.253 -20.080  1.00  0.00    -0.014 A 
ATOM     78  C   UNL     1       7.165  -2.426 -21.186  1.00  0.00     0.010 A 
ATOM     79  C   UNL     1       7.648  -3.070 -18.898  1.00  0.00     0.010 A 
ATOM     80  C   UNL     1       8.153  -1.440 -21.117  1.00  0.00     0.020 A 
ATOM     81  C   UNL     1       8.621  -2.070 -18.818  1.00  0.00     0.020 A 
ATOM     82  C   UNL     1       8.874  -1.267 -19.932  1.00  0.00     0.054 A 
BRANCH  82  83
ATOM     83  S   UNL     1      10.109   0.060 -19.842  1.00  0.00     0.124 S 
ATOM     84  O   UNL     1      11.220  -0.509 -20.598  1.00  0.00    -0.237 OA
ATOM     85  O   UNL     1       9.418   1.180 -20.476  1.00  0.00    -0.237 OA
ATOM     86  O   UNL     1      10.339   0.213 -18.407  1.00  0.00    -0.744 OA
ENDBRANCH  82  83
ENDBRANCH  54  77
BRANCH  66  87
ATOM     87  C   UNL     1       6.407  -9.382 -23.366  1.00  0.00    -0.014 A 
ATOM     88  C   UNL     1       7.540 -10.041 -22.858  1.00  0.00     0.010 A 
ATOM     89  C   UNL     1       6.112  -9.478 -24.738  1.00  0.00     0.010 A 
ATOM     90  C   UNL     1       8.372 -10.771 -23.711  1.00  0.00     0.020 A 
ATOM     91  C   UNL     1       6.929 -10.225 -25.589  1.00  0.00     0.020 A 
ATOM     92  C   UNL     1       8.060 -10.860 -25.071  1.00  0.00     0.054 A 
BRANCH  92  93
ATOM     93  S   UNL     1       9.121 -11.863 -26.147  1.00  0.00     0.124 S 
ATOM     94  O   UNL     1      10.291 -11.005 -26.306  1.00  0.00    -0.237 OA
ATOM     95  O   UNL     1       9.332 -13.072 -25.354  1.00  0.00    -0.237 OA
ATOM     96  O   UNL     1       8.315 -12.049 -27.352  1.00  0.00    -0.744 OA
ENDBRANCH  92  93
ENDBRANCH  66  87
ENDBRANCH  40  41
ENDBRANCH  32  35
ENDBRANCH  30  31
ENDBRANCH  29  30
ENDBRANCH   1  29
TORSDOF 19
