REMARK SMILES CC1=C(C(=O)NCCCCNC(=O)c2ccc(-c3c4nc(c(-c5ccc(S(=O)(=O)[O-])cc5)c5ccc([nH]5)c(-c5ccc(S(=O)(=O)[O-])cc5)c5nc(c(-c6ccc(S(=O)(=O)[O-])cc6)c6ccc3[nH]6)C=C5)C=C4)cc2)[C@H](c2ccc(Cl)cc2)n2ncnc2N1
REMARK SMILES IDX 9 1 8 2 7 3 6 4 4 5 5 6 3 8 1 9 2 10 87 11 74 12 86 13 82 15
REMARK SMILES IDX 85 16 83 17 84 18 75 19 76 20 81 21 77 22 80 23 78 24 79 25
REMARK SMILES IDX 10 26 11 27 12 28 13 30 14 31 15 32 73 33 16 34 72 35 17 36
REMARK SMILES IDX 18 37 19 38 66 39 20 40 71 41 65 42 67 43 21 44 70 45 64 46
REMARK SMILES IDX 63 47 22 49 52 50 33 51 51 52 34 53 37 54 50 55 68 56 35 57
REMARK SMILES IDX 36 58 49 60 69 61 38 62 23 63 24 64 32 65 25 66 31 67 26 68
REMARK SMILES IDX 27 69 28 70 29 71 30 72 53 73 54 74 62 75 55 76 61 77 56 78
REMARK SMILES IDX 57 79 58 80 59 81 60 82 39 83 40 84 48 85 41 86 47 87 42 88
REMARK SMILES IDX 43 89 44 90 45 91 46 92
REMARK H PARENT 6 7 87 14 11 29 67 48 37 59
REMARK Flexibility Score: inf
ROOT
ATOM      1  C   UNL     1       3.210   3.227  -1.502  1.00  0.00     0.023 C 
ENDROOT
BRANCH   1   2
ATOM      2  C   UNL     1       3.348   1.768  -1.046  1.00  0.00     0.023 C 
BRANCH   2   3
ATOM      3  C   UNL     1       2.059   0.994  -0.751  1.00  0.00     0.116 C 
BRANCH   3   4
ATOM      4  N   UNL     1       1.185   0.828  -1.893  1.00  0.00    -0.352 N 
ATOM      5  C   UNL     1       0.314  -0.150  -2.265  1.00  0.00     0.251 C 
ATOM      6  O   UNL     1      -0.150  -0.025  -3.398  1.00  0.00    -0.270 OA
ATOM      7  H   UNL     1       1.230   1.575  -2.533  1.00  0.00     0.163 HD
BRANCH   5   8
ATOM      8  C   UNL     1       0.049  -1.402  -1.483  1.00  0.00     0.065 C 
ATOM      9  C   UNL     1       0.010  -0.537   0.913  1.00  0.00     0.065 C 
ATOM     10  C   UNL     1       0.094  -1.606  -0.139  1.00  0.00     0.026 C 
ATOM     11  N   UNL     1       0.177  -2.908   0.363  1.00  0.00    -0.328 N 
ATOM     12  C   UNL     1      -0.383  -2.608  -2.370  1.00  0.00     0.179 C 
ATOM     13  C   UNL     1       0.343  -3.986  -0.426  1.00  0.00     0.226 A 
ATOM     14  H   UNL     1       0.111  -3.042   1.336  1.00  0.00     0.169 HD
ATOM     15  N   UNL     1       0.156  -3.841  -1.776  1.00  0.00    -0.219 N 
ATOM     16  N   UNL     1       0.632  -5.233  -0.156  1.00  0.00    -0.200 NA
ATOM     17  N   UNL     1       0.363  -5.007  -2.428  1.00  0.00    -0.157 NA
ATOM     18  C   UNL     1       0.633  -5.818  -1.397  1.00  0.00     0.248 A 
BRANCH  12  19
ATOM     19  C   UNL     1      -1.934  -2.695  -2.503  1.00  0.00    -0.018 A 
ATOM     20  C   UNL     1      -2.712  -3.664  -1.832  1.00  0.00     0.008 A 
ATOM     21  C   UNL     1      -2.635  -1.751  -3.280  1.00  0.00     0.008 A 
ATOM     22  C   UNL     1      -4.111  -3.670  -1.915  1.00  0.00     0.021 A 
ATOM     23  C   UNL     1      -4.035  -1.740  -3.344  1.00  0.00     0.021 A 
ATOM     24  C   UNL     1      -4.768  -2.700  -2.660  1.00  0.00     0.041 A 
ATOM     25  Cl  UNL     1      -6.484  -2.702  -2.732  1.00  0.00    -0.084 Cl
ENDBRANCH  12  19
ENDBRANCH   5   8
ENDBRANCH   3   4
ENDBRANCH   2   3
ENDBRANCH   1   2
BRANCH   1  26
ATOM     26  C   UNL     1       2.344   4.115  -0.620  1.00  0.00     0.116 C 
BRANCH  26  27
ATOM     27  N   UNL     1       2.848   4.275   0.740  1.00  0.00    -0.352 N 
ATOM     28  C   UNL     1       2.370   5.141   1.714  1.00  0.00     0.251 C 
ATOM     29  H   UNL     1       3.611   3.707   0.995  1.00  0.00     0.163 HD
ATOM     30  O   UNL     1       3.022   5.388   2.710  1.00  0.00    -0.269 OA
BRANCH  28  31
ATOM     31  C   UNL     1       1.049   5.769   1.494  1.00  0.00     0.039 A 
ATOM     32  C   UNL     1       0.873   7.147   1.649  1.00  0.00     0.014 A 
ATOM     33  C   UNL     1       0.004   4.962   1.053  1.00  0.00     0.014 A 
ATOM     34  C   UNL     1      -0.337   7.724   1.256  1.00  0.00     0.010 A 
ATOM     35  C   UNL     1      -1.139   5.546   0.556  1.00  0.00     0.010 A 
ATOM     36  C   UNL     1      -1.333   6.923   0.681  1.00  0.00    -0.014 A 
BRANCH  36  37
ATOM     37  C   UNL     1      -2.546   7.518   0.116  1.00  0.00     0.031 A 
ATOM     38  C   UNL     1      -2.360   8.544  -0.954  1.00  0.00     0.074 A 
ATOM     39  C   UNL     1      -3.773   6.997   0.337  1.00  0.00     0.049 A 
ATOM     40  N   UNL     1      -2.766   9.771  -0.953  1.00  0.00    -0.248 NA
ATOM     41  C   UNL     1      -1.575   8.183  -2.145  1.00  0.00     0.031 C 
ATOM     42  C   UNL     1      -4.116   5.802   1.116  1.00  0.00     0.029 A 
ATOM     43  N   UNL     1      -4.963   7.337  -0.233  1.00  0.00    -0.354 N 
ATOM     44  C   UNL     1      -2.449  10.298  -2.204  1.00  0.00     0.074 A 
ATOM     45  C   UNL     1      -1.602   9.321  -2.844  1.00  0.00     0.031 C 
ATOM     46  C   UNL     1      -5.340   5.366   0.750  1.00  0.00     0.029 A 
ATOM     47  C   UNL     1      -5.929   6.341  -0.149  1.00  0.00     0.049 A 
ATOM     48  H   UNL     1      -5.124   8.208  -0.663  1.00  0.00     0.167 HD
ATOM     49  C   UNL     1      -3.054  11.415  -2.700  1.00  0.00     0.031 A 
ATOM     50  C   UNL     1      -7.112   6.291  -0.807  1.00  0.00     0.031 A 
ATOM     51  C   UNL     1      -3.829  12.096  -1.696  1.00  0.00     0.049 A 
ATOM     52  C   UNL     1      -7.446   7.676  -1.216  1.00  0.00     0.074 A 
ATOM     53  C   UNL     1      -3.547  12.686  -0.480  1.00  0.00     0.029 A 
ATOM     54  N   UNL     1      -5.191  11.905  -1.719  1.00  0.00    -0.354 N 
ATOM     55  N   UNL     1      -7.723   8.621  -0.362  1.00  0.00    -0.248 NA
ATOM     56  C   UNL     1      -7.064   8.134  -2.542  1.00  0.00     0.031 C 
ATOM     57  C   UNL     1      -4.664  12.368   0.347  1.00  0.00     0.029 A 
ATOM     58  C   UNL     1      -5.585  11.660  -0.428  1.00  0.00     0.049 A 
ATOM     59  H   UNL     1      -5.774  11.939  -2.512  1.00  0.00     0.167 HD
ATOM     60  C   UNL     1      -7.121   9.756  -0.883  1.00  0.00     0.074 A 
ATOM     61  C   UNL     1      -6.852   9.428  -2.281  1.00  0.00     0.031 C 
ATOM     62  C   UNL     1      -6.641  10.739  -0.062  1.00  0.00     0.031 A 
BRANCH  49  63
ATOM     63  C   UNL     1      -3.242  11.724  -4.167  1.00  0.00    -0.014 A 
ATOM     64  C   UNL     1      -3.775  12.978  -4.539  1.00  0.00     0.010 A 
ATOM     65  C   UNL     1      -3.175  10.736  -5.168  1.00  0.00     0.010 A 
ATOM     66  C   UNL     1      -4.286  13.202  -5.825  1.00  0.00     0.020 A 
ATOM     67  C   UNL     1      -3.642  10.964  -6.466  1.00  0.00     0.020 A 
ATOM     68  C   UNL     1      -4.232  12.183  -6.775  1.00  0.00     0.054 A 
BRANCH  68  69
ATOM     69  S   UNL     1      -5.014  12.433  -8.389  1.00  0.00     0.124 S 
ATOM     70  O   UNL     1      -6.429  12.487  -8.031  1.00  0.00    -0.237 OA
ATOM     71  O   UNL     1      -4.424  13.694  -8.830  1.00  0.00    -0.237 OA
ATOM     72  O   UNL     1      -4.604  11.257  -9.153  1.00  0.00    -0.744 OA
ENDBRANCH  68  69
ENDBRANCH  49  63
BRANCH  50  73
ATOM     73  C   UNL     1      -7.828   5.094  -1.308  1.00  0.00    -0.014 A 
ATOM     74  C   UNL     1      -9.147   5.191  -1.787  1.00  0.00     0.010 A 
ATOM     75  C   UNL     1      -7.121   3.901  -1.573  1.00  0.00     0.010 A 
ATOM     76  C   UNL     1      -9.706   4.172  -2.575  1.00  0.00     0.020 A 
ATOM     77  C   UNL     1      -7.676   2.874  -2.344  1.00  0.00     0.020 A 
ATOM     78  C   UNL     1      -8.955   3.031  -2.871  1.00  0.00     0.054 A 
BRANCH  78  79
ATOM     79  S   UNL     1      -9.586   1.834  -4.084  1.00  0.00     0.124 S 
ATOM     80  O   UNL     1     -10.612   1.131  -3.321  1.00  0.00    -0.237 OA
ATOM     81  O   UNL     1     -10.074   2.697  -5.157  1.00  0.00    -0.237 OA
ATOM     82  O   UNL     1      -8.405   1.041  -4.425  1.00  0.00    -0.744 OA
ENDBRANCH  78  79
ENDBRANCH  50  73
BRANCH  62  83
ATOM     83  C   UNL     1      -7.022  10.699   1.402  1.00  0.00    -0.014 A 
ATOM     84  C   UNL     1      -6.735   9.610   2.250  1.00  0.00     0.010 A 
ATOM     85  C   UNL     1      -7.561  11.864   1.976  1.00  0.00     0.010 A 
ATOM     86  C   UNL     1      -7.021   9.668   3.621  1.00  0.00     0.020 A 
ATOM     87  C   UNL     1      -7.828  11.937   3.346  1.00  0.00     0.020 A 
ATOM     88  C   UNL     1      -7.571  10.833   4.160  1.00  0.00     0.054 A 
BRANCH  88  89
ATOM     89  S   UNL     1      -7.907  10.915   5.941  1.00  0.00     0.124 S 
ATOM     90  O   UNL     1      -9.043  10.009   6.091  1.00  0.00    -0.237 OA
ATOM     91  O   UNL     1      -6.653  10.454   6.532  1.00  0.00    -0.237 OA
ATOM     92  O   UNL     1      -8.209  12.327   6.174  1.00  0.00    -0.744 OA
ENDBRANCH  88  89
ENDBRANCH  62  83
ENDBRANCH  36  37
ENDBRANCH  28  31
ENDBRANCH  26  27
ENDBRANCH   1  26
TORSDOF 15
