REMARK SMILES CNC(=O)[C@H]1CCCCN1C(=O)NCCOCC(=O)NCCCCNC(=O)c1ccc(-c2c3nc(c(-c4ccc(S(=O)(=O)[O-])cc4)c4ccc([nH]4)c(-c4ccc(S(=O)(=O)[O-])cc4)c4nc(c(-c5ccc(S(=O)(=O)[O-])cc5)c5ccc2[nH]5)C=C4)C=C3)cc1
REMARK SMILES IDX 21 1 20 2 18 3 19 4 17 6 16 7 15 8 14 9 13 10 11 11 12 12
REMARK SMILES IDX 10 14 5 15 6 16 7 17 9 18 8 19 3 20 1 21 2 22 4 24 22 25
REMARK SMILES IDX 23 26 24 27 25 28 26 29 27 31 28 32 29 33 87 34 30 35 86 36
REMARK SMILES IDX 31 37 32 38 33 39 80 40 34 41 85 42 79 43 81 44 35 45 84 46
REMARK SMILES IDX 78 47 77 48 36 50 66 51 47 52 65 53 48 54 51 55 64 56 82 57
REMARK SMILES IDX 49 58 50 59 63 61 83 62 52 63 37 64 38 65 46 66 39 67 45 68
REMARK SMILES IDX 40 69 41 70 42 71 43 72 44 73 67 74 68 75 76 76 69 77 75 78
REMARK SMILES IDX 70 79 71 80 72 81 73 82 74 83 53 84 54 85 62 86 55 87 61 88
REMARK SMILES IDX 56 89 57 90 58 91 59 92 60 93
REMARK H PARENT 20 5 13 13 2 23 25 30 81 49 51 60
REMARK Flexibility Score: inf
ROOT
ATOM      1  C   UNL     1       0.594  -9.540   4.389  1.00  0.00     0.116 C 
ENDROOT
BRANCH   1   2
ATOM      2  N   UNL     1       0.256  -8.730   3.235  1.00  0.00    -0.354 N 
ATOM      3  C   UNL     1       0.910  -7.629   2.763  1.00  0.00     0.245 C 
ATOM      4  O   UNL     1       0.469  -7.048   1.771  1.00  0.00    -0.272 OA
ATOM      5  H   UNL     1      -0.543  -9.009   2.731  1.00  0.00     0.163 HD
BRANCH   3   6
ATOM      6  C   UNL     1       2.182  -7.165   3.477  1.00  0.00     0.260 C 
BRANCH   6   7
ATOM      7  O   UNL     1       2.018  -6.697   4.807  1.00  0.00    -0.370 OA
BRANCH   7   8
ATOM      8  C   UNL     1       1.231  -5.504   4.930  1.00  0.00     0.182 C 
BRANCH   8   9
ATOM      9  C   UNL     1       2.000  -4.248   4.500  1.00  0.00     0.146 C 
BRANCH   9  10
ATOM     10  N   UNL     1       1.873  -3.965   3.079  1.00  0.00    -0.336 N 
ATOM     11  C   UNL     1       1.018  -3.333   2.263  1.00  0.00     0.318 C 
ATOM     12  O   UNL     1       1.338  -3.373   1.070  1.00  0.00    -0.249 OA
ATOM     13  H   UNL     1       2.629  -4.344   2.575  1.00  0.00     0.165 HD
BRANCH  11  14
ATOM     14  N   UNL     1      -0.083  -2.648   2.688  1.00  0.00    -0.313 N 
ATOM     15  C   UNL     1      -0.734  -1.765   1.693  1.00  0.00     0.176 C 
ATOM     16  C   UNL     1      -0.294  -0.314   1.988  1.00  0.00     0.035 C 
ATOM     17  C   UNL     1      -0.455   0.092   3.462  1.00  0.00     0.004 C 
ATOM     18  C   UNL     1      -0.500  -2.353   4.053  1.00  0.00     0.122 C 
ATOM     19  C   UNL     1       0.048  -0.981   4.435  1.00  0.00     0.022 C 
BRANCH  15  20
ATOM     20  C   UNL     1      -2.274  -1.918   1.661  1.00  0.00     0.242 C 
ATOM     21  C   UNL     1      -2.179  -4.174   0.502  1.00  0.00     0.142 C 
ATOM     22  N   UNL     1      -2.831  -3.044   1.124  1.00  0.00    -0.357 N 
ATOM     23  H   UNL     1      -3.813  -3.092   1.167  1.00  0.00     0.163 HD
ATOM     24  O   UNL     1      -3.034  -1.069   2.133  1.00  0.00    -0.273 OA
ENDBRANCH  15  20
ENDBRANCH  11  14
ENDBRANCH   9  10
ENDBRANCH   8   9
ENDBRANCH   7   8
ENDBRANCH   6   7
ENDBRANCH   3   6
ENDBRANCH   1   2
BRANCH   1  25
ATOM     25  C   UNL     1      -0.431  -9.392   5.511  1.00  0.00     0.023 C 
BRANCH  25  26
ATOM     26  C   UNL     1      -1.846  -9.855   5.154  1.00  0.00     0.023 C 
BRANCH  26  27
ATOM     27  C   UNL     1      -1.950 -11.257   4.561  1.00  0.00     0.116 C 
BRANCH  27  28
ATOM     28  N   UNL     1      -1.396 -12.288   5.423  1.00  0.00    -0.352 N 
ATOM     29  C   UNL     1      -1.901 -13.535   5.713  1.00  0.00     0.251 C 
ATOM     30  H   UNL     1      -0.542 -12.063   5.859  1.00  0.00     0.163 HD
ATOM     31  O   UNL     1      -1.355 -14.237   6.553  1.00  0.00    -0.269 OA
BRANCH  29  32
ATOM     32  C   UNL     1      -3.130 -14.000   5.032  1.00  0.00     0.039 A 
ATOM     33  C   UNL     1      -4.165 -14.533   5.804  1.00  0.00     0.014 A 
ATOM     34  C   UNL     1      -3.272 -13.884   3.647  1.00  0.00     0.014 A 
ATOM     35  C   UNL     1      -5.373 -14.881   5.194  1.00  0.00     0.010 A 
ATOM     36  C   UNL     1      -4.498 -14.168   3.052  1.00  0.00     0.010 A 
ATOM     37  C   UNL     1      -5.564 -14.664   3.819  1.00  0.00    -0.014 A 
BRANCH  37  38
ATOM     38  C   UNL     1      -6.869 -14.943   3.167  1.00  0.00     0.031 A 
ATOM     39  C   UNL     1      -6.971 -16.008   2.108  1.00  0.00     0.074 A 
ATOM     40  C   UNL     1      -7.950 -14.202   3.485  1.00  0.00     0.049 A 
ATOM     41  N   UNL     1      -7.998 -16.340   1.369  1.00  0.00    -0.248 NA
ATOM     42  C   UNL     1      -5.754 -16.790   1.831  1.00  0.00     0.031 C 
ATOM     43  C   UNL     1      -7.979 -13.122   4.476  1.00  0.00     0.029 A 
ATOM     44  N   UNL     1      -9.235 -14.240   3.004  1.00  0.00    -0.354 N 
ATOM     45  C   UNL     1      -7.552 -17.363   0.540  1.00  0.00     0.074 A 
ATOM     46  C   UNL     1      -6.148 -17.559   0.827  1.00  0.00     0.031 C 
ATOM     47  C   UNL     1      -9.223 -12.621   4.546  1.00  0.00     0.029 A 
ATOM     48  C   UNL     1     -10.070 -13.309   3.578  1.00  0.00     0.049 A 
ATOM     49  H   UNL     1      -9.531 -14.874   2.312  1.00  0.00     0.167 HD
ATOM     50  C   UNL     1      -8.253 -18.093  -0.361  1.00  0.00     0.031 A 
ATOM     51  C   UNL     1     -11.369 -13.035   3.345  1.00  0.00     0.031 A 
ATOM     52  C   UNL     1      -9.651 -17.903  -0.643  1.00  0.00     0.049 A 
ATOM     53  C   UNL     1     -12.113 -13.833   2.306  1.00  0.00     0.074 A 
ATOM     54  C   UNL     1     -10.453 -18.605  -1.527  1.00  0.00     0.029 A 
ATOM     55  N   UNL     1     -10.458 -16.951  -0.040  1.00  0.00    -0.354 N 
ATOM     56  N   UNL     1     -11.679 -14.820   1.558  1.00  0.00    -0.248 NA
ATOM     57  C   UNL     1     -13.524 -13.486   2.089  1.00  0.00     0.031 C 
ATOM     58  C   UNL     1     -11.737 -18.051  -1.486  1.00  0.00     0.029 A 
ATOM     59  C   UNL     1     -11.746 -17.040  -0.538  1.00  0.00     0.049 A 
ATOM     60  H   UNL     1     -10.159 -16.307   0.642  1.00  0.00     0.167 HD
ATOM     61  C   UNL     1     -12.775 -15.233   0.808  1.00  0.00     0.074 A 
ATOM     62  C   UNL     1     -13.892 -14.400   1.202  1.00  0.00     0.031 C 
ATOM     63  C   UNL     1     -12.851 -16.215  -0.123  1.00  0.00     0.031 A 
BRANCH  50  64
ATOM     64  C   UNL     1      -7.518 -19.180  -1.098  1.00  0.00    -0.014 A 
ATOM     65  C   UNL     1      -7.122 -20.355  -0.433  1.00  0.00     0.010 A 
ATOM     66  C   UNL     1      -7.271 -19.057  -2.477  1.00  0.00     0.010 A 
ATOM     67  C   UNL     1      -6.464 -21.373  -1.127  1.00  0.00     0.020 A 
ATOM     68  C   UNL     1      -6.637 -20.086  -3.181  1.00  0.00     0.020 A 
ATOM     69  C   UNL     1      -6.226 -21.232  -2.497  1.00  0.00     0.054 A 
BRANCH  69  70
ATOM     70  S   UNL     1      -5.404 -22.589  -3.377  1.00  0.00     0.124 S 
ATOM     71  O   UNL     1      -4.031 -22.473  -2.893  1.00  0.00    -0.237 OA
ATOM     72  O   UNL     1      -6.138 -23.763  -2.911  1.00  0.00    -0.237 OA
ATOM     73  O   UNL     1      -5.597 -22.256  -4.786  1.00  0.00    -0.744 OA
ENDBRANCH  69  70
ENDBRANCH  50  64
BRANCH  51  74
ATOM     74  C   UNL     1     -12.063 -11.958   4.104  1.00  0.00    -0.014 A 
ATOM     75  C   UNL     1     -13.078 -12.277   5.025  1.00  0.00     0.010 A 
ATOM     76  C   UNL     1     -11.742 -10.607   3.883  1.00  0.00     0.010 A 
ATOM     77  C   UNL     1     -13.787 -11.264   5.677  1.00  0.00     0.020 A 
ATOM     78  C   UNL     1     -12.428  -9.592   4.556  1.00  0.00     0.020 A 
ATOM     79  C   UNL     1     -13.462  -9.927   5.433  1.00  0.00     0.054 A 
BRANCH  79  80
ATOM     80  S   UNL     1     -14.391  -8.627   6.292  1.00  0.00     0.124 S 
ATOM     81  O   UNL     1     -15.653  -8.624   5.558  1.00  0.00    -0.237 OA
ATOM     82  O   UNL     1     -14.455  -9.134   7.660  1.00  0.00    -0.237 OA
ATOM     83  O   UNL     1     -13.558  -7.440   6.114  1.00  0.00    -0.744 OA
ENDBRANCH  79  80
ENDBRANCH  51  74
BRANCH  63  84
ATOM     84  C   UNL     1     -14.196 -16.482  -0.743  1.00  0.00    -0.014 A 
ATOM     85  C   UNL     1     -14.759 -15.595  -1.676  1.00  0.00     0.010 A 
ATOM     86  C   UNL     1     -14.880 -17.671  -0.425  1.00  0.00     0.010 A 
ATOM     87  C   UNL     1     -15.998 -15.877  -2.259  1.00  0.00     0.020 A 
ATOM     88  C   UNL     1     -16.105 -17.969  -1.026  1.00  0.00     0.020 A 
ATOM     89  C   UNL     1     -16.663 -17.063  -1.930  1.00  0.00     0.054 A 
BRANCH  89  90
ATOM     90  S   UNL     1     -18.245 -17.430  -2.737  1.00  0.00     0.124 S 
ATOM     91  O   UNL     1     -19.154 -16.514  -2.054  1.00  0.00    -0.237 OA
ATOM     92  O   UNL     1     -17.971 -17.117  -4.137  1.00  0.00    -0.237 OA
ATOM     93  O   UNL     1     -18.458 -18.848  -2.452  1.00  0.00    -0.744 OA
ENDBRANCH  89  90
ENDBRANCH  63  84
ENDBRANCH  37  38
ENDBRANCH  29  32
ENDBRANCH  27  28
ENDBRANCH  26  27
ENDBRANCH  25  26
ENDBRANCH   1  25
TORSDOF 20
