REMARK SMILES C[C@H](C(=O)NCCCCNC(=O)c1ccc(-c2c3nc(c(-c4ccc(S(=O)(=O)[O-])cc4)c4ccc([nH]4)c(-c4ccc(S(=O)(=O)[O-])cc4)c4nc(c(-c5ccc(S(=O)(=O)[O-])cc5)c5ccc2[nH]5)C=C4)C=C3)cc1)c1ccc2c(c1)OCCO2
REMARK SMILES IDX 8 1 7 2 6 3 5 4 3 5 4 6 2 8 1 9 73 10 74 11 78 12 75 13
REMARK SMILES IDX 77 14 76 15 79 16 82 17 80 18 81 19 9 20 10 21 11 22 12 24
REMARK SMILES IDX 13 25 14 26 72 27 15 28 71 29 16 30 17 31 18 32 65 33 19 34
REMARK SMILES IDX 70 35 64 36 66 37 20 38 69 39 63 40 62 41 21 43 51 44 32 45
REMARK SMILES IDX 50 46 33 47 36 48 49 49 67 50 34 51 35 52 48 54 68 55 37 56
REMARK SMILES IDX 22 57 23 58 31 59 24 60 30 61 25 62 26 63 27 64 28 65 29 66
REMARK SMILES IDX 52 67 53 68 61 69 54 70 60 71 55 72 56 73 57 74 58 75 59 76
REMARK SMILES IDX 38 77 39 78 47 79 40 80 46 81 41 82 42 83 43 84 44 85 45 86
REMARK H PARENT 5 7 10 23 66 42 36 53
REMARK Flexibility Score: inf
ROOT
ATOM      1  C   UNL     1      -0.594   3.082   2.715  1.00  0.00     0.023 C 
ENDROOT
BRANCH   1   2
ATOM      2  C   UNL     1      -0.770   2.908   1.206  1.00  0.00     0.023 C 
BRANCH   2   3
ATOM      3  C   UNL     1       0.530   2.735   0.427  1.00  0.00     0.116 C 
BRANCH   3   4
ATOM      4  N   UNL     1       1.231   1.518   0.784  1.00  0.00    -0.356 N 
ATOM      5  C   UNL     1       1.347   0.359   0.070  1.00  0.00     0.227 C 
ATOM      6  O   UNL     1       2.005  -0.565   0.551  1.00  0.00    -0.274 OA
ATOM      7  H   UNL     1       1.684   1.527   1.658  1.00  0.00     0.163 HD
BRANCH   5   8
ATOM      8  C   UNL     1       0.665   0.262  -1.291  1.00  0.00     0.105 C 
ATOM      9  C   UNL     1       1.294  -0.852  -2.145  1.00  0.00     0.023 C 
BRANCH   8  10
ATOM     10  C   UNL     1      -0.828  -0.004  -1.185  1.00  0.00    -0.032 A 
ATOM     11  C   UNL     1      -1.747   0.780  -1.904  1.00  0.00     0.008 A 
ATOM     12  C   UNL     1      -1.272  -1.166  -0.536  1.00  0.00     0.055 A 
ATOM     13  C   UNL     1      -3.054   0.333  -2.096  1.00  0.00     0.051 A 
ATOM     14  C   UNL     1      -2.534  -1.661  -0.818  1.00  0.00     0.161 A 
ATOM     15  C   UNL     1      -3.402  -0.930  -1.632  1.00  0.00     0.161 A 
ATOM     16  O   UNL     1      -2.789  -2.938  -0.399  1.00  0.00    -0.486 OA
ATOM     17  O   UNL     1      -4.543  -1.507  -2.135  1.00  0.00    -0.486 OA
ATOM     18  C   UNL     1      -3.792  -3.603  -1.175  1.00  0.00     0.271 C 
ATOM     19  C   UNL     1      -4.189  -2.862  -2.448  1.00  0.00     0.271 C 
ENDBRANCH   8  10
ENDBRANCH   5   8
ENDBRANCH   3   4
ENDBRANCH   2   3
ENDBRANCH   1   2
BRANCH   1  20
ATOM     20  C   UNL     1       0.422   4.137   3.140  1.00  0.00     0.116 C 
BRANCH  20  21
ATOM     21  N   UNL     1       0.150   5.456   2.587  1.00  0.00    -0.352 N 
ATOM     22  C   UNL     1       0.211   6.680   3.210  1.00  0.00     0.251 C 
ATOM     23  H   UNL     1      -0.114   5.474   1.639  1.00  0.00     0.163 HD
ATOM     24  O   UNL     1      -0.145   7.694   2.617  1.00  0.00    -0.269 OA
BRANCH  22  25
ATOM     25  C   UNL     1       0.663   6.755   4.615  1.00  0.00     0.039 A 
ATOM     26  C   UNL     1      -0.150   7.402   5.548  1.00  0.00     0.014 A 
ATOM     27  C   UNL     1       1.845   6.128   5.019  1.00  0.00     0.014 A 
ATOM     28  C   UNL     1       0.173   7.336   6.904  1.00  0.00     0.010 A 
ATOM     29  C   UNL     1       2.132   6.011   6.376  1.00  0.00     0.010 A 
ATOM     30  C   UNL     1       1.285   6.593   7.333  1.00  0.00    -0.014 A 
BRANCH  30  31
ATOM     31  C   UNL     1       1.534   6.345   8.777  1.00  0.00     0.031 A 
ATOM     32  C   UNL     1       2.775   6.872   9.440  1.00  0.00     0.074 A 
ATOM     33  C   UNL     1       0.677   5.562   9.466  1.00  0.00     0.049 A 
ATOM     34  N   UNL     1       3.196   6.680  10.664  1.00  0.00    -0.248 NA
ATOM     35  C   UNL     1       3.671   7.705   8.621  1.00  0.00     0.031 C 
ATOM     36  C   UNL     1      -0.538   4.950   8.920  1.00  0.00     0.029 A 
ATOM     37  N   UNL     1       0.706   5.131  10.769  1.00  0.00    -0.354 N 
ATOM     38  C   UNL     1       4.409   7.351  10.758  1.00  0.00     0.074 A 
ATOM     39  C   UNL     1       4.674   7.930   9.459  1.00  0.00     0.031 C 
ATOM     40  C   UNL     1      -1.141   4.233   9.882  1.00  0.00     0.029 A 
ATOM     41  C   UNL     1      -0.338   4.296  11.098  1.00  0.00     0.049 A 
ATOM     42  H   UNL     1       1.407   5.394  11.408  1.00  0.00     0.167 HD
ATOM     43  C   UNL     1       5.221   7.480  11.834  1.00  0.00     0.031 A 
ATOM     44  C   UNL     1      -0.608   3.636  12.241  1.00  0.00     0.031 A 
ATOM     45  C   UNL     1       4.946   6.916  13.129  1.00  0.00     0.049 A 
ATOM     46  C   UNL     1       0.324   3.784  13.412  1.00  0.00     0.074 A 
ATOM     47  C   UNL     1       5.669   7.067  14.300  1.00  0.00     0.029 A 
ATOM     48  N   UNL     1       3.875   6.088  13.424  1.00  0.00    -0.354 N 
ATOM     49  N   UNL     1       1.416   4.504  13.508  1.00  0.00    -0.248 NA
ATOM     50  C   UNL     1      -0.014   3.034  14.630  1.00  0.00     0.031 C 
ATOM     51  C   UNL     1       5.069   6.281  15.288  1.00  0.00     0.029 A 
ATOM     52  C   UNL     1       3.941   5.686  14.748  1.00  0.00     0.049 A 
ATOM     53  H   UNL     1       3.172   5.824  12.788  1.00  0.00     0.167 HD
ATOM     54  C   UNL     1       1.887   4.303  14.800  1.00  0.00     0.074 A 
ATOM     55  C   UNL     1       0.949   3.418  15.458  1.00  0.00     0.031 C 
ATOM     56  C   UNL     1       3.002   4.802  15.388  1.00  0.00     0.031 A 
BRANCH  43  57
ATOM     57  C   UNL     1       6.496   8.262  11.668  1.00  0.00    -0.014 A 
ATOM     58  C   UNL     1       6.478   9.664  11.562  1.00  0.00     0.010 A 
ATOM     59  C   UNL     1       7.734   7.594  11.720  1.00  0.00     0.010 A 
ATOM     60  C   UNL     1       7.674  10.383  11.497  1.00  0.00     0.020 A 
ATOM     61  C   UNL     1       8.933   8.312  11.677  1.00  0.00     0.020 A 
ATOM     62  C   UNL     1       8.894   9.702  11.559  1.00  0.00     0.054 A 
BRANCH  62  63
ATOM     63  S   UNL     1      10.429  10.669  11.539  1.00  0.00     0.124 S 
ATOM     64  O   UNL     1      10.483  11.120  10.151  1.00  0.00    -0.237 OA
ATOM     65  O   UNL     1      10.163  11.711  12.528  1.00  0.00    -0.237 OA
ATOM     66  O   UNL     1      11.455   9.701  11.919  1.00  0.00    -0.744 OA
ENDBRANCH  62  63
ENDBRANCH  43  57
BRANCH  44  67
ATOM     67  C   UNL     1      -1.800   2.747  12.331  1.00  0.00    -0.014 A 
ATOM     68  C   UNL     1      -2.886   3.085  13.157  1.00  0.00     0.010 A 
ATOM     69  C   UNL     1      -1.841   1.541  11.608  1.00  0.00     0.010 A 
ATOM     70  C   UNL     1      -3.975   2.218  13.285  1.00  0.00     0.020 A 
ATOM     71  C   UNL     1      -2.942   0.685  11.710  1.00  0.00     0.020 A 
ATOM     72  C   UNL     1      -3.994   1.021  12.564  1.00  0.00     0.054 A 
BRANCH  72  73
ATOM     73  S   UNL     1      -5.424  -0.082  12.730  1.00  0.00     0.124 S 
ATOM     74  O   UNL     1      -5.191  -0.684  14.039  1.00  0.00    -0.237 OA
ATOM     75  O   UNL     1      -6.551   0.844  12.651  1.00  0.00    -0.237 OA
ATOM     76  O   UNL     1      -5.291  -0.987  11.590  1.00  0.00    -0.744 OA
ENDBRANCH  72  73
ENDBRANCH  44  67
BRANCH  56  77
ATOM     77  C   UNL     1       3.265   4.413  16.818  1.00  0.00    -0.014 A 
ATOM     78  C   UNL     1       3.698   3.116  17.146  1.00  0.00     0.010 A 
ATOM     79  C   UNL     1       3.133   5.372  17.839  1.00  0.00     0.010 A 
ATOM     80  C   UNL     1       3.972   2.778  18.473  1.00  0.00     0.020 A 
ATOM     81  C   UNL     1       3.432   5.045  19.164  1.00  0.00     0.020 A 
ATOM     82  C   UNL     1       3.838   3.745  19.474  1.00  0.00     0.054 A 
BRANCH  82  83
ATOM     83  S   UNL     1       4.251   3.295  21.182  1.00  0.00     0.124 S 
ATOM     84  O   UNL     1       3.113   2.462  21.560  1.00  0.00    -0.237 OA
ATOM     85  O   UNL     1       5.522   2.592  21.030  1.00  0.00    -0.237 OA
ATOM     86  O   UNL     1       4.336   4.582  21.869  1.00  0.00    -0.744 OA
ENDBRANCH  82  83
ENDBRANCH  56  77
ENDBRANCH  30  31
ENDBRANCH  22  25
ENDBRANCH  20  21
ENDBRANCH   1  20
TORSDOF 15
