REMARK SMILES COc1ccc(-n2ccnc2C[N@@H+]2Cc3[nH]cnc3C[C@H]2C(=O)NCCCCNC(=O)c2ccc(-c3c4nc(c(-c5ccc(S(=O)(=O)[O-])cc5)c5ccc([nH]5)c(-c5ccc(S(=O)(=O)[O-])cc5)c5nc(c(-c6ccc(S(=O)(=O)[O-])cc6)c6ccc3[nH]6)C=C5)C=C4)cc2)cc1
REMARK SMILES IDX 26 1 25 2 24 3 22 4 23 5 21 7 13 8 14 9 15 11 20 12 16 13
REMARK SMILES IDX 19 14 17 15 18 17 12 18 11 19 7 20 8 21 9 22 10 23 6 24 3 25
REMARK SMILES IDX 4 26 93 27 5 28 92 29 2 30 1 31 27 32 28 33 29 34 30 35
REMARK SMILES IDX 31 37 32 38 33 39 91 40 34 41 90 42 35 43 36 44 37 45 84 46
REMARK SMILES IDX 38 47 89 48 83 49 85 50 39 51 88 52 82 53 81 54 40 56 70 57
REMARK SMILES IDX 51 58 69 59 52 60 55 61 68 62 86 63 53 64 54 65 67 67 87 68
REMARK SMILES IDX 56 69 41 70 42 71 50 72 43 73 49 74 44 75 45 76 46 77 47 78
REMARK SMILES IDX 48 79 71 80 72 81 80 82 73 83 79 84 74 85 75 86 76 87 77 88
REMARK SMILES IDX 78 89 57 90 58 91 66 92 59 93 65 94 60 95 61 96 62 97 63 98
REMARK SMILES IDX 64 99
REMARK H PARENT 24 6 13 10 16 16 29 36 85 55 55 66
REMARK Flexibility Score: inf
ROOT
ATOM      1  C   UNL     1       3.680   0.478  -7.410  1.00  0.00     0.023 C 
ENDROOT
BRANCH   1   2
ATOM      2  C   UNL     1       2.316   1.164  -7.218  1.00  0.00     0.116 C 
BRANCH   2   3
ATOM      3  N   UNL     1       1.220   0.549  -7.961  1.00  0.00    -0.351 N 
ATOM      4  C   UNL     1       0.136  -0.211  -7.660  1.00  0.00     0.278 C 
ATOM      5  O   UNL     1      -0.781  -0.126  -8.496  1.00  0.00    -0.268 OA
ATOM      6  H   UNL     1       1.283   0.733  -8.926  1.00  0.00     0.163 HD
BRANCH   4   7
ATOM      7  C   UNL     1      -0.092  -1.151  -6.447  1.00  0.00     0.280 C 
ATOM      8  N   UNL     1       0.962  -2.226  -6.320  1.00  0.00    -0.313 N 
ATOM      9  C   UNL     1       2.135  -1.820  -5.536  1.00  0.00     0.320 C 
ATOM     10  H   UNL     1       1.375  -2.389  -7.238  1.00  0.00     0.349 HD
ATOM     11  C   UNL     1       1.848  -0.773  -4.534  1.00  0.00     0.093 A 
ATOM     12  C   UNL     1      -0.538  -0.440  -5.145  1.00  0.00     0.134 C 
ATOM     13  N   UNL     1       2.738  -0.109  -3.735  1.00  0.00    -0.344 N 
ATOM     14  C   UNL     1       0.652  -0.131  -4.339  1.00  0.00     0.074 A 
ATOM     15  C   UNL     1       2.039   0.884  -3.098  1.00  0.00     0.197 A 
ATOM     16  H   UNL     1       3.697  -0.307  -3.635  1.00  0.00     0.167 HD
ATOM     17  N   UNL     1       0.767   0.880  -3.432  1.00  0.00    -0.241 NA
BRANCH   8  18
ATOM     18  C   UNL     1       0.328  -3.501  -5.908  1.00  0.00     0.340 C 
BRANCH  18  19
ATOM     19  C   UNL     1       1.265  -4.625  -5.541  1.00  0.00     0.168 A 
ATOM     20  N   UNL     1       1.787  -4.824  -4.263  1.00  0.00    -0.299 N 
ATOM     21  C   UNL     1       2.830  -5.714  -4.409  1.00  0.00     0.113 A 
ATOM     22  C   UNL     1       2.797  -6.123  -5.718  1.00  0.00     0.132 A 
ATOM     23  N   UNL     1       1.825  -5.457  -6.407  1.00  0.00    -0.236 NA
BRANCH  20  24
ATOM     24  C   UNL     1       1.471  -4.119  -3.075  1.00  0.00     0.047 A 
ATOM     25  C   UNL     1       0.876  -2.523  -0.871  1.00  0.00     0.119 A 
ATOM     26  C   UNL     1      -0.155  -3.121  -1.592  1.00  0.00     0.048 A 
ATOM     27  C   UNL     1       2.207  -2.764  -1.211  1.00  0.00     0.048 A 
ATOM     28  C   UNL     1       0.139  -3.913  -2.704  1.00  0.00     0.030 A 
ATOM     29  C   UNL     1       2.510  -3.575  -2.306  1.00  0.00     0.030 A 
BRANCH  25  30
ATOM     30  O   UNL     1       0.541  -1.795   0.237  1.00  0.00    -0.497 OA
ATOM     31  C   UNL     1       0.905  -0.420   0.103  1.00  0.00     0.278 C 
ENDBRANCH  25  30
ENDBRANCH  20  24
ENDBRANCH  18  19
ENDBRANCH   8  18
ENDBRANCH   4   7
ENDBRANCH   2   3
ENDBRANCH   1   2
BRANCH   1  32
ATOM     32  C   UNL     1       4.802   1.325  -8.021  1.00  0.00     0.023 C 
BRANCH  32  33
ATOM     33  C   UNL     1       5.253   2.499  -7.159  1.00  0.00     0.116 C 
BRANCH  33  34
ATOM     34  N   UNL     1       5.949   2.098  -5.934  1.00  0.00    -0.352 N 
ATOM     35  C   UNL     1       6.279   2.916  -4.867  1.00  0.00     0.251 C 
ATOM     36  H   UNL     1       6.208   1.150  -5.862  1.00  0.00     0.163 HD
ATOM     37  O   UNL     1       7.112   2.594  -4.049  1.00  0.00    -0.269 OA
BRANCH  35  38
ATOM     38  C   UNL     1       5.566   4.207  -4.766  1.00  0.00     0.039 A 
ATOM     39  C   UNL     1       6.268   5.411  -4.833  1.00  0.00     0.014 A 
ATOM     40  C   UNL     1       4.172   4.177  -4.766  1.00  0.00     0.014 A 
ATOM     41  C   UNL     1       5.552   6.592  -5.019  1.00  0.00     0.010 A 
ATOM     42  C   UNL     1       3.474   5.340  -5.029  1.00  0.00     0.010 A 
ATOM     43  C   UNL     1       4.154   6.553  -5.163  1.00  0.00    -0.014 A 
BRANCH  43  44
ATOM     44  C   UNL     1       3.438   7.756  -5.602  1.00  0.00     0.031 A 
ATOM     45  C   UNL     1       3.942   8.414  -6.848  1.00  0.00     0.074 A 
ATOM     46  C   UNL     1       2.255   8.169  -5.102  1.00  0.00     0.049 A 
ATOM     47  N   UNL     1       4.490   9.579  -6.964  1.00  0.00    -0.248 NA
ATOM     48  C   UNL     1       3.885   7.657  -8.108  1.00  0.00     0.031 C 
ATOM     49  C   UNL     1       1.403   7.500  -4.115  1.00  0.00     0.029 A 
ATOM     50  N   UNL     1       1.499   9.240  -5.481  1.00  0.00    -0.354 N 
ATOM     51  C   UNL     1       4.676   9.794  -8.329  1.00  0.00     0.074 A 
ATOM     52  C   UNL     1       4.418   8.527  -8.970  1.00  0.00     0.031 C 
ATOM     53  C   UNL     1       0.163   8.034  -4.158  1.00  0.00     0.029 A 
ATOM     54  C   UNL     1       0.186   9.191  -5.036  1.00  0.00     0.049 A 
ATOM     55  H   UNL     1       1.854   9.982  -6.022  1.00  0.00     0.167 HD
ATOM     56  C   UNL     1       4.833  11.043  -8.856  1.00  0.00     0.031 A 
ATOM     57  C   UNL     1      -0.825  10.023  -5.380  1.00  0.00     0.031 A 
ATOM     58  C   UNL     1       5.047  12.037  -7.837  1.00  0.00     0.049 A 
ATOM     59  C   UNL     1      -0.221  11.279  -5.877  1.00  0.00     0.074 A 
ATOM     60  C   UNL     1       5.978  12.238  -6.838  1.00  0.00     0.029 A 
ATOM     61  N   UNL     1       3.982  12.850  -7.528  1.00  0.00    -0.354 N 
ATOM     62  N   UNL     1       0.452  12.101  -5.121  1.00  0.00    -0.248 NA
ATOM     63  C   UNL     1      -0.032  11.457  -7.307  1.00  0.00     0.031 C 
ATOM     64  C   UNL     1       5.234  12.775  -5.746  1.00  0.00     0.029 A 
ATOM     65  C   UNL     1       3.909  12.919  -6.162  1.00  0.00     0.049 A 
ATOM     66  H   UNL     1       3.385  13.299  -8.169  1.00  0.00     0.167 HD
ATOM     67  C   UNL     1       1.458  12.592  -5.937  1.00  0.00     0.074 A 
ATOM     68  C   UNL     1       1.030  12.268  -7.294  1.00  0.00     0.031 C 
ATOM     69  C   UNL     1       2.667  12.966  -5.419  1.00  0.00     0.031 A 
BRANCH  56  70
ATOM     70  C   UNL     1       4.434  11.447 -10.258  1.00  0.00    -0.014 A 
ATOM     71  C   UNL     1       4.756  12.745 -10.713  1.00  0.00     0.010 A 
ATOM     72  C   UNL     1       3.515  10.711 -11.032  1.00  0.00     0.010 A 
ATOM     73  C   UNL     1       4.131  13.303 -11.838  1.00  0.00     0.020 A 
ATOM     74  C   UNL     1       2.921  11.241 -12.182  1.00  0.00     0.020 A 
ATOM     75  C   UNL     1       3.203  12.549 -12.554  1.00  0.00     0.054 A 
BRANCH  75  76
ATOM     76  S   UNL     1       2.309  13.317 -13.930  1.00  0.00     0.124 S 
ATOM     77  O   UNL     1       1.463  14.282 -13.235  1.00  0.00    -0.237 OA
ATOM     78  O   UNL     1       3.393  13.883 -14.729  1.00  0.00    -0.237 OA
ATOM     79  O   UNL     1       1.607  12.195 -14.548  1.00  0.00    -0.744 OA
ENDBRANCH  75  76
ENDBRANCH  56  70
BRANCH  57  80
ATOM     80  C   UNL     1      -2.266   9.711  -5.515  1.00  0.00    -0.014 A 
ATOM     81  C   UNL     1      -3.218  10.741  -5.610  1.00  0.00     0.010 A 
ATOM     82  C   UNL     1      -2.677   8.401  -5.837  1.00  0.00     0.010 A 
ATOM     83  C   UNL     1      -4.512  10.483  -6.088  1.00  0.00     0.020 A 
ATOM     84  C   UNL     1      -3.969   8.134  -6.303  1.00  0.00     0.020 A 
ATOM     85  C   UNL     1      -4.871   9.184  -6.456  1.00  0.00     0.054 A 
BRANCH  85  86
ATOM     86  S   UNL     1      -6.468   8.900  -7.274  1.00  0.00     0.124 S 
ATOM     87  O   UNL     1      -7.415   9.072  -6.176  1.00  0.00    -0.237 OA
ATOM     88  O   UNL     1      -6.490   9.942  -8.297  1.00  0.00    -0.237 OA
ATOM     89  O   UNL     1      -6.353   7.536  -7.788  1.00  0.00    -0.744 OA
ENDBRANCH  85  86
ENDBRANCH  57  80
BRANCH  69  90
ATOM     90  C   UNL     1       2.776  13.189  -3.928  1.00  0.00    -0.014 A 
ATOM     91  C   UNL     1       2.461  12.214  -2.961  1.00  0.00     0.010 A 
ATOM     92  C   UNL     1       3.335  14.404  -3.492  1.00  0.00     0.010 A 
ATOM     93  C   UNL     1       2.654  12.469  -1.595  1.00  0.00     0.020 A 
ATOM     94  C   UNL     1       3.552  14.656  -2.135  1.00  0.00     0.020 A 
ATOM     95  C   UNL     1       3.195  13.693  -1.191  1.00  0.00     0.054 A 
BRANCH  95  96
ATOM     96  S   UNL     1       3.463  14.009   0.575  1.00  0.00     0.124 S 
ATOM     97  O   UNL     1       2.100  14.125   1.087  1.00  0.00    -0.237 OA
ATOM     98  O   UNL     1       4.199  12.824   1.010  1.00  0.00    -0.237 OA
ATOM     99  O   UNL     1       4.238  15.249   0.594  1.00  0.00    -0.744 OA
ENDBRANCH  95  96
ENDBRANCH  69  90
ENDBRANCH  43  44
ENDBRANCH  35  38
ENDBRANCH  33  34
ENDBRANCH  32  33
ENDBRANCH   1  32
TORSDOF 18
