REMARK SMILES CCOc1cccc(OCC)c1-c1ccc([C@@H](C)C(=O)NCCCCNC(=O)c2ccc(-c3c4nc(c(-c5ccc(S(=O)(=O)[O-])cc5)c5ccc([nH]5)c(-c5ccc(S(=O)(=O)[O-])cc5)c5nc(c(-c6ccc(S(=O)(=O)[O-])cc6)c6ccc3[nH]6)C=C5)C=C4)cc2)cc1F
REMARK SMILES IDX 23 1 22 2 21 3 19 4 20 5 17 7 18 8 16 9 13 10 14 11 90 12
REMARK SMILES IDX 15 13 89 14 91 15 12 16 4 17 5 18 6 19 8 20 7 21 3 22 2 23
REMARK SMILES IDX 1 24 9 25 10 26 11 27 24 28 25 29 26 30 27 31 28 33 29 34
REMARK SMILES IDX 30 35 88 36 31 37 87 38 32 39 33 40 34 41 81 42 35 43 86 44
REMARK SMILES IDX 80 45 82 46 36 47 85 48 79 49 78 50 37 52 67 53 48 54 66 55
REMARK SMILES IDX 49 56 52 57 65 58 83 59 50 60 51 61 64 63 84 64 53 65 38 66
REMARK SMILES IDX 39 67 47 68 40 69 46 70 41 71 42 72 43 73 44 74 45 75 68 76
REMARK SMILES IDX 69 77 77 78 70 79 76 80 71 81 72 82 73 83 74 84 75 85 54 86
REMARK SMILES IDX 55 87 63 88 56 89 62 90 57 91 58 92 59 93 60 94 61 95
REMARK H PARENT 21 6 26 32 82 51 52 62
REMARK Flexibility Score: inf
ROOT
ATOM      1  C   UNL     1       2.533  -4.027   0.441  1.00  0.00     0.023 C 
ENDROOT
BRANCH   1   2
ATOM      2  C   UNL     1       1.966  -4.785  -0.769  1.00  0.00     0.116 C 
BRANCH   2   3
ATOM      3  N   UNL     1       0.593  -4.401  -1.057  1.00  0.00    -0.356 N 
ATOM      4  C   UNL     1       0.015  -3.518  -1.919  1.00  0.00     0.227 C 
ATOM      5  O   UNL     1      -1.216  -3.411  -1.821  1.00  0.00    -0.274 OA
ATOM      6  H   UNL     1      -0.064  -4.886  -0.507  1.00  0.00     0.163 HD
BRANCH   4   7
ATOM      7  C   UNL     1       0.757  -2.667  -2.975  1.00  0.00     0.105 C 
ATOM      8  C   UNL     1       1.615  -3.469  -3.949  1.00  0.00     0.023 C 
BRANCH   7   9
ATOM      9  C   UNL     1       1.456  -1.450  -2.394  1.00  0.00    -0.033 A 
ATOM     10  C   UNL     1       2.597   0.729  -0.957  1.00  0.00     0.025 A 
ATOM     11  C   UNL     1       3.023  -0.583  -0.769  1.00  0.00     0.012 A 
ATOM     12  C   UNL     1       1.587   0.932  -1.907  1.00  0.00     0.131 A 
ATOM     13  C   UNL     1       2.565  -1.613  -1.577  1.00  0.00     0.005 A 
ATOM     14  C   UNL     1       0.987  -0.144  -2.581  1.00  0.00     0.044 A 
ATOM     15  F   UNL     1       1.124   2.168  -2.150  1.00  0.00    -0.206 F 
BRANCH  10  16
ATOM     16  C   UNL     1       3.131   1.776  -0.068  1.00  0.00     0.069 A 
ATOM     17  C   UNL     1       2.228   2.355   0.869  1.00  0.00     0.130 A 
ATOM     18  C   UNL     1       2.629   3.291   1.825  1.00  0.00     0.047 A 
ATOM     19  C   UNL     1       3.962   3.659   1.897  1.00  0.00     0.008 A 
ATOM     20  C   UNL     1       4.487   2.176   0.010  1.00  0.00     0.130 A 
ATOM     21  C   UNL     1       4.870   3.113   0.994  1.00  0.00     0.047 A 
BRANCH  17  22
ATOM     22  O   UNL     1       0.886   2.056   0.789  1.00  0.00    -0.493 OA
BRANCH  22  23
ATOM     23  C   UNL     1       0.430   1.213   1.853  1.00  0.00     0.226 C 
ATOM     24  C   UNL     1      -0.176  -0.044   1.250  1.00  0.00     0.049 C 
ENDBRANCH  22  23
ENDBRANCH  17  22
BRANCH  20  25
ATOM     25  O   UNL     1       5.577   1.862  -0.759  1.00  0.00    -0.493 OA
BRANCH  25  26
ATOM     26  C   UNL     1       5.702   0.697  -1.557  1.00  0.00     0.226 C 
ATOM     27  C   UNL     1       6.225  -0.477  -0.738  1.00  0.00     0.049 C 
ENDBRANCH  25  26
ENDBRANCH  20  25
ENDBRANCH  10  16
ENDBRANCH   7   9
ENDBRANCH   4   7
ENDBRANCH   2   3
ENDBRANCH   1   2
BRANCH   1  28
ATOM     28  C   UNL     1       2.434  -4.728   1.789  1.00  0.00     0.023 C 
BRANCH  28  29
ATOM     29  C   UNL     1       3.255  -6.002   1.905  1.00  0.00     0.116 C 
BRANCH  29  30
ATOM     30  N   UNL     1       4.685  -5.815   1.703  1.00  0.00    -0.352 N 
ATOM     31  C   UNL     1       5.719  -6.545   2.246  1.00  0.00     0.251 C 
ATOM     32  H   UNL     1       4.945  -5.077   1.105  1.00  0.00     0.163 HD
ATOM     33  O   UNL     1       6.883  -6.215   2.033  1.00  0.00    -0.269 OA
BRANCH  31  34
ATOM     34  C   UNL     1       5.412  -7.696   3.125  1.00  0.00     0.039 A 
ATOM     35  C   UNL     1       6.102  -7.830   4.332  1.00  0.00     0.014 A 
ATOM     36  C   UNL     1       4.418  -8.614   2.780  1.00  0.00     0.014 A 
ATOM     37  C   UNL     1       5.750  -8.852   5.217  1.00  0.00     0.010 A 
ATOM     38  C   UNL     1       4.001  -9.565   3.703  1.00  0.00     0.010 A 
ATOM     39  C   UNL     1       4.677  -9.710   4.921  1.00  0.00    -0.014 A 
BRANCH  39  40
ATOM     40  C   UNL     1       4.289 -10.807   5.842  1.00  0.00     0.031 A 
ATOM     41  C   UNL     1       4.404 -12.238   5.382  1.00  0.00     0.074 A 
ATOM     42  C   UNL     1       3.799 -10.523   7.065  1.00  0.00     0.049 A 
ATOM     43  N   UNL     1       4.075 -13.337   6.011  1.00  0.00    -0.248 NA
ATOM     44  C   UNL     1       4.928 -12.463   4.022  1.00  0.00     0.031 C 
ATOM     45  C   UNL     1       3.584  -9.178   7.607  1.00  0.00     0.029 A 
ATOM     46  N   UNL     1       3.393 -11.355   8.078  1.00  0.00    -0.354 N 
ATOM     47  C   UNL     1       4.343 -14.374   5.124  1.00  0.00     0.074 A 
ATOM     48  C   UNL     1       4.790 -13.773   3.888  1.00  0.00     0.031 C 
ATOM     49  C   UNL     1       3.116  -9.279   8.863  1.00  0.00     0.029 A 
ATOM     50  C   UNL     1       2.973 -10.690   9.206  1.00  0.00     0.049 A 
ATOM     51  H   UNL     1       3.401 -12.337   8.004  1.00  0.00     0.167 HD
ATOM     52  C   UNL     1       4.264 -15.710   5.328  1.00  0.00     0.031 A 
ATOM     53  C   UNL     1       2.530 -11.167  10.385  1.00  0.00     0.031 A 
ATOM     54  C   UNL     1       3.850 -16.309   6.566  1.00  0.00     0.049 A 
ATOM     55  C   UNL     1       2.477 -12.657  10.595  1.00  0.00     0.074 A 
ATOM     56  C   UNL     1       3.764 -17.652   6.888  1.00  0.00     0.029 A 
ATOM     57  N   UNL     1       3.474 -15.600   7.696  1.00  0.00    -0.354 N 
ATOM     58  N   UNL     1       2.779 -13.620   9.756  1.00  0.00    -0.248 NA
ATOM     59  C   UNL     1       2.048 -13.123  11.921  1.00  0.00     0.031 C 
ATOM     60  C   UNL     1       3.311 -17.756   8.208  1.00  0.00     0.029 A 
ATOM     61  C   UNL     1       3.160 -16.477   8.719  1.00  0.00     0.049 A 
ATOM     62  H   UNL     1       3.436 -14.619   7.761  1.00  0.00     0.167 HD
ATOM     63  C   UNL     1       2.604 -14.805  10.464  1.00  0.00     0.074 A 
ATOM     64  C   UNL     1       2.195 -14.435  11.804  1.00  0.00     0.031 C 
ATOM     65  C   UNL     1       2.764 -16.085  10.046  1.00  0.00     0.031 A 
BRANCH  52  66
ATOM     66  C   UNL     1       4.670 -16.609   4.192  1.00  0.00    -0.014 A 
ATOM     67  C   UNL     1       6.021 -16.715   3.811  1.00  0.00     0.010 A 
ATOM     68  C   UNL     1       3.707 -17.386   3.523  1.00  0.00     0.010 A 
ATOM     69  C   UNL     1       6.397 -17.555   2.761  1.00  0.00     0.020 A 
ATOM     70  C   UNL     1       4.083 -18.249   2.490  1.00  0.00     0.020 A 
ATOM     71  C   UNL     1       5.425 -18.318   2.107  1.00  0.00     0.054 A 
BRANCH  71  72
ATOM     72  S   UNL     1       5.950 -19.431   0.775  1.00  0.00     0.124 S 
ATOM     73  O   UNL     1       6.240 -18.491  -0.305  1.00  0.00    -0.237 OA
ATOM     74  O   UNL     1       7.113 -20.099   1.355  1.00  0.00    -0.237 OA
ATOM     75  O   UNL     1       4.786 -20.287   0.560  1.00  0.00    -0.744 OA
ENDBRANCH  71  72
ENDBRANCH  52  66
BRANCH  53  76
ATOM     76  C   UNL     1       2.120 -10.236  11.473  1.00  0.00    -0.014 A 
ATOM     77  C   UNL     1       2.890 -10.121  12.645  1.00  0.00     0.010 A 
ATOM     78  C   UNL     1       0.935  -9.488  11.360  1.00  0.00     0.010 A 
ATOM     79  C   UNL     1       2.458  -9.316  13.703  1.00  0.00     0.020 A 
ATOM     80  C   UNL     1       0.514  -8.658  12.404  1.00  0.00     0.020 A 
ATOM     81  C   UNL     1       1.267  -8.595  13.578  1.00  0.00     0.054 A 
BRANCH  81  82
ATOM     82  S   UNL     1       0.721  -7.554  14.960  1.00  0.00     0.124 S 
ATOM     83  O   UNL     1       0.184  -8.542  15.889  1.00  0.00    -0.237 OA
ATOM     84  O   UNL     1       1.959  -6.900  15.375  1.00  0.00    -0.237 OA
ATOM     85  O   UNL     1      -0.266  -6.667  14.346  1.00  0.00    -0.744 OA
ENDBRANCH  81  82
ENDBRANCH  53  76
BRANCH  65  86
ATOM     86  C   UNL     1       2.541 -17.170  11.064  1.00  0.00    -0.014 A 
ATOM     87  C   UNL     1       1.251 -17.483  11.525  1.00  0.00     0.010 A 
ATOM     88  C   UNL     1       3.642 -17.900  11.548  1.00  0.00     0.010 A 
ATOM     89  C   UNL     1       1.071 -18.473  12.494  1.00  0.00     0.020 A 
ATOM     90  C   UNL     1       3.462 -18.910  12.495  1.00  0.00     0.020 A 
ATOM     91  C   UNL     1       2.179 -19.175  12.979  1.00  0.00     0.054 A 
BRANCH  91  92
ATOM     92  S   UNL     1       1.921 -20.462  14.230  1.00  0.00     0.124 S 
ATOM     93  O   UNL     1       1.721 -19.670  15.441  1.00  0.00    -0.237 OA
ATOM     94  O   UNL     1       0.739 -21.162  13.734  1.00  0.00    -0.237 OA
ATOM     95  O   UNL     1       3.160 -21.236  14.188  1.00  0.00    -0.744 OA
ENDBRANCH  91  92
ENDBRANCH  65  86
ENDBRANCH  39  40
ENDBRANCH  31  34
ENDBRANCH  29  30
ENDBRANCH  28  29
ENDBRANCH   1  28
TORSDOF 20
