REMARK SMILES COc1cccc(-c2c(C(=O)NCCCCNC(=O)c3ccc(-c4c5nc(c(-c6ccc(S(=O)(=O)[O-])cc6)c6ccc([nH]6)c(-c6ccc(S(=O)(=O)[O-])cc6)c6nc(c(-c7ccc(S(=O)(=O)[O-])cc7)c7ccc4[nH]7)C=C6)C=C5)cc3)nnn2-c2ccc(OC(F)(F)F)cc2)c1
REMARK SMILES IDX 14 1 13 2 12 3 10 4 11 5 9 7 8 8 82 9 80 10 81 11 7 12 3 13
REMARK SMILES IDX 4 14 94 15 5 16 6 17 2 18 1 19 83 20 84 21 93 22 85 23 92 24
REMARK SMILES IDX 86 25 87 26 88 27 89 28 90 29 91 30 15 31 16 32 17 33 18 34
REMARK SMILES IDX 19 36 20 37 21 38 79 39 22 40 78 41 23 42 24 43 25 44 72 45
REMARK SMILES IDX 26 46 77 47 71 48 73 49 27 50 76 51 70 52 69 53 28 55 58 56
REMARK SMILES IDX 39 57 57 58 40 59 43 60 56 61 74 62 41 63 42 64 55 66 75 67
REMARK SMILES IDX 44 68 29 69 30 70 38 71 31 72 37 73 32 74 33 75 34 76 35 77
REMARK SMILES IDX 36 78 59 79 60 80 68 81 61 82 67 83 62 84 63 85 64 86 65 87
REMARK SMILES IDX 66 88 45 89 46 90 54 91 47 92 53 93 48 94 49 95 50 96 51 97
REMARK SMILES IDX 52 98
REMARK H PARENT 12 6 17 35 73 54 43 65
REMARK Flexibility Score: inf
ROOT
ATOM      1  C   UNL     1       1.405   4.507   0.191  1.00  0.00     0.023 C 
ENDROOT
BRANCH   1   2
ATOM      2  C   UNL     1       2.001   4.806  -1.179  1.00  0.00     0.116 C 
BRANCH   2   3
ATOM      3  N   UNL     1       3.227   5.556  -1.221  1.00  0.00    -0.351 N 
ATOM      4  C   UNL     1       4.477   5.249  -1.726  1.00  0.00     0.274 C 
ATOM      5  O   UNL     1       5.303   6.160  -1.613  1.00  0.00    -0.267 OA
ATOM      6  H   UNL     1       3.166   6.451  -0.817  1.00  0.00     0.163 HD
BRANCH   4   7
ATOM      7  C   UNL     1       4.892   3.955  -2.311  1.00  0.00     0.178 A 
ATOM      8  C   UNL     1       4.262   2.881  -2.950  1.00  0.00     0.108 A 
ATOM      9  N   UNL     1       5.309   2.004  -3.246  1.00  0.00    -0.212 N 
ATOM     10  N   UNL     1       6.241   3.638  -2.209  1.00  0.00    -0.124 NA
ATOM     11  N   UNL     1       6.447   2.416  -2.666  1.00  0.00    -0.061 NA
BRANCH   8  12
ATOM     12  C   UNL     1       2.869   2.460  -3.108  1.00  0.00     0.006 A 
ATOM     13  C   UNL     1       1.040   1.091  -2.252  1.00  0.00     0.119 A 
ATOM     14  C   UNL     1       0.179   1.715  -3.154  1.00  0.00     0.046 A 
ATOM     15  C   UNL     1       2.386   1.445  -2.249  1.00  0.00     0.056 A 
ATOM     16  C   UNL     1       0.652   2.701  -4.028  1.00  0.00     0.005 A 
ATOM     17  C   UNL     1       1.998   3.077  -4.009  1.00  0.00     0.011 A 
BRANCH  13  18
ATOM     18  O   UNL     1       0.482   0.139  -1.444  1.00  0.00    -0.497 OA
ATOM     19  C   UNL     1       1.054   0.017  -0.144  1.00  0.00     0.278 C 
ENDBRANCH  13  18
ENDBRANCH   8  12
BRANCH   9  20
ATOM     20  C   UNL     1       5.220   0.749  -3.899  1.00  0.00     0.067 A 
ATOM     21  C   UNL     1       5.887  -0.359  -3.372  1.00  0.00     0.032 A 
ATOM     22  C   UNL     1       4.381   0.598  -5.009  1.00  0.00     0.032 A 
ATOM     23  C   UNL     1       5.624  -1.627  -3.900  1.00  0.00     0.049 A 
ATOM     24  C   UNL     1       4.144  -0.668  -5.546  1.00  0.00     0.049 A 
ATOM     25  C   UNL     1       4.740  -1.792  -4.976  1.00  0.00     0.129 A 
BRANCH  25  26
ATOM     26  O   UNL     1       4.544  -3.087  -5.365  1.00  0.00    -0.406 OA
BRANCH  26  27
ATOM     27  C   UNL     1       3.624  -3.318  -6.420  1.00  0.00     0.573 C 
ATOM     28  F   UNL     1       2.391  -2.865  -6.109  1.00  0.00    -0.132 F 
ATOM     29  F   UNL     1       4.045  -2.741  -7.566  1.00  0.00    -0.132 F 
ATOM     30  F   UNL     1       3.537  -4.651  -6.632  1.00  0.00    -0.132 F 
ENDBRANCH  26  27
ENDBRANCH  25  26
ENDBRANCH   9  20
ENDBRANCH   4   7
ENDBRANCH   2   3
ENDBRANCH   1   2
BRANCH   1  31
ATOM     31  C   UNL     1       0.468   5.548   0.797  1.00  0.00     0.023 C 
BRANCH  31  32
ATOM     32  C   UNL     1      -0.686   5.989  -0.094  1.00  0.00     0.116 C 
BRANCH  32  33
ATOM     33  N   UNL     1      -1.594   4.915  -0.507  1.00  0.00    -0.352 N 
ATOM     34  C   UNL     1      -2.700   5.033  -1.348  1.00  0.00     0.251 C 
ATOM     35  H   UNL     1      -1.403   4.017  -0.154  1.00  0.00     0.163 HD
ATOM     36  O   UNL     1      -3.585   4.203  -1.361  1.00  0.00    -0.269 OA
BRANCH  34  37
ATOM     37  C   UNL     1      -2.745   6.211  -2.240  1.00  0.00     0.039 A 
ATOM     38  C   UNL     1      -3.868   7.034  -2.348  1.00  0.00     0.014 A 
ATOM     39  C   UNL     1      -1.559   6.534  -2.885  1.00  0.00     0.014 A 
ATOM     40  C   UNL     1      -3.746   8.249  -3.028  1.00  0.00     0.010 A 
ATOM     41  C   UNL     1      -1.391   7.803  -3.372  1.00  0.00     0.010 A 
ATOM     42  C   UNL     1      -2.490   8.646  -3.514  1.00  0.00    -0.014 A 
BRANCH  42  43
ATOM     43  C   UNL     1      -2.275   9.960  -4.120  1.00  0.00     0.031 A 
ATOM     44  C   UNL     1      -2.729  11.143  -3.331  1.00  0.00     0.074 A 
ATOM     45  C   UNL     1      -1.499  10.132  -5.215  1.00  0.00     0.049 A 
ATOM     46  N   UNL     1      -3.659  11.989  -3.635  1.00  0.00    -0.248 NA
ATOM     47  C   UNL     1      -2.137  11.369  -2.003  1.00  0.00     0.031 C 
ATOM     48  C   UNL     1      -0.705   9.130  -5.945  1.00  0.00     0.029 A 
ATOM     49  N   UNL     1      -1.144  11.289  -5.832  1.00  0.00    -0.354 N 
ATOM     50  C   UNL     1      -3.650  12.962  -2.637  1.00  0.00     0.074 A 
ATOM     51  C   UNL     1      -2.800  12.451  -1.590  1.00  0.00     0.031 C 
ATOM     52  C   UNL     1       0.225   9.751  -6.703  1.00  0.00     0.029 A 
ATOM     53  C   UNL     1      -0.052  11.172  -6.683  1.00  0.00     0.049 A 
ATOM     54  H   UNL     1      -1.620  12.138  -5.688  1.00  0.00     0.167 HD
ATOM     55  C   UNL     1      -4.184  14.204  -2.829  1.00  0.00     0.031 A 
ATOM     56  C   UNL     1       0.594  12.174  -7.324  1.00  0.00     0.031 A 
ATOM     57  C   UNL     1      -4.973  14.264  -4.031  1.00  0.00     0.049 A 
ATOM     58  C   UNL     1      -0.347  13.317  -7.385  1.00  0.00     0.074 A 
ATOM     59  C   UNL     1      -6.114  13.631  -4.481  1.00  0.00     0.029 A 
ATOM     60  N   UNL     1      -4.372  14.800  -5.147  1.00  0.00    -0.354 N 
ATOM     61  N   UNL     1      -1.472  13.284  -8.046  1.00  0.00    -0.248 NA
ATOM     62  C   UNL     1      -0.263  14.334  -6.350  1.00  0.00     0.031 C 
ATOM     63  C   UNL     1      -5.875  13.396  -5.868  1.00  0.00     0.029 A 
ATOM     64  C   UNL     1      -4.638  13.958  -6.196  1.00  0.00     0.049 A 
ATOM     65  H   UNL     1      -3.849  15.633  -5.185  1.00  0.00     0.167 HD
ATOM     66  C   UNL     1      -2.377  13.967  -7.246  1.00  0.00     0.074 A 
ATOM     67  C   UNL     1      -1.552  14.680  -6.272  1.00  0.00     0.031 C 
ATOM     68  C   UNL     1      -3.712  13.678  -7.276  1.00  0.00     0.031 A 
BRANCH  55  69
ATOM     69  C   UNL     1      -3.713  15.461  -2.137  1.00  0.00    -0.014 A 
ATOM     70  C   UNL     1      -4.409  16.669  -2.363  1.00  0.00     0.010 A 
ATOM     71  C   UNL     1      -2.461  15.558  -1.498  1.00  0.00     0.010 A 
ATOM     72  C   UNL     1      -3.846  17.910  -2.034  1.00  0.00     0.020 A 
ATOM     73  C   UNL     1      -1.910  16.788  -1.126  1.00  0.00     0.020 A 
ATOM     74  C   UNL     1      -2.590  17.960  -1.432  1.00  0.00     0.054 A 
BRANCH  74  75
ATOM     75  S   UNL     1      -1.814  19.567  -1.128  1.00  0.00     0.124 S 
ATOM     76  O   UNL     1      -1.584  20.051  -2.486  1.00  0.00    -0.237 OA
ATOM     77  O   UNL     1      -2.844  20.271  -0.370  1.00  0.00    -0.237 OA
ATOM     78  O   UNL     1      -0.611  19.228  -0.371  1.00  0.00    -0.744 OA
ENDBRANCH  74  75
ENDBRANCH  55  69
BRANCH  56  79
ATOM     79  C   UNL     1       2.046  12.289  -7.595  1.00  0.00    -0.014 A 
ATOM     80  C   UNL     1       2.538  13.223  -8.523  1.00  0.00     0.010 A 
ATOM     81  C   UNL     1       2.972  11.671  -6.728  1.00  0.00     0.010 A 
ATOM     82  C   UNL     1       3.898  13.574  -8.539  1.00  0.00     0.020 A 
ATOM     83  C   UNL     1       4.330  12.013  -6.741  1.00  0.00     0.020 A 
ATOM     84  C   UNL     1       4.782  12.983  -7.631  1.00  0.00     0.054 A 
BRANCH  84  85
ATOM     85  S   UNL     1       6.494  13.587  -7.532  1.00  0.00     0.124 S 
ATOM     86  O   UNL     1       7.072  13.084  -8.775  1.00  0.00    -0.237 OA
ATOM     87  O   UNL     1       6.316  15.034  -7.457  1.00  0.00    -0.237 OA
ATOM     88  O   UNL     1       7.008  12.966  -6.312  1.00  0.00    -0.744 OA
ENDBRANCH  84  85
ENDBRANCH  56  79
BRANCH  68  89
ATOM     89  C   UNL     1      -4.238  12.789  -8.382  1.00  0.00    -0.014 A 
ATOM     90  C   UNL     1      -3.866  11.439  -8.543  1.00  0.00     0.010 A 
ATOM     91  C   UNL     1      -5.290  13.289  -9.170  1.00  0.00     0.010 A 
ATOM     92  C   UNL     1      -4.524  10.618  -9.473  1.00  0.00     0.020 A 
ATOM     93  C   UNL     1      -5.960  12.473 -10.085  1.00  0.00     0.020 A 
ATOM     94  C   UNL     1      -5.572  11.141 -10.236  1.00  0.00     0.054 A 
BRANCH  94  95
ATOM     95  S   UNL     1      -6.474  10.058 -11.381  1.00  0.00     0.124 S 
ATOM     96  O   UNL     1      -5.489   9.816 -12.432  1.00  0.00    -0.237 OA
ATOM     97  O   UNL     1      -6.801   8.903 -10.548  1.00  0.00    -0.237 OA
ATOM     98  O   UNL     1      -7.626  10.862 -11.787  1.00  0.00    -0.744 OA
ENDBRANCH  94  95
ENDBRANCH  68  89
ENDBRANCH  42  43
ENDBRANCH  34  37
ENDBRANCH  32  33
ENDBRANCH  31  32
ENDBRANCH   1  31
TORSDOF 19
