REMARK SMILES CSCc1ccc(C(=O)N[C@H]2C=C[C@@H](C(=O)NCCCCNC(=O)c3ccc(-c4c5nc(c(-c6ccc(S(=O)(=O)[O-])cc6)c6ccc([nH]6)c(-c6ccc(S(=O)(=O)[O-])cc6)c6nc(c(-c7ccc(S(=O)(=O)[O-])cc7)c7ccc4[nH]7)C=C6)C=C5)cc3)C2)o1
REMARK SMILES IDX 19 1 18 2 17 3 15 4 16 5 14 7 11 8 12 9 85 10 13 11 10 12
REMARK SMILES IDX 8 13 9 14 7 16 4 17 5 18 86 19 6 20 3 21 2 22 1 23 20 24
REMARK SMILES IDX 21 25 22 26 23 27 24 29 25 30 26 31 84 32 27 33 83 34 28 35
REMARK SMILES IDX 29 36 30 37 77 38 31 39 82 40 76 41 78 42 32 43 81 44 75 45
REMARK SMILES IDX 74 46 33 48 63 49 44 50 62 51 45 52 48 53 61 54 79 55 46 56
REMARK SMILES IDX 47 57 60 59 80 60 49 61 34 62 35 63 43 64 36 65 42 66 37 67
REMARK SMILES IDX 38 68 39 69 40 70 41 71 64 72 65 73 73 74 66 75 72 76 67 77
REMARK SMILES IDX 68 78 69 79 70 80 71 81 50 82 51 83 59 84 52 85 58 86 53 87
REMARK SMILES IDX 54 88 55 89 56 90 57 91
REMARK H PARENT 17 6 10 15 22 28 78 47 48 58
REMARK Flexibility Score: inf
ROOT
ATOM      1  C   UNL     1      -1.283  -5.425   9.130  1.00  0.00     0.023 C 
ENDROOT
BRANCH   1   2
ATOM      2  C   UNL     1       0.148  -5.518   8.606  1.00  0.00     0.116 C 
BRANCH   2   3
ATOM      3  N   UNL     1       0.466  -6.865   8.169  1.00  0.00    -0.356 N 
ATOM      4  C   UNL     1       0.649  -7.378   6.921  1.00  0.00     0.227 C 
ATOM      5  O   UNL     1       0.910  -8.581   6.828  1.00  0.00    -0.274 OA
ATOM      6  H   UNL     1       0.567  -7.518   8.898  1.00  0.00     0.163 HD
BRANCH   4   7
ATOM      7  C   UNL     1       0.595  -6.511   5.664  1.00  0.00     0.103 C 
ATOM      8  C   UNL     1      -0.279  -4.333   4.968  1.00  0.00     0.106 C 
ATOM      9  C   UNL     1       1.158  -4.259   5.379  1.00  0.00    -0.006 C 
ATOM     10  C   UNL     1      -0.707  -5.733   5.434  1.00  0.00     0.047 C 
ATOM     11  C   UNL     1       1.653  -5.454   5.706  1.00  0.00    -0.016 C 
BRANCH   8  12
ATOM     12  N   UNL     1      -1.015  -3.252   5.570  1.00  0.00    -0.343 N 
ATOM     13  C   UNL     1      -1.069  -1.917   5.216  1.00  0.00     0.287 C 
ATOM     14  O   UNL     1      -1.853  -1.225   5.870  1.00  0.00    -0.266 OA
ATOM     15  H   UNL     1      -1.561  -3.500   6.351  1.00  0.00     0.164 HD
BRANCH  13  16
ATOM     16  C   UNL     1      -0.219  -1.375   4.161  1.00  0.00     0.191 A 
ATOM     17  C   UNL     1       0.613   0.300   2.964  1.00  0.00     0.114 A 
ATOM     18  C   UNL     1       1.316  -0.822   2.599  1.00  0.00     0.047 A 
ATOM     19  O   UNL     1      -0.297  -0.017   3.928  1.00  0.00    -0.455 OA
ATOM     20  C   UNL     1       0.722  -1.895   3.288  1.00  0.00     0.056 A 
BRANCH  17  21
ATOM     21  C   UNL     1       0.688   1.712   2.522  1.00  0.00     0.144 C 
BRANCH  21  22
ATOM     22  S   UNL     1      -0.149   2.001   0.921  1.00  0.00    -0.157 SA
ATOM     23  C   UNL     1       0.663   0.756  -0.118  1.00  0.00     0.085 C 
ENDBRANCH  21  22
ENDBRANCH  17  21
ENDBRANCH  13  16
ENDBRANCH   8  12
ENDBRANCH   4   7
ENDBRANCH   2   3
ENDBRANCH   1   2
BRANCH   1  24
ATOM     24  C   UNL     1      -1.514  -6.156  10.449  1.00  0.00     0.023 C 
BRANCH  24  25
ATOM     25  C   UNL     1      -0.603  -5.719  11.588  1.00  0.00     0.116 C 
BRANCH  25  26
ATOM     26  N   UNL     1      -0.681  -4.293  11.867  1.00  0.00    -0.352 N 
ATOM     27  C   UNL     1      -0.670  -3.665  13.089  1.00  0.00     0.251 C 
ATOM     28  H   UNL     1      -0.751  -3.704  11.081  1.00  0.00     0.163 HD
ATOM     29  O   UNL     1      -0.868  -2.457  13.167  1.00  0.00    -0.269 OA
BRANCH  27  30
ATOM     30  C   UNL     1      -0.456  -4.471  14.307  1.00  0.00     0.039 A 
ATOM     31  C   UNL     1      -1.341  -4.326  15.376  1.00  0.00     0.014 A 
ATOM     32  C   UNL     1       0.583  -5.404  14.366  1.00  0.00     0.014 A 
ATOM     33  C   UNL     1      -1.219  -5.165  16.484  1.00  0.00     0.010 A 
ATOM     34  C   UNL     1       0.651  -6.292  15.433  1.00  0.00     0.010 A 
ATOM     35  C   UNL     1      -0.244  -6.177  16.507  1.00  0.00    -0.014 A 
BRANCH  35  36
ATOM     36  C   UNL     1      -0.149  -7.118  17.650  1.00  0.00     0.031 A 
ATOM     37  C   UNL     1       1.086  -7.139  18.510  1.00  0.00     0.074 A 
ATOM     38  C   UNL     1      -1.153  -7.987  17.883  1.00  0.00     0.049 A 
ATOM     39  N   UNL     1       1.354  -7.891  19.546  1.00  0.00    -0.248 NA
ATOM     40  C   UNL     1       2.173  -6.216  18.142  1.00  0.00     0.031 C 
ATOM     41  C   UNL     1      -2.374  -8.107  17.082  1.00  0.00     0.029 A 
ATOM     42  N   UNL     1      -1.306  -8.934  18.863  1.00  0.00    -0.354 N 
ATOM     43  C   UNL     1       2.640  -7.544  19.942  1.00  0.00     0.074 A 
ATOM     44  C   UNL     1       3.121  -6.557  19.001  1.00  0.00     0.031 C 
ATOM     45  C   UNL     1      -3.167  -9.045  17.625  1.00  0.00     0.029 A 
ATOM     46  C   UNL     1      -2.499  -9.614  18.792  1.00  0.00     0.049 A 
ATOM     47  H   UNL     1      -0.626  -9.111  19.552  1.00  0.00     0.167 HD
ATOM     48  C   UNL     1       3.349  -7.988  21.007  1.00  0.00     0.031 A 
ATOM     49  C   UNL     1      -3.004 -10.582  19.582  1.00  0.00     0.031 A 
ATOM     50  C   UNL     1       2.860  -8.956  21.951  1.00  0.00     0.049 A 
ATOM     51  C   UNL     1      -2.211 -11.038  20.776  1.00  0.00     0.074 A 
ATOM     52  C   UNL     1       3.475  -9.428  23.097  1.00  0.00     0.029 A 
ATOM     53  N   UNL     1       1.635  -9.599  21.860  1.00  0.00    -0.354 N 
ATOM     54  N   UNL     1      -1.026 -10.643  21.177  1.00  0.00    -0.248 NA
ATOM     55  C   UNL     1      -2.832 -12.055  21.634  1.00  0.00     0.031 C 
ATOM     56  C   UNL     1       2.639 -10.388  23.677  1.00  0.00     0.029 A 
ATOM     57  C   UNL     1       1.481 -10.474  22.921  1.00  0.00     0.049 A 
ATOM     58  H   UNL     1       0.973  -9.455  21.145  1.00  0.00     0.167 HD
ATOM     59  C   UNL     1      -0.774 -11.339  22.353  1.00  0.00     0.074 A 
ATOM     60  C   UNL     1      -1.934 -12.171  22.603  1.00  0.00     0.031 C 
ATOM     61  C   UNL     1       0.318 -11.292  23.156  1.00  0.00     0.031 A 
BRANCH  48  62
ATOM     62  C   UNL     1       4.731  -7.422  21.204  1.00  0.00    -0.014 A 
ATOM     63  C   UNL     1       4.919  -6.081  21.587  1.00  0.00     0.010 A 
ATOM     64  C   UNL     1       5.857  -8.248  21.034  1.00  0.00     0.010 A 
ATOM     65  C   UNL     1       6.206  -5.564  21.750  1.00  0.00     0.020 A 
ATOM     66  C   UNL     1       7.146  -7.742  21.225  1.00  0.00     0.020 A 
ATOM     67  C   UNL     1       7.313  -6.398  21.563  1.00  0.00     0.054 A 
BRANCH  67  68
ATOM     68  S   UNL     1       8.972  -5.705  21.798  1.00  0.00     0.124 S 
ATOM     69  O   UNL     1       9.132  -4.893  20.594  1.00  0.00    -0.237 OA
ATOM     70  O   UNL     1       8.835  -4.958  23.046  1.00  0.00    -0.237 OA
ATOM     71  O   UNL     1       9.832  -6.883  21.872  1.00  0.00    -0.744 OA
ENDBRANCH  67  68
ENDBRANCH  48  62
BRANCH  49  72
ATOM     72  C   UNL     1      -4.347 -11.152  19.291  1.00  0.00    -0.014 A 
ATOM     73  C   UNL     1      -5.445 -10.848  20.115  1.00  0.00     0.010 A 
ATOM     74  C   UNL     1      -4.540 -11.987  18.175  1.00  0.00     0.010 A 
ATOM     75  C   UNL     1      -6.707 -11.385  19.842  1.00  0.00     0.020 A 
ATOM     76  C   UNL     1      -5.806 -12.504  17.884  1.00  0.00     0.020 A 
ATOM     77  C   UNL     1      -6.879 -12.209  18.726  1.00  0.00     0.054 A 
BRANCH  77  78
ATOM     78  S   UNL     1      -8.536 -12.852  18.360  1.00  0.00     0.124 S 
ATOM     79  O   UNL     1      -8.688 -13.893  19.372  1.00  0.00    -0.237 OA
ATOM     80  O   UNL     1      -9.379 -11.672  18.533  1.00  0.00    -0.237 OA
ATOM     81  O   UNL     1      -8.420 -13.327  16.983  1.00  0.00    -0.744 OA
ENDBRANCH  77  78
ENDBRANCH  49  72
BRANCH  61  82
ATOM     82  C   UNL     1       0.294 -12.130  24.406  1.00  0.00    -0.014 A 
ATOM     83  C   UNL     1       0.420 -13.529  24.351  1.00  0.00     0.010 A 
ATOM     84  C   UNL     1       0.193 -11.498  25.659  1.00  0.00     0.010 A 
ATOM     85  C   UNL     1       0.409 -14.285  25.526  1.00  0.00     0.020 A 
ATOM     86  C   UNL     1       0.209 -12.248  26.837  1.00  0.00     0.020 A 
ATOM     87  C   UNL     1       0.300 -13.639  26.762  1.00  0.00     0.054 A 
BRANCH  87  88
ATOM     88  S   UNL     1       0.323 -14.637  28.276  1.00  0.00     0.124 S 
ATOM     89  O   UNL     1      -1.015 -15.222  28.273  1.00  0.00    -0.237 OA
ATOM     90  O   UNL     1       1.418 -15.572  28.029  1.00  0.00    -0.237 OA
ATOM     91  O   UNL     1       0.574 -13.659  29.332  1.00  0.00    -0.744 OA
ENDBRANCH  87  88
ENDBRANCH  61  82
ENDBRANCH  35  36
ENDBRANCH  27  30
ENDBRANCH  25  26
ENDBRANCH  24  25
ENDBRANCH   1  24
TORSDOF 18
