REMARK SMILES C[C@@H]1SC[C@H](C(=O)NCCCCNC(=O)c2ccc(-c3c4nc(c(-c5ccc(S(=O)(=O)[O-])cc5)c5ccc([nH]5)c(-c5ccc(S(=O)(=O)[O-])cc5)c5nc(c(-c6ccc(S(=O)(=O)[O-])cc6)c6ccc3[nH]6)C=C5)C=C4)cc2)N1C(=O)C[NH2+]CC(F)(F)F
REMARK SMILES IDX 9 1 8 2 6 3 7 4 5 6 1 7 2 8 3 9 76 10 4 11 77 12 78 13 79 14
REMARK SMILES IDX 80 15 81 18 82 19 83 20 84 21 85 22 10 23 11 24 12 25 13 26
REMARK SMILES IDX 14 27 15 29 16 30 17 31 75 32 18 33 74 34 19 35 20 36 21 37
REMARK SMILES IDX 68 38 22 39 73 40 67 41 69 42 23 43 72 44 66 45 65 46 24 48
REMARK SMILES IDX 54 49 35 50 53 51 36 52 39 53 52 54 70 55 37 56 38 57 51 59
REMARK SMILES IDX 71 60 40 61 25 62 26 63 34 64 27 65 33 66 28 67 29 68 30 69
REMARK SMILES IDX 31 70 32 71 55 72 56 73 64 74 57 75 63 76 58 77 59 78 60 79
REMARK SMILES IDX 61 80 62 81 41 82 42 83 50 84 43 85 49 86 44 87 45 88 46 89
REMARK SMILES IDX 47 90 48 91
REMARK H PARENT 8 5 80 16 80 17 13 28 69 47 39 58
REMARK Flexibility Score: inf
ROOT
ATOM      1  C   UNL     1       4.017  -0.430   3.131  1.00  0.00     0.116 C 
ENDROOT
BRANCH   1   2
ATOM      2  N   UNL     1       3.349  -1.119   4.216  1.00  0.00    -0.354 N 
ATOM      3  C   UNL     1       2.020  -1.227   4.499  1.00  0.00     0.243 C 
ATOM      4  O   UNL     1       1.712  -1.600   5.636  1.00  0.00    -0.273 OA
ATOM      5  H   UNL     1       3.947  -1.580   4.847  1.00  0.00     0.163 HD
BRANCH   3   6
ATOM      6  C   UNL     1       0.937  -0.710   3.530  1.00  0.00     0.185 C 
ATOM      7  C   UNL     1       1.234   0.445  -0.002  1.00  0.00     0.043 C 
ATOM      8  C   UNL     1       0.455  -0.031   1.219  1.00  0.00     0.141 C 
ATOM      9  S   UNL     1       0.059   1.433   2.241  1.00  0.00    -0.135 SA
ATOM     10  N   UNL     1       1.125  -0.994   2.095  1.00  0.00    -0.313 N 
ATOM     11  C   UNL     1       0.834   0.795   3.737  1.00  0.00     0.107 C 
BRANCH  10  12
ATOM     12  C   UNL     1       1.329  -2.329   1.757  1.00  0.00     0.279 C 
ATOM     13  O   UNL     1       1.364  -3.216   2.614  1.00  0.00    -0.268 OA
BRANCH  12  14
ATOM     14  C   UNL     1       1.558  -2.710   0.294  1.00  0.00     0.362 C 
BRANCH  14  15
ATOM     15  N   UNL     1       0.258  -2.838  -0.384  1.00  0.00    -0.331 N 
ATOM     16  H   UNL     1      -0.252  -1.960  -0.294  1.00  0.00     0.346 HD
ATOM     17  H   UNL     1      -0.258  -3.602   0.053  1.00  0.00     0.346 HD
BRANCH  15  18
ATOM     18  C   UNL     1       0.427  -3.154  -1.827  1.00  0.00     0.378 C 
BRANCH  18  19
ATOM     19  C   UNL     1       1.076  -4.491  -2.238  1.00  0.00     0.438 C 
ATOM     20  F   UNL     1       0.482  -5.529  -1.609  1.00  0.00    -0.165 F 
ATOM     21  F   UNL     1       0.954  -4.689  -3.569  1.00  0.00    -0.165 F 
ATOM     22  F   UNL     1       2.392  -4.513  -1.938  1.00  0.00    -0.165 F 
ENDBRANCH  18  19
ENDBRANCH  15  18
ENDBRANCH  14  15
ENDBRANCH  12  14
ENDBRANCH  10  12
ENDBRANCH   3   6
ENDBRANCH   1   2
BRANCH   1  23
ATOM     23  C   UNL     1       4.917   0.683   3.663  1.00  0.00     0.023 C 
BRANCH  23  24
ATOM     24  C   UNL     1       6.111   0.199   4.487  1.00  0.00     0.023 C 
BRANCH  24  25
ATOM     25  C   UNL     1       7.016  -0.805   3.781  1.00  0.00     0.116 C 
BRANCH  25  26
ATOM     26  N   UNL     1       7.545  -0.294   2.526  1.00  0.00    -0.352 N 
ATOM     27  C   UNL     1       8.838  -0.288   2.066  1.00  0.00     0.251 C 
ATOM     28  H   UNL     1       6.880   0.104   1.919  1.00  0.00     0.163 HD
ATOM     29  O   UNL     1       9.116   0.337   1.044  1.00  0.00    -0.269 OA
BRANCH  27  30
ATOM     30  C   UNL     1       9.893  -1.004   2.814  1.00  0.00     0.039 A 
ATOM     31  C   UNL     1      11.120  -0.370   3.017  1.00  0.00     0.014 A 
ATOM     32  C   UNL     1       9.673  -2.288   3.321  1.00  0.00     0.014 A 
ATOM     33  C   UNL     1      12.103  -0.999   3.783  1.00  0.00     0.010 A 
ATOM     34  C   UNL     1      10.622  -2.877   4.153  1.00  0.00     0.010 A 
ATOM     35  C   UNL     1      11.849  -2.241   4.391  1.00  0.00    -0.014 A 
BRANCH  35  36
ATOM     36  C   UNL     1      12.855  -2.867   5.287  1.00  0.00     0.031 A 
ATOM     37  C   UNL     1      13.476  -4.192   4.933  1.00  0.00     0.074 A 
ATOM     38  C   UNL     1      13.187  -2.253   6.441  1.00  0.00     0.049 A 
ATOM     39  N   UNL     1      14.370  -4.884   5.594  1.00  0.00    -0.248 NA
ATOM     40  C   UNL     1      13.023  -4.834   3.689  1.00  0.00     0.031 C 
ATOM     41  C   UNL     1      12.615  -0.994   6.925  1.00  0.00     0.029 A 
ATOM     42  N   UNL     1      14.086  -2.603   7.418  1.00  0.00    -0.354 N 
ATOM     43  C   UNL     1      14.587  -6.036   4.847  1.00  0.00     0.074 A 
ATOM     44  C   UNL     1      13.684  -5.982   3.718  1.00  0.00     0.031 C 
ATOM     45  C   UNL     1      13.199  -0.661   8.086  1.00  0.00     0.029 A 
ATOM     46  C   UNL     1      14.156  -1.700   8.453  1.00  0.00     0.049 A 
ATOM     47  H   UNL     1      14.630  -3.423   7.380  1.00  0.00     0.167 HD
ATOM     48  C   UNL     1      15.476  -7.034   5.063  1.00  0.00     0.031 A 
ATOM     49  C   UNL     1      14.900  -1.708   9.576  1.00  0.00     0.031 A 
ATOM     50  C   UNL     1      16.370  -7.089   6.190  1.00  0.00     0.049 A 
ATOM     51  C   UNL     1      15.868  -2.838   9.803  1.00  0.00     0.074 A 
ATOM     52  C   UNL     1      17.331  -8.041   6.481  1.00  0.00     0.029 A 
ATOM     53  N   UNL     1      16.413  -6.154   7.214  1.00  0.00    -0.354 N 
ATOM     54  N   UNL     1      16.105  -3.884   9.047  1.00  0.00    -0.248 NA
ATOM     55  C   UNL     1      16.680  -2.779  11.025  1.00  0.00     0.031 C 
ATOM     56  C   UNL     1      17.916  -7.712   7.708  1.00  0.00     0.029 A 
ATOM     57  C   UNL     1      17.368  -6.518   8.149  1.00  0.00     0.049 A 
ATOM     58  H   UNL     1      15.847  -5.350   7.269  1.00  0.00     0.167 HD
ATOM     59  C   UNL     1      17.111  -4.596   9.693  1.00  0.00     0.074 A 
ATOM     60  C   UNL     1      17.454  -3.845  10.883  1.00  0.00     0.031 C 
ATOM     61  C   UNL     1      17.695  -5.766   9.334  1.00  0.00     0.031 A 
BRANCH  48  62
ATOM     62  C   UNL     1      15.534  -8.148   4.048  1.00  0.00    -0.014 A 
ATOM     63  C   UNL     1      16.028  -7.918   2.751  1.00  0.00     0.010 A 
ATOM     64  C   UNL     1      15.143  -9.451   4.407  1.00  0.00     0.010 A 
ATOM     65  C   UNL     1      16.096  -8.959   1.822  1.00  0.00     0.020 A 
ATOM     66  C   UNL     1      15.239 -10.502   3.490  1.00  0.00     0.020 A 
ATOM     67  C   UNL     1      15.703 -10.246   2.198  1.00  0.00     0.054 A 
BRANCH  67  68
ATOM     68  S   UNL     1      15.839 -11.583   0.980  1.00  0.00     0.124 S 
ATOM     69  O   UNL     1      14.778 -11.240   0.036  1.00  0.00    -0.237 OA
ATOM     70  O   UNL     1      17.201 -11.420   0.479  1.00  0.00    -0.237 OA
ATOM     71  O   UNL     1      15.606 -12.793   1.765  1.00  0.00    -0.744 OA
ENDBRANCH  67  68
ENDBRANCH  48  62
BRANCH  49  72
ATOM     72  C   UNL     1      14.756  -0.610  10.573  1.00  0.00    -0.014 A 
ATOM     73  C   UNL     1      15.799   0.306  10.797  1.00  0.00     0.010 A 
ATOM     74  C   UNL     1      13.564  -0.478  11.309  1.00  0.00     0.010 A 
ATOM     75  C   UNL     1      15.664   1.314  11.757  1.00  0.00     0.020 A 
ATOM     76  C   UNL     1      13.411   0.549  12.244  1.00  0.00     0.020 A 
ATOM     77  C   UNL     1      14.470   1.429  12.474  1.00  0.00     0.054 A 
BRANCH  77  78
ATOM     78  S   UNL     1      14.302   2.766  13.689  1.00  0.00     0.124 S 
ATOM     79  O   UNL     1      15.169   2.307  14.768  1.00  0.00    -0.237 OA
ATOM     80  O   UNL     1      14.777   3.929  12.944  1.00  0.00    -0.237 OA
ATOM     81  O   UNL     1      12.872   2.773  13.993  1.00  0.00    -0.744 OA
ENDBRANCH  77  78
ENDBRANCH  49  72
BRANCH  61  82
ATOM     82  C   UNL     1      18.788  -6.293  10.227  1.00  0.00    -0.014 A 
ATOM     83  C   UNL     1      18.508  -6.788  11.513  1.00  0.00     0.010 A 
ATOM     84  C   UNL     1      20.114  -6.322   9.757  1.00  0.00     0.010 A 
ATOM     85  C   UNL     1      19.540  -7.258  12.331  1.00  0.00     0.020 A 
ATOM     86  C   UNL     1      21.144  -6.822  10.558  1.00  0.00     0.020 A 
ATOM     87  C   UNL     1      20.852  -7.269  11.848  1.00  0.00     0.054 A 
BRANCH  87  88
ATOM     88  S   UNL     1      22.170  -7.904  12.920  1.00  0.00     0.124 S 
ATOM     89  O   UNL     1      22.296  -6.838  13.910  1.00  0.00    -0.237 OA
ATOM     90  O   UNL     1      21.604  -9.157  13.415  1.00  0.00    -0.237 OA
ATOM     91  O   UNL     1      23.309  -8.055  12.018  1.00  0.00    -0.744 OA
ENDBRANCH  87  88
ENDBRANCH  61  82
ENDBRANCH  35  36
ENDBRANCH  27  30
ENDBRANCH  25  26
ENDBRANCH  24  25
ENDBRANCH  23  24
ENDBRANCH   1  23
TORSDOF 19
