REMARK SMILES Cc1cc(Br)c(C)c([C@@H]2[NH2+][C@H](C(=O)NCCCCNC(=O)c3ccc(-c4c5nc(c(-c6ccc(S(=O)(=O)[O-])cc6)c6ccc([nH]6)c(-c6ccc(S(=O)(=O)[O-])cc6)c6nc(c(-c7ccc(S(=O)(=O)[O-])cc7)c7ccc4[nH]7)C=C6)C=C5)cc3)CS2)c1O
REMARK SMILES IDX 17 1 16 2 15 3 14 4 12 5 13 6 11 8 9 9 10 10 83 11 82 14
REMARK SMILES IDX 8 15 1 16 2 17 3 18 84 19 4 20 5 21 6 22 7 23 85 24 18 26
REMARK SMILES IDX 19 27 20 28 21 30 22 31 23 32 81 33 24 34 80 35 25 36 26 37
REMARK SMILES IDX 27 38 74 39 28 40 79 41 73 42 75 43 29 44 78 45 72 46 71 47
REMARK SMILES IDX 30 49 60 50 41 51 59 52 42 53 45 54 58 55 76 56 43 57 44 58
REMARK SMILES IDX 57 60 77 61 46 62 31 63 32 64 40 65 33 66 39 67 34 68 35 69
REMARK SMILES IDX 36 70 37 71 38 72 61 73 62 74 70 75 63 76 69 77 64 78 65 79
REMARK SMILES IDX 66 80 67 81 68 82 47 83 48 84 56 85 49 86 55 87 50 88 51 89
REMARK SMILES IDX 52 90 53 91 54 92
REMARK H PARENT 14 7 10 12 10 13 85 25 19 29 75 48 45 59
REMARK Flexibility Score: inf
ROOT
ATOM      1  C   UNL     1       3.574   1.610  -2.869  1.00  0.00     0.023 C 
ENDROOT
BRANCH   1   2
ATOM      2  C   UNL     1       3.106   2.621  -1.823  1.00  0.00     0.023 C 
BRANCH   2   3
ATOM      3  C   UNL     1       3.631   2.375  -0.405  1.00  0.00     0.116 C 
BRANCH   3   4
ATOM      4  N   UNL     1       4.702   3.283  -0.036  1.00  0.00    -0.351 N 
ATOM      5  C   UNL     1       4.638   4.505   0.572  1.00  0.00     0.279 C 
ATOM      6  O   UNL     1       5.710   5.059   0.842  1.00  0.00    -0.268 OA
ATOM      7  H   UNL     1       5.609   2.972  -0.258  1.00  0.00     0.163 HD
BRANCH   5   8
ATOM      8  C   UNL     1       3.311   5.167   0.993  1.00  0.00     0.283 C 
ATOM      9  C   UNL     1       0.925   4.975   0.644  1.00  0.00     0.278 C 
ATOM     10  N   UNL     1       2.240   4.968  -0.000  1.00  0.00    -0.320 N 
ATOM     11  S   UNL     1       1.138   5.157   2.432  1.00  0.00    -0.087 SA
ATOM     12  H   UNL     1       2.280   5.719  -0.689  1.00  0.00     0.348 HD
ATOM     13  H   UNL     1       2.378   4.064  -0.452  1.00  0.00     0.348 HD
ATOM     14  C   UNL     1       2.876   4.673   2.363  1.00  0.00     0.151 C 
BRANCH   9  15
ATOM     15  C   UNL     1       0.093   3.801   0.109  1.00  0.00     0.066 A 
ATOM     16  C   UNL     1      -0.351   0.004   0.682  1.00  0.00     0.048 C 
ATOM     17  C   UNL     1      -0.507   1.393   0.127  1.00  0.00    -0.008 A 
ATOM     18  C   UNL     1      -1.241   1.572  -1.044  1.00  0.00     0.023 A 
ATOM     19  C   UNL     1       0.122   2.510   0.704  1.00  0.00     0.128 A 
ATOM     20  C   UNL     1      -1.306   2.822  -1.657  1.00  0.00     0.021 A 
ATOM     21  Br  UNL     1      -2.320   2.913  -3.268  1.00  0.00    -0.051 Br
ATOM     22  C   UNL     1      -0.621   3.940  -1.125  1.00  0.00    -0.023 A 
ATOM     23  C   UNL     1      -0.651   5.233  -1.909  1.00  0.00     0.046 C 
BRANCH  19  24
ATOM     24  O   UNL     1       0.856   2.312   1.843  1.00  0.00    -0.507 OA
ATOM     25  H   UNL     1       0.880   1.465   2.242  1.00  0.00     0.293 HD
ENDBRANCH  19  24
ENDBRANCH   9  15
ENDBRANCH   5   8
ENDBRANCH   3   4
ENDBRANCH   2   3
ENDBRANCH   1   2
BRANCH   1  26
ATOM     26  C   UNL     1       3.141   0.168  -2.623  1.00  0.00     0.116 C 
BRANCH  26  27
ATOM     27  N   UNL     1       1.700  -0.039  -2.562  1.00  0.00    -0.352 N 
ATOM     28  C   UNL     1       1.014  -1.218  -2.784  1.00  0.00     0.251 C 
ATOM     29  H   UNL     1       1.154   0.749  -2.338  1.00  0.00     0.163 HD
ATOM     30  O   UNL     1      -0.207  -1.266  -2.730  1.00  0.00    -0.269 OA
BRANCH  28  31
ATOM     31  C   UNL     1       1.800  -2.417  -3.150  1.00  0.00     0.039 A 
ATOM     32  C   UNL     1       2.863  -2.827  -2.344  1.00  0.00     0.014 A 
ATOM     33  C   UNL     1       1.562  -3.029  -4.383  1.00  0.00     0.014 A 
ATOM     34  C   UNL     1       3.808  -3.704  -2.861  1.00  0.00     0.010 A 
ATOM     35  C   UNL     1       2.476  -3.969  -4.868  1.00  0.00     0.010 A 
ATOM     36  C   UNL     1       3.643  -4.255  -4.143  1.00  0.00    -0.014 A 
BRANCH  36  37
ATOM     37  C   UNL     1       4.739  -5.065  -4.736  1.00  0.00     0.031 A 
ATOM     38  C   UNL     1       5.512  -4.545  -5.922  1.00  0.00     0.074 A 
ATOM     39  C   UNL     1       5.094  -6.227  -4.156  1.00  0.00     0.049 A 
ATOM     40  N   UNL     1       6.500  -5.110  -6.568  1.00  0.00    -0.248 NA
ATOM     41  C   UNL     1       5.136  -3.222  -6.449  1.00  0.00     0.031 C 
ATOM     42  C   UNL     1       4.449  -6.809  -2.978  1.00  0.00     0.029 A 
ATOM     43  N   UNL     1       6.099  -7.110  -4.458  1.00  0.00    -0.354 N 
ATOM     44  C   UNL     1       6.854  -4.223  -7.578  1.00  0.00     0.074 A 
ATOM     45  C   UNL     1       5.960  -3.091  -7.481  1.00  0.00     0.031 C 
ATOM     46  C   UNL     1       5.102  -7.928  -2.630  1.00  0.00     0.029 A 
ATOM     47  C   UNL     1       6.171  -8.176  -3.593  1.00  0.00     0.049 A 
ATOM     48  H   UNL     1       6.711  -6.992  -5.220  1.00  0.00     0.167 HD
ATOM     49  C   UNL     1       7.842  -4.338  -8.496  1.00  0.00     0.031 A 
ATOM     50  C   UNL     1       6.991  -9.246  -3.580  1.00  0.00     0.031 A 
ATOM     51  C   UNL     1       8.740  -5.459  -8.579  1.00  0.00     0.049 A 
ATOM     52  C   UNL     1       8.046  -9.376  -4.638  1.00  0.00     0.074 A 
ATOM     53  C   UNL     1       9.766  -5.667  -9.485  1.00  0.00     0.029 A 
ATOM     54  N   UNL     1       8.733  -6.549  -7.724  1.00  0.00    -0.354 N 
ATOM     55  N   UNL     1       8.337  -8.543  -5.609  1.00  0.00    -0.248 NA
ATOM     56  C   UNL     1       8.879 -10.586  -4.609  1.00  0.00     0.031 C 
ATOM     57  C   UNL     1      10.351  -6.904  -9.205  1.00  0.00     0.029 A 
ATOM     58  C   UNL     1       9.726  -7.441  -8.091  1.00  0.00     0.049 A 
ATOM     59  H   UNL     1       8.115  -6.670  -6.968  1.00  0.00     0.167 HD
ATOM     60  C   UNL     1       9.380  -9.133  -6.312  1.00  0.00     0.074 A 
ATOM     61  C   UNL     1       9.690 -10.378  -5.640  1.00  0.00     0.031 C 
ATOM     62  C   UNL     1      10.014  -8.683  -7.422  1.00  0.00     0.031 A 
BRANCH  49  63
ATOM     63  C   UNL     1       8.027  -3.227  -9.495  1.00  0.00    -0.014 A 
ATOM     64  C   UNL     1       7.702  -3.442 -10.847  1.00  0.00     0.010 A 
ATOM     65  C   UNL     1       8.649  -2.022  -9.123  1.00  0.00     0.010 A 
ATOM     66  C   UNL     1       8.025  -2.487 -11.815  1.00  0.00     0.020 A 
ATOM     67  C   UNL     1       8.954  -1.055 -10.086  1.00  0.00     0.020 A 
ATOM     68  C   UNL     1       8.662  -1.305 -11.429  1.00  0.00     0.054 A 
BRANCH  68  69
ATOM     69  S   UNL     1       9.108  -0.091 -12.703  1.00  0.00     0.124 S 
ATOM     70  O   UNL     1      10.296  -0.692 -13.299  1.00  0.00    -0.237 OA
ATOM     71  O   UNL     1       7.919  -0.066 -13.552  1.00  0.00    -0.237 OA
ATOM     72  O   UNL     1       9.340   1.133 -11.939  1.00  0.00    -0.744 OA
ENDBRANCH  68  69
ENDBRANCH  49  63
BRANCH  50  73
ATOM     73  C   UNL     1       6.810 -10.274  -2.521  1.00  0.00    -0.014 A 
ATOM     74  C   UNL     1       5.662 -11.088  -2.521  1.00  0.00     0.010 A 
ATOM     75  C   UNL     1       7.722 -10.374  -1.458  1.00  0.00     0.010 A 
ATOM     76  C   UNL     1       5.395 -11.939  -1.447  1.00  0.00     0.020 A 
ATOM     77  C   UNL     1       7.472 -11.245  -0.392  1.00  0.00     0.020 A 
ATOM     78  C   UNL     1       6.293 -11.996  -0.379  1.00  0.00     0.054 A 
BRANCH  78  79
ATOM     79  S   UNL     1       5.903 -13.058   1.039  1.00  0.00     0.124 S 
ATOM     80  O   UNL     1       4.999 -12.206   1.808  1.00  0.00    -0.237 OA
ATOM     81  O   UNL     1       5.286 -14.224   0.412  1.00  0.00    -0.237 OA
ATOM     82  O   UNL     1       7.207 -13.300   1.650  1.00  0.00    -0.744 OA
ENDBRANCH  78  79
ENDBRANCH  50  73
BRANCH  62  83
ATOM     83  C   UNL     1      11.099  -9.540  -8.012  1.00  0.00    -0.014 A 
ATOM     84  C   UNL     1      12.443  -9.133  -7.920  1.00  0.00     0.010 A 
ATOM     85  C   UNL     1      10.773 -10.674  -8.776  1.00  0.00     0.010 A 
ATOM     86  C   UNL     1      13.440  -9.826  -8.610  1.00  0.00     0.020 A 
ATOM     87  C   UNL     1      11.771 -11.382  -9.450  1.00  0.00     0.020 A 
ATOM     88  C   UNL     1      13.095 -10.938  -9.382  1.00  0.00     0.054 A 
BRANCH  88  89
ATOM     89  S   UNL     1      14.395 -11.807 -10.301  1.00  0.00     0.124 S 
ATOM     90  O   UNL     1      14.576 -10.945 -11.466  1.00  0.00    -0.237 OA
ATOM     91  O   UNL     1      15.506 -11.824  -9.352  1.00  0.00    -0.237 OA
ATOM     92  O   UNL     1      13.803 -13.114 -10.576  1.00  0.00    -0.744 OA
ENDBRANCH  88  89
ENDBRANCH  62  83
ENDBRANCH  36  37
ENDBRANCH  28  31
ENDBRANCH  26  27
ENDBRANCH   1  26
TORSDOF 16
