REMARK SMILES C[NH+]1CCN(C(=O)c2ccc3c(c2)N(CC(=O)NCCCCNC(=O)c2ccc(-c4c5nc(c(-c6ccc(S(=O)(=O)[O-])cc6)c6ccc([nH]6)c(-c6ccc(S(=O)(=O)[O-])cc6)c6nc(c(-c7ccc(S(=O)(=O)[O-])cc7)c7ccc4[nH]7)C=C6)C=C5)cc2)C(=O)CO3)CC1
REMARK SMILES IDX 21 1 20 2 19 3 18 4 16 5 17 6 15 8 14 9 8 10 9 11 13 12
REMARK SMILES IDX 10 13 12 14 11 15 89 16 86 17 88 18 87 19 6 20 1 21 2 22
REMARK SMILES IDX 3 23 91 24 4 26 90 27 5 28 7 29 22 30 23 31 24 32 25 34
REMARK SMILES IDX 26 35 27 36 85 37 28 38 84 39 29 40 30 41 31 42 78 43 32 44
REMARK SMILES IDX 83 45 77 46 79 47 33 48 82 49 76 50 75 51 34 53 64 54 45 55
REMARK SMILES IDX 63 56 46 57 49 58 62 59 80 60 47 61 48 62 61 64 81 65 50 66
REMARK SMILES IDX 35 67 36 68 44 69 37 70 43 71 38 72 39 73 40 74 41 75 42 76
REMARK SMILES IDX 65 77 66 78 74 79 67 80 73 81 68 82 69 83 70 84 71 85 72 86
REMARK SMILES IDX 51 87 52 88 60 89 53 90 59 91 54 92 55 93 56 94 57 95 58 96
REMARK H PARENT 18 7 2 25 23 33 79 52 49 63
REMARK Flexibility Score: inf
ROOT
ATOM      1  C   UNL     1      -2.052  -6.730  -0.922  1.00  0.00     0.023 C 
ENDROOT
BRANCH   1   2
ATOM      2  C   UNL     1      -2.615  -6.676   0.501  1.00  0.00     0.023 C 
BRANCH   2   3
ATOM      3  C   UNL     1      -1.562  -6.638   1.607  1.00  0.00     0.116 C 
BRANCH   3   4
ATOM      4  N   UNL     1      -0.819  -5.395   1.613  1.00  0.00    -0.355 N 
ATOM      5  C   UNL     1      -0.917  -4.338   2.469  1.00  0.00     0.240 C 
ATOM      6  O   UNL     1      -0.088  -3.430   2.357  1.00  0.00    -0.273 OA
ATOM      7  H   UNL     1      -0.148  -5.299   0.899  1.00  0.00     0.163 HD
BRANCH   5   8
ATOM      8  C   UNL     1      -1.965  -4.303   3.590  1.00  0.00     0.225 C 
BRANCH   8   9
ATOM      9  N   UNL     1      -3.355  -4.376   3.139  1.00  0.00    -0.296 N 
ATOM     10  C   UNL     1      -3.777  -1.286   1.055  1.00  0.00     0.042 A 
ATOM     11  C   UNL     1      -5.001  -1.546   0.438  1.00  0.00     0.018 A 
ATOM     12  C   UNL     1      -3.241  -2.185   1.988  1.00  0.00     0.044 A 
ATOM     13  C   UNL     1      -5.677  -2.727   0.730  1.00  0.00     0.049 A 
ATOM     14  C   UNL     1      -3.905  -3.386   2.273  1.00  0.00     0.087 A 
ATOM     15  C   UNL     1      -5.138  -3.632   1.648  1.00  0.00     0.143 A 
ATOM     16  O   UNL     1      -5.859  -4.781   1.823  1.00  0.00    -0.482 OA
ATOM     17  C   UNL     1      -4.139  -5.445   3.550  1.00  0.00     0.265 C 
ATOM     18  C   UNL     1      -5.574  -5.436   3.042  1.00  0.00     0.330 C 
ATOM     19  O   UNL     1      -3.748  -6.322   4.321  1.00  0.00    -0.270 OA
BRANCH  10  20
ATOM     20  C   UNL     1      -3.096  -0.009   0.756  1.00  0.00     0.254 C 
ATOM     21  C   UNL     1       2.449   0.095   0.053  1.00  0.00     0.332 C 
ATOM     22  N   UNL     1       1.042   0.085  -0.341  1.00  0.00    -0.334 N 
ATOM     23  C   UNL     1       0.329   1.246   0.231  1.00  0.00     0.283 C 
ATOM     24  C   UNL     1       0.391  -1.163   0.109  1.00  0.00     0.283 C 
ATOM     25  H   UNL     1       1.000   0.140  -1.359  1.00  0.00     0.347 HD
ATOM     26  C   UNL     1      -1.173   1.246  -0.117  1.00  0.00     0.181 C 
ATOM     27  C   UNL     1      -1.098  -1.206  -0.286  1.00  0.00     0.181 C 
ATOM     28  N   UNL     1      -1.817  -0.027   0.217  1.00  0.00    -0.327 N 
ATOM     29  O   UNL     1      -3.721   1.021   1.001  1.00  0.00    -0.269 OA
ENDBRANCH  10  20
ENDBRANCH   8   9
ENDBRANCH   5   8
ENDBRANCH   3   4
ENDBRANCH   2   3
ENDBRANCH   1   2
BRANCH   1  30
ATOM     30  C   UNL     1      -1.099  -7.887  -1.210  1.00  0.00     0.116 C 
BRANCH  30  31
ATOM     31  N   UNL     1      -1.687  -9.193  -0.960  1.00  0.00    -0.352 N 
ATOM     32  C   UNL     1      -1.541 -10.355  -1.679  1.00  0.00     0.251 C 
ATOM     33  H   UNL     1      -2.267  -9.253  -0.167  1.00  0.00     0.163 HD
ATOM     34  O   UNL     1      -2.204 -11.346  -1.384  1.00  0.00    -0.269 OA
BRANCH  32  35
ATOM     35  C   UNL     1      -0.614 -10.396  -2.831  1.00  0.00     0.039 A 
ATOM     36  C   UNL     1      -1.062 -10.941  -4.038  1.00  0.00     0.014 A 
ATOM     37  C   UNL     1       0.681  -9.880  -2.731  1.00  0.00     0.014 A 
ATOM     38  C   UNL     1      -0.235 -10.903  -5.163  1.00  0.00     0.010 A 
ATOM     39  C   UNL     1       1.477  -9.782  -3.869  1.00  0.00     0.010 A 
ATOM     40  C   UNL     1       1.026 -10.288  -5.098  1.00  0.00    -0.014 A 
BRANCH  40  41
ATOM     41  C   UNL     1       1.882 -10.152  -6.304  1.00  0.00     0.031 A 
ATOM     42  C   UNL     1       3.211 -10.854  -6.373  1.00  0.00     0.074 A 
ATOM     43  C   UNL     1       1.494  -9.344  -7.311  1.00  0.00     0.049 A 
ATOM     44  N   UNL     1       4.122 -10.804  -7.312  1.00  0.00    -0.248 NA
ATOM     45  C   UNL     1       3.573 -11.703  -5.228  1.00  0.00     0.031 C 
ATOM     46  C   UNL     1       0.243  -8.582  -7.353  1.00  0.00     0.029 A 
ATOM     47  N   UNL     1       2.115  -9.025  -8.492  1.00  0.00    -0.354 N 
ATOM     48  C   UNL     1       5.168 -11.603  -6.866  1.00  0.00     0.074 A 
ATOM     49  C   UNL     1       4.801 -12.082  -5.551  1.00  0.00     0.031 C 
ATOM     50  C   UNL     1       0.176  -7.911  -8.514  1.00  0.00     0.029 A 
ATOM     51  C   UNL     1       1.393  -8.159  -9.280  1.00  0.00     0.049 A 
ATOM     52  H   UNL     1       2.994  -9.383  -8.752  1.00  0.00     0.167 HD
ATOM     53  C   UNL     1       6.322 -11.925  -7.500  1.00  0.00     0.031 A 
ATOM     54  C   UNL     1       1.678  -7.621 -10.481  1.00  0.00     0.031 A 
ATOM     55  C   UNL     1       6.684 -11.451  -8.809  1.00  0.00     0.049 A 
ATOM     56  C   UNL     1       2.975  -7.974 -11.156  1.00  0.00     0.074 A 
ATOM     57  C   UNL     1       7.812 -11.753  -9.553  1.00  0.00     0.029 A 
ATOM     58  N   UNL     1       5.928 -10.572  -9.569  1.00  0.00    -0.354 N 
ATOM     59  N   UNL     1       3.930  -8.770 -10.738  1.00  0.00    -0.248 NA
ATOM     60  C   UNL     1       3.228  -7.361 -12.467  1.00  0.00     0.031 C 
ATOM     61  C   UNL     1       7.758 -11.022 -10.745  1.00  0.00     0.029 A 
ATOM     62  C   UNL     1       6.572 -10.306 -10.766  1.00  0.00     0.049 A 
ATOM     63  H   UNL     1       5.060 -10.194  -9.299  1.00  0.00     0.167 HD
ATOM     64  C   UNL     1       4.885  -8.777 -11.749  1.00  0.00     0.074 A 
ATOM     65  C   UNL     1       4.387  -7.913 -12.801  1.00  0.00     0.031 C 
ATOM     66  C   UNL     1       6.066  -9.442 -11.803  1.00  0.00     0.031 A 
BRANCH  53  67
ATOM     67  C   UNL     1       7.277 -12.834  -6.770  1.00  0.00    -0.014 A 
ATOM     68  C   UNL     1       6.965 -14.189  -6.554  1.00  0.00     0.010 A 
ATOM     69  C   UNL     1       8.505 -12.332  -6.304  1.00  0.00     0.010 A 
ATOM     70  C   UNL     1       7.838 -15.011  -5.836  1.00  0.00     0.020 A 
ATOM     71  C   UNL     1       9.394 -13.159  -5.610  1.00  0.00     0.020 A 
ATOM     72  C   UNL     1       9.043 -14.487  -5.361  1.00  0.00     0.054 A 
BRANCH  72  73
ATOM     73  S   UNL     1      10.155 -15.573  -4.425  1.00  0.00     0.124 S 
ATOM     74  O   UNL     1       9.470 -15.665  -3.138  1.00  0.00    -0.237 OA
ATOM     75  O   UNL     1      10.156 -16.797  -5.223  1.00  0.00    -0.237 OA
ATOM     76  O   UNL     1      11.419 -14.842  -4.408  1.00  0.00    -0.744 OA
ENDBRANCH  72  73
ENDBRANCH  53  67
BRANCH  54  77
ATOM     77  C   UNL     1       0.699  -6.714 -11.138  1.00  0.00    -0.014 A 
ATOM     78  C   UNL     1      -0.029  -7.150 -12.259  1.00  0.00     0.010 A 
ATOM     79  C   UNL     1       0.473  -5.419 -10.636  1.00  0.00     0.010 A 
ATOM     80  C   UNL     1      -0.957  -6.306 -12.874  1.00  0.00     0.020 A 
ATOM     81  C   UNL     1      -0.473  -4.581 -11.233  1.00  0.00     0.020 A 
ATOM     82  C   UNL     1      -1.176  -5.027 -12.355  1.00  0.00     0.054 A 
BRANCH  82  83
ATOM     83  S   UNL     1      -2.431  -3.971 -13.132  1.00  0.00     0.124 S 
ATOM     84  O   UNL     1      -1.762  -3.559 -14.361  1.00  0.00    -0.237 OA
ATOM     85  O   UNL     1      -3.556  -4.888 -13.299  1.00  0.00    -0.237 OA
ATOM     86  O   UNL     1      -2.643  -2.913 -12.146  1.00  0.00    -0.744 OA
ENDBRANCH  82  83
ENDBRANCH  54  77
BRANCH  66  87
ATOM     87  C   UNL     1       6.889  -9.290 -13.054  1.00  0.00    -0.014 A 
ATOM     88  C   UNL     1       7.585  -8.100 -13.329  1.00  0.00     0.010 A 
ATOM     89  C   UNL     1       7.010 -10.377 -13.939  1.00  0.00     0.010 A 
ATOM     90  C   UNL     1       8.365  -7.990 -14.484  1.00  0.00     0.020 A 
ATOM     91  C   UNL     1       7.810 -10.280 -15.081  1.00  0.00     0.020 A 
ATOM     92  C   UNL     1       8.472  -9.081 -15.352  1.00  0.00     0.054 A 
BRANCH  92  93
ATOM     93  S   UNL     1       9.529  -8.930 -16.819  1.00  0.00     0.124 S 
ATOM     94  O   UNL     1       8.716  -8.089 -17.694  1.00  0.00    -0.237 OA
ATOM     95  O   UNL     1      10.734  -8.300 -16.284  1.00  0.00    -0.237 OA
ATOM     96  O   UNL     1       9.701 -10.311 -17.265  1.00  0.00    -0.744 OA
ENDBRANCH  92  93
ENDBRANCH  66  87
ENDBRANCH  40  41
ENDBRANCH  32  35
ENDBRANCH  30  31
ENDBRANCH   1  30
TORSDOF 16
