REMARK SMILES O=C(NCCCCNC(=O)c1ccc(-c2c3nc(c(-c4ccc(S(=O)(=O)[O-])cc4)c4ccc([nH]4)c(-c4ccc(S(=O)(=O)[O-])cc4)c4nc(c(-c5ccc(S(=O)(=O)[O-])cc5)c5ccc2[nH]5)C=C4)C=C3)cc1)c1ccc(NC(=O)c2ccccc2NC(=O)C2CC2)cc1
REMARK SMILES IDX 5 1 4 2 3 3 1 4 2 5 71 7 72 8 91 9 73 10 90 11 74 12 75 13
REMARK SMILES IDX 76 14 77 16 78 17 79 18 83 19 80 20 82 21 81 22 84 23 85 24
REMARK SMILES IDX 86 26 87 27 88 28 89 29 6 30 7 31 8 32 9 33 10 35 11 36
REMARK SMILES IDX 12 37 70 38 13 39 69 40 14 41 15 42 16 43 63 44 17 45 68 46
REMARK SMILES IDX 62 47 64 48 18 49 67 50 61 51 60 52 19 54 49 55 30 56 48 57
REMARK SMILES IDX 31 58 34 59 47 60 65 61 32 62 33 63 46 65 66 66 35 67 20 68
REMARK SMILES IDX 21 69 29 70 22 71 28 72 23 73 24 74 25 75 26 76 27 77 50 78
REMARK SMILES IDX 51 79 59 80 52 81 58 82 53 83 54 84 55 85 56 86 57 87 36 88
REMARK SMILES IDX 37 89 45 90 38 91 44 92 39 93 40 94 41 95 42 96 43 97
REMARK H PARENT 3 6 75 15 84 25 8 34 64 53 34 64
REMARK Flexibility Score: inf
ROOT
ATOM      1  C   UNL     1       4.729   1.905  -2.312  1.00  0.00     0.023 C 
ENDROOT
BRANCH   1   2
ATOM      2  C   UNL     1       4.349   1.313  -0.970  1.00  0.00     0.116 C 
BRANCH   2   3
ATOM      3  N   UNL     1       2.920   1.074  -0.806  1.00  0.00    -0.352 N 
ATOM      4  O   UNL     1       1.036  -0.144  -0.495  1.00  0.00    -0.269 OA
ATOM      5  C   UNL     1       2.262  -0.089  -0.460  1.00  0.00     0.251 C 
ATOM      6  H   UNL     1       2.342   1.855  -0.964  1.00  0.00     0.163 HD
BRANCH   5   7
ATOM      7  C   UNL     1       3.039  -1.281  -0.049  1.00  0.00     0.039 A 
ATOM      8  C   UNL     1       4.204  -1.115   0.687  1.00  0.00     0.016 A 
ATOM      9  C   UNL     1       2.638  -2.570  -0.398  1.00  0.00     0.016 A 
ATOM     10  C   UNL     1       5.051  -2.179   0.925  1.00  0.00     0.027 A 
ATOM     11  C   UNL     1       3.424  -3.668  -0.012  1.00  0.00     0.027 A 
ATOM     12  C   UNL     1       4.624  -3.472   0.689  1.00  0.00     0.041 A 
BRANCH  12  13
ATOM     13  N   UNL     1       5.312  -4.591   1.179  1.00  0.00    -0.322 N 
ATOM     14  C   UNL     1       6.335  -4.720   2.097  1.00  0.00     0.257 C 
ATOM     15  H   UNL     1       5.008  -5.446   0.797  1.00  0.00     0.170 HD
ATOM     16  O   UNL     1       6.837  -5.835   2.263  1.00  0.00    -0.269 OA
BRANCH  14  17
ATOM     17  C   UNL     1       6.887  -3.598   2.905  1.00  0.00     0.063 A 
ATOM     18  C   UNL     1       8.268  -3.385   2.733  1.00  0.00     0.016 A 
ATOM     19  C   UNL     1       6.146  -2.765   3.782  1.00  0.00     0.054 A 
ATOM     20  C   UNL     1       8.921  -2.365   3.421  1.00  0.00     0.001 A 
ATOM     21  C   UNL     1       6.846  -1.811   4.528  1.00  0.00     0.027 A 
ATOM     22  C   UNL     1       8.213  -1.593   4.332  1.00  0.00     0.002 A 
BRANCH  19  23
ATOM     23  N   UNL     1       4.739  -2.861   3.842  1.00  0.00    -0.325 N 
ATOM     24  C   UNL     1       3.753  -1.965   4.196  1.00  0.00     0.227 C 
ATOM     25  H   UNL     1       4.394  -3.745   3.580  1.00  0.00     0.169 HD
ATOM     26  O   UNL     1       2.580  -2.322   4.099  1.00  0.00    -0.274 OA
BRANCH  24  27
ATOM     27  C   UNL     1       4.030  -0.583   4.682  1.00  0.00     0.079 C 
ATOM     28  C   UNL     1       4.823   0.477   3.950  1.00  0.00     0.014 C 
ATOM     29  C   UNL     1       3.334   0.572   3.973  1.00  0.00     0.014 C 
ENDBRANCH  24  27
ENDBRANCH  19  23
ENDBRANCH  14  17
ENDBRANCH  12  13
ENDBRANCH   5   7
ENDBRANCH   2   3
ENDBRANCH   1   2
BRANCH   1  30
ATOM     30  C   UNL     1       4.301   3.347  -2.513  1.00  0.00     0.023 C 
BRANCH  30  31
ATOM     31  C   UNL     1       4.740   4.312  -1.418  1.00  0.00     0.116 C 
BRANCH  31  32
ATOM     32  N   UNL     1       6.181   4.327  -1.192  1.00  0.00    -0.352 N 
ATOM     33  C   UNL     1       7.056   5.389  -1.232  1.00  0.00     0.251 C 
ATOM     34  H   UNL     1       6.585   3.454  -0.982  1.00  0.00     0.163 HD
ATOM     35  O   UNL     1       8.263   5.203  -1.119  1.00  0.00    -0.269 OA
BRANCH  33  36
ATOM     36  C   UNL     1       6.524   6.748  -1.454  1.00  0.00     0.039 A 
ATOM     37  C   UNL     1       7.068   7.530  -2.474  1.00  0.00     0.014 A 
ATOM     38  C   UNL     1       5.434   7.209  -0.712  1.00  0.00     0.014 A 
ATOM     39  C   UNL     1       6.452   8.736  -2.816  1.00  0.00     0.010 A 
ATOM     40  C   UNL     1       4.769   8.361  -1.114  1.00  0.00     0.010 A 
ATOM     41  C   UNL     1       5.266   9.132  -2.176  1.00  0.00    -0.014 A 
BRANCH  41  42
ATOM     42  C   UNL     1       4.509  10.329  -2.624  1.00  0.00     0.031 A 
ATOM     43  C   UNL     1       4.292  11.484  -1.688  1.00  0.00     0.074 A 
ATOM     44  C   UNL     1       3.944  10.337  -3.848  1.00  0.00     0.049 A 
ATOM     45  N   UNL     1       3.614  12.586  -1.883  1.00  0.00    -0.248 NA
ATOM     46  C   UNL     1       4.889  11.374  -0.348  1.00  0.00     0.031 C 
ATOM     47  C   UNL     1       4.026   9.251  -4.828  1.00  0.00     0.029 A 
ATOM     48  N   UNL     1       3.176  11.288  -4.473  1.00  0.00    -0.354 N 
ATOM     49  C   UNL     1       3.689  13.291  -0.688  1.00  0.00     0.074 A 
ATOM     50  C   UNL     1       4.428  12.466   0.242  1.00  0.00     0.031 C 
ATOM     51  C   UNL     1       3.361   9.608  -5.938  1.00  0.00     0.029 A 
ATOM     52  C   UNL     1       2.769  10.926  -5.736  1.00  0.00     0.049 A 
ATOM     53  H   UNL     1       2.940  12.149  -4.057  1.00  0.00     0.167 HD
ATOM     54  C   UNL     1       3.206  14.523  -0.396  1.00  0.00     0.031 A 
ATOM     55  C   UNL     1       1.998  11.575  -6.630  1.00  0.00     0.031 A 
ATOM     56  C   UNL     1       2.468  15.338  -1.323  1.00  0.00     0.049 A 
ATOM     57  C   UNL     1       1.467  12.938  -6.288  1.00  0.00     0.074 A 
ATOM     58  C   UNL     1       1.991  16.625  -1.147  1.00  0.00     0.029 A 
ATOM     59  N   UNL     1       2.088  14.942  -2.598  1.00  0.00    -0.354 N 
ATOM     60  N   UNL     1       1.623  13.628  -5.182  1.00  0.00    -0.248 NA
ATOM     61  C   UNL     1       0.666  13.616  -7.316  1.00  0.00     0.031 C 
ATOM     62  C   UNL     1       1.273  16.985  -2.293  1.00  0.00     0.029 A 
ATOM     63  C   UNL     1       1.354  15.946  -3.208  1.00  0.00     0.049 A 
ATOM     64  H   UNL     1       2.308  14.074  -3.008  1.00  0.00     0.167 HD
ATOM     65  C   UNL     1       0.950  14.827  -5.386  1.00  0.00     0.074 A 
ATOM     66  C   UNL     1       0.405  14.777  -6.728  1.00  0.00     0.031 C 
ATOM     67  C   UNL     1       0.799  15.874  -4.537  1.00  0.00     0.031 A 
BRANCH  54  68
ATOM     68  C   UNL     1       3.455  15.045   0.996  1.00  0.00    -0.014 A 
ATOM     69  C   UNL     1       4.755  15.368   1.431  1.00  0.00     0.010 A 
ATOM     70  C   UNL     1       2.378  15.211   1.884  1.00  0.00     0.010 A 
ATOM     71  C   UNL     1       4.980  15.780   2.746  1.00  0.00     0.020 A 
ATOM     72  C   UNL     1       2.594  15.655   3.192  1.00  0.00     0.020 A 
ATOM     73  C   UNL     1       3.898  15.911   3.622  1.00  0.00     0.054 A 
BRANCH  73  74
ATOM     74  S   UNL     1       4.221  16.428   5.330  1.00  0.00     0.124 S 
ATOM     75  O   UNL     1       4.806  15.219   5.904  1.00  0.00    -0.237 OA
ATOM     76  O   UNL     1       5.141  17.549   5.158  1.00  0.00    -0.237 OA
ATOM     77  O   UNL     1       2.899  16.783   5.841  1.00  0.00    -0.744 OA
ENDBRANCH  73  74
ENDBRANCH  54  68
BRANCH  55  78
ATOM     78  C   UNL     1       1.705  10.936  -7.942  1.00  0.00    -0.014 A 
ATOM     79  C   UNL     1       2.324  11.398  -9.116  1.00  0.00     0.010 A 
ATOM     80  C   UNL     1       0.852   9.819  -8.012  1.00  0.00     0.010 A 
ATOM     81  C   UNL     1       2.101  10.752 -10.335  1.00  0.00     0.020 A 
ATOM     82  C   UNL     1       0.646   9.155  -9.224  1.00  0.00     0.020 A 
ATOM     83  C   UNL     1       1.271   9.628 -10.380  1.00  0.00     0.054 A 
BRANCH  83  84
ATOM     84  S   UNL     1       1.075   8.747 -11.955  1.00  0.00     0.124 S 
ATOM     85  O   UNL     1       0.224   9.660 -12.710  1.00  0.00    -0.237 OA
ATOM     86  O   UNL     1       2.454   8.632 -12.423  1.00  0.00    -0.237 OA
ATOM     87  O   UNL     1       0.451   7.485 -11.565  1.00  0.00    -0.744 OA
ENDBRANCH  83  84
ENDBRANCH  55  78
BRANCH  67  88
ATOM     88  C   UNL     1       0.014  17.059  -5.035  1.00  0.00    -0.014 A 
ATOM     89  C   UNL     1      -1.382  16.992  -5.192  1.00  0.00     0.010 A 
ATOM     90  C   UNL     1       0.676  18.272  -5.299  1.00  0.00     0.010 A 
ATOM     91  C   UNL     1      -2.098  18.109  -5.631  1.00  0.00     0.020 A 
ATOM     92  C   UNL     1      -0.040  19.399  -5.711  1.00  0.00     0.020 A 
ATOM     93  C   UNL     1      -1.421  19.306  -5.888  1.00  0.00     0.054 A 
BRANCH  93  94
ATOM     94  S   UNL     1      -2.379  20.754  -6.414  1.00  0.00     0.124 S 
ATOM     95  O   UNL     1      -2.720  20.408  -7.791  1.00  0.00    -0.237 OA
ATOM     96  O   UNL     1      -3.496  20.759  -5.472  1.00  0.00    -0.237 OA
ATOM     97  O   UNL     1      -1.440  21.864  -6.264  1.00  0.00    -0.744 OA
ENDBRANCH  93  94
ENDBRANCH  67  88
ENDBRANCH  41  42
ENDBRANCH  33  36
ENDBRANCH  31  32
ENDBRANCH  30  31
ENDBRANCH   1  30
TORSDOF 18
