REMARK SMILES Cn1ccc(NC(=O)[C@@H]2CCCC[C@@H]2C(=O)NCCCCNC(=O)c2ccc(-c3c4nc(c(-c5ccc(S(=O)(=O)[O-])cc5)c5ccc([nH]5)c(-c5ccc(S(=O)(=O)[O-])cc5)c5nc(c(-c6ccc(S(=O)(=O)[O-])cc6)c6ccc3[nH]6)C=C5)C=C4)cc2)n1
REMARK SMILES IDX 20 1 19 2 18 3 17 4 15 5 16 6 14 8 9 9 10 10 11 11 13 12
REMARK SMILES IDX 12 13 7 14 6 15 8 17 5 18 1 19 2 20 3 21 85 22 4 23 21 24
REMARK SMILES IDX 22 25 23 26 24 28 25 29 26 30 84 31 27 32 83 33 28 34 29 35
REMARK SMILES IDX 30 36 77 37 31 38 82 39 76 40 78 41 32 42 81 43 75 44 74 45
REMARK SMILES IDX 33 47 63 48 44 49 62 50 45 51 48 52 61 53 79 54 46 55 47 56
REMARK SMILES IDX 60 58 80 59 49 60 34 61 35 62 43 63 36 64 42 65 37 66 38 67
REMARK SMILES IDX 39 68 40 69 41 70 64 71 65 72 73 73 66 74 72 75 67 76 68 77
REMARK SMILES IDX 69 78 70 79 71 80 50 81 51 82 59 83 52 84 58 85 53 86 54 87
REMARK SMILES IDX 55 88 56 89 57 90
REMARK H PARENT 17 7 6 16 22 27 78 46 48 57
REMARK Flexibility Score: inf
ROOT
ATOM      1  C   UNL     1       5.163   2.267   2.377  1.00  0.00     0.023 C 
ENDROOT
BRANCH   1   2
ATOM      2  C   UNL     1       3.943   2.213   1.463  1.00  0.00     0.023 C 
BRANCH   2   3
ATOM      3  C   UNL     1       2.707   1.578   2.095  1.00  0.00     0.116 C 
BRANCH   3   4
ATOM      4  N   UNL     1       1.977   2.555   2.864  1.00  0.00    -0.356 N 
ATOM      5  C   UNL     1       0.836   3.236   2.583  1.00  0.00     0.223 C 
ATOM      6  O   UNL     1       0.459   4.023   3.454  1.00  0.00    -0.275 OA
ATOM      7  H   UNL     1       2.372   2.764   3.740  1.00  0.00     0.163 HD
BRANCH   5   8
ATOM      8  C   UNL     1       0.025   2.968   1.300  1.00  0.00     0.091 C 
ATOM      9  C   UNL     1       0.516   3.612  -0.021  1.00  0.00     0.091 C 
ATOM     10  C   UNL     1       0.628   5.133   0.180  1.00  0.00     0.014 C 
ATOM     11  C   UNL     1      -0.753   5.731   0.442  1.00  0.00     0.001 C 
ATOM     12  C   UNL     1      -1.427   3.479   1.501  1.00  0.00     0.014 C 
ATOM     13  C   UNL     1      -1.545   5.011   1.534  1.00  0.00     0.001 C 
BRANCH   9  14
ATOM     14  C   UNL     1       1.737   3.034  -0.739  1.00  0.00     0.229 C 
ATOM     15  N   UNL     1       1.807   1.735  -1.148  1.00  0.00    -0.309 N 
ATOM     16  H   UNL     1       2.663   1.472  -1.556  1.00  0.00     0.171 HD
ATOM     17  O   UNL     1       2.718   3.741  -0.997  1.00  0.00    -0.274 OA
BRANCH  15  18
ATOM     18  C   UNL     1       0.866   0.738  -1.079  1.00  0.00     0.154 A 
ATOM     19  C   UNL     1      -2.319  -0.460  -0.339  1.00  0.00     0.173 C 
ATOM     20  N   UNL     1      -0.935  -0.310  -0.716  1.00  0.00    -0.274 N 
ATOM     21  C   UNL     1      -0.002  -1.291  -0.853  1.00  0.00     0.110 A 
ATOM     22  N   UNL     1      -0.439   0.924  -0.899  1.00  0.00    -0.155 NA
ATOM     23  C   UNL     1       1.178  -0.643  -1.138  1.00  0.00     0.068 A 
ENDBRANCH  15  18
ENDBRANCH   9  14
ENDBRANCH   5   8
ENDBRANCH   3   4
ENDBRANCH   2   3
ENDBRANCH   1   2
BRANCH   1  24
ATOM     24  C   UNL     1       5.742   0.906   2.730  1.00  0.00     0.116 C 
BRANCH  24  25
ATOM     25  N   UNL     1       6.203   0.148   1.574  1.00  0.00    -0.352 N 
ATOM     26  C   UNL     1       7.214  -0.785   1.540  1.00  0.00     0.251 C 
ATOM     27  H   UNL     1       5.740   0.323   0.723  1.00  0.00     0.163 HD
ATOM     28  O   UNL     1       7.557  -1.309   0.486  1.00  0.00    -0.269 OA
BRANCH  26  29
ATOM     29  C   UNL     1       7.912  -1.093   2.804  1.00  0.00     0.039 A 
ATOM     30  C   UNL     1       9.286  -0.864   2.891  1.00  0.00     0.014 A 
ATOM     31  C   UNL     1       7.175  -1.470   3.929  1.00  0.00     0.014 A 
ATOM     32  C   UNL     1       9.912  -0.935   4.136  1.00  0.00     0.010 A 
ATOM     33  C   UNL     1       7.786  -1.466   5.176  1.00  0.00     0.010 A 
ATOM     34  C   UNL     1       9.158  -1.190   5.293  1.00  0.00    -0.014 A 
BRANCH  34  35
ATOM     35  C   UNL     1       9.772  -1.169   6.644  1.00  0.00     0.031 A 
ATOM     36  C   UNL     1       9.777  -2.421   7.477  1.00  0.00     0.074 A 
ATOM     37  C   UNL     1      10.234  -0.011   7.157  1.00  0.00     0.049 A 
ATOM     38  N   UNL     1      10.143  -2.582   8.722  1.00  0.00    -0.248 NA
ATOM     39  C   UNL     1       9.268  -3.644   6.835  1.00  0.00     0.031 C 
ATOM     40  C   UNL     1      10.244   1.282   6.468  1.00  0.00     0.029 A 
ATOM     41  N   UNL     1      10.774   0.267   8.388  1.00  0.00    -0.354 N 
ATOM     42  C   UNL     1       9.879  -3.913   9.021  1.00  0.00     0.074 A 
ATOM     43  C   UNL     1       9.283  -4.503   7.843  1.00  0.00     0.031 C 
ATOM     44  C   UNL     1      10.783   2.209   7.277  1.00  0.00     0.029 A 
ATOM     45  C   UNL     1      11.121   1.588   8.554  1.00  0.00     0.049 A 
ATOM     46  H   UNL     1      10.901  -0.415   9.086  1.00  0.00     0.167 HD
ATOM     47  C   UNL     1      10.126  -4.589  10.168  1.00  0.00     0.031 A 
ATOM     48  C   UNL     1      11.646   2.228   9.617  1.00  0.00     0.031 A 
ATOM     49  C   UNL     1      10.748  -4.008  11.327  1.00  0.00     0.049 A 
ATOM     50  C   UNL     1      11.940   1.450  10.870  1.00  0.00     0.074 A 
ATOM     51  C   UNL     1      11.094  -4.623  12.517  1.00  0.00     0.029 A 
ATOM     52  N   UNL     1      11.127  -2.679  11.436  1.00  0.00    -0.354 N 
ATOM     53  N   UNL     1      11.728   0.179  11.118  1.00  0.00    -0.248 NA
ATOM     54  C   UNL     1      12.555   2.188  11.982  1.00  0.00     0.031 C 
ATOM     55  C   UNL     1      11.656  -3.657  13.359  1.00  0.00     0.029 A 
ATOM     56  C   UNL     1      11.698  -2.452  12.676  1.00  0.00     0.049 A 
ATOM     57  H   UNL     1      11.007  -1.998  10.736  1.00  0.00     0.167 HD
ATOM     58  C   UNL     1      12.210  -0.040  12.404  1.00  0.00     0.074 A 
ATOM     59  C   UNL     1      12.731   1.226  12.878  1.00  0.00     0.031 C 
ATOM     60  C   UNL     1      12.222  -1.188  13.125  1.00  0.00     0.031 A 
BRANCH  47  61
ATOM     61  C   UNL     1       9.718  -6.036  10.217  1.00  0.00    -0.014 A 
ATOM     62  C   UNL     1      10.411  -7.008   9.473  1.00  0.00     0.010 A 
ATOM     63  C   UNL     1       8.639  -6.432  11.026  1.00  0.00     0.010 A 
ATOM     64  C   UNL     1       9.999  -8.343   9.498  1.00  0.00     0.020 A 
ATOM     65  C   UNL     1       8.241  -7.771  11.075  1.00  0.00     0.020 A 
ATOM     66  C   UNL     1       8.911  -8.714  10.293  1.00  0.00     0.054 A 
BRANCH  66  67
ATOM     67  S   UNL     1       8.400 -10.454  10.313  1.00  0.00     0.124 S 
ATOM     68  O   UNL     1       7.697 -10.573   9.038  1.00  0.00    -0.237 OA
ATOM     69  O   UNL     1       9.673 -11.164  10.396  1.00  0.00    -0.237 OA
ATOM     70  O   UNL     1       7.556 -10.553  11.502  1.00  0.00    -0.744 OA
ENDBRANCH  66  67
ENDBRANCH  47  61
BRANCH  48  71
ATOM     71  C   UNL     1      11.953   3.681   9.533  1.00  0.00    -0.014 A 
ATOM     72  C   UNL     1      13.286   4.119   9.435  1.00  0.00     0.010 A 
ATOM     73  C   UNL     1      10.918   4.633   9.536  1.00  0.00     0.010 A 
ATOM     74  C   UNL     1      13.580   5.483   9.360  1.00  0.00     0.020 A 
ATOM     75  C   UNL     1      11.207   5.997   9.437  1.00  0.00     0.020 A 
ATOM     76  C   UNL     1      12.538   6.414   9.361  1.00  0.00     0.054 A 
BRANCH  76  77
ATOM     77  S   UNL     1      12.939   8.178   9.208  1.00  0.00     0.124 S 
ATOM     78  O   UNL     1      13.409   8.499  10.551  1.00  0.00    -0.237 OA
ATOM     79  O   UNL     1      13.960   8.182   8.162  1.00  0.00    -0.237 OA
ATOM     80  O   UNL     1      11.666   8.784   8.826  1.00  0.00    -0.744 OA
ENDBRANCH  76  77
ENDBRANCH  48  71
BRANCH  60  81
ATOM     81  C   UNL     1      12.858  -1.145  14.486  1.00  0.00    -0.014 A 
ATOM     82  C   UNL     1      12.200  -0.554  15.579  1.00  0.00     0.010 A 
ATOM     83  C   UNL     1      14.103  -1.768  14.687  1.00  0.00     0.010 A 
ATOM     84  C   UNL     1      12.787  -0.572  16.847  1.00  0.00     0.020 A 
ATOM     85  C   UNL     1      14.682  -1.806  15.957  1.00  0.00     0.020 A 
ATOM     86  C   UNL     1      14.024  -1.198  17.027  1.00  0.00     0.054 A 
BRANCH  86  87
ATOM     87  S   UNL     1      14.740  -1.261  18.693  1.00  0.00     0.124 S 
ATOM     88  O   UNL     1      15.254   0.096  18.854  1.00  0.00    -0.237 OA
ATOM     89  O   UNL     1      13.588  -1.600  19.526  1.00  0.00    -0.237 OA
ATOM     90  O   UNL     1      15.757  -2.305  18.593  1.00  0.00    -0.744 OA
ENDBRANCH  86  87
ENDBRANCH  60  81
ENDBRANCH  34  35
ENDBRANCH  26  29
ENDBRANCH  24  25
ENDBRANCH   1  24
TORSDOF 16
