REMARK SMILES COc1cccc([C@H]2[NH2+][C@@](CC(C)C)(C(=O)NCCCCNC(=O)c3ccc(-c4c5nc(c(-c6ccc(S(=O)(=O)[O-])cc6)c6ccc([nH]6)c(-c6ccc(S(=O)(=O)[O-])cc6)c6nc(c(-c7ccc(S(=O)(=O)[O-])cc7)c7ccc4[nH]7)C=C6)C=C5)cc3)[C@H]3C(=O)N(C(C)C)C(=O)[C@H]23)c1O
REMARK SMILES IDX 20 1 19 2 18 3 17 4 15 5 16 6 10 8 8 9 9 10 94 11 85 14
REMARK SMILES IDX 92 15 86 16 88 17 93 18 87 19 7 20 3 21 4 22 95 23 5 24 6 25
REMARK SMILES IDX 2 26 1 27 96 28 11 30 12 31 13 32 14 33 89 34 90 35 91 36
REMARK SMILES IDX 21 37 22 38 23 39 24 41 25 42 26 43 84 44 27 45 83 46 28 47
REMARK SMILES IDX 29 48 30 49 77 50 31 51 82 52 76 53 78 54 32 55 81 56 75 57
REMARK SMILES IDX 74 58 33 60 63 61 44 62 62 63 45 64 48 65 61 66 79 67 46 68
REMARK SMILES IDX 47 69 60 71 80 72 49 73 34 74 35 75 43 76 36 77 42 78 37 79
REMARK SMILES IDX 38 80 39 81 40 82 41 83 64 84 65 85 73 86 66 87 72 88 67 89
REMARK SMILES IDX 68 90 69 91 70 92 71 93 50 94 51 95 59 96 52 97 58 98 53 99
REMARK SMILES IDX 54 100 55 101 56 102 57 103
REMARK H PARENT 17 7 9 12 9 13 96 29 22 40 78 59 48 70
REMARK Flexibility Score: inf
ROOT
ATOM      1  C   UNL     1      -0.174  -9.492   4.270  1.00  0.00     0.023 C 
ENDROOT
BRANCH   1   2
ATOM      2  C   UNL     1      -1.371  -8.755   3.650  1.00  0.00     0.023 C 
BRANCH   2   3
ATOM      3  C   UNL     1      -1.032  -7.483   2.877  1.00  0.00     0.116 C 
BRANCH   3   4
ATOM      4  N   UNL     1      -0.256  -7.684   1.681  1.00  0.00    -0.351 N 
ATOM      5  C   UNL     1       0.332  -6.808   0.825  1.00  0.00     0.282 C 
ATOM      6  O   UNL     1       1.186  -7.339   0.098  1.00  0.00    -0.268 OA
ATOM      7  H   UNL     1      -0.127  -8.630   1.440  1.00  0.00     0.163 HD
BRANCH   5   8
ATOM      8  C   UNL     1      -0.077  -5.289   0.590  1.00  0.00     0.189 C 
ATOM      9  C   UNL     1      -0.363  -4.715  -1.841  1.00  0.00     0.232 C 
ATOM     10  N   UNL     1      -1.039  -5.306  -0.631  1.00  0.00    -0.326 N 
ATOM     11  C   UNL     1       1.073  -4.893  -1.482  1.00  0.00     0.161 C 
ATOM     12  H   UNL     1      -1.309  -6.269  -0.834  1.00  0.00     0.347 HD
ATOM     13  H   UNL     1      -1.865  -4.750  -0.409  1.00  0.00     0.347 HD
ATOM     14  C   UNL     1       1.087  -4.496  -0.016  1.00  0.00     0.169 C 
ATOM     15  C   UNL     1       2.219  -4.084  -1.979  1.00  0.00     0.240 C 
ATOM     16  C   UNL     1       2.568  -4.622   0.212  1.00  0.00     0.240 C 
ATOM     17  N   UNL     1       3.155  -4.183  -0.967  1.00  0.00    -0.279 N 
ATOM     18  O   UNL     1       2.309  -3.510  -3.055  1.00  0.00    -0.274 OA
ATOM     19  O   UNL     1       3.126  -4.896   1.261  1.00  0.00    -0.274 OA
BRANCH   9  20
ATOM     20  C   UNL     1      -0.896  -5.294  -3.148  1.00  0.00     0.056 A 
ATOM     21  C   UNL     1      -0.734  -6.536  -5.274  1.00  0.00     0.161 A 
ATOM     22  C   UNL     1      -2.025  -6.120  -5.606  1.00  0.00     0.050 A 
ATOM     23  C   UNL     1      -0.189  -6.133  -4.040  1.00  0.00     0.166 A 
ATOM     24  C   UNL     1      -2.760  -5.321  -4.738  1.00  0.00     0.005 A 
ATOM     25  C   UNL     1      -2.200  -4.911  -3.527  1.00  0.00     0.014 A 
BRANCH  21  26
ATOM     26  O   UNL     1      -0.173  -7.330  -6.240  1.00  0.00    -0.493 OA
ATOM     27  C   UNL     1       1.194  -7.698  -6.120  1.00  0.00     0.278 C 
ENDBRANCH  21  26
BRANCH  23  28
ATOM     28  O   UNL     1       1.044  -6.598  -3.684  1.00  0.00    -0.504 OA
ATOM     29  H   UNL     1       1.522  -7.154  -4.267  1.00  0.00     0.293 HD
ENDBRANCH  23  28
ENDBRANCH   9  20
BRANCH   8  30
ATOM     30  C   UNL     1      -0.808  -4.454   1.698  1.00  0.00     0.083 C 
BRANCH  30  31
ATOM     31  C   UNL     1      -0.348  -4.374   3.176  1.00  0.00    -0.011 C 
ATOM     32  C   UNL     1       1.122  -4.636   3.450  1.00  0.00     0.007 C 
ATOM     33  C   UNL     1      -0.778  -3.066   3.851  1.00  0.00     0.007 C 
ENDBRANCH  30  31
ENDBRANCH   8  30
BRANCH  17  34
ATOM     34  C   UNL     1       4.579  -3.889  -1.101  1.00  0.00     0.087 C 
ATOM     35  C   UNL     1       5.248  -4.858  -2.075  1.00  0.00     0.031 C 
ATOM     36  C   UNL     1       4.830  -2.438  -1.509  1.00  0.00     0.031 C 
ENDBRANCH  17  34
ENDBRANCH   5   8
ENDBRANCH   3   4
ENDBRANCH   2   3
ENDBRANCH   1   2
BRANCH   1  37
ATOM     37  C   UNL     1       0.836  -8.669   5.078  1.00  0.00     0.116 C 
BRANCH  37  38
ATOM     38  N   UNL     1       0.267  -7.971   6.223  1.00  0.00    -0.352 N 
ATOM     39  C   UNL     1       0.663  -7.948   7.542  1.00  0.00     0.251 C 
ATOM     40  H   UNL     1      -0.529  -7.428   6.021  1.00  0.00     0.163 HD
ATOM     41  O   UNL     1      -0.002  -7.307   8.353  1.00  0.00    -0.269 OA
BRANCH  39  42
ATOM     42  C   UNL     1       1.842  -8.720   8.011  1.00  0.00     0.039 A 
ATOM     43  C   UNL     1       1.722  -9.465   9.190  1.00  0.00     0.014 A 
ATOM     44  C   UNL     1       3.055  -8.723   7.318  1.00  0.00     0.014 A 
ATOM     45  C   UNL     1       2.775 -10.285   9.614  1.00  0.00     0.010 A 
ATOM     46  C   UNL     1       4.080  -9.591   7.705  1.00  0.00     0.010 A 
ATOM     47  C   UNL     1       3.945 -10.398   8.846  1.00  0.00    -0.014 A 
BRANCH  47  48
ATOM     48  C   UNL     1       4.995 -11.398   9.193  1.00  0.00     0.031 A 
ATOM     49  C   UNL     1       6.386 -10.971   9.578  1.00  0.00     0.074 A 
ATOM     50  C   UNL     1       4.712 -12.714   9.092  1.00  0.00     0.049 A 
ATOM     51  N   UNL     1       7.420 -11.713   9.886  1.00  0.00    -0.248 NA
ATOM     52  C   UNL     1       6.658  -9.526   9.597  1.00  0.00     0.031 C 
ATOM     53  C   UNL     1       3.426 -13.274   8.667  1.00  0.00     0.029 A 
ATOM     54  N   UNL     1       5.490 -13.821   9.331  1.00  0.00    -0.354 N 
ATOM     55  C   UNL     1       8.469 -10.830  10.117  1.00  0.00     0.074 A 
ATOM     56  C   UNL     1       7.954  -9.499   9.875  1.00  0.00     0.031 C 
ATOM     57  C   UNL     1       3.497 -14.614   8.697  1.00  0.00     0.029 A 
ATOM     58  C   UNL     1       4.839 -15.013   9.113  1.00  0.00     0.049 A 
ATOM     59  H   UNL     1       6.426 -13.767   9.630  1.00  0.00     0.167 HD
ATOM     60  C   UNL     1       9.740 -11.098  10.508  1.00  0.00     0.031 A 
ATOM     61  C   UNL     1       5.265 -16.286   9.230  1.00  0.00     0.031 A 
ATOM     62  C   UNL     1      10.256 -12.419  10.759  1.00  0.00     0.049 A 
ATOM     63  C   UNL     1       6.667 -16.558   9.697  1.00  0.00     0.074 A 
ATOM     64  C   UNL     1      11.510 -12.780  11.224  1.00  0.00     0.029 A 
ATOM     65  N   UNL     1       9.551 -13.597  10.563  1.00  0.00    -0.354 N 
ATOM     66  N   UNL     1       7.617 -15.704   9.992  1.00  0.00    -0.248 NA
ATOM     67  C   UNL     1       7.047 -17.968   9.867  1.00  0.00     0.031 C 
ATOM     68  C   UNL     1      11.577 -14.177  11.269  1.00  0.00     0.029 A 
ATOM     69  C   UNL     1      10.349 -14.685  10.879  1.00  0.00     0.049 A 
ATOM     70  H   UNL     1       8.621 -13.652  10.245  1.00  0.00     0.167 HD
ATOM     71  C   UNL     1       8.701 -16.471  10.402  1.00  0.00     0.074 A 
ATOM     72  C   UNL     1       8.283 -17.857  10.334  1.00  0.00     0.031 C 
ATOM     73  C   UNL     1       9.931 -16.062  10.801  1.00  0.00     0.031 A 
BRANCH  60  74
ATOM     74  C   UNL     1      10.669  -9.925  10.684  1.00  0.00    -0.014 A 
ATOM     75  C   UNL     1      10.509  -9.026  11.754  1.00  0.00     0.010 A 
ATOM     76  C   UNL     1      11.734  -9.734   9.784  1.00  0.00     0.010 A 
ATOM     77  C   UNL     1      11.363  -7.928  11.890  1.00  0.00     0.020 A 
ATOM     78  C   UNL     1      12.607  -8.652   9.932  1.00  0.00     0.020 A 
ATOM     79  C   UNL     1      12.402  -7.743  10.973  1.00  0.00     0.054 A 
BRANCH  79  80
ATOM     80  S   UNL     1      13.497  -6.311  11.173  1.00  0.00     0.124 S 
ATOM     81  O   UNL     1      12.655  -5.220  10.687  1.00  0.00    -0.237 OA
ATOM     82  O   UNL     1      13.763  -6.305  12.609  1.00  0.00    -0.237 OA
ATOM     83  O   UNL     1      14.646  -6.633  10.331  1.00  0.00    -0.744 OA
ENDBRANCH  79  80
ENDBRANCH  60  74
BRANCH  61  84
ATOM     84  C   UNL     1       4.334 -17.405   8.923  1.00  0.00    -0.014 A 
ATOM     85  C   UNL     1       3.781 -18.178   9.959  1.00  0.00     0.010 A 
ATOM     86  C   UNL     1       3.976 -17.687   7.592  1.00  0.00     0.010 A 
ATOM     87  C   UNL     1       2.896 -19.220   9.670  1.00  0.00     0.020 A 
ATOM     88  C   UNL     1       3.072 -18.712   7.301  1.00  0.00     0.020 A 
ATOM     89  C   UNL     1       2.544 -19.478   8.342  1.00  0.00     0.054 A 
BRANCH  89  90
ATOM     90  S   UNL     1       1.339 -20.790   7.993  1.00  0.00     0.124 S 
ATOM     91  O   UNL     1       2.147 -21.994   8.152  1.00  0.00    -0.237 OA
ATOM     92  O   UNL     1       0.323 -20.568   9.019  1.00  0.00    -0.237 OA
ATOM     93  O   UNL     1       0.906 -20.498   6.628  1.00  0.00    -0.744 OA
ENDBRANCH  89  90
ENDBRANCH  61  84
BRANCH  73  94
ATOM     94  C   UNL     1      10.908 -17.128  11.223  1.00  0.00    -0.014 A 
ATOM     95  C   UNL     1      11.514 -17.976  10.279  1.00  0.00     0.010 A 
ATOM     96  C   UNL     1      11.242 -17.265  12.582  1.00  0.00     0.010 A 
ATOM     97  C   UNL     1      12.407 -18.969  10.692  1.00  0.00     0.020 A 
ATOM     98  C   UNL     1      12.153 -18.240  12.996  1.00  0.00     0.020 A 
ATOM     99  C   UNL     1      12.716 -19.099  12.050  1.00  0.00     0.054 A 
BRANCH  99 100
ATOM    100  S   UNL     1      13.892 -20.381  12.564  1.00  0.00     0.124 S 
ATOM    101  O   UNL     1      13.072 -21.588  12.502  1.00  0.00    -0.237 OA
ATOM    102  O   UNL     1      14.941 -20.283  11.552  1.00  0.00    -0.237 OA
ATOM    103  O   UNL     1      14.291 -19.966  13.907  1.00  0.00    -0.744 OA
ENDBRANCH  99 100
ENDBRANCH  73  94
ENDBRANCH  47  48
ENDBRANCH  39  42
ENDBRANCH  37  38
ENDBRANCH   1  37
TORSDOF 20
