REMARK SMILES Cc1cc(=O)c(Oc2ccc(C(=O)NCCCCNC(=O)c3ccc(-c4c5nc(c(-c6ccc(S(=O)(=O)[O-])cc6)c6ccc([nH]6)c(-c6ccc(S(=O)(=O)[O-])cc6)c6nc(c(-c7ccc(S(=O)(=O)[O-])cc7)c7ccc4[nH]7)C=C6)C=C5)cc3)cc2)c(-c2ccc(S(C)(=O)=O)cc2)o1
REMARK SMILES IDX 16 1 15 2 14 3 12 4 13 5 11 7 8 8 9 9 83 10 10 11 82 12 7 13
REMARK SMILES IDX 6 14 1 15 2 16 3 17 95 18 4 19 84 20 5 21 85 22 86 23 94 24
REMARK SMILES IDX 87 25 93 26 88 27 89 28 90 29 91 30 92 31 17 32 18 33 19 34
REMARK SMILES IDX 20 35 21 37 22 38 23 39 81 40 24 41 80 42 25 43 26 44 27 45
REMARK SMILES IDX 74 46 28 47 79 48 73 49 75 50 29 51 78 52 72 53 71 54 30 56
REMARK SMILES IDX 60 57 41 58 59 59 42 60 45 61 58 62 76 63 43 64 44 65 57 67
REMARK SMILES IDX 77 68 46 69 31 70 32 71 40 72 33 73 39 74 34 75 35 76 36 77
REMARK SMILES IDX 37 78 38 79 61 80 62 81 70 82 63 83 69 84 64 85 65 86 66 87
REMARK SMILES IDX 67 88 68 89 47 90 48 91 56 92 49 93 55 94 50 95 51 96 52 97
REMARK SMILES IDX 53 98 54 99
REMARK H PARENT 14 6 19 36 75 55 45 66
REMARK Flexibility Score: inf
ROOT
ATOM      1  C   UNL     1      -6.383  -1.376  -7.487  1.00  0.00     0.023 C 
ENDROOT
BRANCH   1   2
ATOM      2  C   UNL     1      -5.109  -2.050  -7.981  1.00  0.00     0.116 C 
BRANCH   2   3
ATOM      3  N   UNL     1      -4.261  -1.273  -8.867  1.00  0.00    -0.352 N 
ATOM      4  C   UNL     1      -2.900  -1.337  -9.085  1.00  0.00     0.251 C 
ATOM      5  O   UNL     1      -2.402  -0.689 -10.002  1.00  0.00    -0.269 OA
ATOM      6  H   UNL     1      -4.733  -0.590  -9.396  1.00  0.00     0.163 HD
BRANCH   4   7
ATOM      7  C   UNL     1      -2.001  -2.063  -8.148  1.00  0.00     0.040 A 
ATOM      8  C   UNL     1      -0.611  -2.866  -5.887  1.00  0.00     0.127 A 
ATOM      9  C   UNL     1      -0.059  -1.889  -6.706  1.00  0.00     0.048 A 
ATOM     10  C   UNL     1      -1.696  -3.616  -6.333  1.00  0.00     0.048 A 
ATOM     11  C   UNL     1      -0.782  -1.454  -7.819  1.00  0.00     0.017 A 
ATOM     12  C   UNL     1      -2.365  -3.241  -7.496  1.00  0.00     0.017 A 
BRANCH   8  13
ATOM     13  O   UNL     1      -0.094  -3.194  -4.670  1.00  0.00    -0.449 OA
BRANCH  13  14
ATOM     14  C   UNL     1      -0.006  -2.307  -3.603  1.00  0.00     0.217 A 
ATOM     15  C   UNL     1       0.803   0.106  -0.107  1.00  0.00     0.088 C 
ATOM     16  C   UNL     1       0.524  -0.828  -1.240  1.00  0.00     0.105 A 
ATOM     17  C   UNL     1       0.880  -2.114  -1.214  1.00  0.00     0.098 A 
ATOM     18  O   UNL     1      -0.139  -0.265  -2.306  1.00  0.00    -0.457 OA
ATOM     19  C   UNL     1       0.608  -2.947  -2.393  1.00  0.00     0.228 A 
ATOM     20  C   UNL     1      -0.400  -1.012  -3.453  1.00  0.00     0.180 A 
ATOM     21  O   UNL     1       0.894  -4.141  -2.354  1.00  0.00    -0.285 OA
BRANCH  20  22
ATOM     22  C   UNL     1      -1.123  -0.165  -4.420  1.00  0.00     0.021 A 
ATOM     23  C   UNL     1      -0.455   0.898  -5.055  1.00  0.00     0.013 A 
ATOM     24  C   UNL     1      -2.485  -0.369  -4.686  1.00  0.00     0.013 A 
ATOM     25  C   UNL     1      -1.111   1.688  -6.004  1.00  0.00     0.021 A 
ATOM     26  C   UNL     1      -3.150   0.431  -5.622  1.00  0.00     0.021 A 
ATOM     27  C   UNL     1      -2.457   1.446  -6.287  1.00  0.00     0.067 A 
BRANCH  27  28
ATOM     28  S   UNL     1      -3.253   2.373  -7.583  1.00  0.00     0.175 S 
ATOM     29  C   UNL     1      -3.627   3.926  -6.818  1.00  0.00     0.163 C 
ATOM     30  O   UNL     1      -2.256   2.611  -8.606  1.00  0.00    -0.224 OA
ATOM     31  O   UNL     1      -4.511   1.715  -7.889  1.00  0.00    -0.224 OA
ENDBRANCH  27  28
ENDBRANCH  20  22
ENDBRANCH  13  14
ENDBRANCH   8  13
ENDBRANCH   4   7
ENDBRANCH   2   3
ENDBRANCH   1   2
BRANCH   1  32
ATOM     32  C   UNL     1      -7.326  -0.823  -8.542  1.00  0.00     0.023 C 
BRANCH  32  33
ATOM     33  C   UNL     1      -7.613  -1.746  -9.714  1.00  0.00     0.116 C 
BRANCH  33  34
ATOM     34  N   UNL     1      -8.278  -2.991  -9.341  1.00  0.00    -0.352 N 
ATOM     35  C   UNL     1      -9.535  -3.454  -9.664  1.00  0.00     0.251 C 
ATOM     36  H   UNL     1      -7.747  -3.592  -8.770  1.00  0.00     0.163 HD
ATOM     37  O   UNL     1      -9.949  -4.505  -9.184  1.00  0.00    -0.269 OA
BRANCH  35  38
ATOM     38  C   UNL     1     -10.402  -2.643 -10.544  1.00  0.00     0.039 A 
ATOM     39  C   UNL     1      -9.890  -2.090 -11.716  1.00  0.00     0.014 A 
ATOM     40  C   UNL     1     -11.707  -2.353 -10.140  1.00  0.00     0.014 A 
ATOM     41  C   UNL     1     -10.581  -1.058 -12.337  1.00  0.00     0.010 A 
ATOM     42  C   UNL     1     -12.452  -1.404 -10.845  1.00  0.00     0.010 A 
ATOM     43  C   UNL     1     -11.868  -0.697 -11.907  1.00  0.00    -0.014 A 
BRANCH  43  44
ATOM     44  C   UNL     1     -12.582   0.417 -12.585  1.00  0.00     0.031 A 
ATOM     45  C   UNL     1     -12.985   1.656 -11.827  1.00  0.00     0.074 A 
ATOM     46  C   UNL     1     -12.823   0.327 -13.908  1.00  0.00     0.049 A 
ATOM     47  N   UNL     1     -13.632   2.708 -12.261  1.00  0.00    -0.248 NA
ATOM     48  C   UNL     1     -12.620   1.728 -10.402  1.00  0.00     0.031 C 
ATOM     49  C   UNL     1     -12.444  -0.808 -14.752  1.00  0.00     0.029 A 
ATOM     50  N   UNL     1     -13.416   1.205 -14.779  1.00  0.00    -0.354 N 
ATOM     51  C   UNL     1     -13.761   3.557 -11.167  1.00  0.00     0.074 A 
ATOM     52  C   UNL     1     -13.162   2.883 -10.037  1.00  0.00     0.031 C 
ATOM     53  C   UNL     1     -12.761  -0.535 -16.023  1.00  0.00     0.029 A 
ATOM     54  C   UNL     1     -13.454   0.748 -16.076  1.00  0.00     0.049 A 
ATOM     55  H   UNL     1     -13.780   2.077 -14.504  1.00  0.00     0.167 HD
ATOM     56  C   UNL     1     -14.314   4.793 -11.119  1.00  0.00     0.031 A 
ATOM     57  C   UNL     1     -14.007   1.276 -17.185  1.00  0.00     0.031 A 
ATOM     58  C   UNL     1     -14.897   5.455 -12.259  1.00  0.00     0.049 A 
ATOM     59  C   UNL     1     -14.688   2.608 -17.091  1.00  0.00     0.074 A 
ATOM     60  C   UNL     1     -15.470   6.714 -12.315  1.00  0.00     0.029 A 
ATOM     61  N   UNL     1     -14.979   4.923 -13.539  1.00  0.00    -0.354 N 
ATOM     62  N   UNL     1     -14.794   3.399 -16.051  1.00  0.00    -0.248 NA
ATOM     63  C   UNL     1     -15.326   3.122 -18.310  1.00  0.00     0.031 C 
ATOM     64  C   UNL     1     -15.971   6.908 -13.603  1.00  0.00     0.029 A 
ATOM     65  C   UNL     1     -15.633   5.810 -14.379  1.00  0.00     0.049 A 
ATOM     66  H   UNL     1     -14.626   4.045 -13.809  1.00  0.00     0.167 HD
ATOM     67  C   UNL     1     -15.510   4.506 -16.488  1.00  0.00     0.074 A 
ATOM     68  C   UNL     1     -15.785   4.297 -17.895  1.00  0.00     0.031 C 
ATOM     69  C   UNL     1     -15.910   5.590 -15.779  1.00  0.00     0.031 A 
BRANCH  56  70
ATOM     70  C   UNL     1     -14.323   5.533  -9.801  1.00  0.00    -0.014 A 
ATOM     71  C   UNL     1     -15.548   5.854  -9.184  1.00  0.00     0.010 A 
ATOM     72  C   UNL     1     -13.132   6.026  -9.239  1.00  0.00     0.010 A 
ATOM     73  C   UNL     1     -15.586   6.681  -8.058  1.00  0.00     0.020 A 
ATOM     74  C   UNL     1     -13.162   6.826  -8.091  1.00  0.00     0.020 A 
ATOM     75  C   UNL     1     -14.391   7.170  -7.523  1.00  0.00     0.054 A 
BRANCH  75  76
ATOM     76  S   UNL     1     -14.461   8.268  -6.080  1.00  0.00     0.124 S 
ATOM     77  O   UNL     1     -14.976   9.505  -6.656  1.00  0.00    -0.237 OA
ATOM     78  O   UNL     1     -15.372   7.559  -5.184  1.00  0.00    -0.237 OA
ATOM     79  O   UNL     1     -13.073   8.322  -5.623  1.00  0.00    -0.744 OA
ENDBRANCH  75  76
ENDBRANCH  56  70
BRANCH  57  80
ATOM     80  C   UNL     1     -13.917   0.509 -18.459  1.00  0.00    -0.014 A 
ATOM     81  C   UNL     1     -14.547  -0.747 -18.575  1.00  0.00     0.010 A 
ATOM     82  C   UNL     1     -13.089   0.954 -19.503  1.00  0.00     0.010 A 
ATOM     83  C   UNL     1     -14.276  -1.581 -19.660  1.00  0.00     0.020 A 
ATOM     84  C   UNL     1     -12.847   0.137 -20.612  1.00  0.00     0.020 A 
ATOM     85  C   UNL     1     -13.409  -1.141 -20.663  1.00  0.00     0.054 A 
BRANCH  85  86
ATOM     86  S   UNL     1     -12.990  -2.283 -22.008  1.00  0.00     0.124 S 
ATOM     87  O   UNL     1     -12.114  -3.236 -21.329  1.00  0.00    -0.237 OA
ATOM     88  O   UNL     1     -14.297  -2.801 -22.403  1.00  0.00    -0.237 OA
ATOM     89  O   UNL     1     -12.336  -1.427 -22.994  1.00  0.00    -0.744 OA
ENDBRANCH  85  86
ENDBRANCH  57  80
BRANCH  69  90
ATOM     90  C   UNL     1     -16.719   6.647 -16.487  1.00  0.00    -0.014 A 
ATOM     91  C   UNL     1     -16.194   7.943 -16.648  1.00  0.00     0.010 A 
ATOM     92  C   UNL     1     -18.059   6.402 -16.835  1.00  0.00     0.010 A 
ATOM     93  C   UNL     1     -17.012   8.989 -17.082  1.00  0.00     0.020 A 
ATOM     94  C   UNL     1     -18.871   7.439 -17.303  1.00  0.00     0.020 A 
ATOM     95  C   UNL     1     -18.351   8.733 -17.390  1.00  0.00     0.054 A 
BRANCH  95  96
ATOM     96  S   UNL     1     -19.417  10.121 -17.863  1.00  0.00     0.124 S 
ATOM     97  O   UNL     1     -19.567  10.839 -16.601  1.00  0.00    -0.237 OA
ATOM     98  O   UNL     1     -18.622  10.800 -18.884  1.00  0.00    -0.237 OA
ATOM     99  O   UNL     1     -20.629   9.472 -18.358  1.00  0.00    -0.744 OA
ENDBRANCH  95  96
ENDBRANCH  69  90
ENDBRANCH  43  44
ENDBRANCH  35  38
ENDBRANCH  33  34
ENDBRANCH  32  33
ENDBRANCH   1  32
TORSDOF 18
