REMARK SMILES C[C@H]1CN(c2ccc(C(=O)NCCCCNC(=O)c3ccc(-c4c5nc(c(-c6ccc(S(=O)(=O)[O-])cc6)c6ccc([nH]6)c(-c6ccc(S(=O)(=O)[O-])cc6)c6nc(c(-c7ccc(S(=O)(=O)[O-])cc7)c7ccc4[nH]7)C=C6)C=C5)cc3)cc2[N+](=O)[O-])C[C@@H]1C
REMARK SMILES IDX 14 1 13 2 12 3 11 4 9 5 10 6 8 8 5 9 6 10 80 11 7 12 79 13
REMARK SMILES IDX 4 14 1 15 2 16 3 17 85 18 84 19 86 20 81 21 82 22 83 23
REMARK SMILES IDX 15 24 16 25 17 26 18 28 19 29 20 30 78 31 21 32 77 33 22 34
REMARK SMILES IDX 23 35 24 36 71 37 25 38 76 39 70 40 72 41 26 42 75 43 69 44
REMARK SMILES IDX 68 45 27 47 57 48 38 49 56 50 39 51 42 52 55 53 73 54 40 55
REMARK SMILES IDX 41 56 54 58 74 59 43 60 28 61 29 62 37 63 30 64 36 65 31 66
REMARK SMILES IDX 32 67 33 68 34 69 35 70 58 71 59 72 67 73 60 74 66 75 61 76
REMARK SMILES IDX 62 77 63 78 64 79 65 80 44 81 45 82 53 83 46 84 52 85 47 86
REMARK SMILES IDX 48 87 49 88 50 89 51 90
REMARK H PARENT 11 7 16 27 72 46 42 57
REMARK Flexibility Score: inf
ROOT
ATOM      1  C   UNL     1       0.646  -7.866   8.997  1.00  0.00     0.023 C 
ENDROOT
BRANCH   1   2
ATOM      2  C   UNL     1       0.735  -6.801   7.902  1.00  0.00     0.023 C 
BRANCH   2   3
ATOM      3  C   UNL     1       2.167  -6.360   7.588  1.00  0.00     0.116 C 
BRANCH   3   4
ATOM      4  N   UNL     1       2.792  -7.306   6.685  1.00  0.00    -0.352 N 
ATOM      5  C   UNL     1       2.924  -7.327   5.322  1.00  0.00     0.251 C 
ATOM      6  O   UNL     1       3.510  -8.284   4.817  1.00  0.00    -0.269 OA
ATOM      7  H   UNL     1       3.199  -8.080   7.137  1.00  0.00     0.163 HD
BRANCH   5   8
ATOM      8  C   UNL     1       2.441  -6.232   4.434  1.00  0.00     0.046 A 
ATOM      9  C   UNL     1       1.679  -4.164   2.599  1.00  0.00     0.116 A 
ATOM     10  C   UNL     1       2.679  -5.101   2.291  1.00  0.00     0.034 A 
ATOM     11  C   UNL     1       1.081  -4.302   3.856  1.00  0.00     0.293 A 
ATOM     12  C   UNL     1       3.067  -6.101   3.190  1.00  0.00     0.016 A 
ATOM     13  C   UNL     1       1.409  -5.350   4.737  1.00  0.00     0.101 A 
BRANCH   9  14
ATOM     14  N   UNL     1       1.333  -3.255   1.638  1.00  0.00    -0.365 N 
ATOM     15  C   UNL     1      -0.819  -1.017   0.795  1.00  0.00     0.010 C 
ATOM     16  C   UNL     1       0.653  -1.308   0.486  1.00  0.00     0.010 C 
ATOM     17  C   UNL     1       1.403  -1.800   1.741  1.00  0.00     0.120 C 
ATOM     18  C   UNL     1       0.800  -2.476  -0.507  1.00  0.00     0.010 C 
ATOM     19  C   UNL     1       0.712  -3.707   0.398  1.00  0.00     0.120 C 
ATOM     20  C   UNL     1       2.143  -2.437  -1.242  1.00  0.00     0.010 C 
ENDBRANCH   9  14
BRANCH  11  21
ATOM     21  N   UNL     1       0.073  -3.370   4.332  1.00  0.00     0.065 N 
ATOM     22  O   UNL     1       0.283  -2.850   5.439  1.00  0.00    -0.258 OA
ATOM     23  O   UNL     1      -0.943  -3.198   3.647  1.00  0.00    -0.258 OA
ENDBRANCH  11  21
ENDBRANCH   5   8
ENDBRANCH   3   4
ENDBRANCH   2   3
ENDBRANCH   1   2
BRANCH   1  24
ATOM     24  C   UNL     1       1.177  -7.422  10.355  1.00  0.00     0.116 C 
BRANCH  24  25
ATOM     25  N   UNL     1       0.531  -6.218  10.850  1.00  0.00    -0.352 N 
ATOM     26  C   UNL     1       0.261  -5.857  12.147  1.00  0.00     0.251 C 
ATOM     27  H   UNL     1       0.248  -5.574  10.162  1.00  0.00     0.163 HD
ATOM     28  O   UNL     1      -0.416  -4.863  12.374  1.00  0.00    -0.269 OA
BRANCH  26  29
ATOM     29  C   UNL     1       0.760  -6.695  13.258  1.00  0.00     0.039 A 
ATOM     30  C   UNL     1      -0.110  -6.990  14.308  1.00  0.00     0.014 A 
ATOM     31  C   UNL     1       2.066  -7.192  13.264  1.00  0.00     0.014 A 
ATOM     32  C   UNL     1       0.318  -7.823  15.341  1.00  0.00     0.010 A 
ATOM     33  C   UNL     1       2.463  -8.090  14.251  1.00  0.00     0.010 A 
ATOM     34  C   UNL     1       1.597  -8.406  15.306  1.00  0.00    -0.014 A 
BRANCH  34  35
ATOM     35  C   UNL     1       2.014  -9.355  16.369  1.00  0.00     0.031 A 
ATOM     36  C   UNL     1       3.160  -9.028  17.287  1.00  0.00     0.074 A 
ATOM     37  C   UNL     1       1.357 -10.525  16.495  1.00  0.00     0.049 A 
ATOM     38  N   UNL     1       3.601  -9.699  18.320  1.00  0.00    -0.248 NA
ATOM     39  C   UNL     1       3.925  -7.804  16.999  1.00  0.00     0.031 C 
ATOM     40  C   UNL     1       0.275 -10.985  15.621  1.00  0.00     0.029 A 
ATOM     41  N   UNL     1       1.490 -11.533  17.416  1.00  0.00    -0.354 N 
ATOM     42  C   UNL     1       4.693  -8.985  18.800  1.00  0.00     0.074 A 
ATOM     43  C   UNL     1       4.886  -7.862  17.910  1.00  0.00     0.031 C 
ATOM     44  C   UNL     1      -0.193 -12.156  16.080  1.00  0.00     0.029 A 
ATOM     45  C   UNL     1       0.577 -12.549  17.255  1.00  0.00     0.049 A 
ATOM     46  H   UNL     1       2.173 -11.529  18.125  1.00  0.00     0.167 HD
ATOM     47  C   UNL     1       5.452  -9.229  19.895  1.00  0.00     0.031 A 
ATOM     48  C   UNL     1       0.372 -13.666  17.979  1.00  0.00     0.031 A 
ATOM     49  C   UNL     1       5.255 -10.351  20.776  1.00  0.00     0.049 A 
ATOM     50  C   UNL     1       1.215 -13.905  19.201  1.00  0.00     0.074 A 
ATOM     51  C   UNL     1       5.930 -10.657  21.945  1.00  0.00     0.029 A 
ATOM     52  N   UNL     1       4.319 -11.357  20.581  1.00  0.00    -0.354 N 
ATOM     53  N   UNL     1       2.186 -13.170  19.691  1.00  0.00    -0.248 NA
ATOM     54  C   UNL     1       0.916 -15.111  19.982  1.00  0.00     0.031 C 
ATOM     55  C   UNL     1       5.446 -11.880  22.422  1.00  0.00     0.029 A 
ATOM     56  C   UNL     1       4.418 -12.299  21.593  1.00  0.00     0.049 A 
ATOM     57  H   UNL     1       3.680 -11.396  19.834  1.00  0.00     0.167 HD
ATOM     58  C   UNL     1       2.596 -13.812  20.853  1.00  0.00     0.074 A 
ATOM     59  C   UNL     1       1.751 -14.980  21.003  1.00  0.00     0.031 C 
ATOM     60  C   UNL     1       3.582 -13.467  21.720  1.00  0.00     0.031 A 
BRANCH  47  61
ATOM     61  C   UNL     1       6.575  -8.267  20.196  1.00  0.00    -0.014 A 
ATOM     62  C   UNL     1       6.316  -6.943  20.596  1.00  0.00     0.010 A 
ATOM     63  C   UNL     1       7.910  -8.706  20.116  1.00  0.00     0.010 A 
ATOM     64  C   UNL     1       7.369  -6.065  20.869  1.00  0.00     0.020 A 
ATOM     65  C   UNL     1       8.965  -7.840  20.419  1.00  0.00     0.020 A 
ATOM     66  C   UNL     1       8.688  -6.520  20.777  1.00  0.00     0.054 A 
BRANCH  66  67
ATOM     67  S   UNL     1      10.034  -5.365  21.161  1.00  0.00     0.124 S 
ATOM     68  O   UNL     1       9.992  -4.463  20.013  1.00  0.00    -0.237 OA
ATOM     69  O   UNL     1       9.604  -4.785  22.431  1.00  0.00    -0.237 OA
ATOM     70  O   UNL     1      11.215  -6.221  21.237  1.00  0.00    -0.744 OA
ENDBRANCH  66  67
ENDBRANCH  47  61
BRANCH  48  71
ATOM     71  C   UNL     1      -0.696 -14.623  17.579  1.00  0.00    -0.014 A 
ATOM     72  C   UNL     1      -1.855 -14.779  18.360  1.00  0.00     0.010 A 
ATOM     73  C   UNL     1      -0.566 -15.371  16.394  1.00  0.00     0.010 A 
ATOM     74  C   UNL     1      -2.853 -15.679  17.975  1.00  0.00     0.020 A 
ATOM     75  C   UNL     1      -1.576 -16.247  15.989  1.00  0.00     0.020 A 
ATOM     76  C   UNL     1      -2.709 -16.405  16.789  1.00  0.00     0.054 A 
BRANCH  76  77
ATOM     77  S   UNL     1      -4.041 -17.526  16.281  1.00  0.00     0.124 S 
ATOM     78  O   UNL     1      -3.900 -18.619  17.237  1.00  0.00    -0.237 OA
ATOM     79  O   UNL     1      -5.231 -16.694  16.440  1.00  0.00    -0.237 OA
ATOM     80  O   UNL     1      -3.702 -17.856  14.898  1.00  0.00    -0.744 OA
ENDBRANCH  76  77
ENDBRANCH  48  71
BRANCH  60  81
ATOM     81  C   UNL     1       3.773 -14.349  22.927  1.00  0.00    -0.014 A 
ATOM     82  C   UNL     1       4.259 -15.664  22.809  1.00  0.00     0.010 A 
ATOM     83  C   UNL     1       3.466 -13.846  24.205  1.00  0.00     0.010 A 
ATOM     84  C   UNL     1       4.372 -16.479  23.939  1.00  0.00     0.020 A 
ATOM     85  C   UNL     1       3.613 -14.646  25.341  1.00  0.00     0.020 A 
ATOM     86  C   UNL     1       4.040 -15.967  25.197  1.00  0.00     0.054 A 
BRANCH  86  87
ATOM     87  S   UNL     1       4.186 -17.046  26.646  1.00  0.00     0.124 S 
ATOM     88  O   UNL     1       3.046 -17.942  26.473  1.00  0.00    -0.237 OA
ATOM     89  O   UNL     1       5.500 -17.657  26.460  1.00  0.00    -0.237 OA
ATOM     90  O   UNL     1       4.088 -16.125  27.776  1.00  0.00    -0.744 OA
ENDBRANCH  86  87
ENDBRANCH  60  81
ENDBRANCH  34  35
ENDBRANCH  26  29
ENDBRANCH  24  25
ENDBRANCH   1  24
TORSDOF 16
