REMARK SMILES COCCC(=O)N1Cc2ccccc2C[C@H]1C(=O)NCCCCNC(=O)c1ccc(-c2c3nc(c(-c4ccc(S(=O)(=O)[O-])cc4)c4ccc([nH]4)c(-c4ccc(S(=O)(=O)[O-])cc4)c4nc(c(-c5ccc(S(=O)(=O)[O-])cc5)c5ccc2[nH]5)C=C4)C=C3)cc1
REMARK SMILES IDX 21 1 20 2 19 3 17 4 18 5 16 7 7 8 8 9 9 10 15 11 10 12 14 13
REMARK SMILES IDX 11 14 13 15 12 16 5 17 6 18 4 19 3 20 2 21 1 22 22 23 23 24
REMARK SMILES IDX 24 25 25 26 26 28 27 29 28 30 86 31 29 32 85 33 30 34 31 35
REMARK SMILES IDX 32 36 79 37 33 38 84 39 78 40 80 41 34 42 83 43 77 44 76 45
REMARK SMILES IDX 35 47 65 48 46 49 64 50 47 51 50 52 63 53 81 54 48 55 49 56
REMARK SMILES IDX 62 58 82 59 51 60 36 61 37 62 45 63 38 64 44 65 39 66 40 67
REMARK SMILES IDX 41 68 42 69 43 70 66 71 67 72 75 73 68 74 74 75 69 76 70 77
REMARK SMILES IDX 71 78 72 79 73 80 52 81 53 82 61 83 54 84 60 85 55 86 56 87
REMARK SMILES IDX 57 88 58 89 59 90
REMARK H PARENT 19 6 24 27 80 46 50 57
REMARK Flexibility Score: inf
ROOT
ATOM      1  C   UNL     1      -2.575  -2.111  -1.244  1.00  0.00     0.023 C 
ENDROOT
BRANCH   1   2
ATOM      2  C   UNL     1      -2.535  -0.719  -0.619  1.00  0.00     0.116 C 
BRANCH   2   3
ATOM      3  N   UNL     1      -1.764  -0.644   0.602  1.00  0.00    -0.354 N 
ATOM      4  C   UNL     1      -0.557  -0.049   0.823  1.00  0.00     0.243 C 
ATOM      5  O   UNL     1      -0.250   0.183   1.995  1.00  0.00    -0.273 OA
ATOM      6  H   UNL     1      -2.167  -1.084   1.384  1.00  0.00     0.163 HD
BRANCH   4   7
ATOM      7  C   UNL     1       0.269   0.518  -0.342  1.00  0.00     0.179 C 
ATOM      8  N   UNL     1       0.411  -0.303  -1.581  1.00  0.00    -0.326 N 
ATOM      9  C   UNL     1       0.214   0.352  -2.882  1.00  0.00     0.156 C 
ATOM     10  C   UNL     1       0.441   1.841  -2.911  1.00  0.00    -0.025 A 
ATOM     11  C   UNL     1      -0.325   1.932  -0.545  1.00  0.00     0.071 C 
ATOM     12  C   UNL     1       0.803   2.483  -4.103  1.00  0.00     0.006 A 
ATOM     13  C   UNL     1       0.176   2.615  -1.778  1.00  0.00    -0.040 A 
ATOM     14  C   UNL     1       0.913   3.874  -4.155  1.00  0.00     0.000 A 
ATOM     15  C   UNL     1       0.275   4.011  -1.835  1.00  0.00     0.004 A 
ATOM     16  C   UNL     1       0.650   4.637  -3.020  1.00  0.00     0.000 A 
BRANCH   8  17
ATOM     17  C   UNL     1       1.091  -1.526  -1.607  1.00  0.00     0.225 C 
ATOM     18  O   UNL     1       1.762  -1.880  -2.583  1.00  0.00    -0.275 OA
BRANCH  17  19
ATOM     19  C   UNL     1       0.879  -2.530  -0.486  1.00  0.00     0.128 C 
BRANCH  19  20
ATOM     20  C   UNL     1       2.057  -2.708   0.445  1.00  0.00     0.169 C 
BRANCH  20  21
ATOM     21  O   UNL     1       2.173  -1.578   1.300  1.00  0.00    -0.384 OA
ATOM     22  C   UNL     1       3.321  -0.794   1.020  1.00  0.00     0.194 C 
ENDBRANCH  20  21
ENDBRANCH  19  20
ENDBRANCH  17  19
ENDBRANCH   8  17
ENDBRANCH   4   7
ENDBRANCH   2   3
ENDBRANCH   1   2
BRANCH   1  23
ATOM     23  C   UNL     1      -3.056  -3.219  -0.310  1.00  0.00     0.023 C 
BRANCH  23  24
ATOM     24  C   UNL     1      -4.325  -2.880   0.456  1.00  0.00     0.116 C 
BRANCH  24  25
ATOM     25  N   UNL     1      -5.378  -2.373  -0.411  1.00  0.00    -0.352 N 
ATOM     26  C   UNL     1      -6.722  -2.615  -0.364  1.00  0.00     0.251 C 
ATOM     27  H   UNL     1      -5.080  -1.772  -1.132  1.00  0.00     0.163 HD
ATOM     28  O   UNL     1      -7.450  -2.204  -1.264  1.00  0.00    -0.269 OA
BRANCH  26  29
ATOM     29  C   UNL     1      -7.272  -3.395   0.755  1.00  0.00     0.039 A 
ATOM     30  C   UNL     1      -8.196  -4.401   0.477  1.00  0.00     0.014 A 
ATOM     31  C   UNL     1      -6.862  -3.143   2.068  1.00  0.00     0.014 A 
ATOM     32  C   UNL     1      -8.698  -5.170   1.522  1.00  0.00     0.010 A 
ATOM     33  C   UNL     1      -7.284  -3.978   3.092  1.00  0.00     0.010 A 
ATOM     34  C   UNL     1      -8.237  -4.972   2.835  1.00  0.00    -0.014 A 
BRANCH  34  35
ATOM     35  C   UNL     1      -8.800  -5.753   3.958  1.00  0.00     0.031 A 
ATOM     36  C   UNL     1      -9.584  -5.050   5.033  1.00  0.00     0.074 A 
ATOM     37  C   UNL     1      -8.599  -7.083   4.011  1.00  0.00     0.049 A 
ATOM     38  N   UNL     1     -10.196  -5.557   6.072  1.00  0.00    -0.248 NA
ATOM     39  C   UNL     1      -9.671  -3.582   4.946  1.00  0.00     0.031 C 
ATOM     40  C   UNL     1      -7.824  -7.862   3.042  1.00  0.00     0.029 A 
ATOM     41  N   UNL     1      -9.049  -8.017   4.906  1.00  0.00    -0.354 N 
ATOM     42  C   UNL     1     -10.730  -4.473   6.759  1.00  0.00     0.074 A 
ATOM     43  C   UNL     1     -10.302  -3.279   6.068  1.00  0.00     0.031 C 
ATOM     44  C   UNL     1      -7.906  -9.164   3.361  1.00  0.00     0.029 A 
ATOM     45  C   UNL     1      -8.703  -9.305   4.575  1.00  0.00     0.049 A 
ATOM     46  H   UNL     1      -9.570  -7.787   5.709  1.00  0.00     0.167 HD
ATOM     47  C   UNL     1     -11.534  -4.470   7.849  1.00  0.00     0.031 A 
ATOM     48  C   UNL     1      -9.014 -10.469   5.175  1.00  0.00     0.031 A 
ATOM     49  C   UNL     1     -11.952  -5.664   8.530  1.00  0.00     0.049 A 
ATOM     50  C   UNL     1      -9.888 -10.443   6.399  1.00  0.00     0.074 A 
ATOM     51  C   UNL     1     -12.789  -5.786   9.624  1.00  0.00     0.029 A 
ATOM     52  N   UNL     1     -11.559  -6.949   8.180  1.00  0.00    -0.354 N 
ATOM     53  N   UNL     1     -10.433  -9.413   7.004  1.00  0.00    -0.248 NA
ATOM     54  C   UNL     1     -10.207 -11.741   7.006  1.00  0.00     0.031 C 
ATOM     55  C   UNL     1     -12.859  -7.141   9.969  1.00  0.00     0.029 A 
ATOM     56  C   UNL     1     -12.122  -7.869   9.047  1.00  0.00     0.049 A 
ATOM     57  H   UNL     1     -10.968  -7.172   7.425  1.00  0.00     0.167 HD
ATOM     58  C   UNL     1     -11.193  -9.943   8.040  1.00  0.00     0.074 A 
ATOM     59  C   UNL     1     -11.044 -11.383   7.970  1.00  0.00     0.031 C 
ATOM     60  C   UNL     1     -11.955  -9.299   8.961  1.00  0.00     0.031 A 
BRANCH  47  61
ATOM     61  C   UNL     1     -11.991  -3.127   8.362  1.00  0.00    -0.014 A 
ATOM     62  C   UNL     1     -12.848  -2.309   7.600  1.00  0.00     0.010 A 
ATOM     63  C   UNL     1     -11.547  -2.667   9.614  1.00  0.00     0.010 A 
ATOM     64  C   UNL     1     -13.194  -1.032   8.048  1.00  0.00     0.020 A 
ATOM     65  C   UNL     1     -11.921  -1.404  10.083  1.00  0.00     0.020 A 
ATOM     66  C   UNL     1     -12.721  -0.584   9.284  1.00  0.00     0.054 A 
BRANCH  66  67
ATOM     67  S   UNL     1     -13.173   1.084   9.835  1.00  0.00     0.124 S 
ATOM     68  O   UNL     1     -12.358   1.921   8.958  1.00  0.00    -0.237 OA
ATOM     69  O   UNL     1     -14.611   1.126   9.584  1.00  0.00    -0.237 OA
ATOM     70  O   UNL     1     -12.789   1.100  11.244  1.00  0.00    -0.744 OA
ENDBRANCH  66  67
ENDBRANCH  47  61
BRANCH  48  71
ATOM     71  C   UNL     1      -8.546 -11.755   4.589  1.00  0.00    -0.014 A 
ATOM     72  C   UNL     1      -9.463 -12.633   3.984  1.00  0.00     0.010 A 
ATOM     73  C   UNL     1      -7.183 -12.099   4.608  1.00  0.00     0.010 A 
ATOM     74  C   UNL     1      -9.029 -13.839   3.427  1.00  0.00     0.020 A 
ATOM     75  C   UNL     1      -6.740 -13.290   4.026  1.00  0.00     0.020 A 
ATOM     76  C   UNL     1      -7.669 -14.158   3.449  1.00  0.00     0.054 A 
BRANCH  76  77
ATOM     77  S   UNL     1      -7.124 -15.704   2.671  1.00  0.00     0.124 S 
ATOM     78  O   UNL     1      -7.633 -16.708   3.601  1.00  0.00    -0.237 OA
ATOM     79  O   UNL     1      -7.785 -15.652   1.370  1.00  0.00    -0.237 OA
ATOM     80  O   UNL     1      -5.670 -15.571   2.628  1.00  0.00    -0.744 OA
ENDBRANCH  76  77
ENDBRANCH  48  71
BRANCH  60  81
ATOM     81  C   UNL     1     -12.726 -10.153   9.933  1.00  0.00    -0.014 A 
ATOM     82  C   UNL     1     -12.081 -10.895  10.938  1.00  0.00     0.010 A 
ATOM     83  C   UNL     1     -14.130 -10.190   9.849  1.00  0.00     0.010 A 
ATOM     84  C   UNL     1     -12.823 -11.699  11.807  1.00  0.00     0.020 A 
ATOM     85  C   UNL     1     -14.878 -10.965  10.738  1.00  0.00     0.020 A 
ATOM     86  C   UNL     1     -14.217 -11.732  11.698  1.00  0.00     0.054 A 
BRANCH  86  87
ATOM     87  S   UNL     1     -15.158 -12.773  12.846  1.00  0.00     0.124 S 
ATOM     88  O   UNL     1     -14.873 -14.114  12.343  1.00  0.00    -0.237 OA
ATOM     89  O   UNL     1     -14.561 -12.446  14.138  1.00  0.00    -0.237 OA
ATOM     90  O   UNL     1     -16.537 -12.322  12.671  1.00  0.00    -0.744 OA
ENDBRANCH  86  87
ENDBRANCH  60  81
ENDBRANCH  34  35
ENDBRANCH  26  29
ENDBRANCH  24  25
ENDBRANCH  23  24
ENDBRANCH   1  23
TORSDOF 18
