REMARK SMILES Cc1ccc(OCCn2ccnc2)c(/C=C/C(=O)NCCCCNC(=O)c2ccc(-c3c4nc(c(-c5ccc(S(=O)(=O)[O-])cc5)c5ccc([nH]5)c(-c5ccc(S(=O)(=O)[O-])cc5)c5nc(c(-c6ccc(S(=O)(=O)[O-])cc6)c6ccc3[nH]6)C=C5)C=C4)cc2)n1
REMARK SMILES IDX 20 1 19 2 17 3 18 4 16 6 15 7 14 8 1 9 2 10 3 11 87 12 4 13
REMARK SMILES IDX 5 14 6 15 7 16 8 17 9 18 10 19 13 20 11 21 12 22 21 23 22 24
REMARK SMILES IDX 23 25 24 26 25 27 26 29 27 30 28 31 86 32 29 33 85 34 30 35
REMARK SMILES IDX 31 36 32 37 79 38 33 39 84 40 78 41 80 42 34 43 83 44 77 45
REMARK SMILES IDX 76 46 35 48 65 49 46 50 64 51 47 52 50 53 63 54 81 55 48 56
REMARK SMILES IDX 49 57 62 59 82 60 51 61 36 62 37 63 45 64 38 65 44 66 39 67
REMARK SMILES IDX 40 68 41 69 42 70 43 71 66 72 67 73 75 74 68 75 74 76 69 77
REMARK SMILES IDX 70 78 71 79 72 80 73 81 52 82 53 83 61 84 54 85 60 86 55 87
REMARK SMILES IDX 56 88 57 89 58 90 59 91
REMARK H PARENT 19 5 24 28 80 47 50 58
REMARK Flexibility Score: inf
ROOT
ATOM      1  C   UNL     1      -4.021   4.284  -0.137  1.00  0.00     0.116 C 
ENDROOT
BRANCH   1   2
ATOM      2  N   UNL     1      -2.855   5.139  -0.029  1.00  0.00    -0.353 N 
ATOM      3  C   UNL     1      -1.520   4.910   0.045  1.00  0.00     0.244 C 
ATOM      4  O   UNL     1      -0.778   5.893   0.095  1.00  0.00    -0.270 OA
ATOM      5  H   UNL     1      -3.082   6.096  -0.003  1.00  0.00     0.163 HD
BRANCH   3   6
ATOM      6  C   UNL     1      -0.890   3.564   0.071  1.00  0.00     0.073 C 
ATOM      7  C   UNL     1      -1.479   2.374   0.240  1.00  0.00     0.038 C 
BRANCH   7   8
ATOM      8  C   UNL     1      -0.806   1.068   0.352  1.00  0.00     0.105 A 
ATOM      9  C   UNL     1       2.665  -0.153   0.258  1.00  0.00     0.067 C 
ATOM     10  C   UNL     1       1.183  -0.120   0.482  1.00  0.00     0.038 A 
ATOM     11  C   UNL     1       0.506  -1.269   0.870  1.00  0.00     0.027 A 
ATOM     12  N   UNL     1       0.550   1.061   0.285  1.00  0.00    -0.250 NA
ATOM     13  C   UNL     1      -0.885  -1.249   0.925  1.00  0.00     0.050 A 
ATOM     14  C   UNL     1      -1.569  -0.092   0.572  1.00  0.00     0.145 A 
BRANCH  14  15
ATOM     15  O   UNL     1      -2.928  -0.009   0.410  1.00  0.00    -0.489 OA
BRANCH  15  16
ATOM     16  C   UNL     1      -3.671  -1.194   0.101  1.00  0.00     0.251 C 
BRANCH  16  17
ATOM     17  C   UNL     1      -3.593  -1.643  -1.367  1.00  0.00     0.164 C 
BRANCH  17  18
ATOM     18  N   UNL     1      -2.334  -2.259  -1.734  1.00  0.00    -0.334 N 
ATOM     19  C   UNL     1      -1.286  -1.644  -2.359  1.00  0.00     0.107 A 
ATOM     20  C   UNL     1      -1.962  -3.549  -1.478  1.00  0.00     0.199 A 
ATOM     21  C   UNL     1      -0.274  -2.575  -2.350  1.00  0.00     0.130 A 
ATOM     22  N   UNL     1      -0.705  -3.758  -1.802  1.00  0.00    -0.245 NA
ENDBRANCH  17  18
ENDBRANCH  16  17
ENDBRANCH  15  16
ENDBRANCH  14  15
ENDBRANCH   7   8
ENDBRANCH   3   6
ENDBRANCH   1   2
BRANCH   1  23
ATOM     23  C   UNL     1      -4.636   3.950   1.229  1.00  0.00     0.023 C 
BRANCH  23  24
ATOM     24  C   UNL     1      -5.530   5.046   1.834  1.00  0.00     0.023 C 
BRANCH  24  25
ATOM     25  C   UNL     1      -6.777   5.399   1.026  1.00  0.00     0.116 C 
BRANCH  25  26
ATOM     26  N   UNL     1      -7.695   4.272   0.835  1.00  0.00    -0.352 N 
ATOM     27  C   UNL     1      -8.754   4.185  -0.061  1.00  0.00     0.251 C 
ATOM     28  H   UNL     1      -7.544   3.485   1.407  1.00  0.00     0.163 HD
ATOM     29  O   UNL     1      -9.682   3.418   0.127  1.00  0.00    -0.269 OA
BRANCH  27  30
ATOM     30  C   UNL     1      -8.694   5.026  -1.272  1.00  0.00     0.039 A 
ATOM     31  C   UNL     1      -9.779   5.768  -1.740  1.00  0.00     0.014 A 
ATOM     32  C   UNL     1      -7.453   5.109  -1.890  1.00  0.00     0.014 A 
ATOM     33  C   UNL     1      -9.565   6.668  -2.786  1.00  0.00     0.010 A 
ATOM     34  C   UNL     1      -7.202   6.130  -2.765  1.00  0.00     0.010 A 
ATOM     35  C   UNL     1      -8.261   6.865  -3.278  1.00  0.00    -0.014 A 
BRANCH  35  36
ATOM     36  C   UNL     1      -7.953   7.897  -4.263  1.00  0.00     0.031 A 
ATOM     37  C   UNL     1      -8.477   9.250  -3.933  1.00  0.00     0.074 A 
ATOM     38  C   UNL     1      -7.103   7.704  -5.299  1.00  0.00     0.049 A 
ATOM     39  N   UNL     1      -9.460   9.862  -4.502  1.00  0.00    -0.248 NA
ATOM     40  C   UNL     1      -7.957   9.945  -2.743  1.00  0.00     0.031 C 
ATOM     41  C   UNL     1      -6.267   6.534  -5.612  1.00  0.00     0.029 A 
ATOM     42  N   UNL     1      -6.728   8.584  -6.262  1.00  0.00    -0.354 N 
ATOM     43  C   UNL     1      -9.550  11.111  -3.895  1.00  0.00     0.074 A 
ATOM     44  C   UNL     1      -8.722  11.041  -2.717  1.00  0.00     0.031 C 
ATOM     45  C   UNL     1      -5.323   6.872  -6.520  1.00  0.00     0.029 A 
ATOM     46  C   UNL     1      -5.612   8.207  -7.004  1.00  0.00     0.049 A 
ATOM     47  H   UNL     1      -7.210   9.428  -6.424  1.00  0.00     0.167 HD
ATOM     48  C   UNL     1     -10.128  12.168  -4.532  1.00  0.00     0.031 A 
ATOM     49  C   UNL     1      -4.981   8.936  -7.959  1.00  0.00     0.031 A 
ATOM     50  C   UNL     1     -10.839  11.744  -5.711  1.00  0.00     0.049 A 
ATOM     51  C   UNL     1      -5.966   9.938  -8.436  1.00  0.00     0.074 A 
ATOM     52  C   UNL     1     -11.919  10.918  -5.947  1.00  0.00     0.029 A 
ATOM     53  N   UNL     1     -10.171  11.852  -6.910  1.00  0.00    -0.354 N 
ATOM     54  N   UNL     1      -7.069   9.613  -9.055  1.00  0.00    -0.248 NA
ATOM     55  C   UNL     1      -5.969  11.242  -7.794  1.00  0.00     0.031 C 
ATOM     56  C   UNL     1     -11.564  10.185  -7.118  1.00  0.00     0.029 A 
ATOM     57  C   UNL     1     -10.337  10.668  -7.582  1.00  0.00     0.049 A 
ATOM     58  H   UNL     1      -9.666  12.636  -7.226  1.00  0.00     0.167 HD
ATOM     59  C   UNL     1      -8.035  10.454  -8.521  1.00  0.00     0.074 A 
ATOM     60  C   UNL     1      -7.283  11.488  -7.808  1.00  0.00     0.031 C 
ATOM     61  C   UNL     1      -9.350  10.088  -8.470  1.00  0.00     0.031 A 
BRANCH  48  62
ATOM     62  C   UNL     1      -9.739  13.609  -4.326  1.00  0.00    -0.014 A 
ATOM     63  C   UNL     1     -10.460  14.609  -5.013  1.00  0.00     0.010 A 
ATOM     64  C   UNL     1      -8.533  13.998  -3.711  1.00  0.00     0.010 A 
ATOM     65  C   UNL     1      -9.960  15.910  -5.141  1.00  0.00     0.020 A 
ATOM     66  C   UNL     1      -8.044  15.304  -3.800  1.00  0.00     0.020 A 
ATOM     67  C   UNL     1      -8.745  16.244  -4.544  1.00  0.00     0.054 A 
BRANCH  67  68
ATOM     68  S   UNL     1      -8.060  17.898  -4.805  1.00  0.00     0.124 S 
ATOM     69  O   UNL     1      -7.799  17.893  -6.241  1.00  0.00    -0.237 OA
ATOM     70  O   UNL     1      -9.153  18.758  -4.362  1.00  0.00    -0.237 OA
ATOM     71  O   UNL     1      -6.874  17.916  -3.952  1.00  0.00    -0.744 OA
ENDBRANCH  67  68
ENDBRANCH  48  62
BRANCH  49  72
ATOM     72  C   UNL     1      -3.520   9.060  -8.210  1.00  0.00    -0.014 A 
ATOM     73  C   UNL     1      -3.029   9.657  -9.388  1.00  0.00     0.010 A 
ATOM     74  C   UNL     1      -2.609   8.866  -7.151  1.00  0.00     0.010 A 
ATOM     75  C   UNL     1      -1.696  10.102  -9.478  1.00  0.00     0.020 A 
ATOM     76  C   UNL     1      -1.280   9.306  -7.234  1.00  0.00     0.020 A 
ATOM     77  C   UNL     1      -0.835   9.944  -8.389  1.00  0.00     0.054 A 
BRANCH  77  78
ATOM     78  S   UNL     1       0.828  10.685  -8.445  1.00  0.00     0.124 S 
ATOM     79  O   UNL     1       1.512   9.842  -9.421  1.00  0.00    -0.237 OA
ATOM     80  O   UNL     1       0.552  12.053  -8.876  1.00  0.00    -0.237 OA
ATOM     81  O   UNL     1       1.308  10.557  -7.070  1.00  0.00    -0.744 OA
ENDBRANCH  77  78
ENDBRANCH  49  72
BRANCH  61  82
ATOM     82  C   UNL     1      -9.798   8.860  -9.235  1.00  0.00    -0.014 A 
ATOM     83  C   UNL     1      -9.384   7.545  -8.938  1.00  0.00     0.010 A 
ATOM     84  C   UNL     1     -10.837   9.040 -10.164  1.00  0.00     0.010 A 
ATOM     85  C   UNL     1     -10.001   6.444  -9.559  1.00  0.00     0.020 A 
ATOM     86  C   UNL     1     -11.464   7.951 -10.770  1.00  0.00     0.020 A 
ATOM     87  C   UNL     1     -11.043   6.657 -10.468  1.00  0.00     0.054 A 
BRANCH  87  88
ATOM     88  S   UNL     1     -11.896   5.236 -11.213  1.00  0.00     0.124 S 
ATOM     89  O   UNL     1     -10.878   4.684 -12.102  1.00  0.00    -0.237 OA
ATOM     90  O   UNL     1     -12.233   4.413 -10.054  1.00  0.00    -0.237 OA
ATOM     91  O   UNL     1     -13.046   5.836 -11.889  1.00  0.00    -0.744 OA
ENDBRANCH  87  88
ENDBRANCH  61  82
ENDBRANCH  35  36
ENDBRANCH  27  30
ENDBRANCH  25  26
ENDBRANCH  24  25
ENDBRANCH  23  24
ENDBRANCH   1  23
TORSDOF 19
