REMARK SMILES C[C@@H](SCCC(=O)NCCCCNC(=O)c1ccc(-c2c3nc(c(-c4ccc(S(=O)(=O)[O-])cc4)c4ccc([nH]4)c(-c4ccc(S(=O)(=O)[O-])cc4)c4nc(c(-c5ccc(S(=O)(=O)[O-])cc5)c5ccc2[nH]5)C=C4)C=C3)cc1)C(=O)Nc1ccc(C(N)=O)cc1
REMARK SMILES IDX 9 1 8 2 6 3 7 4 5 6 4 7 3 8 2 9 1 10 76 11 77 12 78 13 79 15
REMARK SMILES IDX 80 16 87 17 81 18 86 19 82 20 83 21 84 22 85 23 10 26 11 27
REMARK SMILES IDX 12 28 13 29 14 30 15 32 16 33 17 34 75 35 18 36 74 37 19 38
REMARK SMILES IDX 20 39 21 40 68 41 22 42 73 43 67 44 69 45 23 46 72 47 66 48
REMARK SMILES IDX 65 49 24 51 54 52 35 53 53 54 36 55 39 56 52 57 70 58 37 59
REMARK SMILES IDX 38 60 51 62 71 63 40 64 25 65 26 66 34 67 27 68 33 69 28 70
REMARK SMILES IDX 29 71 30 72 31 73 32 74 55 75 56 76 64 77 57 78 63 79 58 80
REMARK SMILES IDX 59 81 60 82 61 83 62 84 41 85 42 86 50 87 43 88 49 89 44 90
REMARK SMILES IDX 45 91 46 92 47 93 48 94
REMARK H PARENT 8 5 78 14 84 24 84 25 13 31 69 50 39 61
REMARK Flexibility Score: inf
ROOT
ATOM      1  C   UNL     1       1.228  -1.445  -4.176  1.00  0.00     0.116 C 
ENDROOT
BRANCH   1   2
ATOM      2  N   UNL     1       2.156  -0.551  -3.505  1.00  0.00    -0.356 N 
ATOM      3  C   UNL     1       3.043  -0.774  -2.500  1.00  0.00     0.220 C 
ATOM      4  O   UNL     1       3.684   0.186  -2.070  1.00  0.00    -0.275 OA
ATOM      5  H   UNL     1       2.139   0.376  -3.834  1.00  0.00     0.163 HD
BRANCH   3   6
ATOM      6  C   UNL     1       3.262  -2.169  -1.963  1.00  0.00     0.111 C 
BRANCH   6   7
ATOM      7  C   UNL     1       3.268  -2.217  -0.433  1.00  0.00     0.080 C 
BRANCH   7   8
ATOM      8  S   UNL     1       1.649  -2.639   0.336  1.00  0.00    -0.148 SA
BRANCH   8   9
ATOM      9  C   UNL     1       0.708  -1.099   0.026  1.00  0.00     0.133 C 
ATOM     10  C   UNL     1       1.290   0.138   0.690  1.00  0.00     0.030 C 
BRANCH   9  11
ATOM     11  C   UNL     1      -0.819  -1.335   0.147  1.00  0.00     0.237 C 
ATOM     12  O   UNL     1      -1.452  -1.928  -0.736  1.00  0.00    -0.273 OA
ATOM     13  N   UNL     1      -1.538  -0.939   1.250  1.00  0.00    -0.325 N 
ATOM     14  H   UNL     1      -2.318  -0.345   1.162  1.00  0.00     0.169 HD
BRANCH  13  15
ATOM     15  C   UNL     1      -1.125  -1.408   2.502  1.00  0.00     0.041 A 
ATOM     16  C   UNL     1      -1.433  -2.729   2.831  1.00  0.00     0.027 A 
ATOM     17  C   UNL     1      -0.282  -0.644   3.298  1.00  0.00     0.027 A 
ATOM     18  C   UNL     1      -0.756  -3.345   3.877  1.00  0.00     0.016 A 
ATOM     19  C   UNL     1       0.414  -1.265   4.330  1.00  0.00     0.016 A 
ATOM     20  C   UNL     1       0.205  -2.623   4.598  1.00  0.00     0.039 A 
BRANCH  20  21
ATOM     21  C   UNL     1       1.085  -3.284   5.589  1.00  0.00     0.248 C 
ATOM     22  N   UNL     1       0.605  -4.396   6.213  1.00  0.00    -0.366 N 
ATOM     23  O   UNL     1       2.205  -2.849   5.846  1.00  0.00    -0.270 OA
ATOM     24  H   UNL     1      -0.294  -4.732   5.997  1.00  0.00     0.159 HD
ATOM     25  H   UNL     1       1.158  -4.863   6.880  1.00  0.00     0.159 HD
ENDBRANCH  20  21
ENDBRANCH  13  15
ENDBRANCH   9  11
ENDBRANCH   8   9
ENDBRANCH   7   8
ENDBRANCH   6   7
ENDBRANCH   3   6
ENDBRANCH   1   2
BRANCH   1  26
ATOM     26  C   UNL     1      -0.145  -1.503  -3.510  1.00  0.00     0.023 C 
BRANCH  26  27
ATOM     27  C   UNL     1      -0.694  -0.119  -3.135  1.00  0.00     0.023 C 
BRANCH  27  28
ATOM     28  C   UNL     1      -2.162   0.077  -3.446  1.00  0.00     0.116 C 
BRANCH  28  29
ATOM     29  N   UNL     1      -3.083  -0.863  -2.842  1.00  0.00    -0.352 N 
ATOM     30  C   UNL     1      -4.447  -0.740  -2.668  1.00  0.00     0.251 C 
ATOM     31  H   UNL     1      -2.684  -1.700  -2.511  1.00  0.00     0.163 HD
ATOM     32  O   UNL     1      -5.085  -1.658  -2.157  1.00  0.00    -0.269 OA
BRANCH  30  33
ATOM     33  C   UNL     1      -5.133   0.545  -2.984  1.00  0.00     0.039 A 
ATOM     34  C   UNL     1      -6.168   0.970  -2.144  1.00  0.00     0.014 A 
ATOM     35  C   UNL     1      -4.718   1.382  -4.019  1.00  0.00     0.014 A 
ATOM     36  C   UNL     1      -6.703   2.255  -2.283  1.00  0.00     0.010 A 
ATOM     37  C   UNL     1      -5.140   2.704  -4.062  1.00  0.00     0.010 A 
ATOM     38  C   UNL     1      -6.148   3.155  -3.205  1.00  0.00    -0.014 A 
BRANCH  38  39
ATOM     39  C   UNL     1      -6.610   4.562  -3.315  1.00  0.00     0.031 A 
ATOM     40  C   UNL     1      -7.131   5.074  -4.635  1.00  0.00     0.074 A 
ATOM     41  C   UNL     1      -6.480   5.394  -2.262  1.00  0.00     0.049 A 
ATOM     42  N   UNL     1      -7.489   6.287  -4.965  1.00  0.00    -0.248 NA
ATOM     43  C   UNL     1      -7.223   4.104  -5.742  1.00  0.00     0.031 C 
ATOM     44  C   UNL     1      -5.930   5.030  -0.952  1.00  0.00     0.029 A 
ATOM     45  N   UNL     1      -6.794   6.723  -2.126  1.00  0.00    -0.354 N 
ATOM     46  C   UNL     1      -7.818   6.229  -6.315  1.00  0.00     0.074 A 
ATOM     47  C   UNL     1      -7.555   4.882  -6.761  1.00  0.00     0.031 C 
ATOM     48  C   UNL     1      -5.986   6.095  -0.137  1.00  0.00     0.029 A 
ATOM     49  C   UNL     1      -6.524   7.231  -0.876  1.00  0.00     0.049 A 
ATOM     50  H   UNL     1      -7.178   7.263  -2.855  1.00  0.00     0.167 HD
ATOM     51  C   UNL     1      -8.325   7.203  -7.107  1.00  0.00     0.031 A 
ATOM     52  C   UNL     1      -6.684   8.475  -0.384  1.00  0.00     0.031 A 
ATOM     53  C   UNL     1      -8.616   8.532  -6.644  1.00  0.00     0.049 A 
ATOM     54  C   UNL     1      -7.259   9.538  -1.281  1.00  0.00     0.074 A 
ATOM     55  C   UNL     1      -9.197   9.577  -7.340  1.00  0.00     0.029 A 
ATOM     56  N   UNL     1      -8.354   8.998  -5.364  1.00  0.00    -0.354 N 
ATOM     57  N   UNL     1      -7.635   9.442  -2.535  1.00  0.00    -0.248 NA
ATOM     58  C   UNL     1      -7.444  10.872  -0.696  1.00  0.00     0.031 C 
ATOM     59  C   UNL     1      -9.231  10.692  -6.499  1.00  0.00     0.029 A 
ATOM     60  C   UNL     1      -8.738  10.322  -5.257  1.00  0.00     0.049 A 
ATOM     61  H   UNL     1      -7.954   8.464  -4.639  1.00  0.00     0.167 HD
ATOM     62  C   UNL     1      -8.129  10.695  -2.879  1.00  0.00     0.074 A 
ATOM     63  C   UNL     1      -8.022  11.524  -1.695  1.00  0.00     0.031 C 
ATOM     64  C   UNL     1      -8.626  11.124  -4.065  1.00  0.00     0.031 A 
BRANCH  51  65
ATOM     65  C   UNL     1      -8.603   6.866  -8.549  1.00  0.00    -0.014 A 
ATOM     66  C   UNL     1      -9.629   5.969  -8.903  1.00  0.00     0.010 A 
ATOM     67  C   UNL     1      -7.865   7.494  -9.569  1.00  0.00     0.010 A 
ATOM     68  C   UNL     1      -9.888   5.682 -10.246  1.00  0.00     0.020 A 
ATOM     69  C   UNL     1      -8.143   7.235 -10.914  1.00  0.00     0.020 A 
ATOM     70  C   UNL     1      -9.145   6.320 -11.243  1.00  0.00     0.054 A 
BRANCH  70  71
ATOM     71  S   UNL     1      -9.538   5.964 -12.978  1.00  0.00     0.124 S 
ATOM     72  O   UNL     1      -9.056   4.593 -13.121  1.00  0.00    -0.237 OA
ATOM     73  O   UNL     1     -10.989   6.126 -13.015  1.00  0.00    -0.237 OA
ATOM     74  O   UNL     1      -8.781   6.970 -13.720  1.00  0.00    -0.744 OA
ENDBRANCH  70  71
ENDBRANCH  51  65
BRANCH  52  75
ATOM     75  C   UNL     1      -6.310   8.781   1.026  1.00  0.00    -0.014 A 
ATOM     76  C   UNL     1      -7.297   9.095   1.978  1.00  0.00     0.010 A 
ATOM     77  C   UNL     1      -4.961   8.763   1.427  1.00  0.00     0.010 A 
ATOM     78  C   UNL     1      -6.941   9.415   3.293  1.00  0.00     0.020 A 
ATOM     79  C   UNL     1      -4.604   9.049   2.748  1.00  0.00     0.020 A 
ATOM     80  C   UNL     1      -5.596   9.389   3.669  1.00  0.00     0.054 A 
BRANCH  80  81
ATOM     81  S   UNL     1      -5.161   9.778   5.388  1.00  0.00     0.124 S 
ATOM     82  O   UNL     1      -5.401  11.217   5.443  1.00  0.00    -0.237 OA
ATOM     83  O   UNL     1      -6.097   8.950   6.144  1.00  0.00    -0.237 OA
ATOM     84  O   UNL     1      -3.761   9.372   5.486  1.00  0.00    -0.744 OA
ENDBRANCH  80  81
ENDBRANCH  52  75
BRANCH  64  85
ATOM     85  C   UNL     1      -9.133  12.540  -4.132  1.00  0.00    -0.014 A 
ATOM     86  C   UNL     1      -8.252  13.634  -4.100  1.00  0.00     0.010 A 
ATOM     87  C   UNL     1     -10.512  12.771  -4.292  1.00  0.00     0.010 A 
ATOM     88  C   UNL     1      -8.745  14.938  -4.192  1.00  0.00     0.020 A 
ATOM     89  C   UNL     1     -11.005  14.070  -4.418  1.00  0.00     0.020 A 
ATOM     90  C   UNL     1     -10.119  15.147  -4.352  1.00  0.00     0.054 A 
BRANCH  90  91
ATOM     91  S   UNL     1     -10.728  16.847  -4.514  1.00  0.00     0.124 S 
ATOM     92  O   UNL     1     -10.566  17.358  -3.156  1.00  0.00    -0.237 OA
ATOM     93  O   UNL     1      -9.825  17.415  -5.512  1.00  0.00    -0.237 OA
ATOM     94  O   UNL     1     -12.110  16.680  -4.956  1.00  0.00    -0.744 OA
ENDBRANCH  90  91
ENDBRANCH  64  85
ENDBRANCH  38  39
ENDBRANCH  30  33
ENDBRANCH  28  29
ENDBRANCH  27  28
ENDBRANCH  26  27
ENDBRANCH   1  26
TORSDOF 20
