REMARK SMILES O=C1C[C@H](c2cn[nH]c2C(=O)NCCCCNC(=O)c2ccc(-c3c4nc(c(-c5ccc(S(=O)(=O)[O-])cc5)c5ccc([nH]5)c(-c5ccc(S(=O)(=O)[O-])cc5)c5nc(c(-c6ccc(S(=O)(=O)[O-])cc6)c6ccc3[nH]6)C=C5)C=C4)cc2)c2c(-c3cccs3)n[nH]c2N1
REMARK SMILES IDX 15 1 14 2 13 3 12 4 10 5 11 6 9 8 5 9 6 10 7 11 8 12 4 14
REMARK SMILES IDX 1 15 2 16 3 17 90 18 89 19 80 21 88 22 81 23 87 24 82 26
REMARK SMILES IDX 83 27 86 28 84 29 85 30 16 31 17 32 18 33 19 35 20 36 21 37
REMARK SMILES IDX 79 38 22 39 78 40 23 41 24 42 25 43 72 44 26 45 77 46 71 47
REMARK SMILES IDX 73 48 27 49 76 50 70 51 69 52 28 54 58 55 39 56 57 57 40 58
REMARK SMILES IDX 43 59 56 60 74 61 41 62 42 63 55 65 75 66 44 67 29 68 30 69
REMARK SMILES IDX 38 70 31 71 37 72 32 73 33 74 34 75 35 76 36 77 59 78 60 79
REMARK SMILES IDX 68 80 61 81 67 82 62 83 63 84 64 85 65 86 66 87 45 88 46 89
REMARK SMILES IDX 54 90 47 91 53 92 48 93 49 94 50 95 51 96 52 97
REMARK H PARENT 12 7 8 13 90 20 88 25 17 34 73 53 43 64
REMARK Flexibility Score: inf
ROOT
ATOM      1  C   UNL     1       4.059  -3.657   1.317  1.00  0.00     0.023 C 
ENDROOT
BRANCH   1   2
ATOM      2  C   UNL     1       3.671  -2.245   0.871  1.00  0.00     0.023 C 
BRANCH   2   3
ATOM      3  C   UNL     1       4.981  -1.134   0.416  1.00  0.00     0.116 C 
BRANCH   3   4
ATOM      4  N   UNL     1       5.554  -0.524  -1.597  1.00  0.00    -0.351 N 
ATOM      5  C   UNL     1       5.609   0.302  -2.744  1.00  0.00     0.269 C 
ATOM      6  O   UNL     1       6.230  -0.160  -3.706  1.00  0.00    -0.268 OA
ATOM      7  H   UNL     1       6.115  -1.283  -1.878  1.00  0.00     0.163 HD
BRANCH   5   8
ATOM      8  C   UNL     1       5.042   1.629  -2.818  1.00  0.00     0.126 A 
ATOM      9  C   UNL     1       4.378   2.409  -1.884  1.00  0.00     0.011 A 
ATOM     10  C   UNL     1       4.159   3.640  -2.529  1.00  0.00     0.140 A 
ATOM     11  N   UNL     1       4.600   3.639  -3.788  1.00  0.00    -0.183 NA
ATOM     12  N   UNL     1       5.155   2.420  -3.928  1.00  0.00    -0.273 N 
ATOM     13  H   UNL     1       5.602   2.124  -4.755  1.00  0.00     0.190 HD
BRANCH   9  14
ATOM     14  C   UNL     1       4.042   1.976  -0.504  1.00  0.00     0.069 C 
ATOM     15  O   UNL     1       0.541   0.441  -0.549  1.00  0.00    -0.275 OA
ATOM     16  C   UNL     1       1.759   0.524  -0.745  1.00  0.00     0.226 C 
ATOM     17  C   UNL     1       2.517   1.807  -0.295  1.00  0.00     0.114 C 
ATOM     18  N   UNL     1       2.396  -0.569  -1.280  1.00  0.00    -0.311 N 
ATOM     19  C   UNL     1       3.734  -0.678  -1.054  1.00  0.00     0.132 A 
ATOM     20  H   UNL     1       1.907  -1.243  -1.805  1.00  0.00     0.171 HD
ATOM     21  C   UNL     1       4.659   0.658  -0.369  1.00  0.00     0.031 A 
ATOM     22  N   UNL     1       4.864  -2.143  -1.194  1.00  0.00    -0.262 N 
ATOM     23  C   UNL     1       6.481   0.031  -0.071  1.00  0.00     0.108 A 
ATOM     24  N   UNL     1       6.580  -1.664  -0.567  1.00  0.00    -0.173 NA
ATOM     25  H   UNL     1       4.610  -3.029  -1.539  1.00  0.00     0.192 HD
BRANCH  23  26
ATOM     26  C   UNL     1       7.615   0.991   0.066  1.00  0.00     0.055 A 
ATOM     27  C   UNL     1       8.696   1.029  -0.785  1.00  0.00     0.022 A 
ATOM     28  S   UNL     1       7.613   2.281   1.178  1.00  0.00    -0.142 S 
ATOM     29  C   UNL     1       9.511   2.179  -0.546  1.00  0.00     0.012 A 
ATOM     30  C   UNL     1       9.070   2.911   0.535  1.00  0.00     0.065 A 
ENDBRANCH  23  26
ENDBRANCH   9  14
ENDBRANCH   5   8
ENDBRANCH   3   4
ENDBRANCH   2   3
ENDBRANCH   1   2
BRANCH   1  31
ATOM     31  C   UNL     1       5.157  -3.700   2.348  1.00  0.00     0.116 C 
BRANCH  31  32
ATOM     32  N   UNL     1       4.763  -2.978   3.553  1.00  0.00    -0.352 N 
ATOM     33  C   UNL     1       5.383  -3.091   4.778  1.00  0.00     0.251 C 
ATOM     34  H   UNL     1       3.996  -2.364   3.486  1.00  0.00     0.163 HD
ATOM     35  O   UNL     1       4.769  -2.943   5.825  1.00  0.00    -0.269 OA
BRANCH  33  36
ATOM     36  C   UNL     1       6.843  -3.274   4.742  1.00  0.00     0.039 A 
ATOM     37  C   UNL     1       7.533  -4.190   5.533  1.00  0.00     0.014 A 
ATOM     38  C   UNL     1       7.505  -2.531   3.768  1.00  0.00     0.014 A 
ATOM     39  C   UNL     1       8.925  -4.269   5.385  1.00  0.00     0.010 A 
ATOM     40  C   UNL     1       8.796  -2.845   3.455  1.00  0.00     0.010 A 
ATOM     41  C   UNL     1       9.570  -3.530   4.368  1.00  0.00    -0.014 A 
BRANCH  41  42
ATOM     42  C   UNL     1      10.957  -3.736   3.932  1.00  0.00     0.031 A 
ATOM     43  C   UNL     1      11.079  -5.160   3.490  1.00  0.00     0.074 A 
ATOM     44  C   UNL     1      11.897  -2.748   3.796  1.00  0.00     0.049 A 
ATOM     45  N   UNL     1      11.467  -6.118   4.264  1.00  0.00    -0.248 NA
ATOM     46  C   UNL     1      10.386  -5.674   2.282  1.00  0.00     0.031 C 
ATOM     47  C   UNL     1      11.806  -1.306   4.093  1.00  0.00     0.029 A 
ATOM     48  N   UNL     1      13.196  -2.825   3.330  1.00  0.00    -0.354 N 
ATOM     49  C   UNL     1      11.489  -7.251   3.469  1.00  0.00     0.074 A 
ATOM     50  C   UNL     1      10.558  -6.997   2.408  1.00  0.00     0.031 C 
ATOM     51  C   UNL     1      12.878  -0.635   3.584  1.00  0.00     0.029 A 
ATOM     52  C   UNL     1      13.828  -1.585   3.032  1.00  0.00     0.049 A 
ATOM     53  H   UNL     1      13.656  -3.687   3.211  1.00  0.00     0.167 HD
ATOM     54  C   UNL     1      12.562  -8.085   3.549  1.00  0.00     0.031 A 
ATOM     55  C   UNL     1      15.070  -1.375   2.462  1.00  0.00     0.031 A 
ATOM     56  C   UNL     1      13.368  -7.731   4.695  1.00  0.00     0.049 A 
ATOM     57  C   UNL     1      15.851  -2.618   2.698  1.00  0.00     0.074 A 
ATOM     58  C   UNL     1      13.135  -7.636   6.052  1.00  0.00     0.029 A 
ATOM     59  N   UNL     1      14.441  -6.920   4.412  1.00  0.00    -0.354 N 
ATOM     60  N   UNL     1      16.222  -2.968   3.899  1.00  0.00    -0.248 NA
ATOM     61  C   UNL     1      15.633  -3.701   1.751  1.00  0.00     0.031 C 
ATOM     62  C   UNL     1      13.800  -6.443   6.454  1.00  0.00     0.029 A 
ATOM     63  C   UNL     1      14.563  -5.968   5.386  1.00  0.00     0.049 A 
ATOM     64  H   UNL     1      15.031  -7.010   3.629  1.00  0.00     0.167 HD
ATOM     65  C   UNL     1      15.770  -4.273   4.014  1.00  0.00     0.074 A 
ATOM     66  C   UNL     1      15.439  -4.684   2.639  1.00  0.00     0.031 C 
ATOM     67  C   UNL     1      15.348  -4.767   5.218  1.00  0.00     0.031 A 
BRANCH  54  68
ATOM     68  C   UNL     1      13.174  -8.821   2.382  1.00  0.00    -0.014 A 
ATOM     69  C   UNL     1      14.303  -9.623   2.651  1.00  0.00     0.010 A 
ATOM     70  C   UNL     1      12.884  -8.552   1.030  1.00  0.00     0.010 A 
ATOM     71  C   UNL     1      15.125 -10.098   1.627  1.00  0.00     0.020 A 
ATOM     72  C   UNL     1      13.682  -9.054  -0.007  1.00  0.00     0.020 A 
ATOM     73  C   UNL     1      14.804  -9.818   0.301  1.00  0.00     0.054 A 
BRANCH  73  74
ATOM     74  S   UNL     1      15.867 -10.484  -1.002  1.00  0.00     0.124 S 
ATOM     75  O   UNL     1      17.134  -9.807  -0.744  1.00  0.00    -0.237 OA
ATOM     76  O   UNL     1      15.843 -11.915  -0.708  1.00  0.00    -0.237 OA
ATOM     77  O   UNL     1      15.184 -10.095  -2.233  1.00  0.00    -0.744 OA
ENDBRANCH  73  74
ENDBRANCH  54  68
BRANCH  55  78
ATOM     78  C   UNL     1      15.549  -0.357   1.448  1.00  0.00    -0.014 A 
ATOM     79  C   UNL     1      16.897  -0.239   0.998  1.00  0.00     0.010 A 
ATOM     80  C   UNL     1      14.584   0.297   0.666  1.00  0.00     0.010 A 
ATOM     81  C   UNL     1      17.234   0.436  -0.211  1.00  0.00     0.020 A 
ATOM     82  C   UNL     1      14.907   0.956  -0.534  1.00  0.00     0.020 A 
ATOM     83  C   UNL     1      16.223   1.003  -0.989  1.00  0.00     0.054 A 
BRANCH  83  84
ATOM     84  S   UNL     1      16.570   1.679  -2.656  1.00  0.00     0.124 S 
ATOM     85  O   UNL     1      17.341   2.883  -2.363  1.00  0.00    -0.237 OA
ATOM     86  O   UNL     1      17.308   0.597  -3.300  1.00  0.00    -0.237 OA
ATOM     87  O   UNL     1      15.236   1.922  -3.208  1.00  0.00    -0.744 OA
ENDBRANCH  83  84
ENDBRANCH  55  78
BRANCH  67  88
ATOM     88  C   UNL     1      15.620  -3.979   6.479  1.00  0.00    -0.014 A 
ATOM     89  C   UNL     1      15.112  -2.698   6.783  1.00  0.00     0.010 A 
ATOM     90  C   UNL     1      16.320  -4.672   7.479  1.00  0.00     0.010 A 
ATOM     91  C   UNL     1      15.365  -2.112   8.039  1.00  0.00     0.020 A 
ATOM     92  C   UNL     1      16.551  -4.110   8.730  1.00  0.00     0.020 A 
ATOM     93  C   UNL     1      16.102  -2.819   8.996  1.00  0.00     0.054 A 
BRANCH  93  94
ATOM     94  S   UNL     1      16.504  -2.052  10.590  1.00  0.00     0.124 S 
ATOM     95  O   UNL     1      17.397  -0.965  10.199  1.00  0.00    -0.237 OA
ATOM     96  O   UNL     1      15.196  -1.644  11.096  1.00  0.00    -0.237 OA
ATOM     97  O   UNL     1      17.141  -3.132  11.344  1.00  0.00    -0.744 OA
ENDBRANCH  93  94
ENDBRANCH  67  88
ENDBRANCH  41  42
ENDBRANCH  33  36
ENDBRANCH  31  32
ENDBRANCH   1  31
TORSDOF 16
