REMARK SMILES CN1C(=O)C[C@@H](C(=O)NCCCCNC(=O)c2ccc(-c3c4nc(c(-c5ccc(S(=O)(=O)[O-])cc5)c5ccc([nH]5)c(-c5ccc(S(=O)(=O)[O-])cc5)c5nc(c(-c6ccc(S(=O)(=O)[O-])cc6)c6ccc3[nH]6)C=C5)C=C4)cc2)C12CCN(C(=O)c1ccccc1-n1cccn1)CC2
REMARK SMILES IDX 12 1 11 2 10 3 9 4 7 5 8 6 6 8 1 9 2 10 3 11 77 12 4 13 5 14
REMARK SMILES IDX 78 15 95 16 79 17 94 18 80 19 81 20 82 21 83 22 84 23 88 24
REMARK SMILES IDX 85 25 87 26 86 27 89 28 90 29 93 30 91 31 92 32 13 33 14 34
REMARK SMILES IDX 15 35 16 37 17 38 18 39 76 40 19 41 75 42 20 43 21 44 22 45
REMARK SMILES IDX 69 46 23 47 74 48 68 49 70 50 24 51 73 52 67 53 66 54 25 56
REMARK SMILES IDX 55 57 36 58 54 59 37 60 40 61 53 62 71 63 38 64 39 65 52 67
REMARK SMILES IDX 72 68 41 69 26 70 27 71 35 72 28 73 34 74 29 75 30 76 31 77
REMARK SMILES IDX 32 78 33 79 56 80 57 81 65 82 58 83 64 84 59 85 60 86 61 87
REMARK SMILES IDX 62 88 63 89 42 90 43 91 51 92 44 93 50 94 45 95 46 96 47 97
REMARK SMILES IDX 48 98 49 99
REMARK H PARENT 9 7 14 36 70 55 40 66
REMARK Flexibility Score: inf
ROOT
ATOM      1  C   UNL     1      -3.102  -2.645   1.813  1.00  0.00     0.023 C 
ENDROOT
BRANCH   1   2
ATOM      2  C   UNL     1      -2.110  -1.566   1.387  1.00  0.00     0.023 C 
BRANCH   2   3
ATOM      3  C   UNL     1      -2.343  -0.190   2.022  1.00  0.00     0.116 C 
BRANCH   3   4
ATOM      4  N   UNL     1      -2.089  -0.134   3.455  1.00  0.00    -0.356 N 
ATOM      5  C   UNL     1      -1.113   0.421   4.219  1.00  0.00     0.226 C 
ATOM      6  O   UNL     1      -1.249   0.307   5.444  1.00  0.00    -0.275 OA
ATOM      7  H   UNL     1      -2.775  -0.601   3.985  1.00  0.00     0.163 HD
BRANCH   5   8
ATOM      8  C   UNL     1       0.146   1.122   3.695  1.00  0.00     0.113 C 
ATOM      9  C   UNL     1       1.127   0.038   0.258  1.00  0.00     0.147 C 
ATOM     10  N   UNL     1       0.743   0.719   1.480  1.00  0.00    -0.339 N 
ATOM     11  C   UNL     1       0.137   1.970   1.461  1.00  0.00     0.223 C 
ATOM     12  C   UNL     1       1.119   0.282   2.836  1.00  0.00     0.058 C 
ATOM     13  O   UNL     1      -0.137   2.635   0.475  1.00  0.00    -0.275 OA
ATOM     14  C   UNL     1      -0.173   2.371   2.876  1.00  0.00     0.116 C 
ATOM     15  C   UNL     1       0.981  -1.232   3.100  1.00  0.00     0.051 C 
ATOM     16  C   UNL     1       2.612   0.699   3.054  1.00  0.00     0.051 C 
ATOM     17  C   UNL     1       1.613  -1.677   4.411  1.00  0.00     0.122 C 
ATOM     18  C   UNL     1       3.279   0.090   4.289  1.00  0.00     0.122 C 
ATOM     19  N   UNL     1       3.024  -1.343   4.368  1.00  0.00    -0.338 N 
ATOM     20  C   UNL     1       4.077  -2.256   4.341  1.00  0.00     0.256 C 
ATOM     21  O   UNL     1       5.256  -1.929   4.231  1.00  0.00    -0.269 OA
BRANCH  20  22
ATOM     22  C   UNL     1       3.790  -3.701   4.522  1.00  0.00     0.065 A 
ATOM     23  C   UNL     1       4.127  -4.219   5.785  1.00  0.00     0.016 A 
ATOM     24  C   UNL     1       3.138  -4.523   3.590  1.00  0.00     0.077 A 
ATOM     25  C   UNL     1       3.784  -5.527   6.133  1.00  0.00     0.001 A 
ATOM     26  C   UNL     1       2.745  -5.820   3.974  1.00  0.00     0.029 A 
ATOM     27  C   UNL     1       3.078  -6.320   5.234  1.00  0.00     0.002 A 
BRANCH  24  28
ATOM     28  N   UNL     1       2.853  -4.122   2.261  1.00  0.00    -0.240 N 
ATOM     29  C   UNL     1       3.535  -3.233   1.458  1.00  0.00     0.115 A 
ATOM     30  N   UNL     1       1.790  -4.655   1.601  1.00  0.00    -0.177 NA
ATOM     31  C   UNL     1       2.866  -3.175   0.258  1.00  0.00     0.042 A 
ATOM     32  C   UNL     1       1.787  -4.055   0.412  1.00  0.00     0.135 A 
ENDBRANCH  24  28
ENDBRANCH  20  22
ENDBRANCH   5   8
ENDBRANCH   3   4
ENDBRANCH   2   3
ENDBRANCH   1   2
BRANCH   1  33
ATOM     33  C   UNL     1      -4.545  -2.332   1.453  1.00  0.00     0.116 C 
BRANCH  33  34
ATOM     34  N   UNL     1      -4.721  -2.026   0.038  1.00  0.00    -0.352 N 
ATOM     35  C   UNL     1      -5.742  -2.397  -0.798  1.00  0.00     0.251 C 
ATOM     36  H   UNL     1      -4.012  -1.479  -0.372  1.00  0.00     0.163 HD
ATOM     37  O   UNL     1      -5.669  -2.178  -2.004  1.00  0.00    -0.269 OA
BRANCH  35  38
ATOM     38  C   UNL     1      -6.910  -3.089  -0.227  1.00  0.00     0.039 A 
ATOM     39  C   UNL     1      -7.380  -4.252  -0.839  1.00  0.00     0.014 A 
ATOM     40  C   UNL     1      -7.501  -2.610   0.946  1.00  0.00     0.014 A 
ATOM     41  C   UNL     1      -8.413  -4.969  -0.238  1.00  0.00     0.010 A 
ATOM     42  C   UNL     1      -8.462  -3.374   1.589  1.00  0.00     0.010 A 
ATOM     43  C   UNL     1      -8.939  -4.552   0.996  1.00  0.00    -0.014 A 
BRANCH  43  44
ATOM     44  C   UNL     1     -10.018  -5.308   1.673  1.00  0.00     0.031 A 
ATOM     45  C   UNL     1     -11.351  -4.649   1.902  1.00  0.00     0.074 A 
ATOM     46  C   UNL     1      -9.777  -6.547   2.143  1.00  0.00     0.049 A 
ATOM     47  N   UNL     1     -12.395  -5.102   2.545  1.00  0.00    -0.248 NA
ATOM     48  C   UNL     1     -11.519  -3.284   1.371  1.00  0.00     0.031 C 
ATOM     49  C   UNL     1      -8.506  -7.268   2.029  1.00  0.00     0.029 A 
ATOM     50  N   UNL     1     -10.592  -7.419   2.818  1.00  0.00    -0.354 N 
ATOM     51  C   UNL     1     -13.327  -4.071   2.522  1.00  0.00     0.074 A 
ATOM     52  C   UNL     1     -12.706  -2.950   1.852  1.00  0.00     0.031 C 
ATOM     53  C   UNL     1      -8.638  -8.483   2.585  1.00  0.00     0.029 A 
ATOM     54  C   UNL     1      -9.987  -8.614   3.126  1.00  0.00     0.049 A 
ATOM     55  H   UNL     1     -11.523  -7.208   3.059  1.00  0.00     0.167 HD
ATOM     56  C   UNL     1     -14.597  -4.065   2.991  1.00  0.00     0.031 A 
ATOM     57  C   UNL     1     -10.468  -9.694   3.770  1.00  0.00     0.031 A 
ATOM     58  C   UNL     1     -15.219  -5.195   3.624  1.00  0.00     0.049 A 
ATOM     59  C   UNL     1     -11.894  -9.680   4.250  1.00  0.00     0.074 A 
ATOM     60  C   UNL     1     -16.519  -5.319   4.080  1.00  0.00     0.029 A 
ATOM     61  N   UNL     1     -14.586  -6.403   3.878  1.00  0.00    -0.354 N 
ATOM     62  N   UNL     1     -12.781  -8.716   4.166  1.00  0.00    -0.248 NA
ATOM     63  C   UNL     1     -12.389 -10.903   4.894  1.00  0.00     0.031 C 
ATOM     64  C   UNL     1     -16.662  -6.592   4.643  1.00  0.00     0.029 A 
ATOM     65  C   UNL     1     -15.466  -7.276   4.492  1.00  0.00     0.049 A 
ATOM     66  H   UNL     1     -13.649  -6.608   3.655  1.00  0.00     0.167 HD
ATOM     67  C   UNL     1     -13.948  -9.228   4.720  1.00  0.00     0.074 A 
ATOM     68  C   UNL     1     -13.657 -10.589   5.125  1.00  0.00     0.031 C 
ATOM     69  C   UNL     1     -15.154  -8.629   4.878  1.00  0.00     0.031 A 
BRANCH  56  70
ATOM     70  C   UNL     1     -15.389  -2.796   2.828  1.00  0.00    -0.014 A 
ATOM     71  C   UNL     1     -15.811  -2.362   1.558  1.00  0.00     0.010 A 
ATOM     72  C   UNL     1     -15.731  -2.033   3.959  1.00  0.00     0.010 A 
ATOM     73  C   UNL     1     -16.515  -1.164   1.416  1.00  0.00     0.020 A 
ATOM     74  C   UNL     1     -16.462  -0.849   3.825  1.00  0.00     0.020 A 
ATOM     75  C   UNL     1     -16.831  -0.412   2.551  1.00  0.00     0.054 A 
BRANCH  75  76
ATOM     76  S   UNL     1     -17.759   1.132   2.340  1.00  0.00     0.124 S 
ATOM     77  O   UNL     1     -16.733   2.028   1.812  1.00  0.00    -0.237 OA
ATOM     78  O   UNL     1     -18.806   0.752   1.395  1.00  0.00    -0.237 OA
ATOM     79  O   UNL     1     -18.224   1.444   3.689  1.00  0.00    -0.744 OA
ENDBRANCH  75  76
ENDBRANCH  56  70
BRANCH  57  80
ATOM     80  C   UNL     1      -9.606 -10.891   3.963  1.00  0.00    -0.014 A 
ATOM     81  C   UNL     1      -9.839 -12.062   3.221  1.00  0.00     0.010 A 
ATOM     82  C   UNL     1      -8.536 -10.862   4.876  1.00  0.00     0.010 A 
ATOM     83  C   UNL     1      -9.032 -13.189   3.402  1.00  0.00     0.020 A 
ATOM     84  C   UNL     1      -7.711 -11.978   5.041  1.00  0.00     0.020 A 
ATOM     85  C   UNL     1      -7.972 -13.140   4.311  1.00  0.00     0.054 A 
BRANCH  85  86
ATOM     86  S   UNL     1      -6.906 -14.597   4.494  1.00  0.00     0.124 S 
ATOM     87  O   UNL     1      -7.752 -15.496   5.272  1.00  0.00    -0.237 OA
ATOM     88  O   UNL     1      -6.669 -14.992   3.107  1.00  0.00    -0.237 OA
ATOM     89  O   UNL     1      -5.734 -14.076   5.193  1.00  0.00    -0.744 OA
ENDBRANCH  85  86
ENDBRANCH  57  80
BRANCH  69  90
ATOM     90  C   UNL     1     -16.262  -9.453   5.475  1.00  0.00    -0.014 A 
ATOM     91  C   UNL     1     -16.281  -9.766   6.845  1.00  0.00     0.010 A 
ATOM     92  C   UNL     1     -17.328  -9.870   4.657  1.00  0.00     0.010 A 
ATOM     93  C   UNL     1     -17.334 -10.510   7.381  1.00  0.00     0.020 A 
ATOM     94  C   UNL     1     -18.395 -10.591   5.195  1.00  0.00     0.020 A 
ATOM     95  C   UNL     1     -18.384 -10.920   6.552  1.00  0.00     0.054 A 
BRANCH  95  96
ATOM     96  S   UNL     1     -19.762 -11.848   7.279  1.00  0.00     0.124 S 
ATOM     97  O   UNL     1     -19.175 -13.173   7.455  1.00  0.00    -0.237 OA
ATOM     98  O   UNL     1     -20.031 -11.111   8.512  1.00  0.00    -0.237 OA
ATOM     99  O   UNL     1     -20.811 -11.759   6.266  1.00  0.00    -0.744 OA
ENDBRANCH  95  96
ENDBRANCH  69  90
ENDBRANCH  43  44
ENDBRANCH  35  38
ENDBRANCH  33  34
ENDBRANCH   1  33
TORSDOF 16
