REMARK SMILES C[C@@](NC(=O)CCOC1CC[NH2+]CC1)(C(=O)NCCCCNC(=O)c1ccc(-c2c3nc(c(-c4ccc(S(=O)(=O)[O-])cc4)c4ccc([nH]4)c(-c4ccc(S(=O)(=O)[O-])cc4)c4nc(c(-c5ccc(S(=O)(=O)[O-])cc5)c5ccc2[nH]5)C=C4)C=C3)cc1)C(F)(F)F
REMARK SMILES IDX 18 1 17 2 15 3 16 4 2 6 1 7 3 8 4 9 5 11 6 12 7 13 8 14 9 15
REMARK SMILES IDX 10 16 14 17 11 18 13 19 12 20 85 23 86 24 87 25 88 26 19 27
REMARK SMILES IDX 20 28 21 29 22 30 23 31 24 33 25 34 26 35 84 36 27 37 83 38
REMARK SMILES IDX 28 39 29 40 30 41 77 42 31 43 82 44 76 45 78 46 32 47 81 48
REMARK SMILES IDX 75 49 74 50 33 52 63 53 44 54 62 55 45 56 48 57 61 58 79 59
REMARK SMILES IDX 46 60 47 61 60 63 80 64 49 65 34 66 35 67 43 68 36 69 42 70
REMARK SMILES IDX 37 71 38 72 39 73 40 74 41 75 64 76 65 77 73 78 66 79 72 80
REMARK SMILES IDX 67 81 68 82 69 83 70 84 71 85 50 86 51 87 59 88 52 89 58 90
REMARK SMILES IDX 53 91 54 92 55 93 56 94 57 95
REMARK H PARENT 17 5 3 10 12 21 12 22 22 32 78 51 48 62
REMARK Flexibility Score: inf
ROOT
ATOM      1  C   UNL     1      -1.818  -0.008   1.208  1.00  0.00     0.116 C 
ENDROOT
BRANCH   1   2
ATOM      2  N   UNL     1      -2.736  -0.709   0.322  1.00  0.00    -0.354 N 
ATOM      3  C   UNL     1      -2.519  -1.661  -0.647  1.00  0.00     0.254 C 
ATOM      4  O   UNL     1      -3.461  -2.444  -0.809  1.00  0.00    -0.272 OA
ATOM      5  H   UNL     1      -3.681  -0.458   0.437  1.00  0.00     0.163 HD
BRANCH   3   6
ATOM      6  C   UNL     1      -1.189  -1.839  -1.436  1.00  0.00     0.212 C 
ATOM      7  C   UNL     1      -0.523  -0.487  -1.703  1.00  0.00     0.056 C 
BRANCH   6   8
ATOM      8  N   UNL     1      -0.159  -2.849  -0.995  1.00  0.00    -0.334 N 
ATOM      9  C   UNL     1      -0.011  -3.680   0.062  1.00  0.00     0.223 C 
ATOM     10  H   UNL     1       0.588  -2.921  -1.631  1.00  0.00     0.164 HD
ATOM     11  O   UNL     1       0.758  -4.636  -0.065  1.00  0.00    -0.275 OA
BRANCH   9  12
ATOM     12  C   UNL     1      -0.606  -3.362   1.398  1.00  0.00     0.128 C 
BRANCH  12  13
ATOM     13  C   UNL     1       0.430  -2.532   2.149  1.00  0.00     0.170 C 
BRANCH  13  14
ATOM     14  O   UNL     1       0.777  -1.361   1.390  1.00  0.00    -0.377 OA
BRANCH  14  15
ATOM     15  C   UNL     1       2.132  -0.931   1.570  1.00  0.00     0.129 C 
ATOM     16  C   UNL     1       2.148   0.579   1.794  1.00  0.00     0.093 C 
ATOM     17  C   UNL     1       3.000  -1.350   0.378  1.00  0.00     0.093 C 
ATOM     18  C   UNL     1       2.020   1.393   0.514  1.00  0.00     0.263 C 
ATOM     19  C   UNL     1       2.959  -0.406  -0.824  1.00  0.00     0.263 C 
ATOM     20  N   UNL     1       3.020   1.010  -0.476  1.00  0.00    -0.346 N 
ATOM     21  H   UNL     1       3.946   1.214  -0.100  1.00  0.00     0.346 HD
ATOM     22  H   UNL     1       2.832   1.543  -1.325  1.00  0.00     0.346 HD
ENDBRANCH  14  15
ENDBRANCH  13  14
ENDBRANCH  12  13
ENDBRANCH   9  12
ENDBRANCH   6   8
BRANCH   6  23
ATOM     23  C   UNL     1      -1.651  -2.334  -2.843  1.00  0.00     0.420 C 
ATOM     24  F   UNL     1      -2.471  -1.467  -3.470  1.00  0.00    -0.168 F 
ATOM     25  F   UNL     1      -0.546  -2.464  -3.644  1.00  0.00    -0.168 F 
ATOM     26  F   UNL     1      -2.224  -3.555  -2.829  1.00  0.00    -0.168 F 
ENDBRANCH   6  23
ENDBRANCH   3   6
ENDBRANCH   1   2
BRANCH   1  27
ATOM     27  C   UNL     1      -2.358   1.245   1.896  1.00  0.00     0.023 C 
BRANCH  27  28
ATOM     28  C   UNL     1      -3.638   1.077   2.711  1.00  0.00     0.023 C 
BRANCH  28  29
ATOM     29  C   UNL     1      -3.699  -0.132   3.638  1.00  0.00     0.116 C 
BRANCH  29  30
ATOM     30  N   UNL     1      -2.905   0.000   4.851  1.00  0.00    -0.352 N 
ATOM     31  C   UNL     1      -3.322   0.001   6.172  1.00  0.00     0.251 C 
ATOM     32  H   UNL     1      -1.936   0.104   4.712  1.00  0.00     0.163 HD
ATOM     33  O   UNL     1      -2.524   0.184   7.072  1.00  0.00    -0.269 OA
BRANCH  31  34
ATOM     34  C   UNL     1      -4.766  -0.167   6.470  1.00  0.00     0.039 A 
ATOM     35  C   UNL     1      -5.409   0.790   7.256  1.00  0.00     0.014 A 
ATOM     36  C   UNL     1      -5.494  -1.210   5.896  1.00  0.00     0.014 A 
ATOM     37  C   UNL     1      -6.803   0.769   7.365  1.00  0.00     0.010 A 
ATOM     38  C   UNL     1      -6.885  -1.169   5.920  1.00  0.00     0.010 A 
ATOM     39  C   UNL     1      -7.558  -0.172   6.644  1.00  0.00    -0.014 A 
BRANCH  39  40
ATOM     40  C   UNL     1      -9.046  -0.117   6.612  1.00  0.00     0.031 A 
ATOM     41  C   UNL     1      -9.857  -1.286   7.105  1.00  0.00     0.074 A 
ATOM     42  C   UNL     1      -9.669   0.949   6.066  1.00  0.00     0.049 A 
ATOM     43  N   UNL     1     -11.155  -1.454   7.093  1.00  0.00    -0.248 NA
ATOM     44  C   UNL     1      -9.110  -2.429   7.656  1.00  0.00     0.031 C 
ATOM     45  C   UNL     1      -9.004   2.124   5.497  1.00  0.00     0.029 A 
ATOM     46  N   UNL     1     -11.006   1.214   5.892  1.00  0.00    -0.354 N 
ATOM     47  C   UNL     1     -11.377  -2.723   7.615  1.00  0.00     0.074 A 
ATOM     48  C   UNL     1     -10.079  -3.305   7.876  1.00  0.00     0.031 C 
ATOM     49  C   UNL     1      -9.933   2.994   5.069  1.00  0.00     0.029 A 
ATOM     50  C   UNL     1     -11.259   2.425   5.289  1.00  0.00     0.049 A 
ATOM     51  H   UNL     1     -11.718   0.594   6.172  1.00  0.00     0.167 HD
ATOM     52  C   UNL     1     -12.552  -3.341   7.881  1.00  0.00     0.031 A 
ATOM     53  C   UNL     1     -12.423   3.013   4.946  1.00  0.00     0.031 A 
ATOM     54  C   UNL     1     -13.843  -2.757   7.634  1.00  0.00     0.049 A 
ATOM     55  C   UNL     1     -13.717   2.308   5.249  1.00  0.00     0.074 A 
ATOM     56  C   UNL     1     -15.092  -3.280   7.920  1.00  0.00     0.029 A 
ATOM     57  N   UNL     1     -14.053  -1.520   7.043  1.00  0.00    -0.354 N 
ATOM     58  N   UNL     1     -13.905   1.137   5.810  1.00  0.00    -0.248 NA
ATOM     59  C   UNL     1     -14.957   3.009   4.886  1.00  0.00     0.031 C 
ATOM     60  C   UNL     1     -16.058  -2.382   7.455  1.00  0.00     0.029 A 
ATOM     61  C   UNL     1     -15.411  -1.272   6.936  1.00  0.00     0.049 A 
ATOM     62  H   UNL     1     -13.342  -0.909   6.743  1.00  0.00     0.167 HD
ATOM     63  C   UNL     1     -15.284   0.973   5.891  1.00  0.00     0.074 A 
ATOM     64  C   UNL     1     -15.881   2.171   5.338  1.00  0.00     0.031 C 
ATOM     65  C   UNL     1     -15.992  -0.074   6.382  1.00  0.00     0.031 A 
BRANCH  52  66
ATOM     66  C   UNL     1     -12.489  -4.724   8.476  1.00  0.00    -0.014 A 
ATOM     67  C   UNL     1     -12.017  -4.929   9.786  1.00  0.00     0.010 A 
ATOM     68  C   UNL     1     -12.932  -5.830   7.729  1.00  0.00     0.010 A 
ATOM     69  C   UNL     1     -11.942  -6.217  10.319  1.00  0.00     0.020 A 
ATOM     70  C   UNL     1     -12.888  -7.119   8.270  1.00  0.00     0.020 A 
ATOM     71  C   UNL     1     -12.375  -7.305   9.556  1.00  0.00     0.054 A 
BRANCH  71  72
ATOM     72  S   UNL     1     -12.280  -8.965  10.280  1.00  0.00     0.124 S 
ATOM     73  O   UNL     1     -10.842  -9.222  10.256  1.00  0.00    -0.237 OA
ATOM     74  O   UNL     1     -12.860  -8.768  11.607  1.00  0.00    -0.237 OA
ATOM     75  O   UNL     1     -13.075  -9.787   9.372  1.00  0.00    -0.744 OA
ENDBRANCH  71  72
ENDBRANCH  52  66
BRANCH  53  76
ATOM     76  C   UNL     1     -12.418   4.351   4.291  1.00  0.00    -0.014 A 
ATOM     77  C   UNL     1     -12.870   5.489   4.984  1.00  0.00     0.010 A 
ATOM     78  C   UNL     1     -11.949   4.498   2.973  1.00  0.00     0.010 A 
ATOM     79  C   UNL     1     -12.870   6.744   4.365  1.00  0.00     0.020 A 
ATOM     80  C   UNL     1     -11.920   5.755   2.361  1.00  0.00     0.020 A 
ATOM     81  C   UNL     1     -12.391   6.869   3.058  1.00  0.00     0.054 A 
BRANCH  81  82
ATOM     82  S   UNL     1     -12.345   8.516   2.297  1.00  0.00     0.124 S 
ATOM     83  O   UNL     1     -13.758   8.766   2.028  1.00  0.00    -0.237 OA
ATOM     84  O   UNL     1     -11.746   9.333   3.349  1.00  0.00    -0.237 OA
ATOM     85  O   UNL     1     -11.506   8.323   1.116  1.00  0.00    -0.744 OA
ENDBRANCH  81  82
ENDBRANCH  53  76
BRANCH  65  86
ATOM     86  C   UNL     1     -17.494   0.037   6.378  1.00  0.00    -0.014 A 
ATOM     87  C   UNL     1     -18.230  -0.041   5.183  1.00  0.00     0.010 A 
ATOM     88  C   UNL     1     -18.181   0.161   7.600  1.00  0.00     0.010 A 
ATOM     89  C   UNL     1     -19.625   0.033   5.207  1.00  0.00     0.020 A 
ATOM     90  C   UNL     1     -19.577   0.205   7.631  1.00  0.00     0.020 A 
ATOM     91  C   UNL     1     -20.290   0.155   6.431  1.00  0.00     0.054 A 
BRANCH  91  92
ATOM     92  S   UNL     1     -22.103   0.202   6.439  1.00  0.00     0.124 S 
ATOM     93  O   UNL     1     -22.374   1.538   5.917  1.00  0.00    -0.237 OA
ATOM     94  O   UNL     1     -22.456  -0.904   5.553  1.00  0.00    -0.237 OA
ATOM     95  O   UNL     1     -22.449   0.001   7.845  1.00  0.00    -0.744 OA
ENDBRANCH  91  92
ENDBRANCH  65  86
ENDBRANCH  39  40
ENDBRANCH  31  34
ENDBRANCH  29  30
ENDBRANCH  28  29
ENDBRANCH  27  28
ENDBRANCH   1  27
TORSDOF 20
