REMARK SMILES O=C(NCCCCNC(=O)c1cc(Br)cnc1S)c1ccc(-c2c3nc(c(-c4ccc(S(=O)(=O)[O-])cc4)c4ccc([nH]4)c(-c4ccc(S(=O)(=O)[O-])cc4)c4nc(c(-c5ccc(S(=O)(=O)[O-])cc5)c5ccc2[nH]5)C=C4)C=C3)cc1
REMARK SMILES IDX 4 1 3 2 1 3 2 4 19 6 20 7 78 8 21 9 77 10 22 11 23 12 24 13
REMARK SMILES IDX 71 14 25 15 76 16 70 17 72 18 26 19 75 20 69 21 68 22 27 24
REMARK SMILES IDX 57 25 38 26 56 27 39 28 42 29 55 30 73 31 40 32 41 33 54 35
REMARK SMILES IDX 74 36 43 37 28 38 29 39 37 40 30 41 36 42 31 43 32 44 33 45
REMARK SMILES IDX 34 46 35 47 58 48 59 49 67 50 60 51 66 52 61 53 62 54 63 55
REMARK SMILES IDX 64 56 65 57 44 58 45 59 53 60 46 61 52 62 47 63 48 64 49 65
REMARK SMILES IDX 50 66 51 67 5 68 6 69 7 70 8 71 9 72 10 74 11 75 12 76 17 77
REMARK SMILES IDX 13 78 16 79 14 80 15 81 18 82
REMARK H PARENT 3 5 72 23 42 34 8 73 18 83
REMARK Flexibility Score: inf
ROOT
ATOM      1  C   UNL     1       4.505   0.478  -1.262  1.00  0.00     0.116 C 
ENDROOT
BRANCH   1   2
ATOM      2  N   UNL     1       3.073   0.562  -1.033  1.00  0.00    -0.352 N 
ATOM      3  O   UNL     1       1.086   0.069  -0.099  1.00  0.00    -0.269 OA
ATOM      4  C   UNL     1       2.310  -0.009  -0.041  1.00  0.00     0.251 C 
ATOM      5  H   UNL     1       2.575   1.109  -1.683  1.00  0.00     0.163 HD
BRANCH   4   6
ATOM      6  C   UNL     1       2.956  -0.737   1.076  1.00  0.00     0.039 A 
ATOM      7  C   UNL     1       2.389  -1.933   1.522  1.00  0.00     0.014 A 
ATOM      8  C   UNL     1       4.111  -0.245   1.689  1.00  0.00     0.014 A 
ATOM      9  C   UNL     1       3.006  -2.653   2.549  1.00  0.00     0.010 A 
ATOM     10  C   UNL     1       4.782  -1.016   2.633  1.00  0.00     0.010 A 
ATOM     11  C   UNL     1       4.224  -2.215   3.096  1.00  0.00    -0.014 A 
BRANCH  11  12
ATOM     12  C   UNL     1       4.896  -2.973   4.186  1.00  0.00     0.031 A 
ATOM     13  C   UNL     1       5.117  -2.327   5.530  1.00  0.00     0.074 A 
ATOM     14  C   UNL     1       5.326  -4.231   3.969  1.00  0.00     0.049 A 
ATOM     15  N   UNL     1       5.684  -2.824   6.599  1.00  0.00    -0.248 NA
ATOM     16  C   UNL     1       4.669  -0.932   5.687  1.00  0.00     0.031 C 
ATOM     17  C   UNL     1       5.212  -4.953   2.700  1.00  0.00     0.029 A 
ATOM     18  N   UNL     1       5.932  -5.132   4.810  1.00  0.00    -0.354 N 
ATOM     19  C   UNL     1       5.654  -1.809   7.549  1.00  0.00     0.074 A 
ATOM     20  C   UNL     1       5.101  -0.641   6.904  1.00  0.00     0.031 C 
ATOM     21  C   UNL     1       5.682  -6.200   2.862  1.00  0.00     0.029 A 
ATOM     22  C   UNL     1       6.172  -6.356   4.230  1.00  0.00     0.049 A 
ATOM     23  H   UNL     1       6.173  -4.921   5.741  1.00  0.00     0.167 HD
ATOM     24  C   UNL     1       6.007  -1.856   8.855  1.00  0.00     0.031 A 
ATOM     25  C   UNL     1       6.712  -7.483   4.737  1.00  0.00     0.031 A 
ATOM     26  C   UNL     1       6.542  -3.027   9.499  1.00  0.00     0.049 A 
ATOM     27  C   UNL     1       7.113  -7.514   6.186  1.00  0.00     0.074 A 
ATOM     28  C   UNL     1       6.904  -3.185  10.824  1.00  0.00     0.029 A 
ATOM     29  N   UNL     1       6.781  -4.241   8.871  1.00  0.00    -0.354 N 
ATOM     30  N   UNL     1       7.030  -6.558   7.082  1.00  0.00    -0.248 NA
ATOM     31  C   UNL     1       7.660  -8.777   6.700  1.00  0.00     0.031 C 
ATOM     32  C   UNL     1       7.423  -4.472  10.984  1.00  0.00     0.029 A 
ATOM     33  C   UNL     1       7.310  -5.146   9.777  1.00  0.00     0.049 A 
ATOM     34  H   UNL     1       6.601  -4.432   7.922  1.00  0.00     0.167 HD
ATOM     35  C   UNL     1       7.509  -7.105   8.268  1.00  0.00     0.074 A 
ATOM     36  C   UNL     1       7.844  -8.486   7.982  1.00  0.00     0.031 C 
ATOM     37  C   UNL     1       7.663  -6.514   9.479  1.00  0.00     0.031 A 
BRANCH  24  38
ATOM     38  C   UNL     1       5.788  -0.617   9.688  1.00  0.00    -0.014 A 
ATOM     39  C   UNL     1       6.880   0.050  10.271  1.00  0.00     0.010 A 
ATOM     40  C   UNL     1       4.485  -0.158   9.964  1.00  0.00     0.010 A 
ATOM     41  C   UNL     1       6.675   1.133  11.131  1.00  0.00     0.020 A 
ATOM     42  C   UNL     1       4.277   0.948  10.792  1.00  0.00     0.020 A 
ATOM     43  C   UNL     1       5.373   1.571  11.390  1.00  0.00     0.054 A 
BRANCH  43  44
ATOM     44  S   UNL     1       5.125   2.968  12.520  1.00  0.00     0.124 S 
ATOM     45  O   UNL     1       5.396   2.363  13.820  1.00  0.00    -0.237 OA
ATOM     46  O   UNL     1       6.115   3.935  12.053  1.00  0.00    -0.237 OA
ATOM     47  O   UNL     1       3.735   3.354  12.287  1.00  0.00    -0.744 OA
ENDBRANCH  43  44
ENDBRANCH  24  38
BRANCH  25  48
ATOM     48  C   UNL     1       6.829  -8.682   3.859  1.00  0.00    -0.014 A 
ATOM     49  C   UNL     1       7.702  -8.673   2.754  1.00  0.00     0.010 A 
ATOM     50  C   UNL     1       5.982  -9.789   4.048  1.00  0.00     0.010 A 
ATOM     51  C   UNL     1       7.668  -9.705   1.813  1.00  0.00     0.020 A 
ATOM     52  C   UNL     1       5.970 -10.841   3.126  1.00  0.00     0.020 A 
ATOM     53  C   UNL     1       6.785 -10.772   1.994  1.00  0.00     0.054 A 
BRANCH  53  54
ATOM     54  S   UNL     1       6.680 -12.041   0.702  1.00  0.00     0.124 S 
ATOM     55  O   UNL     1       5.981 -11.325  -0.363  1.00  0.00    -0.237 OA
ATOM     56  O   UNL     1       8.084 -12.345   0.439  1.00  0.00    -0.237 OA
ATOM     57  O   UNL     1       5.919 -13.115   1.335  1.00  0.00    -0.744 OA
ENDBRANCH  53  54
ENDBRANCH  25  48
BRANCH  37  58
ATOM     58  C   UNL     1       8.246  -7.338  10.600  1.00  0.00    -0.014 A 
ATOM     59  C   UNL     1       7.472  -7.625  11.740  1.00  0.00     0.010 A 
ATOM     60  C   UNL     1       9.595  -7.737  10.575  1.00  0.00     0.010 A 
ATOM     61  C   UNL     1       8.040  -8.268  12.843  1.00  0.00     0.020 A 
ATOM     62  C   UNL     1      10.157  -8.414  11.661  1.00  0.00     0.020 A 
ATOM     63  C   UNL     1       9.382  -8.655  12.797  1.00  0.00     0.054 A 
BRANCH  63  64
ATOM     64  S   UNL     1      10.104  -9.485  14.239  1.00  0.00     0.124 S 
ATOM     65  O   UNL     1      10.281  -8.377  15.175  1.00  0.00    -0.237 OA
ATOM     66  O   UNL     1       9.074 -10.456  14.600  1.00  0.00    -0.237 OA
ATOM     67  O   UNL     1      11.340 -10.065  13.718  1.00  0.00    -0.744 OA
ENDBRANCH  63  64
ENDBRANCH  37  58
ENDBRANCH  11  12
ENDBRANCH   4   6
ENDBRANCH   1   2
BRANCH   1  68
ATOM     68  C   UNL     1       4.861   0.011  -2.668  1.00  0.00     0.023 C 
BRANCH  68  69
ATOM     69  C   UNL     1       4.384   0.915  -3.804  1.00  0.00     0.023 C 
BRANCH  69  70
ATOM     70  C   UNL     1       4.750   2.389  -3.666  1.00  0.00     0.116 C 
BRANCH  70  71
ATOM     71  N   UNL     1       6.186   2.612  -3.579  1.00  0.00    -0.352 N 
ATOM     72  C   UNL     1       6.962   3.509  -4.267  1.00  0.00     0.254 C 
ATOM     73  H   UNL     1       6.666   2.040  -2.937  1.00  0.00     0.163 HD
ATOM     74  O   UNL     1       8.180   3.530  -4.120  1.00  0.00    -0.269 OA
BRANCH  72  75
ATOM     75  C   UNL     1       6.344   4.425  -5.230  1.00  0.00     0.072 A 
ATOM     76  C   UNL     1       6.693   4.257  -6.576  1.00  0.00     0.034 A 
ATOM     77  C   UNL     1       5.469   5.450  -4.869  1.00  0.00     0.106 A 
ATOM     78  C   UNL     1       6.109   5.078  -7.528  1.00  0.00     0.037 A 
ATOM     79  N   UNL     1       4.877   6.238  -5.805  1.00  0.00    -0.248 NA
ATOM     80  Br  UNL     1       6.539   4.895  -9.353  1.00  0.00    -0.049 Br
ATOM     81  C   UNL     1       5.202   6.034  -7.104  1.00  0.00     0.128 A 
BRANCH  77  82
ATOM     82  S   UNL     1       5.038   5.883  -3.196  1.00  0.00    -0.123 SA
ATOM     83  H   UNL     1       5.673   5.045  -2.334  1.00  0.00     0.109 HD
ENDBRANCH  77  82
ENDBRANCH  72  75
ENDBRANCH  70  71
ENDBRANCH  69  70
ENDBRANCH  68  69
ENDBRANCH   1  68
TORSDOF 15
