REMARK SMILES CCS(=O)(=O)N[C@H]1C=C[C@@H](C(=O)NCCCCNC(=O)c2ccc(-c3c4nc(c(-c5ccc(S(=O)(=O)[O-])cc5)c5ccc([nH]5)c(-c5ccc(S(=O)(=O)[O-])cc5)c5nc(c(-c6ccc(S(=O)(=O)[O-])cc6)c6ccc3[nH]6)C=C5)C=C4)cc2)C1
REMARK SMILES IDX 15 1 14 2 13 3 11 4 12 5 10 7 7 8 8 9 81 10 9 11 6 12 3 14
REMARK SMILES IDX 4 15 5 16 2 17 1 18 16 19 17 20 18 21 19 22 20 24 21 25
REMARK SMILES IDX 22 26 80 27 23 28 79 29 24 30 25 31 26 32 73 33 27 34 78 35
REMARK SMILES IDX 72 36 74 37 28 38 77 39 71 40 70 41 29 43 59 44 40 45 58 46
REMARK SMILES IDX 41 47 44 48 57 49 75 50 42 51 43 52 56 54 76 55 45 56 30 57
REMARK SMILES IDX 31 58 39 59 32 60 38 61 33 62 34 63 35 64 36 65 37 66 60 67
REMARK SMILES IDX 61 68 69 69 62 70 68 71 63 72 64 73 65 74 66 75 67 76 46 77
REMARK SMILES IDX 47 78 55 79 48 80 54 81 49 82 50 83 51 84 52 85 53 86
REMARK H PARENT 13 6 6 13 18 23 74 42 44 53
REMARK Flexibility Score: inf
ROOT
ATOM      1  C   UNL     1       0.031   0.110   4.055  1.00  0.00     0.023 C 
ENDROOT
BRANCH   1   2
ATOM      2  C   UNL     1       0.768   1.053   3.108  1.00  0.00     0.116 C 
BRANCH   2   3
ATOM      3  N   UNL     1       1.728   1.875   3.806  1.00  0.00    -0.356 N 
ATOM      4  C   UNL     1       3.083   1.901   3.716  1.00  0.00     0.226 C 
ATOM      5  O   UNL     1       3.673   2.754   4.388  1.00  0.00    -0.274 OA
ATOM      6  H   UNL     1       1.341   2.514   4.447  1.00  0.00     0.163 HD
BRANCH   4   7
ATOM      7  C   UNL     1       3.887   0.982   2.785  1.00  0.00     0.103 C 
ATOM      8  C   UNL     1       3.901  -1.049   1.454  1.00  0.00     0.093 C 
ATOM      9  C   UNL     1       3.706   0.149   0.598  1.00  0.00    -0.011 C 
ATOM     10  C   UNL     1       3.683  -0.542   2.884  1.00  0.00     0.042 C 
ATOM     11  C   UNL     1       3.680   1.273   1.325  1.00  0.00    -0.016 C 
BRANCH   8  12
ATOM     12  N   UNL     1       3.148  -2.195   0.956  1.00  0.00    -0.208 NA
ATOM     13  H   UNL     1       3.281  -2.158  -0.055  1.00  0.00     0.141 HD
BRANCH  12  14
ATOM     14  S   UNL     1       1.550  -2.586   1.137  1.00  0.00     0.211 S 
ATOM     15  O   UNL     1       1.050  -2.048   2.370  1.00  0.00    -0.212 OA
ATOM     16  O   UNL     1       1.543  -4.023   0.928  1.00  0.00    -0.212 OA
BRANCH  14  17
ATOM     17  C   UNL     1       0.657  -1.889  -0.254  1.00  0.00     0.150 C 
ATOM     18  C   UNL     1       0.435  -0.396  -0.248  1.00  0.00     0.022 C 
ENDBRANCH  14  17
ENDBRANCH  12  14
ENDBRANCH   8  12
ENDBRANCH   4   7
ENDBRANCH   2   3
ENDBRANCH   1   2
BRANCH   1  19
ATOM     19  C   UNL     1      -1.043   0.764   4.913  1.00  0.00     0.023 C 
BRANCH  19  20
ATOM     20  C   UNL     1      -2.152   1.445   4.120  1.00  0.00     0.116 C 
BRANCH  20  21
ATOM     21  N   UNL     1      -2.796   0.572   3.144  1.00  0.00    -0.352 N 
ATOM     22  C   UNL     1      -4.133   0.370   2.900  1.00  0.00     0.251 C 
ATOM     23  H   UNL     1      -2.183   0.051   2.577  1.00  0.00     0.163 HD
ATOM     24  O   UNL     1      -4.488  -0.492   2.101  1.00  0.00    -0.269 OA
BRANCH  22  25
ATOM     25  C   UNL     1      -5.138   1.170   3.631  1.00  0.00     0.039 A 
ATOM     26  C   UNL     1      -6.247   0.522   4.179  1.00  0.00     0.014 A 
ATOM     27  C   UNL     1      -4.964   2.544   3.815  1.00  0.00     0.014 A 
ATOM     28  C   UNL     1      -7.136   1.242   4.978  1.00  0.00     0.010 A 
ATOM     29  C   UNL     1      -5.791   3.233   4.695  1.00  0.00     0.010 A 
ATOM     30  C   UNL     1      -6.888   2.592   5.285  1.00  0.00    -0.014 A 
BRANCH  30  31
ATOM     31  C   UNL     1      -7.766   3.333   6.226  1.00  0.00     0.031 A 
ATOM     32  C   UNL     1      -8.525   4.549   5.763  1.00  0.00     0.074 A 
ATOM     33  C   UNL     1      -7.856   2.925   7.509  1.00  0.00     0.049 A 
ATOM     34  N   UNL     1      -9.339   5.317   6.441  1.00  0.00    -0.248 NA
ATOM     35  C   UNL     1      -8.332   4.972   4.365  1.00  0.00     0.031 C 
ATOM     36  C   UNL     1      -7.123   1.798   8.095  1.00  0.00     0.029 A 
ATOM     37  N   UNL     1      -8.606   3.405   8.553  1.00  0.00    -0.354 N 
ATOM     38  C   UNL     1      -9.758   6.302   5.555  1.00  0.00     0.074 A 
ATOM     39  C   UNL     1      -9.053   6.083   4.312  1.00  0.00     0.031 C 
ATOM     40  C   UNL     1      -7.494   1.647   9.376  1.00  0.00     0.029 A 
ATOM     41  C   UNL     1      -8.454   2.690   9.719  1.00  0.00     0.049 A 
ATOM     42  H   UNL     1      -9.198   4.188   8.475  1.00  0.00     0.167 HD
ATOM     43  C   UNL     1     -10.674   7.281   5.745  1.00  0.00     0.031 A 
ATOM     44  C   UNL     1      -9.021   2.857  10.930  1.00  0.00     0.031 A 
ATOM     45  C   UNL     1     -11.377   7.497   6.981  1.00  0.00     0.049 A 
ATOM     46  C   UNL     1     -10.016   3.972  11.118  1.00  0.00     0.074 A 
ATOM     47  C   UNL     1     -12.346   8.444   7.265  1.00  0.00     0.029 A 
ATOM     48  N   UNL     1     -11.194   6.754   8.137  1.00  0.00    -0.354 N 
ATOM     49  N   UNL     1     -10.447   4.851  10.243  1.00  0.00    -0.248 NA
ATOM     50  C   UNL     1     -10.613   4.107  12.453  1.00  0.00     0.031 C 
ATOM     51  C   UNL     1     -12.710   8.308   8.608  1.00  0.00     0.029 A 
ATOM     52  C   UNL     1     -12.018   7.233   9.142  1.00  0.00     0.049 A 
ATOM     53  H   UNL     1     -10.571   5.997   8.230  1.00  0.00     0.167 HD
ATOM     54  C   UNL     1     -11.388   5.622  10.917  1.00  0.00     0.074 A 
ATOM     55  C   UNL     1     -11.485   5.085  12.259  1.00  0.00     0.031 C 
ATOM     56  C   UNL     1     -12.104   6.684  10.471  1.00  0.00     0.031 A 
BRANCH  43  57
ATOM     57  C   UNL     1     -10.993   8.180   4.579  1.00  0.00    -0.014 A 
ATOM     58  C   UNL     1     -11.698   7.687   3.465  1.00  0.00     0.010 A 
ATOM     59  C   UNL     1     -10.659   9.546   4.626  1.00  0.00     0.010 A 
ATOM     60  C   UNL     1     -12.049   8.537   2.414  1.00  0.00     0.020 A 
ATOM     61  C   UNL     1     -11.034  10.406   3.590  1.00  0.00     0.020 A 
ATOM     62  C   UNL     1     -11.721   9.894   2.487  1.00  0.00     0.054 A 
BRANCH  62  63
ATOM     63  S   UNL     1     -12.252  10.984   1.138  1.00  0.00     0.124 S 
ATOM     64  O   UNL     1     -11.402  10.539   0.037  1.00  0.00    -0.237 OA
ATOM     65  O   UNL     1     -13.670  10.660   1.007  1.00  0.00    -0.237 OA
ATOM     66  O   UNL     1     -11.966  12.325   1.641  1.00  0.00    -0.744 OA
ENDBRANCH  62  63
ENDBRANCH  43  57
BRANCH  44  67
ATOM     67  C   UNL     1      -8.663   1.960  12.066  1.00  0.00    -0.014 A 
ATOM     68  C   UNL     1      -9.620   1.107  12.643  1.00  0.00     0.010 A 
ATOM     69  C   UNL     1      -7.365   1.991  12.608  1.00  0.00     0.010 A 
ATOM     70  C   UNL     1      -9.304   0.345  13.773  1.00  0.00     0.020 A 
ATOM     71  C   UNL     1      -7.033   1.202  13.713  1.00  0.00     0.020 A 
ATOM     72  C   UNL     1      -8.013   0.403  14.304  1.00  0.00     0.054 A 
BRANCH  72  73
ATOM     73  S   UNL     1      -7.624  -0.585  15.775  1.00  0.00     0.124 S 
ATOM     74  O   UNL     1      -8.335   0.142  16.823  1.00  0.00    -0.237 OA
ATOM     75  O   UNL     1      -8.170  -1.894  15.430  1.00  0.00    -0.237 OA
ATOM     76  O   UNL     1      -6.166  -0.525  15.851  1.00  0.00    -0.744 OA
ENDBRANCH  72  73
ENDBRANCH  44  67
BRANCH  56  77
ATOM     77  C   UNL     1     -13.083   7.308  11.432  1.00  0.00    -0.014 A 
ATOM     78  C   UNL     1     -12.646   8.016  12.566  1.00  0.00     0.010 A 
ATOM     79  C   UNL     1     -14.463   7.199  11.183  1.00  0.00     0.010 A 
ATOM     80  C   UNL     1     -13.572   8.555  13.462  1.00  0.00     0.020 A 
ATOM     81  C   UNL     1     -15.392   7.769  12.057  1.00  0.00     0.020 A 
ATOM     82  C   UNL     1     -14.940   8.425  13.203  1.00  0.00     0.054 A 
BRANCH  82  83
ATOM     83  S   UNL     1     -16.120   9.146  14.375  1.00  0.00     0.124 S 
ATOM     84  O   UNL     1     -16.008   8.241  15.515  1.00  0.00    -0.237 OA
ATOM     85  O   UNL     1     -15.583  10.489  14.584  1.00  0.00    -0.237 OA
ATOM     86  O   UNL     1     -17.394   9.095  13.661  1.00  0.00    -0.744 OA
ENDBRANCH  82  83
ENDBRANCH  56  77
ENDBRANCH  30  31
ENDBRANCH  22  25
ENDBRANCH  20  21
ENDBRANCH  19  20
ENDBRANCH   1  19
TORSDOF 17
