REMARK SMILES O=C(NCCCCNC(=O)c1nn(-c2ccc(Br)cc2F)cc1CCCO)c1ccc(-c2c3nc(c(-c4ccc(S(=O)(=O)[O-])cc4)c4ccc([nH]4)c(-c4ccc(S(=O)(=O)[O-])cc4)c4nc(c(-c5ccc(S(=O)(=O)[O-])cc5)c5ccc2[nH]5)C=C4)C=C3)cc1
REMARK SMILES IDX 6 1 5 2 4 3 3 4 1 5 2 6 28 8 29 9 87 10 30 11 86 12 31 13
REMARK SMILES IDX 32 14 33 15 80 16 34 17 85 18 79 19 81 20 35 21 84 22 78 23
REMARK SMILES IDX 77 24 36 26 66 27 47 28 65 29 48 30 51 31 64 32 82 33 49 34
REMARK SMILES IDX 50 35 63 37 83 38 52 39 37 40 38 41 46 42 39 43 45 44 40 45
REMARK SMILES IDX 41 46 42 47 43 48 44 49 67 50 68 51 76 52 69 53 75 54 70 55
REMARK SMILES IDX 71 56 72 57 73 58 74 59 53 60 54 61 62 62 55 63 61 64 56 65
REMARK SMILES IDX 57 66 58 67 59 68 60 69 7 70 8 71 9 72 10 74 11 75 12 76
REMARK SMILES IDX 23 77 13 78 22 79 24 80 25 81 26 82 27 83 14 85 15 86 20 87
REMARK SMILES IDX 16 88 19 89 21 90 17 91 18 92
REMARK H PARENT 3 7 81 25 51 36 8 73 27 84
REMARK Flexibility Score: inf
ROOT
ATOM      1  C   UNL     1       4.312  -3.265  -1.224  1.00  0.00     0.023 C 
ENDROOT
BRANCH   1   2
ATOM      2  C   UNL     1       4.846  -2.194  -0.267  1.00  0.00     0.023 C 
BRANCH   2   3
ATOM      3  C   UNL     1       4.624  -0.743  -0.693  1.00  0.00     0.116 C 
BRANCH   3   4
ATOM      4  N   UNL     1       3.251  -0.390  -0.975  1.00  0.00    -0.352 N 
ATOM      5  O   UNL     1       1.221   0.459  -0.837  1.00  0.00    -0.269 OA
ATOM      6  C   UNL     1       2.199   0.036  -0.213  1.00  0.00     0.251 C 
ATOM      7  H   UNL     1       3.022  -0.476  -1.928  1.00  0.00     0.163 HD
BRANCH   6   8
ATOM      8  C   UNL     1       2.128  -0.043   1.272  1.00  0.00     0.039 A 
ATOM      9  C   UNL     1       3.185  -0.355   2.127  1.00  0.00     0.014 A 
ATOM     10  C   UNL     1       0.853   0.170   1.831  1.00  0.00     0.014 A 
ATOM     11  C   UNL     1       2.958  -0.558   3.486  1.00  0.00     0.010 A 
ATOM     12  C   UNL     1       0.624  -0.011   3.189  1.00  0.00     0.010 A 
ATOM     13  C   UNL     1       1.672  -0.417   4.008  1.00  0.00    -0.014 A 
BRANCH  13  14
ATOM     14  C   UNL     1       1.489  -0.570   5.448  1.00  0.00     0.031 A 
ATOM     15  C   UNL     1       2.128   0.491   6.276  1.00  0.00     0.074 A 
ATOM     16  C   UNL     1       0.676  -1.493   5.999  1.00  0.00     0.049 A 
ATOM     17  N   UNL     1       3.069   0.369   7.154  1.00  0.00    -0.248 NA
ATOM     18  C   UNL     1       1.738   1.885   6.006  1.00  0.00     0.031 C 
ATOM     19  C   UNL     1      -0.248  -2.396   5.308  1.00  0.00     0.029 A 
ATOM     20  N   UNL     1       0.413  -1.730   7.316  1.00  0.00    -0.354 N 
ATOM     21  C   UNL     1       3.251   1.639   7.700  1.00  0.00     0.074 A 
ATOM     22  C   UNL     1       2.528   2.550   6.849  1.00  0.00     0.031 C 
ATOM     23  C   UNL     1      -1.130  -2.897   6.204  1.00  0.00     0.029 A 
ATOM     24  C   UNL     1      -0.750  -2.459   7.537  1.00  0.00     0.049 A 
ATOM     25  H   UNL     1       0.994  -1.413   8.044  1.00  0.00     0.167 HD
ATOM     26  C   UNL     1       3.786   1.826   8.940  1.00  0.00     0.031 A 
ATOM     27  C   UNL     1      -1.397  -2.624   8.719  1.00  0.00     0.031 A 
ATOM     28  C   UNL     1       4.460   0.648   9.418  1.00  0.00     0.049 A 
ATOM     29  C   UNL     1      -0.433  -2.321   9.803  1.00  0.00     0.074 A 
ATOM     30  C   UNL     1       5.521  -0.120   8.985  1.00  0.00     0.029 A 
ATOM     31  N   UNL     1       3.803  -0.110  10.358  1.00  0.00    -0.354 N 
ATOM     32  N   UNL     1       0.613  -3.053  10.064  1.00  0.00    -0.248 NA
ATOM     33  C   UNL     1      -0.395  -0.969  10.336  1.00  0.00     0.031 C 
ATOM     34  C   UNL     1       5.171  -1.458   9.327  1.00  0.00     0.029 A 
ATOM     35  C   UNL     1       3.946  -1.422   9.995  1.00  0.00     0.049 A 
ATOM     36  H   UNL     1       3.319   0.228  11.146  1.00  0.00     0.167 HD
ATOM     37  C   UNL     1       1.605  -2.147  10.409  1.00  0.00     0.074 A 
ATOM     38  C   UNL     1       0.898  -0.893  10.661  1.00  0.00     0.031 C 
ATOM     39  C   UNL     1       2.924  -2.427  10.192  1.00  0.00     0.031 A 
BRANCH  26  40
ATOM     40  C   UNL     1       3.331   2.914   9.892  1.00  0.00    -0.014 A 
ATOM     41  C   UNL     1       3.920   2.978  11.174  1.00  0.00     0.010 A 
ATOM     42  C   UNL     1       2.149   3.658   9.699  1.00  0.00     0.010 A 
ATOM     43  C   UNL     1       3.288   3.640  12.234  1.00  0.00     0.020 A 
ATOM     44  C   UNL     1       1.536   4.363  10.737  1.00  0.00     0.020 A 
ATOM     45  C   UNL     1       2.083   4.305  12.011  1.00  0.00     0.054 A 
BRANCH  45  46
ATOM     46  S   UNL     1       1.189   5.016  13.414  1.00  0.00     0.124 S 
ATOM     47  O   UNL     1       0.792   3.819  14.149  1.00  0.00    -0.237 OA
ATOM     48  O   UNL     1       2.213   5.841  14.048  1.00  0.00    -0.237 OA
ATOM     49  O   UNL     1       0.100   5.757  12.783  1.00  0.00    -0.744 OA
ENDBRANCH  45  46
ENDBRANCH  26  40
BRANCH  27  50
ATOM     50  C   UNL     1      -2.862  -2.707   8.953  1.00  0.00    -0.014 A 
ATOM     51  C   UNL     1      -3.381  -3.115  10.197  1.00  0.00     0.010 A 
ATOM     52  C   UNL     1      -3.754  -2.112   8.037  1.00  0.00     0.010 A 
ATOM     53  C   UNL     1      -4.728  -2.884  10.531  1.00  0.00     0.020 A 
ATOM     54  C   UNL     1      -5.098  -1.887   8.359  1.00  0.00     0.020 A 
ATOM     55  C   UNL     1      -5.573  -2.252   9.615  1.00  0.00     0.054 A 
BRANCH  55  56
ATOM     56  S   UNL     1      -7.260  -1.794  10.115  1.00  0.00     0.124 S 
ATOM     57  O   UNL     1      -7.928  -3.091  10.182  1.00  0.00    -0.237 OA
ATOM     58  O   UNL     1      -7.044  -1.127  11.396  1.00  0.00    -0.237 OA
ATOM     59  O   UNL     1      -7.714  -0.919   9.035  1.00  0.00    -0.744 OA
ENDBRANCH  55  56
ENDBRANCH  27  50
BRANCH  39  60
ATOM     60  C   UNL     1       3.322  -3.849   9.882  1.00  0.00    -0.014 A 
ATOM     61  C   UNL     1       2.867  -4.561   8.756  1.00  0.00     0.010 A 
ATOM     62  C   UNL     1       4.324  -4.426  10.683  1.00  0.00     0.010 A 
ATOM     63  C   UNL     1       3.389  -5.828   8.454  1.00  0.00     0.020 A 
ATOM     64  C   UNL     1       4.861  -5.677  10.377  1.00  0.00     0.020 A 
ATOM     65  C   UNL     1       4.386  -6.377   9.268  1.00  0.00     0.054 A 
BRANCH  65  66
ATOM     66  S   UNL     1       5.101  -7.988   8.839  1.00  0.00     0.124 S 
ATOM     67  O   UNL     1       3.998  -8.906   9.103  1.00  0.00    -0.237 OA
ATOM     68  O   UNL     1       5.458  -7.821   7.431  1.00  0.00    -0.237 OA
ATOM     69  O   UNL     1       6.242  -8.115   9.745  1.00  0.00    -0.744 OA
ENDBRANCH  65  66
ENDBRANCH  39  60
ENDBRANCH  13  14
ENDBRANCH   6   8
ENDBRANCH   3   4
ENDBRANCH   2   3
ENDBRANCH   1   2
BRANCH   1  70
ATOM     70  C   UNL     1       4.650  -3.073  -2.701  1.00  0.00     0.116 C 
BRANCH  70  71
ATOM     71  N   UNL     1       6.075  -2.903  -2.922  1.00  0.00    -0.351 N 
ATOM     72  C   UNL     1       6.895  -3.575  -3.791  1.00  0.00     0.272 C 
ATOM     73  H   UNL     1       6.511  -2.211  -2.374  1.00  0.00     0.163 HD
ATOM     74  O   UNL     1       8.102  -3.322  -3.761  1.00  0.00    -0.267 OA
BRANCH  72  75
ATOM     75  C   UNL     1       6.306  -4.597  -4.659  1.00  0.00     0.153 A 
ATOM     76  N   UNL     1       5.404  -4.268  -5.605  1.00  0.00    -0.162 NA
ATOM     77  C   UNL     1       6.532  -6.005  -4.632  1.00  0.00     0.004 A 
ATOM     78  N   UNL     1       4.854  -5.445  -5.974  1.00  0.00    -0.237 N 
ATOM     79  C   UNL     1       5.523  -6.512  -5.430  1.00  0.00     0.119 A 
BRANCH  77  80
ATOM     80  C   UNL     1       7.507  -6.798  -3.821  1.00  0.00     0.042 C 
BRANCH  80  81
ATOM     81  C   UNL     1       8.923  -6.879  -4.406  1.00  0.00     0.033 C 
BRANCH  81  82
ATOM     82  C   UNL     1       9.828  -5.683  -4.131  1.00  0.00     0.156 C 
BRANCH  82  83
ATOM     83  O   UNL     1       9.749  -5.288  -2.770  1.00  0.00    -0.396 OA
ATOM     84  H   UNL     1       8.838  -5.031  -2.560  1.00  0.00     0.210 HD
ENDBRANCH  82  83
ENDBRANCH  81  82
ENDBRANCH  80  81
ENDBRANCH  77  80
BRANCH  78  85
ATOM     85  C   UNL     1       3.720  -5.466  -6.810  1.00  0.00     0.100 A 
ATOM     86  C   UNL     1       3.608  -4.527  -7.844  1.00  0.00     0.032 A 
ATOM     87  C   UNL     1       2.694  -6.385  -6.590  1.00  0.00     0.149 A 
ATOM     88  C   UNL     1       2.485  -4.543  -8.674  1.00  0.00     0.018 A 
ATOM     89  C   UNL     1       1.548  -6.366  -7.381  1.00  0.00     0.057 A 
ATOM     90  F   UNL     1       2.743  -7.247  -5.565  1.00  0.00    -0.205 F 
ATOM     91  C   UNL     1       1.456  -5.454  -8.430  1.00  0.00     0.021 A 
ATOM     92  Br  UNL     1      -0.082  -5.442  -9.530  1.00  0.00    -0.051 Br
ENDBRANCH  78  85
ENDBRANCH  72  75
ENDBRANCH  70  71
ENDBRANCH   1  70
TORSDOF 19
