REMARK SMILES CCOc1ccc2nc(S[C@@H](C(=O)NCCCCNC(=O)c3ccc(-c4c5nc(c(-c6ccc(S(=O)(=O)[O-])cc6)c6ccc([nH]6)c(-c6ccc(S(=O)(=O)[O-])cc6)c6nc(c(-c7ccc(S(=O)(=O)[O-])cc7)c7ccc4[nH]7)C=C6)C=C5)cc3)c3ccccc3)[nH]c2c1
REMARK SMILES IDX 16 1 15 2 14 3 12 4 13 5 11 7 10 8 9 9 4 10 5 11 90 12 6 13
REMARK SMILES IDX 89 14 7 15 88 16 8 17 3 19 2 20 1 21 82 22 83 23 87 24 84 25
REMARK SMILES IDX 86 26 85 27 17 28 18 29 19 30 20 31 21 33 22 34 23 35 81 36
REMARK SMILES IDX 24 37 80 38 25 39 26 40 27 41 74 42 28 43 79 44 73 45 75 46
REMARK SMILES IDX 29 47 78 48 72 49 71 50 30 52 60 53 41 54 59 55 42 56 45 57
REMARK SMILES IDX 58 58 76 59 43 60 44 61 57 63 77 64 46 65 31 66 32 67 40 68
REMARK SMILES IDX 33 69 39 70 34 71 35 72 36 73 37 74 38 75 61 76 62 77 70 78
REMARK SMILES IDX 63 79 69 80 64 81 65 82 66 83 67 84 68 85 47 86 48 87 56 88
REMARK SMILES IDX 49 89 55 90 50 91 51 92 52 93 53 94 54 95
REMARK H PARENT 14 6 88 18 19 32 75 51 45 62
REMARK Flexibility Score: inf
ROOT
ATOM      1  C   UNL     1       8.100   6.716  -3.331  1.00  0.00     0.023 C 
ENDROOT
BRANCH   1   2
ATOM      2  C   UNL     1       8.078   7.899  -2.357  1.00  0.00     0.116 C 
BRANCH   2   3
ATOM      3  N   UNL     1       6.754   8.105  -1.792  1.00  0.00    -0.355 N 
ATOM      4  C   UNL     1       6.247   7.688  -0.592  1.00  0.00     0.238 C 
ATOM      5  O   UNL     1       5.022   7.762  -0.439  1.00  0.00    -0.273 OA
ATOM      6  H   UNL     1       6.132   8.619  -2.356  1.00  0.00     0.163 HD
BRANCH   4   7
ATOM      7  C   UNL     1       7.168   7.137   0.520  1.00  0.00     0.174 C 
BRANCH   7   8
ATOM      8  S   UNL     1       7.746   5.473   0.068  1.00  0.00    -0.070 SA
BRANCH   8   9
ATOM      9  C   UNL     1       6.335   4.512  -0.208  1.00  0.00     0.167 A 
ATOM     10  C   UNL     1       2.369   2.369  -0.480  1.00  0.00     0.121 A 
ATOM     11  C   UNL     1       3.226   1.352  -0.904  1.00  0.00     0.049 A 
ATOM     12  C   UNL     1       2.844   3.648  -0.168  1.00  0.00     0.074 A 
ATOM     13  C   UNL     1       4.608   1.558  -0.959  1.00  0.00     0.034 A 
ATOM     14  C   UNL     1       4.228   3.830  -0.244  1.00  0.00     0.070 A 
ATOM     15  C   UNL     1       5.109   2.819  -0.612  1.00  0.00     0.090 A 
ATOM     16  N   UNL     1       5.039   4.918  -0.028  1.00  0.00    -0.333 N 
ATOM     17  N   UNL     1       6.406   3.255  -0.575  1.00  0.00    -0.223 NA
ATOM     18  H   UNL     1       4.742   5.825   0.212  1.00  0.00     0.169 HD
BRANCH  10  19
ATOM     19  O   UNL     1       1.013   2.170  -0.467  1.00  0.00    -0.494 OA
BRANCH  19  20
ATOM     20  C   UNL     1       0.584   1.318   0.602  1.00  0.00     0.226 C 
ATOM     21  C   UNL     1       0.477  -0.134   0.160  1.00  0.00     0.049 C 
ENDBRANCH  19  20
ENDBRANCH  10  19
ENDBRANCH   8   9
ENDBRANCH   7   8
BRANCH   7  22
ATOM     22  C   UNL     1       6.568   7.271   1.929  1.00  0.00    -0.025 A 
ATOM     23  C   UNL     1       6.210   8.553   2.390  1.00  0.00     0.005 A 
ATOM     24  C   UNL     1       6.361   6.190   2.807  1.00  0.00     0.005 A 
ATOM     25  C   UNL     1       5.638   8.738   3.652  1.00  0.00     0.000 A 
ATOM     26  C   UNL     1       5.781   6.374   4.065  1.00  0.00     0.000 A 
ATOM     27  C   UNL     1       5.417   7.647   4.487  1.00  0.00     0.000 A 
ENDBRANCH   7  22
ENDBRANCH   4   7
ENDBRANCH   2   3
ENDBRANCH   1   2
BRANCH   1  28
ATOM     28  C   UNL     1       7.304   6.924  -4.623  1.00  0.00     0.023 C 
BRANCH  28  29
ATOM     29  C   UNL     1       7.769   8.082  -5.500  1.00  0.00     0.116 C 
BRANCH  29  30
ATOM     30  N   UNL     1       9.153   7.956  -5.928  1.00  0.00    -0.352 N 
ATOM     31  C   UNL     1       9.702   8.192  -7.167  1.00  0.00     0.251 C 
ATOM     32  H   UNL     1       9.786   7.660  -5.235  1.00  0.00     0.163 HD
ATOM     33  O   UNL     1      10.881   7.924  -7.376  1.00  0.00    -0.269 OA
BRANCH  31  34
ATOM     34  C   UNL     1       8.858   8.735  -8.254  1.00  0.00     0.039 A 
ATOM     35  C   UNL     1       8.899   8.120  -9.508  1.00  0.00     0.014 A 
ATOM     36  C   UNL     1       8.014   9.826  -8.033  1.00  0.00     0.014 A 
ATOM     37  C   UNL     1       8.032   8.548 -10.517  1.00  0.00     0.010 A 
ATOM     38  C   UNL     1       7.107  10.209  -9.018  1.00  0.00     0.010 A 
ATOM     39  C   UNL     1       7.099   9.567 -10.266  1.00  0.00    -0.014 A 
BRANCH  39  40
ATOM     40  C   UNL     1       6.086   9.955 -11.281  1.00  0.00     0.031 A 
ATOM     41  C   UNL     1       6.093  11.339 -11.870  1.00  0.00     0.074 A 
ATOM     42  C   UNL     1       5.110   9.086 -11.612  1.00  0.00     0.049 A 
ATOM     43  N   UNL     1       5.241  11.885 -12.700  1.00  0.00    -0.248 NA
ATOM     44  C   UNL     1       7.185  12.233 -11.454  1.00  0.00     0.031 C 
ATOM     45  C   UNL     1       4.969   7.727 -11.083  1.00  0.00     0.029 A 
ATOM     46  N   UNL     1       4.043   9.220 -12.466  1.00  0.00    -0.354 N 
ATOM     47  C   UNL     1       5.683  13.188 -12.893  1.00  0.00     0.074 A 
ATOM     48  C   UNL     1       6.853  13.364 -12.060  1.00  0.00     0.031 C 
ATOM     49  C   UNL     1       3.893   7.147 -11.639  1.00  0.00     0.029 A 
ATOM     50  C   UNL     1       3.244   8.103 -12.530  1.00  0.00     0.049 A 
ATOM     51  H   UNL     1       3.867  10.039 -12.983  1.00  0.00     0.167 HD
ATOM     52  C   UNL     1       5.171  14.147 -13.702  1.00  0.00     0.031 A 
ATOM     53  C   UNL     1       2.109   7.874 -13.219  1.00  0.00     0.031 A 
ATOM     54  C   UNL     1       4.014  13.966 -14.538  1.00  0.00     0.049 A 
ATOM     55  C   UNL     1       1.551   8.959 -14.099  1.00  0.00     0.074 A 
ATOM     56  C   UNL     1       3.452  14.860 -15.433  1.00  0.00     0.029 A 
ATOM     57  N   UNL     1       3.238  12.818 -14.580  1.00  0.00    -0.354 N 
ATOM     58  N   UNL     1       2.019  10.166 -14.313  1.00  0.00    -0.248 NA
ATOM     59  C   UNL     1       0.317   8.649 -14.835  1.00  0.00     0.031 C 
ATOM     60  C   UNL     1       2.310  14.269 -15.983  1.00  0.00     0.029 A 
ATOM     61  C   UNL     1       2.190  12.988 -15.469  1.00  0.00     0.049 A 
ATOM     62  H   UNL     1       3.408  12.002 -14.056  1.00  0.00     0.167 HD
ATOM     63  C   UNL     1       1.149  10.751 -15.227  1.00  0.00     0.074 A 
ATOM     64  C   UNL     1       0.136   9.762 -15.534  1.00  0.00     0.031 C 
ATOM     65  C   UNL     1       1.187  11.995 -15.763  1.00  0.00     0.031 A 
BRANCH  52  66
ATOM     66  C   UNL     1       5.862  15.484 -13.716  1.00  0.00    -0.014 A 
ATOM     67  C   UNL     1       7.130  15.639 -14.307  1.00  0.00     0.010 A 
ATOM     68  C   UNL     1       5.222  16.609 -13.165  1.00  0.00     0.010 A 
ATOM     69  C   UNL     1       7.763  16.884 -14.306  1.00  0.00     0.020 A 
ATOM     70  C   UNL     1       5.841  17.862 -13.187  1.00  0.00     0.020 A 
ATOM     71  C   UNL     1       7.117  17.988 -13.741  1.00  0.00     0.054 A 
BRANCH  71  72
ATOM     72  S   UNL     1       7.957  19.595 -13.766  1.00  0.00     0.124 S 
ATOM     73  O   UNL     1       8.977  19.417 -12.736  1.00  0.00    -0.237 OA
ATOM     74  O   UNL     1       8.456  19.676 -15.136  1.00  0.00    -0.237 OA
ATOM     75  O   UNL     1       6.897  20.545 -13.435  1.00  0.00    -0.744 OA
ENDBRANCH  71  72
ENDBRANCH  52  66
BRANCH  53  76
ATOM     76  C   UNL     1       1.429   6.555 -13.112  1.00  0.00    -0.014 A 
ATOM     77  C   UNL     1       1.455   5.653 -14.190  1.00  0.00     0.010 A 
ATOM     78  C   UNL     1       0.765   6.187 -11.928  1.00  0.00     0.010 A 
ATOM     79  C   UNL     1       0.817   4.413 -14.091  1.00  0.00     0.020 A 
ATOM     80  C   UNL     1       0.148   4.938 -11.816  1.00  0.00     0.020 A 
ATOM     81  C   UNL     1       0.168   4.063 -12.904  1.00  0.00     0.054 A 
BRANCH  81  82
ATOM     82  S   UNL     1      -0.608   2.427 -12.780  1.00  0.00     0.124 S 
ATOM     83  O   UNL     1      -1.810   2.600 -13.589  1.00  0.00    -0.237 OA
ATOM     84  O   UNL     1       0.414   1.549 -13.344  1.00  0.00    -0.237 OA
ATOM     85  O   UNL     1      -0.834   2.265 -11.346  1.00  0.00    -0.744 OA
ENDBRANCH  81  82
ENDBRANCH  53  76
BRANCH  65  86
ATOM     86  C   UNL     1       0.118  12.354 -16.759  1.00  0.00    -0.014 A 
ATOM     87  C   UNL     1      -1.200  12.617 -16.348  1.00  0.00     0.010 A 
ATOM     88  C   UNL     1       0.454  12.490 -18.119  1.00  0.00     0.010 A 
ATOM     89  C   UNL     1      -2.170  12.988 -17.283  1.00  0.00     0.020 A 
ATOM     90  C   UNL     1      -0.508  12.885 -19.053  1.00  0.00     0.020 A 
ATOM     91  C   UNL     1      -1.817  13.121 -18.630  1.00  0.00     0.054 A 
BRANCH  91  92
ATOM     92  S   UNL     1      -3.081  13.657 -19.815  1.00  0.00     0.124 S 
ATOM     93  O   UNL     1      -3.890  12.450 -19.965  1.00  0.00    -0.237 OA
ATOM     94  O   UNL     1      -3.728  14.765 -19.116  1.00  0.00    -0.237 OA
ATOM     95  O   UNL     1      -2.309  14.040 -20.995  1.00  0.00    -0.744 OA
ENDBRANCH  91  92
ENDBRANCH  65  86
ENDBRANCH  39  40
ENDBRANCH  31  34
ENDBRANCH  29  30
ENDBRANCH  28  29
ENDBRANCH   1  28
TORSDOF 19
