REMARK SMILES CCCC[C@H](C(=O)NCCCCNC(=O)c1ccc(-c2c3nc(c(-c4ccc(S(=O)(=O)[O-])cc4)c4ccc([nH]4)c(-c4ccc(S(=O)(=O)[O-])cc4)c4nc(c(-c5ccc(S(=O)(=O)[O-])cc5)c5ccc2[nH]5)C=C4)C=C3)cc1)[C@](C)(O)c1ccc(Cl)c(Cl)c1
REMARK SMILES IDX 10 1 9 2 8 3 6 4 7 5 5 7 4 8 3 9 2 10 1 11 76 12 77 13 78 14
REMARK SMILES IDX 79 16 80 17 86 18 81 19 84 20 82 21 85 22 83 23 11 24 12 25
REMARK SMILES IDX 13 26 14 27 15 29 16 30 17 31 75 32 18 33 74 34 19 35 20 36
REMARK SMILES IDX 21 37 68 38 22 39 73 40 67 41 69 42 23 43 72 44 66 45 65 46
REMARK SMILES IDX 24 48 54 49 35 50 53 51 36 52 39 53 52 54 70 55 37 56 38 57
REMARK SMILES IDX 51 59 71 60 40 61 25 62 26 63 34 64 27 65 33 66 28 67 29 68
REMARK SMILES IDX 30 69 31 70 32 71 55 72 56 73 64 74 57 75 63 76 58 77 59 78
REMARK SMILES IDX 60 79 61 80 62 81 41 82 42 83 50 84 43 85 49 86 44 87 45 88
REMARK SMILES IDX 46 89 47 90 48 91
REMARK H PARENT 8 6 78 15 13 28 69 47 39 58
REMARK Flexibility Score: inf
ROOT
ATOM      1  C   UNL     1      -4.890  -4.034  -2.562  1.00  0.00     0.023 C 
ENDROOT
BRANCH   1   2
ATOM      2  C   UNL     1      -4.101  -4.074  -1.250  1.00  0.00     0.116 C 
BRANCH   2   3
ATOM      3  N   UNL     1      -2.974  -4.978  -1.322  1.00  0.00    -0.356 N 
ATOM      4  C   UNL     1      -1.643  -4.749  -1.487  1.00  0.00     0.226 C 
ATOM      5  O   UNL     1      -0.941  -5.759  -1.600  1.00  0.00    -0.275 OA
ATOM      6  H   UNL     1      -3.212  -5.930  -1.236  1.00  0.00     0.163 HD
BRANCH   4   7
ATOM      7  C   UNL     1      -1.044  -3.329  -1.496  1.00  0.00     0.114 C 
BRANCH   7   8
ATOM      8  C   UNL     1       0.455  -3.419  -1.062  1.00  0.00     0.017 C 
BRANCH   8   9
ATOM      9  C   UNL     1       0.696  -2.951   0.381  1.00  0.00     0.001 C 
BRANCH   9  10
ATOM     10  C   UNL     1       0.070  -3.824   1.471  1.00  0.00    -0.003 C 
ATOM     11  C   UNL     1       0.696  -5.207   1.571  1.00  0.00     0.004 C 
ENDBRANCH   9  10
ENDBRANCH   8   9
ENDBRANCH   7   8
BRANCH   7  12
ATOM     12  C   UNL     1      -1.223  -2.502  -2.826  1.00  0.00     0.098 C 
ATOM     13  C   UNL     1      -0.634  -1.078  -2.623  1.00  0.00     0.048 C 
BRANCH  12  14
ATOM     14  O   UNL     1      -2.614  -2.230  -3.048  1.00  0.00    -0.385 OA
ATOM     15  H   UNL     1      -2.718  -1.721  -3.867  1.00  0.00     0.211 HD
ENDBRANCH  12  14
BRANCH  12  16
ATOM     16  C   UNL     1      -0.747  -3.183  -4.116  1.00  0.00    -0.014 A 
ATOM     17  C   UNL     1      -1.293  -4.414  -4.529  1.00  0.00     0.008 A 
ATOM     18  C   UNL     1       0.184  -2.589  -4.987  1.00  0.00     0.028 A 
ATOM     19  C   UNL     1      -0.889  -5.051  -5.708  1.00  0.00     0.022 A 
ATOM     20  C   UNL     1       0.573  -3.207  -6.188  1.00  0.00     0.060 A 
ATOM     21  C   UNL     1       0.047  -4.449  -6.542  1.00  0.00     0.059 A 
ATOM     22  Cl  UNL     1       1.699  -2.360  -7.192  1.00  0.00    -0.083 Cl
ATOM     23  Cl  UNL     1       0.498  -5.274  -7.989  1.00  0.00    -0.083 Cl
ENDBRANCH  12  16
ENDBRANCH   7  12
ENDBRANCH   4   7
ENDBRANCH   2   3
ENDBRANCH   1   2
BRANCH   1  24
ATOM     24  C   UNL     1      -5.589  -5.334  -2.952  1.00  0.00     0.023 C 
BRANCH  24  25
ATOM     25  C   UNL     1      -6.590  -5.863  -1.938  1.00  0.00     0.116 C 
BRANCH  25  26
ATOM     26  N   UNL     1      -7.626  -4.898  -1.598  1.00  0.00    -0.352 N 
ATOM     27  C   UNL     1      -8.986  -5.083  -1.525  1.00  0.00     0.251 C 
ATOM     28  H   UNL     1      -7.309  -3.989  -1.392  1.00  0.00     0.163 HD
ATOM     29  O   UNL     1      -9.733  -4.130  -1.324  1.00  0.00    -0.269 OA
BRANCH  27  30
ATOM     30  C   UNL     1      -9.536  -6.437  -1.735  1.00  0.00     0.039 A 
ATOM     31  C   UNL     1     -10.540  -6.619  -2.689  1.00  0.00     0.014 A 
ATOM     32  C   UNL     1      -9.001  -7.529  -1.048  1.00  0.00     0.014 A 
ATOM     33  C   UNL     1     -10.940  -7.913  -3.026  1.00  0.00     0.010 A 
ATOM     34  C   UNL     1      -9.350  -8.818  -1.433  1.00  0.00     0.010 A 
ATOM     35  C   UNL     1     -10.309  -9.021  -2.438  1.00  0.00    -0.014 A 
BRANCH  35  36
ATOM     36  C   UNL     1     -10.604 -10.408  -2.875  1.00  0.00     0.031 A 
ATOM     37  C   UNL     1     -11.218 -11.383  -1.912  1.00  0.00     0.074 A 
ATOM     38  C   UNL     1     -10.228 -10.812  -4.104  1.00  0.00     0.049 A 
ATOM     39  N   UNL     1     -11.431 -12.664  -2.062  1.00  0.00    -0.248 NA
ATOM     40  C   UNL     1     -11.620 -10.852  -0.600  1.00  0.00     0.031 C 
ATOM     41  C   UNL     1      -9.596  -9.967  -5.121  1.00  0.00     0.029 A 
ATOM     42  N   UNL     1     -10.311 -12.044  -4.703  1.00  0.00    -0.354 N 
ATOM     43  C   UNL     1     -11.973 -13.098  -0.858  1.00  0.00     0.074 A 
ATOM     44  C   UNL     1     -12.017 -11.951   0.024  1.00  0.00     0.031 C 
ATOM     45  C   UNL     1      -9.371 -10.700  -6.224  1.00  0.00     0.029 A 
ATOM     46  C   UNL     1      -9.797 -12.073  -5.978  1.00  0.00     0.049 A 
ATOM     47  H   UNL     1     -10.701 -12.832  -4.261  1.00  0.00     0.167 HD
ATOM     48  C   UNL     1     -12.408 -14.335  -0.522  1.00  0.00     0.031 A 
ATOM     49  C   UNL     1      -9.670 -13.094  -6.847  1.00  0.00     0.031 A 
ATOM     50  C   UNL     1     -12.371 -15.470  -1.403  1.00  0.00     0.049 A 
ATOM     51  C   UNL     1     -10.130 -14.466  -6.441  1.00  0.00     0.074 A 
ATOM     52  C   UNL     1     -12.835 -16.754  -1.173  1.00  0.00     0.029 A 
ATOM     53  N   UNL     1     -11.838 -15.459  -2.683  1.00  0.00    -0.354 N 
ATOM     54  N   UNL     1     -10.680 -14.848  -5.313  1.00  0.00    -0.248 NA
ATOM     55  C   UNL     1      -9.949 -15.544  -7.423  1.00  0.00     0.031 C 
ATOM     56  C   UNL     1     -12.546 -17.529  -2.302  1.00  0.00     0.029 A 
ATOM     57  C   UNL     1     -11.940 -16.718  -3.249  1.00  0.00     0.049 A 
ATOM     58  H   UNL     1     -11.444 -14.672  -3.123  1.00  0.00     0.167 HD
ATOM     59  C   UNL     1     -10.927 -16.208  -5.455  1.00  0.00     0.074 A 
ATOM     60  C   UNL     1     -10.475 -16.580  -6.781  1.00  0.00     0.031 C 
ATOM     61  C   UNL     1     -11.479 -17.070  -4.567  1.00  0.00     0.031 A 
BRANCH  48  62
ATOM     62  C   UNL     1     -12.952 -14.514   0.869  1.00  0.00    -0.014 A 
ATOM     63  C   UNL     1     -14.195 -13.966   1.234  1.00  0.00     0.010 A 
ATOM     64  C   UNL     1     -12.213 -15.235   1.823  1.00  0.00     0.010 A 
ATOM     65  C   UNL     1     -14.664 -14.088   2.544  1.00  0.00     0.020 A 
ATOM     66  C   UNL     1     -12.691 -15.381   3.129  1.00  0.00     0.020 A 
ATOM     67  C   UNL     1     -13.903 -14.785   3.486  1.00  0.00     0.054 A 
BRANCH  67  68
ATOM     68  S   UNL     1     -14.525 -14.920   5.184  1.00  0.00     0.124 S 
ATOM     69  O   UNL     1     -14.216 -13.597   5.722  1.00  0.00    -0.237 OA
ATOM     70  O   UNL     1     -15.945 -15.200   4.988  1.00  0.00    -0.237 OA
ATOM     71  O   UNL     1     -13.750 -16.020   5.751  1.00  0.00    -0.744 OA
ENDBRANCH  67  68
ENDBRANCH  48  62
BRANCH  49  72
ATOM     72  C   UNL     1      -9.092 -12.850  -8.195  1.00  0.00    -0.014 A 
ATOM     73  C   UNL     1      -9.927 -12.824  -9.325  1.00  0.00     0.010 A 
ATOM     74  C   UNL     1      -7.715 -12.613  -8.353  1.00  0.00     0.010 A 
ATOM     75  C   UNL     1      -9.395 -12.570 -10.592  1.00  0.00     0.020 A 
ATOM     76  C   UNL     1      -7.182 -12.338  -9.616  1.00  0.00     0.020 A 
ATOM     77  C   UNL     1      -8.026 -12.326 -10.729  1.00  0.00     0.054 A 
BRANCH  77  78
ATOM     78  S   UNL     1      -7.367 -11.930 -12.373  1.00  0.00     0.124 S 
ATOM     79  O   UNL     1      -7.330 -13.242 -13.009  1.00  0.00    -0.237 OA
ATOM     80  O   UNL     1      -8.364 -11.000 -12.899  1.00  0.00    -0.237 OA
ATOM     81  O   UNL     1      -6.065 -11.334 -12.083  1.00  0.00    -0.744 OA
ENDBRANCH  77  78
ENDBRANCH  49  72
BRANCH  61  82
ATOM     82  C   UNL     1     -11.642 -18.500  -5.003  1.00  0.00    -0.014 A 
ATOM     83  C   UNL     1     -10.544 -19.375  -5.029  1.00  0.00     0.010 A 
ATOM     84  C   UNL     1     -12.923 -18.988  -5.319  1.00  0.00     0.010 A 
ATOM     85  C   UNL     1     -10.721 -20.717  -5.378  1.00  0.00     0.020 A 
ATOM     86  C   UNL     1     -13.106 -20.333  -5.649  1.00  0.00     0.020 A 
ATOM     87  C   UNL     1     -12.002 -21.188  -5.683  1.00  0.00     0.054 A 
BRANCH  87  88
ATOM     88  S   UNL     1     -12.219 -22.948  -6.065  1.00  0.00     0.124 S 
ATOM     89  O   UNL     1     -11.719 -23.026  -7.434  1.00  0.00    -0.237 OA
ATOM     90  O   UNL     1     -11.390 -23.602  -5.055  1.00  0.00    -0.237 OA
ATOM     91  O   UNL     1     -13.657 -23.159  -5.912  1.00  0.00    -0.744 OA
ENDBRANCH  87  88
ENDBRANCH  61  82
ENDBRANCH  35  36
ENDBRANCH  27  30
ENDBRANCH  25  26
ENDBRANCH  24  25
ENDBRANCH   1  24
TORSDOF 20
