REMARK SMILES CC(C)Oc1ccccc1NCc1cc(C(=O)NCCCCNC(=O)c2ccc(-c3c4nc(c(-c5ccc(S(=O)(=O)[O-])cc5)c5ccc([nH]5)c(-c5ccc(S(=O)(=O)[O-])cc5)c5nc(c(-c6ccc(S(=O)(=O)[O-])cc6)c6ccc3[nH]6)C=C5)C=C4)cc2)cs1
REMARK SMILES IDX 19 1 18 2 16 3 17 4 15 6 13 7 14 8 87 9 86 10 12 11 11 12
REMARK SMILES IDX 10 14 5 15 6 16 7 17 9 18 8 19 4 20 2 21 1 22 3 23 20 24
REMARK SMILES IDX 21 25 22 26 23 27 24 28 25 30 26 31 27 32 85 33 28 34 84 35
REMARK SMILES IDX 29 36 30 37 31 38 78 39 32 40 83 41 77 42 79 43 33 44 82 45
REMARK SMILES IDX 76 46 75 47 34 49 64 50 45 51 63 52 46 53 49 54 62 55 80 56
REMARK SMILES IDX 47 57 48 58 61 60 81 61 50 62 35 63 36 64 44 65 37 66 43 67
REMARK SMILES IDX 38 68 39 69 40 70 41 71 42 72 65 73 66 74 74 75 67 76 73 77
REMARK SMILES IDX 68 78 69 79 70 80 71 81 72 82 51 83 52 84 60 85 53 86 59 87
REMARK SMILES IDX 54 88 55 89 56 90 57 91 58 92
REMARK H PARENT 18 5 11 13 23 29 79 48 49 59
REMARK Flexibility Score: inf
ROOT
ATOM      1  C   UNL     1       4.829   0.182   0.795  1.00  0.00     0.116 C 
ENDROOT
BRANCH   1   2
ATOM      2  N   UNL     1       5.654  -1.006   0.817  1.00  0.00    -0.352 N 
ATOM      3  C   UNL     1       5.327  -2.328   0.969  1.00  0.00     0.252 C 
ATOM      4  O   UNL     1       6.235  -3.152   0.816  1.00  0.00    -0.269 OA
ATOM      5  H   UNL     1       6.617  -0.835   0.703  1.00  0.00     0.163 HD
BRANCH   3   6
ATOM      6  C   UNL     1       3.951  -2.759   1.237  1.00  0.00     0.050 A 
ATOM      7  C   UNL     1       1.665  -2.760   1.835  1.00  0.00     0.024 A 
ATOM      8  C   UNL     1       2.869  -2.079   1.896  1.00  0.00     0.031 A 
ATOM      9  S   UNL     1       1.874  -4.315   1.162  1.00  0.00    -0.146 S 
ATOM     10  C   UNL     1       3.534  -4.032   0.877  1.00  0.00     0.079 A 
BRANCH   7  11
ATOM     11  C   UNL     1       0.306  -2.292   2.283  1.00  0.00     0.160 C 
BRANCH  11  12
ATOM     12  N   UNL     1      -0.344  -1.388   1.350  1.00  0.00    -0.377 N 
ATOM     13  H   UNL     1      -0.085  -0.441   1.411  1.00  0.00     0.161 HD
BRANCH  12  14
ATOM     14  C   UNL     1      -1.285  -1.702   0.387  1.00  0.00     0.077 A 
ATOM     15  C   UNL     1      -1.533  -0.810  -0.681  1.00  0.00     0.142 A 
ATOM     16  C   UNL     1      -2.553  -1.043  -1.611  1.00  0.00     0.048 A 
ATOM     17  C   UNL     1      -3.324  -2.197  -1.521  1.00  0.00     0.004 A 
ATOM     18  C   UNL     1      -2.048  -2.875   0.424  1.00  0.00     0.029 A 
ATOM     19  C   UNL     1      -3.066  -3.115  -0.508  1.00  0.00     0.002 A 
BRANCH  15  20
ATOM     20  O   UNL     1      -0.891   0.398  -0.755  1.00  0.00    -0.489 OA
BRANCH  20  21
ATOM     21  C   UNL     1       0.341   0.460  -1.498  1.00  0.00     0.167 C 
ATOM     22  C   UNL     1       1.488   0.611  -0.511  1.00  0.00     0.052 C 
ATOM     23  C   UNL     1       0.644  -0.644  -2.514  1.00  0.00     0.052 C 
ENDBRANCH  20  21
ENDBRANCH  15  20
ENDBRANCH  12  14
ENDBRANCH  11  12
ENDBRANCH   7  11
ENDBRANCH   3   6
ENDBRANCH   1   2
BRANCH   1  24
ATOM     24  C   UNL     1       4.994   1.004   2.070  1.00  0.00     0.023 C 
BRANCH  24  25
ATOM     25  C   UNL     1       6.255   1.871   2.086  1.00  0.00     0.023 C 
BRANCH  25  26
ATOM     26  C   UNL     1       6.327   2.929   0.988  1.00  0.00     0.116 C 
BRANCH  26  27
ATOM     27  N   UNL     1       5.211   3.864   1.014  1.00  0.00    -0.352 N 
ATOM     28  C   UNL     1       5.229   5.221   0.793  1.00  0.00     0.251 C 
ATOM     29  H   UNL     1       4.330   3.474   1.216  1.00  0.00     0.163 HD
ATOM     30  O   UNL     1       4.215   5.890   0.969  1.00  0.00    -0.269 OA
BRANCH  28  31
ATOM     31  C   UNL     1       6.492   5.867   0.379  1.00  0.00     0.039 A 
ATOM     32  C   UNL     1       6.937   6.994   1.074  1.00  0.00     0.014 A 
ATOM     33  C   UNL     1       7.257   5.329  -0.659  1.00  0.00     0.014 A 
ATOM     34  C   UNL     1       8.188   7.537   0.775  1.00  0.00     0.010 A 
ATOM     35  C   UNL     1       8.534   5.825  -0.902  1.00  0.00     0.010 A 
ATOM     36  C   UNL     1       9.015   6.932  -0.186  1.00  0.00    -0.014 A 
BRANCH  36  37
ATOM     37  C   UNL     1      10.386   7.437  -0.454  1.00  0.00     0.031 A 
ATOM     38  C   UNL     1      10.740   7.974  -1.815  1.00  0.00     0.074 A 
ATOM     39  C   UNL     1      11.329   7.355   0.507  1.00  0.00     0.049 A 
ATOM     40  N   UNL     1      11.896   8.396  -2.259  1.00  0.00    -0.248 NA
ATOM     41  C   UNL     1       9.660   8.021  -2.816  1.00  0.00     0.031 C 
ATOM     42  C   UNL     1      11.123   6.819   1.856  1.00  0.00     0.029 A 
ATOM     43  N   UNL     1      12.654   7.716   0.496  1.00  0.00    -0.354 N 
ATOM     44  C   UNL     1      11.686   8.746  -3.588  1.00  0.00     0.074 A 
ATOM     45  C   UNL     1      10.308   8.436  -3.895  1.00  0.00     0.031 C 
ATOM     46  C   UNL     1      12.271   6.912   2.548  1.00  0.00     0.029 A 
ATOM     47  C   UNL     1      13.305   7.471   1.683  1.00  0.00     0.049 A 
ATOM     48  H   UNL     1      13.097   8.114  -0.288  1.00  0.00     0.167 HD
ATOM     49  C   UNL     1      12.556   9.298  -4.467  1.00  0.00     0.031 A 
ATOM     50  C   UNL     1      14.592   7.665   2.035  1.00  0.00     0.031 A 
ATOM     51  C   UNL     1      13.924   9.617  -4.155  1.00  0.00     0.049 A 
ATOM     52  C   UNL     1      15.544   8.258   1.030  1.00  0.00     0.074 A 
ATOM     53  C   UNL     1      14.870  10.221  -4.965  1.00  0.00     0.029 A 
ATOM     54  N   UNL     1      14.541   9.359  -2.941  1.00  0.00    -0.354 N 
ATOM     55  N   UNL     1      15.308   8.640  -0.203  1.00  0.00    -0.248 NA
ATOM     56  C   UNL     1      16.932   8.458   1.468  1.00  0.00     0.031 C 
ATOM     57  C   UNL     1      16.075  10.279  -4.258  1.00  0.00     0.029 A 
ATOM     58  C   UNL     1      15.862   9.772  -2.986  1.00  0.00     0.049 A 
ATOM     59  H   UNL     1      14.105   8.945  -2.162  1.00  0.00     0.167 HD
ATOM     60  C   UNL     1      16.510   9.156  -0.675  1.00  0.00     0.074 A 
ATOM     61  C   UNL     1      17.465   9.053   0.409  1.00  0.00     0.031 C 
ATOM     62  C   UNL     1      16.798   9.671  -1.896  1.00  0.00     0.031 A 
BRANCH  49  63
ATOM     63  C   UNL     1      12.052   9.601  -5.854  1.00  0.00    -0.014 A 
ATOM     64  C   UNL     1      11.122  10.633  -6.078  1.00  0.00     0.010 A 
ATOM     65  C   UNL     1      12.561   8.889  -6.955  1.00  0.00     0.010 A 
ATOM     66  C   UNL     1      10.688  10.926  -7.373  1.00  0.00     0.020 A 
ATOM     67  C   UNL     1      12.152   9.199  -8.256  1.00  0.00     0.020 A 
ATOM     68  C   UNL     1      11.208  10.209  -8.454  1.00  0.00     0.054 A 
BRANCH  68  69
ATOM     69  S   UNL     1      10.659  10.644 -10.127  1.00  0.00     0.124 S 
ATOM     70  O   UNL     1       9.282  10.156 -10.128  1.00  0.00    -0.237 OA
ATOM     71  O   UNL     1      10.810  12.097 -10.144  1.00  0.00    -0.237 OA
ATOM     72  O   UNL     1      11.578   9.914 -10.996  1.00  0.00    -0.744 OA
ENDBRANCH  68  69
ENDBRANCH  49  63
BRANCH  50  73
ATOM     73  C   UNL     1      15.062   7.298   3.401  1.00  0.00    -0.014 A 
ATOM     74  C   UNL     1      15.460   8.292   4.312  1.00  0.00     0.010 A 
ATOM     75  C   UNL     1      15.132   5.948   3.791  1.00  0.00     0.010 A 
ATOM     76  C   UNL     1      15.951   7.943   5.574  1.00  0.00     0.020 A 
ATOM     77  C   UNL     1      15.591   5.596   5.064  1.00  0.00     0.020 A 
ATOM     78  C   UNL     1      16.015   6.596   5.941  1.00  0.00     0.054 A 
BRANCH  78  79
ATOM     79  S   UNL     1      16.633   6.166   7.592  1.00  0.00     0.124 S 
ATOM     80  O   UNL     1      18.062   6.428   7.458  1.00  0.00    -0.237 OA
ATOM     81  O   UNL     1      15.897   7.088   8.454  1.00  0.00    -0.237 OA
ATOM     82  O   UNL     1      16.264   4.760   7.739  1.00  0.00    -0.744 OA
ENDBRANCH  78  79
ENDBRANCH  50  73
BRANCH  62  83
ATOM     83  C   UNL     1      18.188  10.208  -2.116  1.00  0.00    -0.014 A 
ATOM     84  C   UNL     1      19.297   9.351  -2.219  1.00  0.00     0.010 A 
ATOM     85  C   UNL     1      18.374  11.594  -2.281  1.00  0.00     0.010 A 
ATOM     86  C   UNL     1      20.573   9.873  -2.452  1.00  0.00     0.020 A 
ATOM     87  C   UNL     1      19.642  12.116  -2.546  1.00  0.00     0.020 A 
ATOM     88  C   UNL     1      20.736  11.253  -2.616  1.00  0.00     0.054 A 
BRANCH  88  89
ATOM     89  S   UNL     1      22.395  11.899  -2.965  1.00  0.00     0.124 S 
ATOM     90  O   UNL     1      23.060  11.742  -1.674  1.00  0.00    -0.237 OA
ATOM     91  O   UNL     1      22.866  11.013  -4.027  1.00  0.00    -0.237 OA
ATOM     92  O   UNL     1      22.150  13.280  -3.376  1.00  0.00    -0.744 OA
ENDBRANCH  88  89
ENDBRANCH  62  83
ENDBRANCH  36  37
ENDBRANCH  28  31
ENDBRANCH  26  27
ENDBRANCH  25  26
ENDBRANCH  24  25
ENDBRANCH   1  24
TORSDOF 19
