REMARK SMILES Cc1cc(F)cc(N[C@@](C)(C(=O)NCCCCNC(=O)c2ccc(-c3c4nc(c(-c5ccc(S(=O)(=O)[O-])cc5)c5ccc([nH]5)c(-c5ccc(S(=O)(=O)[O-])cc5)c5nc(c(-c6ccc(S(=O)(=O)[O-])cc6)c6ccc3[nH]6)C=C5)C=C4)cc2)c2ccc(O)cc2)c1
REMARK SMILES IDX 16 1 15 2 14 3 13 4 11 5 12 6 9 8 10 9 8 10 7 12 1 13 2 14
REMARK SMILES IDX 3 15 88 16 4 17 5 18 6 19 81 20 82 21 87 22 83 23 86 24
REMARK SMILES IDX 84 25 85 26 17 28 18 29 19 30 20 32 21 33 22 34 80 35 23 36
REMARK SMILES IDX 79 37 24 38 25 39 26 40 73 41 27 42 78 43 72 44 74 45 28 46
REMARK SMILES IDX 77 47 71 48 70 49 29 51 59 52 40 53 58 54 41 55 44 56 57 57
REMARK SMILES IDX 75 58 42 59 43 60 56 62 76 63 45 64 30 65 31 66 39 67 32 68
REMARK SMILES IDX 38 69 33 70 34 71 35 72 36 73 37 74 60 75 61 76 69 77 62 78
REMARK SMILES IDX 68 79 63 80 64 81 65 82 66 83 67 84 46 85 47 86 55 87 48 88
REMARK SMILES IDX 54 89 49 90 50 91 51 92 52 93 53 94
REMARK H PARENT 13 7 8 11 85 27 18 31 74 50 44 61
REMARK Flexibility Score: inf
ROOT
ATOM      1  C   UNL     1       3.072  -6.468   2.331  1.00  0.00     0.023 C 
ENDROOT
BRANCH   1   2
ATOM      2  C   UNL     1       2.755  -5.530   1.164  1.00  0.00     0.023 C 
BRANCH   2   3
ATOM      3  C   UNL     1       1.448  -5.819   0.429  1.00  0.00     0.116 C 
BRANCH   3   4
ATOM      4  N   UNL     1       0.288  -5.581   1.266  1.00  0.00    -0.354 N 
ATOM      5  C   UNL     1      -0.780  -4.729   1.165  1.00  0.00     0.250 C 
ATOM      6  O   UNL     1      -1.482  -4.688   2.183  1.00  0.00    -0.272 OA
ATOM      7  H   UNL     1       0.262  -6.149   2.070  1.00  0.00     0.163 HD
BRANCH   5   8
ATOM      8  C   UNL     1      -1.075  -3.862  -0.135  1.00  0.00     0.139 C 
ATOM      9  C   UNL     1      -1.110  -4.771  -1.390  1.00  0.00     0.051 C 
BRANCH   8  10
ATOM     10  N   UNL     1       0.051  -2.897  -0.292  1.00  0.00    -0.368 N 
ATOM     11  H   UNL     1       0.770  -3.205  -0.890  1.00  0.00     0.161 HD
BRANCH  10  12
ATOM     12  C   UNL     1       0.261  -1.642   0.256  1.00  0.00     0.038 A 
ATOM     13  C   UNL     1       2.872   1.121  -0.267  1.00  0.00     0.044 C 
ATOM     14  C   UNL     1       1.631   0.411   0.182  1.00  0.00    -0.046 A 
ATOM     15  C   UNL     1       0.632   1.102   0.863  1.00  0.00     0.042 A 
ATOM     16  C   UNL     1       1.420  -0.942  -0.138  1.00  0.00     0.029 A 
ATOM     17  C   UNL     1      -0.488   0.413   1.306  1.00  0.00     0.125 A 
ATOM     18  F   UNL     1      -1.449   1.082   1.958  1.00  0.00    -0.207 F 
ATOM     19  C   UNL     1      -0.651  -0.949   1.052  1.00  0.00     0.065 A 
ENDBRANCH  10  12
ENDBRANCH   8  10
BRANCH   8  20
ATOM     20  C   UNL     1      -2.478  -3.185  -0.168  1.00  0.00    -0.013 A 
ATOM     21  C   UNL     1      -2.714  -2.046  -0.969  1.00  0.00     0.010 A 
ATOM     22  C   UNL     1      -3.580  -3.699   0.543  1.00  0.00     0.010 A 
ATOM     23  C   UNL     1      -3.930  -1.360  -0.922  1.00  0.00     0.046 A 
ATOM     24  C   UNL     1      -4.803  -3.023   0.585  1.00  0.00     0.046 A 
ATOM     25  C   UNL     1      -4.954  -1.838  -0.120  1.00  0.00     0.115 A 
BRANCH  25  26
ATOM     26  O   UNL     1      -6.105  -1.112  -0.042  1.00  0.00    -0.508 OA
ATOM     27  H   UNL     1      -6.189  -0.314  -0.526  1.00  0.00     0.293 HD
ENDBRANCH  25  26
ENDBRANCH   8  20
ENDBRANCH   5   8
ENDBRANCH   3   4
ENDBRANCH   2   3
ENDBRANCH   1   2
BRANCH   1  28
ATOM     28  C   UNL     1       3.095  -7.957   2.000  1.00  0.00     0.116 C 
BRANCH  28  29
ATOM     29  N   UNL     1       4.042  -8.297   0.947  1.00  0.00    -0.352 N 
ATOM     30  C   UNL     1       4.984  -9.298   0.907  1.00  0.00     0.251 C 
ATOM     31  H   UNL     1       4.000  -7.727   0.145  1.00  0.00     0.163 HD
ATOM     32  O   UNL     1       5.774  -9.352  -0.025  1.00  0.00    -0.269 OA
BRANCH  30  33
ATOM     33  C   UNL     1       5.063 -10.286   2.010  1.00  0.00     0.039 A 
ATOM     34  C   UNL     1       6.314 -10.588   2.554  1.00  0.00     0.014 A 
ATOM     35  C   UNL     1       3.913 -10.902   2.510  1.00  0.00     0.014 A 
ATOM     36  C   UNL     1       6.403 -11.449   3.652  1.00  0.00     0.010 A 
ATOM     37  C   UNL     1       3.997 -11.705   3.645  1.00  0.00     0.010 A 
ATOM     38  C   UNL     1       5.241 -11.984   4.232  1.00  0.00    -0.014 A 
BRANCH  38  39
ATOM     39  C   UNL     1       5.303 -12.819   5.461  1.00  0.00     0.031 A 
ATOM     40  C   UNL     1       4.848 -14.254   5.428  1.00  0.00     0.074 A 
ATOM     41  C   UNL     1       5.689 -12.261   6.628  1.00  0.00     0.049 A 
ATOM     42  N   UNL     1       4.750 -15.109   6.413  1.00  0.00    -0.248 NA
ATOM     43  C   UNL     1       4.422 -14.791   4.124  1.00  0.00     0.031 C 
ATOM     44  C   UNL     1       6.100 -10.865   6.807  1.00  0.00     0.029 A 
ATOM     45  N   UNL     1       5.780 -12.795   7.890  1.00  0.00    -0.354 N 
ATOM     46  C   UNL     1       4.222 -16.269   5.858  1.00  0.00     0.074 A 
ATOM     47  C   UNL     1       3.993 -16.001   4.455  1.00  0.00     0.031 C 
ATOM     48  C   UNL     1       6.408 -10.658   8.098  1.00  0.00     0.029 A 
ATOM     49  C   UNL     1       6.183 -11.891   8.846  1.00  0.00     0.049 A 
ATOM     50  H   UNL     1       5.576 -13.736   8.092  1.00  0.00     0.167 HD
ATOM     51  C   UNL     1       3.963 -17.454   6.460  1.00  0.00     0.031 A 
ATOM     52  C   UNL     1       6.341 -12.031  10.177  1.00  0.00     0.031 A 
ATOM     53  C   UNL     1       4.228 -17.732   7.846  1.00  0.00     0.049 A 
ATOM     54  C   UNL     1       6.075 -13.370  10.812  1.00  0.00     0.074 A 
ATOM     55  C   UNL     1       4.088 -18.933   8.521  1.00  0.00     0.029 A 
ATOM     56  N   UNL     1       4.683 -16.805   8.769  1.00  0.00    -0.354 N 
ATOM     57  N   UNL     1       5.668 -14.482  10.248  1.00  0.00    -0.248 NA
ATOM     58  C   UNL     1       6.302 -13.477  12.261  1.00  0.00     0.031 C 
ATOM     59  C   UNL     1       4.411 -18.719   9.864  1.00  0.00     0.029 A 
ATOM     60  C   UNL     1       4.805 -17.399  10.013  1.00  0.00     0.049 A 
ATOM     61  H   UNL     1       4.890 -15.863   8.569  1.00  0.00     0.167 HD
ATOM     62  C   UNL     1       5.621 -15.427  11.268  1.00  0.00     0.074 A 
ATOM     63  C   UNL     1       6.055 -14.761  12.478  1.00  0.00     0.031 C 
ATOM     64  C   UNL     1       5.251 -16.729  11.207  1.00  0.00     0.031 A 
BRANCH  51  65
ATOM     65  C   UNL     1       3.358 -18.554   5.628  1.00  0.00    -0.014 A 
ATOM     66  C   UNL     1       4.119 -19.242   4.667  1.00  0.00     0.010 A 
ATOM     67  C   UNL     1       2.035 -18.964   5.878  1.00  0.00     0.010 A 
ATOM     68  C   UNL     1       3.561 -20.308   3.956  1.00  0.00     0.020 A 
ATOM     69  C   UNL     1       1.482 -20.044   5.186  1.00  0.00     0.020 A 
ATOM     70  C   UNL     1       2.247 -20.704   4.222  1.00  0.00     0.054 A 
BRANCH  70  71
ATOM     71  S   UNL     1       1.570 -22.130   3.328  1.00  0.00     0.124 S 
ATOM     72  O   UNL     1       1.356 -21.575   1.994  1.00  0.00    -0.237 OA
ATOM     73  O   UNL     1       2.645 -23.114   3.433  1.00  0.00    -0.237 OA
ATOM     74  O   UNL     1       0.354 -22.459   4.068  1.00  0.00    -0.744 OA
ENDBRANCH  70  71
ENDBRANCH  51  65
BRANCH  52  75
ATOM     75  C   UNL     1       6.766 -10.873  11.010  1.00  0.00    -0.014 A 
ATOM     76  C   UNL     1       8.039 -10.847  11.607  1.00  0.00     0.010 A 
ATOM     77  C   UNL     1       5.886  -9.798  11.233  1.00  0.00     0.010 A 
ATOM     78  C   UNL     1       8.409  -9.788  12.442  1.00  0.00     0.020 A 
ATOM     79  C   UNL     1       6.263  -8.724  12.043  1.00  0.00     0.020 A 
ATOM     80  C   UNL     1       7.516  -8.736  12.659  1.00  0.00     0.054 A 
BRANCH  80  81
ATOM     81  S   UNL     1       8.020  -7.363  13.734  1.00  0.00     0.124 S 
ATOM     82  O   UNL     1       7.882  -7.953  15.061  1.00  0.00    -0.237 OA
ATOM     83  O   UNL     1       9.389  -7.103  13.295  1.00  0.00    -0.237 OA
ATOM     84  O   UNL     1       7.061  -6.309  13.412  1.00  0.00    -0.744 OA
ENDBRANCH  80  81
ENDBRANCH  52  75
BRANCH  64  85
ATOM     85  C   UNL     1       5.340 -17.539  12.472  1.00  0.00    -0.014 A 
ATOM     86  C   UNL     1       4.423 -17.358  13.521  1.00  0.00     0.010 A 
ATOM     87  C   UNL     1       6.325 -18.538  12.585  1.00  0.00     0.010 A 
ATOM     88  C   UNL     1       4.507 -18.143  14.675  1.00  0.00     0.020 A 
ATOM     89  C   UNL     1       6.395 -19.342  13.724  1.00  0.00     0.020 A 
ATOM     90  C   UNL     1       5.494 -19.130  14.769  1.00  0.00     0.054 A 
BRANCH  90  91
ATOM     91  S   UNL     1       5.554 -20.167  16.255  1.00  0.00     0.124 S 
ATOM     92  O   UNL     1       6.133 -19.255  17.238  1.00  0.00    -0.237 OA
ATOM     93  O   UNL     1       4.150 -20.511  16.466  1.00  0.00    -0.237 OA
ATOM     94  O   UNL     1       6.410 -21.285  15.863  1.00  0.00    -0.744 OA
ENDBRANCH  90  91
ENDBRANCH  64  85
ENDBRANCH  38  39
ENDBRANCH  30  33
ENDBRANCH  28  29
ENDBRANCH   1  28
TORSDOF 18
