REMARK SMILES Cc1ccc(Cn2c(C)c(C[NH2+]C[C@@H]3CCCO3)c(C(=O)NCCCCNC(=O)c3ccc(-c4c5nc(c(-c6ccc(S(=O)(=O)[O-])cc6)c6ccc([nH]6)c(-c6ccc(S(=O)(=O)[O-])cc6)c6nc(c(-c7ccc(S(=O)(=O)[O-])cc7)c7ccc4[nH]7)C=C6)C=C5)cc3)c2C)cc1
REMARK SMILES IDX 24 1 23 2 22 3 20 4 21 5 19 7 7 8 8 9 90 10 9 11 10 12 91 13
REMARK SMILES IDX 6 14 5 15 1 16 2 17 3 18 93 19 4 20 92 21 11 22 12 23 13 26
REMARK SMILES IDX 14 27 15 28 18 29 16 30 17 31 25 32 26 33 27 34 28 35 29 37
REMARK SMILES IDX 30 38 31 39 89 40 32 41 88 42 33 43 34 44 35 45 82 46 36 47
REMARK SMILES IDX 87 48 81 49 83 50 37 51 86 52 80 53 79 54 38 56 68 57 49 58
REMARK SMILES IDX 67 59 50 60 53 61 66 62 84 63 51 64 52 65 65 67 85 68 54 69
REMARK SMILES IDX 39 70 40 71 48 72 41 73 47 74 42 75 43 76 44 77 45 78 46 79
REMARK SMILES IDX 69 80 70 81 78 82 71 83 77 84 72 85 73 86 74 87 75 88 76 89
REMARK SMILES IDX 55 90 56 91 64 92 57 93 63 94 58 95 59 96 60 97 61 98 62 99
REMARK H PARENT 22 6 12 24 12 25 27 36 83 55 53 66
REMARK Flexibility Score: inf
ROOT
ATOM      1  C   UNL     1      -3.429  -5.529   0.050  1.00  0.00     0.023 C 
ENDROOT
BRANCH   1   2
ATOM      2  C   UNL     1      -2.950  -4.845  -1.358  1.00  0.00     0.116 C 
BRANCH   2   3
ATOM      3  N   UNL     1      -3.996  -4.607  -2.361  1.00  0.00    -0.352 N 
ATOM      4  C   UNL     1      -4.331  -3.531  -3.139  1.00  0.00     0.253 C 
ATOM      5  O   UNL     1      -4.643  -3.801  -4.303  1.00  0.00    -0.269 OA
ATOM      6  H   UNL     1      -4.580  -5.386  -2.505  1.00  0.00     0.163 HD
BRANCH   4   7
ATOM      7  C   UNL     1      -4.376  -2.148  -2.645  1.00  0.00     0.069 A 
ATOM      8  N   UNL     1      -4.026  -0.261  -1.483  1.00  0.00    -0.343 N 
ATOM      9  C   UNL     1      -4.837   0.100  -2.543  1.00  0.00     0.025 A 
ATOM     10  C   UNL     1      -4.126  -1.639  -1.374  1.00  0.00     0.028 A 
ATOM     11  C   UNL     1      -5.504   1.420  -2.707  1.00  0.00     0.065 C 
ATOM     12  C   UNL     1      -5.004  -1.034  -3.340  1.00  0.00     0.040 A 
ATOM     13  C   UNL     1      -4.085  -2.333  -0.072  1.00  0.00     0.065 C 
BRANCH   8  14
ATOM     14  C   UNL     1      -3.474   0.634  -0.453  1.00  0.00     0.157 C 
BRANCH  14  15
ATOM     15  C   UNL     1      -1.964   0.634  -0.322  1.00  0.00    -0.028 A 
ATOM     16  C   UNL     1       2.363   0.599   0.112  1.00  0.00     0.044 C 
ATOM     17  C   UNL     1       0.868   0.667   0.013  1.00  0.00    -0.051 A 
ATOM     18  C   UNL     1       0.116  -0.480   0.217  1.00  0.00     0.004 A 
ATOM     19  C   UNL     1       0.184   1.824  -0.345  1.00  0.00     0.004 A 
ATOM     20  C   UNL     1      -1.265  -0.498   0.077  1.00  0.00     0.006 A 
ATOM     21  C   UNL     1      -1.214   1.807  -0.509  1.00  0.00     0.006 A 
ENDBRANCH  14  15
ENDBRANCH   8  14
BRANCH  12  22
ATOM     22  C   UNL     1      -5.873  -1.120  -4.583  1.00  0.00     0.300 C 
BRANCH  22  23
ATOM     23  N   UNL     1      -7.255  -1.321  -4.117  1.00  0.00    -0.340 N 
ATOM     24  H   UNL     1      -7.596  -0.441  -3.730  1.00  0.00     0.346 HD
ATOM     25  H   UNL     1      -7.231  -2.067  -3.423  1.00  0.00     0.346 HD
BRANCH  23  26
ATOM     26  C   UNL     1      -8.179  -1.750  -5.179  1.00  0.00     0.293 C 
BRANCH  26  27
ATOM     27  C   UNL     1      -8.059  -3.249  -5.514  1.00  0.00     0.173 C 
ATOM     28  C   UNL     1      -9.364  -3.926  -5.900  1.00  0.00     0.040 C 
ATOM     29  O   UNL     1      -7.658  -3.991  -4.346  1.00  0.00    -0.372 OA
ATOM     30  C   UNL     1      -9.007  -5.386  -5.710  1.00  0.00     0.031 C 
ATOM     31  C   UNL     1      -8.017  -5.360  -4.556  1.00  0.00     0.161 C 
ENDBRANCH  26  27
ENDBRANCH  23  26
ENDBRANCH  22  23
ENDBRANCH  12  22
ENDBRANCH   4   7
ENDBRANCH   2   3
ENDBRANCH   1   2
BRANCH   1  32
ATOM     32  C   UNL     1      -2.730  -6.730   1.043  1.00  0.00     0.023 C 
BRANCH  32  33
ATOM     33  C   UNL     1      -1.244  -6.571   1.688  1.00  0.00     0.116 C 
BRANCH  33  34
ATOM     34  N   UNL     1      -0.135  -7.713   2.210  1.00  0.00    -0.352 N 
ATOM     35  C   UNL     1       1.196  -8.396   2.057  1.00  0.00     0.251 C 
ATOM     36  H   UNL     1      -0.556  -8.142   2.990  1.00  0.00     0.163 HD
ATOM     37  O   UNL     1       1.723  -8.565   3.181  1.00  0.00    -0.269 OA
BRANCH  35  38
ATOM     38  C   UNL     1       2.200  -8.962   0.858  1.00  0.00     0.039 A 
ATOM     39  C   UNL     1       3.588  -8.619   0.781  1.00  0.00     0.014 A 
ATOM     40  C   UNL     1       1.837  -9.697  -0.269  1.00  0.00     0.014 A 
ATOM     41  C   UNL     1       4.244  -8.402  -0.523  1.00  0.00     0.010 A 
ATOM     42  C   UNL     1       2.402  -9.383  -1.557  1.00  0.00     0.010 A 
ATOM     43  C   UNL     1       3.492  -8.520  -1.712  1.00  0.00    -0.014 A 
BRANCH  43  44
ATOM     44  C   UNL     1       3.592  -7.587  -2.945  1.00  0.00     0.031 A 
ATOM     45  C   UNL     1       4.043  -8.134  -4.222  1.00  0.00     0.074 A 
ATOM     46  C   UNL     1       3.163  -6.292  -3.136  1.00  0.00     0.049 A 
ATOM     47  N   UNL     1       5.085  -7.749  -4.885  1.00  0.00    -0.248 NA
ATOM     48  C   UNL     1       3.216  -9.123  -4.899  1.00  0.00     0.031 C 
ATOM     49  C   UNL     1       3.225  -5.345  -4.275  1.00  0.00     0.029 A 
ATOM     50  N   UNL     1       2.528  -5.461  -2.241  1.00  0.00    -0.354 N 
ATOM     51  C   UNL     1       4.878  -8.212  -6.169  1.00  0.00     0.074 A 
ATOM     52  C   UNL     1       3.854  -9.235  -6.065  1.00  0.00     0.031 C 
ATOM     53  C   UNL     1       3.088  -4.071  -3.820  1.00  0.00     0.029 A 
ATOM     54  C   UNL     1       2.927  -4.136  -2.380  1.00  0.00     0.049 A 
ATOM     55  H   UNL     1       1.868  -5.769  -1.579  1.00  0.00     0.167 HD
ATOM     56  C   UNL     1       5.262  -7.506  -7.274  1.00  0.00     0.031 A 
ATOM     57  C   UNL     1       3.701  -3.588  -1.384  1.00  0.00     0.031 A 
ATOM     58  C   UNL     1       5.637  -6.124  -6.944  1.00  0.00     0.049 A 
ATOM     59  C   UNL     1       5.134  -3.462  -1.895  1.00  0.00     0.074 A 
ATOM     60  C   UNL     1       5.037  -4.903  -7.225  1.00  0.00     0.029 A 
ATOM     61  N   UNL     1       6.573  -5.864  -5.945  1.00  0.00    -0.354 N 
ATOM     62  N   UNL     1       5.543  -4.044  -2.989  1.00  0.00    -0.248 NA
ATOM     63  C   UNL     1       6.202  -2.670  -1.288  1.00  0.00     0.031 C 
ATOM     64  C   UNL     1       5.555  -3.932  -6.327  1.00  0.00     0.029 A 
ATOM     65  C   UNL     1       6.491  -4.550  -5.516  1.00  0.00     0.049 A 
ATOM     66  H   UNL     1       7.209  -6.526  -5.591  1.00  0.00     0.167 HD
ATOM     67  C   UNL     1       6.811  -3.662  -3.305  1.00  0.00     0.074 A 
ATOM     68  C   UNL     1       7.200  -2.825  -2.184  1.00  0.00     0.031 C 
ATOM     69  C   UNL     1       7.393  -4.040  -4.484  1.00  0.00     0.031 A 
BRANCH  56  70
ATOM     70  C   UNL     1       4.926  -7.994  -8.675  1.00  0.00    -0.014 A 
ATOM     71  C   UNL     1       4.765  -7.101  -9.751  1.00  0.00     0.010 A 
ATOM     72  C   UNL     1       4.799  -9.367  -8.988  1.00  0.00     0.010 A 
ATOM     73  C   UNL     1       4.414  -7.541 -11.038  1.00  0.00     0.020 A 
ATOM     74  C   UNL     1       4.398  -9.819 -10.254  1.00  0.00     0.020 A 
ATOM     75  C   UNL     1       4.216  -8.899 -11.279  1.00  0.00     0.054 A 
BRANCH  75  76
ATOM     76  S   UNL     1       3.783  -9.450 -12.951  1.00  0.00     0.124 S 
ATOM     77  O   UNL     1       2.588  -8.666 -13.251  1.00  0.00    -0.237 OA
ATOM     78  O   UNL     1       4.977  -9.094 -13.713  1.00  0.00    -0.237 OA
ATOM     79  O   UNL     1       3.554 -10.886 -12.797  1.00  0.00    -0.744 OA
ENDBRANCH  75  76
ENDBRANCH  56  70
BRANCH  57  80
ATOM     80  C   UNL     1       3.273  -3.992   0.061  1.00  0.00    -0.014 A 
ATOM     81  C   UNL     1       1.970  -3.606   0.444  1.00  0.00     0.010 A 
ATOM     82  C   UNL     1       3.516  -5.312   0.341  1.00  0.00     0.010 A 
ATOM     83  C   UNL     1       0.836  -4.454   0.275  1.00  0.00     0.020 A 
ATOM     84  C   UNL     1       2.392  -6.151   0.186  1.00  0.00     0.020 A 
ATOM     85  C   UNL     1       1.087  -5.786  -0.001  1.00  0.00     0.054 A 
BRANCH  85  86
ATOM     86  S   UNL     1      -0.025  -7.063  -1.030  1.00  0.00     0.124 S 
ATOM     87  O   UNL     1      -1.273  -6.420  -0.997  1.00  0.00    -0.237 OA
ATOM     88  O   UNL     1       0.560  -7.113  -2.363  1.00  0.00    -0.237 OA
ATOM     89  O   UNL     1      -0.144  -8.325  -0.331  1.00  0.00    -0.744 OA
ENDBRANCH  85  86
ENDBRANCH  57  80
BRANCH  69  90
ATOM     90  C   UNL     1       8.841  -3.867  -4.874  1.00  0.00    -0.014 A 
ATOM     91  C   UNL     1       9.880  -3.601  -3.974  1.00  0.00     0.010 A 
ATOM     92  C   UNL     1       9.212  -4.109  -6.223  1.00  0.00     0.010 A 
ATOM     93  C   UNL     1      11.211  -3.527  -4.408  1.00  0.00     0.020 A 
ATOM     94  C   UNL     1      10.536  -4.093  -6.656  1.00  0.00     0.020 A 
ATOM     95  C   UNL     1      11.530  -3.774  -5.745  1.00  0.00     0.054 A 
BRANCH  95  96
ATOM     96  S   UNL     1      13.259  -3.725  -6.270  1.00  0.00     0.124 S 
ATOM     97  O   UNL     1      13.502  -2.288  -6.367  1.00  0.00    -0.237 OA
ATOM     98  O   UNL     1      13.946  -4.404  -5.173  1.00  0.00    -0.237 OA
ATOM     99  O   UNL     1      13.261  -4.448  -7.539  1.00  0.00    -0.744 OA
ENDBRANCH  95  96
ENDBRANCH  69  90
ENDBRANCH  43  44
ENDBRANCH  35  38
ENDBRANCH  33  34
ENDBRANCH  32  33
ENDBRANCH   1  32
TORSDOF 20
