REMARK SMILES C[C@H](CC(=O)NCCCCNC(=O)c1ccc(-c2c3nc(c(-c4ccc(S(=O)(=O)[O-])cc4)c4ccc([nH]4)c(-c4ccc(S(=O)(=O)[O-])cc4)c4nc(c(-c5ccc(S(=O)(=O)[O-])cc5)c5ccc2[nH]5)C=C4)C=C3)cc1)c1ccc(O)cc1
REMARK SMILES IDX 8 1 7 2 6 3 4 4 5 5 3 7 2 8 1 9 74 10 75 11 80 12 76 13
REMARK SMILES IDX 79 14 77 15 78 16 9 18 10 19 11 20 12 21 13 23 14 24 15 25
REMARK SMILES IDX 73 26 16 27 72 28 17 29 18 30 19 31 66 32 20 33 71 34 65 35
REMARK SMILES IDX 67 36 21 37 70 38 64 39 63 40 22 42 52 43 33 44 51 45 34 46
REMARK SMILES IDX 37 47 50 48 68 49 35 50 36 51 49 53 69 54 38 55 23 56 24 57
REMARK SMILES IDX 32 58 25 59 31 60 26 61 27 62 28 63 29 64 30 65 53 66 54 67
REMARK SMILES IDX 62 68 55 69 61 70 56 71 57 72 58 73 59 74 60 75 39 76 40 77
REMARK SMILES IDX 48 78 41 79 47 80 42 81 43 82 44 83 45 84 46 85
REMARK H PARENT 6 6 78 17 11 22 67 41 37 52
REMARK Flexibility Score: inf
ROOT
ATOM      1  C   UNL     1      -2.047  -1.913   1.031  1.00  0.00     0.023 C 
ENDROOT
BRANCH   1   2
ATOM      2  C   UNL     1      -1.445  -0.640   1.616  1.00  0.00     0.116 C 
BRANCH   2   3
ATOM      3  N   UNL     1      -0.057  -0.857   1.960  1.00  0.00    -0.356 N 
ATOM      4  C   UNL     1       1.052  -0.671   1.195  1.00  0.00     0.220 C 
ATOM      5  O   UNL     1       2.138  -1.047   1.641  1.00  0.00    -0.275 OA
ATOM      6  H   UNL     1       0.107  -1.183   2.874  1.00  0.00     0.163 HD
BRANCH   4   7
ATOM      7  C   UNL     1       0.966   0.023  -0.156  1.00  0.00     0.108 C 
BRANCH   7   8
ATOM      8  C   UNL     1       0.664  -0.854  -1.402  1.00  0.00     0.025 C 
ATOM      9  C   UNL     1       1.307  -2.243  -1.264  1.00  0.00     0.013 C 
BRANCH   8  10
ATOM     10  C   UNL     1      -0.800  -0.851  -1.852  1.00  0.00    -0.044 A 
ATOM     11  C   UNL     1      -1.494   0.370  -1.956  1.00  0.00     0.008 A 
ATOM     12  C   UNL     1      -1.502  -2.022  -2.197  1.00  0.00     0.008 A 
ATOM     13  C   UNL     1      -2.859   0.407  -2.254  1.00  0.00     0.046 A 
ATOM     14  C   UNL     1      -2.872  -1.988  -2.499  1.00  0.00     0.046 A 
ATOM     15  C   UNL     1      -3.546  -0.775  -2.486  1.00  0.00     0.115 A 
BRANCH  15  16
ATOM     16  O   UNL     1      -4.891  -0.697  -2.677  1.00  0.00    -0.508 OA
ATOM     17  H   UNL     1      -5.319   0.136  -2.663  1.00  0.00     0.293 HD
ENDBRANCH  15  16
ENDBRANCH   8  10
ENDBRANCH   7   8
ENDBRANCH   4   7
ENDBRANCH   2   3
ENDBRANCH   1   2
BRANCH   1  18
ATOM     18  C   UNL     1      -2.913  -2.725   1.981  1.00  0.00     0.023 C 
BRANCH  18  19
ATOM     19  C   UNL     1      -4.215  -2.034   2.361  1.00  0.00     0.116 C 
BRANCH  19  20
ATOM     20  N   UNL     1      -5.064  -1.697   1.222  1.00  0.00    -0.352 N 
ATOM     21  C   UNL     1      -6.436  -1.747   1.131  1.00  0.00     0.251 C 
ATOM     22  H   UNL     1      -4.592  -1.395   0.412  1.00  0.00     0.163 HD
ATOM     23  O   UNL     1      -6.987  -1.575   0.048  1.00  0.00    -0.269 OA
BRANCH  21  24
ATOM     24  C   UNL     1      -7.221  -2.066   2.346  1.00  0.00     0.039 A 
ATOM     25  C   UNL     1      -8.250  -3.006   2.269  1.00  0.00     0.014 A 
ATOM     26  C   UNL     1      -6.875  -1.503   3.576  1.00  0.00     0.014 A 
ATOM     27  C   UNL     1      -8.861  -3.452   3.444  1.00  0.00     0.010 A 
ATOM     28  C   UNL     1      -7.402  -2.029   4.747  1.00  0.00     0.010 A 
ATOM     29  C   UNL     1      -8.403  -3.009   4.697  1.00  0.00    -0.014 A 
BRANCH  29  30
ATOM     30  C   UNL     1      -8.950  -3.552   5.967  1.00  0.00     0.031 A 
ATOM     31  C   UNL     1      -9.593  -2.625   6.967  1.00  0.00     0.074 A 
ATOM     32  C   UNL     1      -8.787  -4.857   6.264  1.00  0.00     0.049 A 
ATOM     33  N   UNL     1     -10.052  -2.892   8.162  1.00  0.00    -0.248 NA
ATOM     34  C   UNL     1      -9.693  -1.205   6.591  1.00  0.00     0.031 C 
ATOM     35  C   UNL     1      -8.109  -5.846   5.420  1.00  0.00     0.029 A 
ATOM     36  N   UNL     1      -9.176  -5.579   7.365  1.00  0.00    -0.354 N 
ATOM     37  C   UNL     1     -10.458  -1.671   8.691  1.00  0.00     0.074 A 
ATOM     38  C   UNL     1     -10.137  -0.658   7.711  1.00  0.00     0.031 C 
ATOM     39  C   UNL     1      -8.169  -7.049   6.013  1.00  0.00     0.029 A 
ATOM     40  C   UNL     1      -8.857  -6.915   7.292  1.00  0.00     0.049 A 
ATOM     41  H   UNL     1      -9.641  -5.178   8.134  1.00  0.00     0.167 HD
ATOM     42  C   UNL     1     -11.071  -1.417   9.872  1.00  0.00     0.031 A 
ATOM     43  C   UNL     1      -9.099  -7.920   8.155  1.00  0.00     0.031 A 
ATOM     44  C   UNL     1     -11.432  -2.432  10.823  1.00  0.00     0.049 A 
ATOM     45  C   UNL     1      -9.846  -7.627   9.426  1.00  0.00     0.074 A 
ATOM     46  C   UNL     1     -12.120  -2.291  12.015  1.00  0.00     0.029 A 
ATOM     47  N   UNL     1     -11.146  -3.781  10.681  1.00  0.00    -0.354 N 
ATOM     48  N   UNL     1     -10.281  -6.475   9.878  1.00  0.00    -0.248 NA
ATOM     49  C   UNL     1     -10.152  -8.772  10.294  1.00  0.00     0.031 C 
ATOM     50  C   UNL     1     -12.229  -3.554  12.607  1.00  0.00     0.029 A 
ATOM     51  C   UNL     1     -11.644  -4.485  11.763  1.00  0.00     0.049 A 
ATOM     52  H   UNL     1     -10.661  -4.179   9.922  1.00  0.00     0.167 HD
ATOM     53  C   UNL     1     -10.936  -6.761  11.070  1.00  0.00     0.074 A 
ATOM     54  C   UNL     1     -10.852  -8.195  11.260  1.00  0.00     0.031 C 
ATOM     55  C   UNL     1     -11.553  -5.913  11.930  1.00  0.00     0.031 A 
BRANCH  42  56
ATOM     56  C   UNL     1     -11.399   0.020  10.183  1.00  0.00    -0.014 A 
ATOM     57  C   UNL     1     -12.395   0.707   9.464  1.00  0.00     0.010 A 
ATOM     58  C   UNL     1     -10.712   0.691  11.210  1.00  0.00     0.010 A 
ATOM     59  C   UNL     1     -12.659   2.053   9.727  1.00  0.00     0.020 A 
ATOM     60  C   UNL     1     -10.994   2.030  11.498  1.00  0.00     0.020 A 
ATOM     61  C   UNL     1     -11.950   2.708  10.738  1.00  0.00     0.054 A 
BRANCH  61  62
ATOM     62  S   UNL     1     -12.315   4.455  11.064  1.00  0.00     0.124 S 
ATOM     63  O   UNL     1     -11.636   5.115   9.951  1.00  0.00    -0.237 OA
ATOM     64  O   UNL     1     -13.774   4.494  11.020  1.00  0.00    -0.237 OA
ATOM     65  O   UNL     1     -11.728   4.690  12.381  1.00  0.00    -0.744 OA
ENDBRANCH  61  62
ENDBRANCH  42  56
BRANCH  43  66
ATOM     66  C   UNL     1      -8.678  -9.308   7.818  1.00  0.00    -0.014 A 
ATOM     67  C   UNL     1      -9.636 -10.265   7.437  1.00  0.00     0.010 A 
ATOM     68  C   UNL     1      -7.322  -9.677   7.861  1.00  0.00     0.010 A 
ATOM     69  C   UNL     1      -9.248 -11.570   7.123  1.00  0.00     0.020 A 
ATOM     70  C   UNL     1      -6.928 -10.976   7.525  1.00  0.00     0.020 A 
ATOM     71  C   UNL     1      -7.896 -11.918   7.169  1.00  0.00     0.054 A 
BRANCH  71  72
ATOM     72  S   UNL     1      -7.408 -13.603   6.705  1.00  0.00     0.124 S 
ATOM     73  O   UNL     1      -7.789 -14.366   7.890  1.00  0.00    -0.237 OA
ATOM     74  O   UNL     1      -8.210 -13.848   5.509  1.00  0.00    -0.237 OA
ATOM     75  O   UNL     1      -5.971 -13.488   6.468  1.00  0.00    -0.744 OA
ENDBRANCH  71  72
ENDBRANCH  43  66
BRANCH  55  76
ATOM     76  C   UNL     1     -12.217  -6.521  13.134  1.00  0.00    -0.014 A 
ATOM     77  C   UNL     1     -11.461  -7.009  14.214  1.00  0.00     0.010 A 
ATOM     78  C   UNL     1     -13.622  -6.566  13.200  1.00  0.00     0.010 A 
ATOM     79  C   UNL     1     -12.099  -7.569  15.323  1.00  0.00     0.020 A 
ATOM     80  C   UNL     1     -14.263  -7.102  14.318  1.00  0.00     0.020 A 
ATOM     81  C   UNL     1     -13.496  -7.616  15.366  1.00  0.00     0.054 A 
BRANCH  81  82
ATOM     82  S   UNL     1     -14.305  -8.321  16.828  1.00  0.00     0.124 S 
ATOM     83  O   UNL     1     -14.140  -9.754  16.604  1.00  0.00    -0.237 OA
ATOM     84  O   UNL     1     -13.524  -7.763  17.930  1.00  0.00    -0.237 OA
ATOM     85  O   UNL     1     -15.677  -7.827  16.735  1.00  0.00    -0.744 OA
ENDBRANCH  81  82
ENDBRANCH  55  76
ENDBRANCH  29  30
ENDBRANCH  21  24
ENDBRANCH  19  20
ENDBRANCH  18  19
ENDBRANCH   1  18
TORSDOF 17
