REMARK SMILES CCCc1nnc(SCC(=O)NCCCCNC(=O)c2ccc(-c3c4nc(c(-c5ccc(S(=O)(=O)[O-])cc5)c5ccc([nH]5)c(-c5ccc(S(=O)(=O)[O-])cc5)c5nc(c(-c6ccc(S(=O)(=O)[O-])cc6)c6ccc3[nH]6)C=C5)C=C4)cc2)n1C[C@H]1CCCO1
REMARK SMILES IDX 14 1 13 2 12 3 10 4 11 5 9 7 8 8 7 9 4 10 5 11 80 12 6 13
REMARK SMILES IDX 3 14 2 15 1 16 81 17 82 18 83 19 86 20 84 21 85 22 15 23
REMARK SMILES IDX 16 24 17 25 18 26 19 28 20 29 21 30 79 31 22 32 78 33 23 34
REMARK SMILES IDX 24 35 25 36 72 37 26 38 77 39 71 40 73 41 27 42 76 43 70 44
REMARK SMILES IDX 69 45 28 47 58 48 39 49 57 50 40 51 43 52 56 53 74 54 41 55
REMARK SMILES IDX 42 56 55 58 75 59 44 60 29 61 30 62 38 63 31 64 37 65 32 66
REMARK SMILES IDX 33 67 34 68 35 69 36 70 59 71 60 72 68 73 61 74 67 75 62 76
REMARK SMILES IDX 63 77 64 78 65 79 66 80 45 81 46 82 54 83 47 84 53 85 48 86
REMARK SMILES IDX 49 87 50 88 51 89 52 90
REMARK H PARENT 12 6 17 27 73 46 43 57
REMARK Flexibility Score: inf
ROOT
ATOM      1  C   UNL     1       1.234   8.637  -1.185  1.00  0.00     0.023 C 
ENDROOT
BRANCH   1   2
ATOM      2  C   UNL     1      -0.182   8.171  -0.873  1.00  0.00     0.116 C 
BRANCH   2   3
ATOM      3  N   UNL     1      -0.466   6.893  -1.468  1.00  0.00    -0.355 N 
ATOM      4  C   UNL     1      -0.209   5.676  -0.929  1.00  0.00     0.230 C 
ATOM      5  O   UNL     1      -0.402   4.692  -1.643  1.00  0.00    -0.274 OA
ATOM      6  H   UNL     1      -0.890   6.902  -2.357  1.00  0.00     0.163 HD
BRANCH   4   7
ATOM      7  C   UNL     1       0.175   5.571   0.531  1.00  0.00     0.178 C 
BRANCH   7   8
ATOM      8  S   UNL     1       1.871   5.866   0.971  1.00  0.00    -0.076 SA
BRANCH   8   9
ATOM      9  C   UNL     1       2.838   4.448   0.796  1.00  0.00     0.191 A 
ATOM     10  C   UNL     1       3.787   2.664  -0.024  1.00  0.00     0.133 A 
ATOM     11  N   UNL     1       4.720   3.377   0.575  1.00  0.00    -0.134 NA
ATOM     12  N   UNL     1       2.547   3.195   0.315  1.00  0.00    -0.303 N 
ATOM     13  N   UNL     1       4.125   4.499   1.077  1.00  0.00    -0.123 NA
BRANCH  10  14
ATOM     14  C   UNL     1       4.077   1.663  -1.099  1.00  0.00     0.077 C 
BRANCH  14  15
ATOM     15  C   UNL     1       4.032   0.192  -0.698  1.00  0.00     0.005 C 
ATOM     16  C   UNL     1       2.649  -0.435  -0.773  1.00  0.00     0.004 C 
ENDBRANCH  14  15
ENDBRANCH  10  14
BRANCH  12  17
ATOM     17  C   UNL     1       1.278   2.569   0.049  1.00  0.00     0.158 C 
BRANCH  17  18
ATOM     18  C   UNL     1       0.554   1.862   1.216  1.00  0.00     0.138 C 
ATOM     19  C   UNL     1      -0.073   2.664   2.350  1.00  0.00     0.036 C 
ATOM     20  O   UNL     1      -0.547   1.123   0.649  1.00  0.00    -0.376 OA
ATOM     21  C   UNL     1      -1.522   2.868   1.956  1.00  0.00     0.031 C 
ATOM     22  C   UNL     1      -1.791   1.769   0.955  1.00  0.00     0.160 C 
ENDBRANCH  17  18
ENDBRANCH  12  17
ENDBRANCH   8   9
ENDBRANCH   7   8
ENDBRANCH   4   7
ENDBRANCH   2   3
ENDBRANCH   1   2
BRANCH   1  23
ATOM     23  C   UNL     1       1.614   8.685  -2.668  1.00  0.00     0.023 C 
BRANCH  23  24
ATOM     24  C   UNL     1       0.652   9.477  -3.538  1.00  0.00     0.116 C 
BRANCH  24  25
ATOM     25  N   UNL     1       0.363  10.791  -2.973  1.00  0.00    -0.352 N 
ATOM     26  C   UNL     1      -0.664  11.660  -3.284  1.00  0.00     0.251 C 
ATOM     27  H   UNL     1       0.985  11.100  -2.276  1.00  0.00     0.163 HD
ATOM     28  O   UNL     1      -0.618  12.829  -2.953  1.00  0.00    -0.269 OA
BRANCH  26  29
ATOM     29  C   UNL     1      -1.826  11.125  -4.015  1.00  0.00     0.039 A 
ATOM     30  C   UNL     1      -2.334  11.774  -5.138  1.00  0.00     0.014 A 
ATOM     31  C   UNL     1      -2.370   9.921  -3.579  1.00  0.00     0.014 A 
ATOM     32  C   UNL     1      -3.348  11.152  -5.860  1.00  0.00     0.010 A 
ATOM     33  C   UNL     1      -3.260   9.240  -4.363  1.00  0.00     0.010 A 
ATOM     34  C   UNL     1      -3.790   9.875  -5.474  1.00  0.00    -0.014 A 
BRANCH  34  35
ATOM     35  C   UNL     1      -4.728   9.124  -6.292  1.00  0.00     0.031 A 
ATOM     36  C   UNL     1      -4.279   8.911  -7.691  1.00  0.00     0.074 A 
ATOM     37  C   UNL     1      -5.804   8.489  -5.784  1.00  0.00     0.049 A 
ATOM     38  N   UNL     1      -4.732   9.502  -8.744  1.00  0.00    -0.248 NA
ATOM     39  C   UNL     1      -3.090   8.079  -7.940  1.00  0.00     0.031 C 
ATOM     40  C   UNL     1      -6.200   8.331  -4.378  1.00  0.00     0.029 A 
ATOM     41  N   UNL     1      -6.727   7.736  -6.435  1.00  0.00    -0.354 N 
ATOM     42  C   UNL     1      -4.050   8.945  -9.819  1.00  0.00     0.074 A 
ATOM     43  C   UNL     1      -2.929   8.234  -9.257  1.00  0.00     0.031 C 
ATOM     44  C   UNL     1      -7.119   7.343  -4.276  1.00  0.00     0.029 A 
ATOM     45  C   UNL     1      -7.504   6.929  -5.613  1.00  0.00     0.049 A 
ATOM     46  H   UNL     1      -6.837   7.760  -7.413  1.00  0.00     0.167 HD
ATOM     47  C   UNL     1      -4.604   8.908 -11.063  1.00  0.00     0.031 A 
ATOM     48  C   UNL     1      -8.372   5.966  -6.015  1.00  0.00     0.031 A 
ATOM     49  C   UNL     1      -5.799   9.712 -11.133  1.00  0.00     0.049 A 
ATOM     50  C   UNL     1      -8.731   6.276  -7.422  1.00  0.00     0.074 A 
ATOM     51  C   UNL     1      -6.083  11.049 -10.935  1.00  0.00     0.029 A 
ATOM     52  N   UNL     1      -6.998   9.046 -11.019  1.00  0.00    -0.354 N 
ATOM     53  N   UNL     1      -9.394   7.344  -7.768  1.00  0.00    -0.248 NA
ATOM     54  C   UNL     1      -7.945   5.663  -8.482  1.00  0.00     0.031 C 
ATOM     55  C   UNL     1      -7.326  11.057 -10.235  1.00  0.00     0.029 A 
ATOM     56  C   UNL     1      -7.775   9.739 -10.125  1.00  0.00     0.049 A 
ATOM     57  H   UNL     1      -7.253   8.221 -11.493  1.00  0.00     0.167 HD
ATOM     58  C   UNL     1      -8.766   7.794  -8.920  1.00  0.00     0.074 A 
ATOM     59  C   UNL     1      -7.947   6.666  -9.366  1.00  0.00     0.031 C 
ATOM     60  C   UNL     1      -8.745   9.122  -9.243  1.00  0.00     0.031 A 
BRANCH  47  61
ATOM     61  C   UNL     1      -4.309   7.849 -12.092  1.00  0.00    -0.014 A 
ATOM     62  C   UNL     1      -4.859   7.988 -13.383  1.00  0.00     0.010 A 
ATOM     63  C   UNL     1      -3.741   6.601 -11.766  1.00  0.00     0.010 A 
ATOM     64  C   UNL     1      -4.889   6.913 -14.279  1.00  0.00     0.020 A 
ATOM     65  C   UNL     1      -3.727   5.535 -12.668  1.00  0.00     0.020 A 
ATOM     66  C   UNL     1      -4.329   5.690 -13.910  1.00  0.00     0.054 A 
BRANCH  66  67
ATOM     67  S   UNL     1      -4.446   4.287 -15.047  1.00  0.00     0.124 S 
ATOM     68  O   UNL     1      -5.885   4.045 -15.079  1.00  0.00    -0.237 OA
ATOM     69  O   UNL     1      -3.866   4.834 -16.270  1.00  0.00    -0.237 OA
ATOM     70  O   UNL     1      -3.650   3.251 -14.394  1.00  0.00    -0.744 OA
ENDBRANCH  66  67
ENDBRANCH  47  61
BRANCH  48  71
ATOM     71  C   UNL     1      -8.612   4.635  -5.399  1.00  0.00    -0.014 A 
ATOM     72  C   UNL     1      -9.655   3.808  -5.860  1.00  0.00     0.010 A 
ATOM     73  C   UNL     1      -7.627   4.048  -4.579  1.00  0.00     0.010 A 
ATOM     74  C   UNL     1      -9.660   2.429  -5.589  1.00  0.00     0.020 A 
ATOM     75  C   UNL     1      -7.630   2.676  -4.298  1.00  0.00     0.020 A 
ATOM     76  C   UNL     1      -8.629   1.866  -4.833  1.00  0.00     0.054 A 
BRANCH  76  77
ATOM     77  S   UNL     1      -8.512   0.057  -4.680  1.00  0.00     0.124 S 
ATOM     78  O   UNL     1      -9.617  -0.251  -3.778  1.00  0.00    -0.237 OA
ATOM     79  O   UNL     1      -8.678  -0.389  -6.061  1.00  0.00    -0.237 OA
ATOM     80  O   UNL     1      -7.178  -0.154  -4.121  1.00  0.00    -0.744 OA
ENDBRANCH  76  77
ENDBRANCH  48  71
BRANCH  60  81
ATOM     81  C   UNL     1      -9.659  10.061  -8.485  1.00  0.00    -0.014 A 
ATOM     82  C   UNL     1      -9.621  10.258  -7.089  1.00  0.00     0.010 A 
ATOM     83  C   UNL     1     -10.514  10.875  -9.248  1.00  0.00     0.010 A 
ATOM     84  C   UNL     1     -10.452  11.210  -6.475  1.00  0.00     0.020 A 
ATOM     85  C   UNL     1     -11.327  11.838  -8.647  1.00  0.00     0.020 A 
ATOM     86  C   UNL     1     -11.306  11.990  -7.261  1.00  0.00     0.054 A 
BRANCH  86  87
ATOM     87  S   UNL     1     -12.382  13.219  -6.470  1.00  0.00     0.124 S 
ATOM     88  O   UNL     1     -13.316  12.386  -5.718  1.00  0.00    -0.237 OA
ATOM     89  O   UNL     1     -11.446  14.001  -5.665  1.00  0.00    -0.237 OA
ATOM     90  O   UNL     1     -12.970  13.943  -7.597  1.00  0.00    -0.744 OA
ENDBRANCH  86  87
ENDBRANCH  60  81
ENDBRANCH  34  35
ENDBRANCH  26  29
ENDBRANCH  24  25
ENDBRANCH  23  24
ENDBRANCH   1  23
TORSDOF 20
