REMARK SMILES O=C(NCCCCNC(=O)[C@H]1CC(=O)N(CCC2=c3ccccc3=NC2)C1)c1ccc(-c2c3nc(c(-c4ccc(S(=O)(=O)[O-])cc4)c4ccc([nH]4)c(-c4ccc(S(=O)(=O)[O-])cc4)c4nc(c(-c5ccc(S(=O)(=O)[O-])cc5)c5ccc2[nH]5)C=C4)C=C3)cc1
REMARK SMILES IDX 5 1 4 2 3 3 1 4 2 5 28 7 29 8 87 9 30 10 86 11 31 12 32 13
REMARK SMILES IDX 33 14 80 15 34 16 85 17 79 18 81 19 35 20 84 21 78 22 77 23
REMARK SMILES IDX 36 25 66 26 47 27 65 28 48 29 51 30 64 31 82 32 49 33 50 34
REMARK SMILES IDX 63 36 83 37 52 38 37 39 38 40 46 41 39 42 45 43 40 44 41 45
REMARK SMILES IDX 42 46 43 47 44 48 67 49 68 50 76 51 69 52 75 53 70 54 71 55
REMARK SMILES IDX 72 56 73 57 74 58 53 59 54 60 62 61 55 62 61 63 56 64 57 65
REMARK SMILES IDX 58 66 59 67 60 68 6 69 7 70 8 71 9 72 10 74 11 75 12 76
REMARK SMILES IDX 27 77 13 78 15 79 14 80 16 81 17 82 18 83 19 84 26 85 20 86
REMARK SMILES IDX 24 87 25 88 21 89 23 90 22 91
REMARK H PARENT 3 6 81 24 51 35 8 73
REMARK Flexibility Score: inf
ROOT
ATOM      1  C   UNL     1      10.104   3.562   6.726  1.00  0.00     0.023 C 
ENDROOT
BRANCH   1   2
ATOM      2  C   UNL     1       9.607   2.964   8.038  1.00  0.00     0.116 C 
BRANCH   2   3
ATOM      3  N   UNL     1       9.473   1.519   7.966  1.00  0.00    -0.352 N 
ATOM      4  O   UNL     1       9.849  -0.620   8.542  1.00  0.00    -0.269 OA
ATOM      5  C   UNL     1       9.893   0.566   8.857  1.00  0.00     0.251 C 
ATOM      6  H   UNL     1       9.017   1.176   7.164  1.00  0.00     0.163 HD
BRANCH   5   7
ATOM      7  C   UNL     1      10.403   0.968  10.183  1.00  0.00     0.039 A 
ATOM      8  C   UNL     1      11.543   0.336  10.684  1.00  0.00     0.014 A 
ATOM      9  C   UNL     1       9.738   1.932  10.946  1.00  0.00     0.014 A 
ATOM     10  C   UNL     1      12.027   0.682  11.946  1.00  0.00     0.010 A 
ATOM     11  C   UNL     1      10.263   2.328  12.171  1.00  0.00     0.010 A 
ATOM     12  C   UNL     1      11.395   1.687  12.695  1.00  0.00    -0.014 A 
BRANCH  12  13
ATOM     13  C   UNL     1      11.866   2.042  14.056  1.00  0.00     0.031 A 
ATOM     14  C   UNL     1      10.981   1.777  15.243  1.00  0.00     0.074 A 
ATOM     15  C   UNL     1      13.062   2.638  14.221  1.00  0.00     0.049 A 
ATOM     16  N   UNL     1      11.187   2.062  16.502  1.00  0.00    -0.248 NA
ATOM     17  C   UNL     1       9.686   1.127  14.979  1.00  0.00     0.031 C 
ATOM     18  C   UNL     1      14.000   2.950  13.143  1.00  0.00     0.029 A 
ATOM     19  N   UNL     1      13.692   3.086  15.355  1.00  0.00    -0.354 N 
ATOM     20  C   UNL     1      10.043   1.647  17.174  1.00  0.00     0.074 A 
ATOM     21  C   UNL     1       9.126   1.139  16.180  1.00  0.00     0.031 C 
ATOM     22  C   UNL     1      15.101   3.506  13.671  1.00  0.00     0.029 A 
ATOM     23  C   UNL     1      14.927   3.640  15.116  1.00  0.00     0.049 A 
ATOM     24  H   UNL     1      13.298   3.016  16.255  1.00  0.00     0.167 HD
ATOM     25  C   UNL     1       9.794   1.666  18.503  1.00  0.00     0.031 A 
ATOM     26  C   UNL     1      15.820   4.199  15.959  1.00  0.00     0.031 A 
ATOM     27  C   UNL     1      10.731   2.148  19.484  1.00  0.00     0.049 A 
ATOM     28  C   UNL     1      15.514   4.241  17.429  1.00  0.00     0.074 A 
ATOM     29  C   UNL     1      10.604   2.137  20.861  1.00  0.00     0.029 A 
ATOM     30  N   UNL     1      11.958   2.729  19.198  1.00  0.00    -0.354 N 
ATOM     31  N   UNL     1      14.459   3.780  18.058  1.00  0.00    -0.248 NA
ATOM     32  C   UNL     1      16.510   4.870  18.306  1.00  0.00     0.031 C 
ATOM     33  C   UNL     1      11.710   2.792  21.402  1.00  0.00     0.029 A 
ATOM     34  C   UNL     1      12.573   3.131  20.371  1.00  0.00     0.049 A 
ATOM     35  H   UNL     1      12.334   2.840  18.295  1.00  0.00     0.167 HD
ATOM     36  C   UNL     1      14.666   4.054  19.405  1.00  0.00     0.074 A 
ATOM     37  C   UNL     1      15.958   4.704  19.503  1.00  0.00     0.031 C 
ATOM     38  C   UNL     1      13.855   3.791  20.460  1.00  0.00     0.031 A 
BRANCH  25  39
ATOM     39  C   UNL     1       8.461   1.153  18.989  1.00  0.00    -0.014 A 
ATOM     40  C   UNL     1       7.574   2.031  19.640  1.00  0.00     0.010 A 
ATOM     41  C   UNL     1       8.122  -0.209  18.893  1.00  0.00     0.010 A 
ATOM     42  C   UNL     1       6.388   1.556  20.205  1.00  0.00     0.020 A 
ATOM     43  C   UNL     1       6.918  -0.682  19.425  1.00  0.00     0.020 A 
ATOM     44  C   UNL     1       6.070   0.200  20.098  1.00  0.00     0.054 A 
BRANCH  44  45
ATOM     45  S   UNL     1       4.530  -0.399  20.845  1.00  0.00     0.124 S 
ATOM     46  O   UNL     1       4.856  -0.396  22.268  1.00  0.00    -0.237 OA
ATOM     47  O   UNL     1       3.556   0.603  20.417  1.00  0.00    -0.237 OA
ATOM     48  O   UNL     1       4.351  -1.721  20.247  1.00  0.00    -0.744 OA
ENDBRANCH  44  45
ENDBRANCH  25  39
BRANCH  26  49
ATOM     49  C   UNL     1      17.104   4.705  15.398  1.00  0.00    -0.014 A 
ATOM     50  C   UNL     1      17.115   5.812  14.528  1.00  0.00     0.010 A 
ATOM     51  C   UNL     1      18.293   3.983  15.600  1.00  0.00     0.010 A 
ATOM     52  C   UNL     1      18.263   6.128  13.796  1.00  0.00     0.020 A 
ATOM     53  C   UNL     1      19.453   4.315  14.892  1.00  0.00     0.020 A 
ATOM     54  C   UNL     1      19.416   5.357  13.963  1.00  0.00     0.054 A 
BRANCH  54  55
ATOM     55  S   UNL     1      20.844   5.691  12.894  1.00  0.00     0.124 S 
ATOM     56  O   UNL     1      20.369   5.203  11.601  1.00  0.00    -0.237 OA
ATOM     57  O   UNL     1      20.992   7.140  13.004  1.00  0.00    -0.237 OA
ATOM     58  O   UNL     1      21.918   4.908  13.500  1.00  0.00    -0.744 OA
ENDBRANCH  54  55
ENDBRANCH  26  49
BRANCH  38  59
ATOM     59  C   UNL     1      14.299   4.223  21.835  1.00  0.00    -0.014 A 
ATOM     60  C   UNL     1      14.557   3.255  22.824  1.00  0.00     0.010 A 
ATOM     61  C   UNL     1      14.279   5.582  22.197  1.00  0.00     0.010 A 
ATOM     62  C   UNL     1      14.722   3.630  24.159  1.00  0.00     0.020 A 
ATOM     63  C   UNL     1      14.478   5.964  23.527  1.00  0.00     0.020 A 
ATOM     64  C   UNL     1      14.664   4.983  24.504  1.00  0.00     0.054 A 
BRANCH  64  65
ATOM     65  S   UNL     1      14.794   5.443  26.254  1.00  0.00     0.124 S 
ATOM     66  O   UNL     1      13.510   4.997  26.786  1.00  0.00    -0.237 OA
ATOM     67  O   UNL     1      15.959   4.680  26.697  1.00  0.00    -0.237 OA
ATOM     68  O   UNL     1      14.985   6.891  26.216  1.00  0.00    -0.744 OA
ENDBRANCH  64  65
ENDBRANCH  38  59
ENDBRANCH  12  13
ENDBRANCH   5   7
ENDBRANCH   2   3
ENDBRANCH   1   2
BRANCH   1  69
ATOM     69  C   UNL     1       9.270   3.203   5.491  1.00  0.00     0.023 C 
BRANCH  69  70
ATOM     70  C   UNL     1       7.765   3.399   5.660  1.00  0.00     0.116 C 
BRANCH  70  71
ATOM     71  N   UNL     1       7.441   4.783   5.923  1.00  0.00    -0.356 N 
ATOM     72  C   UNL     1       6.842   5.688   5.107  1.00  0.00     0.225 C 
ATOM     73  H   UNL     1       7.689   5.115   6.816  1.00  0.00     0.163 HD
ATOM     74  O   UNL     1       6.739   6.846   5.506  1.00  0.00    -0.275 OA
BRANCH  72  75
ATOM     75  C   UNL     1       6.330   5.231   3.759  1.00  0.00     0.107 C 
ATOM     76  C   UNL     1       4.941   4.601   3.812  1.00  0.00     0.115 C 
ATOM     77  C   UNL     1       6.122   6.434   2.873  1.00  0.00     0.133 C 
ATOM     78  C   UNL     1       4.301   5.040   2.507  1.00  0.00     0.223 C 
ATOM     79  N   UNL     1       5.057   6.082   1.990  1.00  0.00    -0.342 N 
ATOM     80  O   UNL     1       3.287   4.569   2.031  1.00  0.00    -0.275 OA
BRANCH  79  81
ATOM     81  C   UNL     1       4.740   6.877   0.808  1.00  0.00     0.124 C 
BRANCH  81  82
ATOM     82  C   UNL     1       4.266   8.317   1.109  1.00  0.00     0.055 C 
BRANCH  82  83
ATOM     83  C   UNL     1       5.276   9.420   1.340  1.00  0.00    -0.038 C 
ATOM     84  C   UNL     1       5.005  10.727   1.352  1.00  0.00     0.001 A 
ATOM     85  C   UNL     1       6.741   9.226   1.610  1.00  0.00     0.174 C 
ATOM     86  C   UNL     1       3.836  11.522   1.147  1.00  0.00     0.010 A 
ATOM     87  C   UNL     1       6.302  11.349   1.669  1.00  0.00     0.065 A 
ATOM     88  N   UNL     1       7.336  10.575   1.750  1.00  0.00    -0.280 NA
ATOM     89  C   UNL     1       3.925  12.853   1.309  1.00  0.00     0.001 A 
ATOM     90  C   UNL     1       6.311  12.808   1.882  1.00  0.00     0.028 A 
ATOM     91  C   UNL     1       5.167  13.490   1.718  1.00  0.00     0.002 A 
ENDBRANCH  82  83
ENDBRANCH  81  82
ENDBRANCH  79  81
ENDBRANCH  72  75
ENDBRANCH  70  71
ENDBRANCH  69  70
ENDBRANCH   1  69
TORSDOF 17
