REMARK SMILES COc1ccc(C(=O)NCCCCNC(=O)c2ccc(-c3c4nc(c(-c5ccc(S(=O)(=O)[O-])cc5)c5ccc([nH]5)c(-c5ccc(S(=O)(=O)[O-])cc5)c5nc(c(-c6ccc(S(=O)(=O)[O-])cc6)c6ccc3[nH]6)C=C5)C=C4)cc2)cc1S(=O)(=O)N(C)Cc1cccc(F)c1
REMARK SMILES IDX 11 1 10 2 9 3 7 4 8 5 6 7 3 8 4 9 78 10 5 11 77 12 2 13 1 14
REMARK SMILES IDX 79 15 80 16 81 17 82 18 83 19 84 20 85 21 86 22 91 23 87 24
REMARK SMILES IDX 89 25 88 26 90 27 12 28 13 29 14 30 15 31 16 33 17 34 18 35
REMARK SMILES IDX 76 36 19 37 75 38 20 39 21 40 22 41 69 42 23 43 74 44 68 45
REMARK SMILES IDX 70 46 24 47 73 48 67 49 66 50 25 52 55 53 36 54 54 55 37 56
REMARK SMILES IDX 40 57 53 58 71 59 38 60 39 61 52 63 72 64 41 65 26 66 27 67
REMARK SMILES IDX 35 68 28 69 34 70 29 71 30 72 31 73 32 74 33 75 56 76 57 77
REMARK SMILES IDX 65 78 58 79 64 80 59 81 60 82 61 83 62 84 63 85 42 86 43 87
REMARK SMILES IDX 51 88 44 89 50 90 45 91 46 92 47 93 48 94 49 95
REMARK H PARENT 9 6 14 32 70 51 40 62
REMARK Flexibility Score: inf
ROOT
ATOM      1  C   UNL     1       5.450   1.929  -5.258  1.00  0.00     0.023 C 
ENDROOT
BRANCH   1   2
ATOM      2  C   UNL     1       4.306   2.919  -5.015  1.00  0.00     0.116 C 
BRANCH   2   3
ATOM      3  N   UNL     1       3.212   2.693  -5.948  1.00  0.00    -0.352 N 
ATOM      4  C   UNL     1       1.994   2.076  -5.803  1.00  0.00     0.251 C 
ATOM      5  O   UNL     1       1.206   2.093  -6.748  1.00  0.00    -0.269 OA
ATOM      6  H   UNL     1       3.376   3.049  -6.852  1.00  0.00     0.163 HD
BRANCH   4   7
ATOM      7  C   UNL     1       1.564   1.440  -4.529  1.00  0.00     0.041 A 
ATOM      8  C   UNL     1       0.668   0.423  -2.057  1.00  0.00     0.138 A 
ATOM      9  C   UNL     1      -0.244   0.936  -2.984  1.00  0.00     0.049 A 
ATOM     10  C   UNL     1       2.013   0.343  -2.402  1.00  0.00     0.125 A 
ATOM     11  C   UNL     1       0.203   1.460  -4.202  1.00  0.00     0.018 A 
ATOM     12  C   UNL     1       2.444   0.809  -3.656  1.00  0.00     0.039 A 
BRANCH   8  13
ATOM     13  O   UNL     1       0.163  -0.055  -0.884  1.00  0.00    -0.495 OA
ATOM     14  C   UNL     1       0.186   0.948   0.131  1.00  0.00     0.278 C 
ENDBRANCH   8  13
BRANCH  10  15
ATOM     15  S   UNL     1       3.313  -0.204  -1.334  1.00  0.00     0.246 S 
ATOM     16  O   UNL     1       4.188  -1.020  -2.141  1.00  0.00    -0.207 OA
ATOM     17  O   UNL     1       3.808   1.005  -0.692  1.00  0.00    -0.207 OA
BRANCH  15  18
ATOM     18  N   UNL     1       2.663  -1.197  -0.124  1.00  0.00    -0.196 NA
ATOM     19  C   UNL     1       2.086  -2.474  -0.589  1.00  0.00     0.125 C 
BRANCH  18  20
ATOM     20  C   UNL     1       3.534  -1.338   1.079  1.00  0.00     0.137 C 
BRANCH  20  21
ATOM     21  C   UNL     1       4.806  -2.129   0.868  1.00  0.00    -0.030 A 
ATOM     22  C   UNL     1       4.803  -3.529   0.979  1.00  0.00     0.005 A 
ATOM     23  C   UNL     1       5.990  -1.487   0.474  1.00  0.00     0.044 A 
ATOM     24  C   UNL     1       5.938  -4.274   0.652  1.00  0.00     0.003 A 
ATOM     25  C   UNL     1       7.115  -2.238   0.154  1.00  0.00     0.123 A 
ATOM     26  C   UNL     1       7.096  -3.625   0.229  1.00  0.00     0.039 A 
ATOM     27  F   UNL     1       8.231  -1.617  -0.249  1.00  0.00    -0.207 F 
ENDBRANCH  20  21
ENDBRANCH  18  20
ENDBRANCH  15  18
ENDBRANCH  10  15
ENDBRANCH   4   7
ENDBRANCH   2   3
ENDBRANCH   1   2
BRANCH   1  28
ATOM     28  C   UNL     1       6.349   2.290  -6.442  1.00  0.00     0.023 C 
BRANCH  28  29
ATOM     29  C   UNL     1       7.179   3.553  -6.247  1.00  0.00     0.116 C 
BRANCH  29  30
ATOM     30  N   UNL     1       8.130   3.457  -5.148  1.00  0.00    -0.352 N 
ATOM     31  C   UNL     1       9.346   4.094  -5.034  1.00  0.00     0.251 C 
ATOM     32  H   UNL     1       7.875   2.869  -4.401  1.00  0.00     0.163 HD
ATOM     33  O   UNL     1      10.099   3.857  -4.097  1.00  0.00    -0.269 OA
BRANCH  31  34
ATOM     34  C   UNL     1       9.745   5.037  -6.098  1.00  0.00     0.039 A 
ATOM     35  C   UNL     1      10.939   4.814  -6.787  1.00  0.00     0.014 A 
ATOM     36  C   UNL     1       8.890   6.077  -6.468  1.00  0.00     0.014 A 
ATOM     37  C   UNL     1      11.239   5.589  -7.909  1.00  0.00     0.010 A 
ATOM     38  C   UNL     1       9.160   6.806  -7.620  1.00  0.00     0.010 A 
ATOM     39  C   UNL     1      10.329   6.560  -8.359  1.00  0.00    -0.014 A 
BRANCH  39  40
ATOM     40  C   UNL     1      10.556   7.325  -9.610  1.00  0.00     0.031 A 
ATOM     41  C   UNL     1      10.728   8.816  -9.551  1.00  0.00     0.074 A 
ATOM     42  C   UNL     1      10.493   6.696 -10.800  1.00  0.00     0.049 A 
ATOM     43  N   UNL     1      10.774   9.681 -10.530  1.00  0.00    -0.248 NA
ATOM     44  C   UNL     1      10.830   9.413  -8.209  1.00  0.00     0.031 C 
ATOM     45  C   UNL     1      10.293   5.258 -10.992  1.00  0.00     0.029 A 
ATOM     46  N   UNL     1      10.565   7.194 -12.077  1.00  0.00    -0.354 N 
ATOM     47  C   UNL     1      10.884  10.927  -9.925  1.00  0.00     0.074 A 
ATOM     48  C   UNL     1      10.856  10.707  -8.494  1.00  0.00     0.031 C 
ATOM     49  C   UNL     1      10.259   4.990 -12.307  1.00  0.00     0.029 A 
ATOM     50  C   UNL     1      10.393   6.239 -13.051  1.00  0.00     0.049 A 
ATOM     51  H   UNL     1      10.725   8.145 -12.277  1.00  0.00     0.167 HD
ATOM     52  C   UNL     1      11.011  12.144 -10.506  1.00  0.00     0.031 A 
ATOM     53  C   UNL     1      10.326   6.356 -14.392  1.00  0.00     0.031 A 
ATOM     54  C   UNL     1      11.042  12.358 -11.928  1.00  0.00     0.049 A 
ATOM     55  C   UNL     1      10.472   7.714 -15.019  1.00  0.00     0.074 A 
ATOM     56  C   UNL     1      11.203  13.547 -12.617  1.00  0.00     0.029 A 
ATOM     57  N   UNL     1      10.912  11.357 -12.880  1.00  0.00    -0.354 N 
ATOM     58  N   UNL     1      10.618   8.878 -14.433  1.00  0.00    -0.248 NA
ATOM     59  C   UNL     1      10.455   7.775 -16.487  1.00  0.00     0.031 C 
ATOM     60  C   UNL     1      11.134  13.269 -13.987  1.00  0.00     0.029 A 
ATOM     61  C   UNL     1      10.980  11.902 -14.150  1.00  0.00     0.049 A 
ATOM     62  H   UNL     1      10.790  10.401 -12.681  1.00  0.00     0.167 HD
ATOM     63  C   UNL     1      10.735   9.808 -15.460  1.00  0.00     0.074 A 
ATOM     64  C   UNL     1      10.652   9.069 -16.704  1.00  0.00     0.031 C 
ATOM     65  C   UNL     1      10.901  11.151 -15.379  1.00  0.00     0.031 A 
BRANCH  52  66
ATOM     66  C   UNL     1      11.112  13.333  -9.589  1.00  0.00    -0.014 A 
ATOM     67  C   UNL     1      12.258  13.543  -8.799  1.00  0.00     0.010 A 
ATOM     68  C   UNL     1      10.049  14.250  -9.510  1.00  0.00     0.010 A 
ATOM     69  C   UNL     1      12.312  14.612  -7.902  1.00  0.00     0.020 A 
ATOM     70  C   UNL     1      10.112  15.338  -8.634  1.00  0.00     0.020 A 
ATOM     71  C   UNL     1      11.234  15.497  -7.817  1.00  0.00     0.054 A 
BRANCH  71  72
ATOM     72  S   UNL     1      11.322  16.868  -6.633  1.00  0.00     0.124 S 
ATOM     73  O   UNL     1      11.063  16.187  -5.367  1.00  0.00    -0.237 OA
ATOM     74  O   UNL     1      12.685  17.362  -6.812  1.00  0.00    -0.237 OA
ATOM     75  O   UNL     1      10.269  17.777  -7.078  1.00  0.00    -0.744 OA
ENDBRANCH  71  72
ENDBRANCH  52  66
BRANCH  53  76
ATOM     76  C   UNL     1      10.118   5.141 -15.226  1.00  0.00    -0.014 A 
ATOM     77  C   UNL     1      11.178   4.597 -15.970  1.00  0.00     0.010 A 
ATOM     78  C   UNL     1       8.866   4.498 -15.245  1.00  0.00     0.010 A 
ATOM     79  C   UNL     1      10.990   3.435 -16.724  1.00  0.00     0.020 A 
ATOM     80  C   UNL     1       8.681   3.323 -15.979  1.00  0.00     0.020 A 
ATOM     81  C   UNL     1       9.744   2.802 -16.720  1.00  0.00     0.054 A 
BRANCH  81  82
ATOM     82  S   UNL     1       9.544   1.253 -17.645  1.00  0.00     0.124 S 
ATOM     83  O   UNL     1       9.472   1.730 -19.022  1.00  0.00    -0.237 OA
ATOM     84  O   UNL     1      10.755   0.515 -17.292  1.00  0.00    -0.237 OA
ATOM     85  O   UNL     1       8.306   0.694 -17.109  1.00  0.00    -0.744 OA
ENDBRANCH  81  82
ENDBRANCH  53  76
BRANCH  65  86
ATOM     86  C   UNL     1      11.044  11.913 -16.668  1.00  0.00    -0.014 A 
ATOM     87  C   UNL     1       9.934  12.172 -17.489  1.00  0.00     0.010 A 
ATOM     88  C   UNL     1      12.299  12.444 -17.019  1.00  0.00     0.010 A 
ATOM     89  C   UNL     1      10.080  12.937 -18.650  1.00  0.00     0.020 A 
ATOM     90  C   UNL     1      12.444  13.228 -18.166  1.00  0.00     0.020 A 
ATOM     91  C   UNL     1      11.334  13.462 -18.980  1.00  0.00     0.054 A 
BRANCH  91  92
ATOM     92  S   UNL     1      11.485  14.507 -20.455  1.00  0.00     0.124 S 
ATOM     93  O   UNL     1      11.435  13.522 -21.532  1.00  0.00    -0.237 OA
ATOM     94  O   UNL     1      10.321  15.383 -20.349  1.00  0.00    -0.237 OA
ATOM     95  O   UNL     1      12.774  15.172 -20.277  1.00  0.00    -0.744 OA
ENDBRANCH  91  92
ENDBRANCH  65  86
ENDBRANCH  39  40
ENDBRANCH  31  34
ENDBRANCH  29  30
ENDBRANCH  28  29
ENDBRANCH   1  28
TORSDOF 19
