REMARK SMILES CC(=O)N1CCC[C@H]1COCC(=O)NCCCCNC(=O)c1ccc(-c2c3nc(c(-c4ccc(S(=O)(=O)[O-])cc4)c4ccc([nH]4)c(-c4ccc(S(=O)(=O)[O-])cc4)c4nc(c(-c5ccc(S(=O)(=O)[O-])cc5)c5ccc2[nH]5)C=C4)C=C3)cc1
REMARK SMILES IDX 16 1 15 2 14 3 12 4 13 5 11 7 10 8 9 9 8 10 4 11 5 12 6 13
REMARK SMILES IDX 7 14 2 15 1 16 3 17 17 18 18 19 19 20 20 21 21 23 22 24
REMARK SMILES IDX 23 25 81 26 24 27 80 28 25 29 26 30 27 31 74 32 28 33 79 34
REMARK SMILES IDX 73 35 75 36 29 37 78 38 72 39 71 40 30 42 60 43 41 44 59 45
REMARK SMILES IDX 42 46 45 47 58 48 76 49 43 50 44 51 57 53 77 54 46 55 31 56
REMARK SMILES IDX 32 57 40 58 33 59 39 60 34 61 35 62 36 63 37 64 38 65 61 66
REMARK SMILES IDX 62 67 70 68 63 69 69 70 64 71 65 72 66 73 67 74 68 75 47 76
REMARK SMILES IDX 48 77 56 78 49 79 55 80 50 81 51 82 52 83 53 84 54 85
REMARK H PARENT 14 6 19 22 75 41 45 52
REMARK Flexibility Score: inf
ROOT
ATOM      1  C   UNL     1      -1.747  -6.646   3.318  1.00  0.00     0.023 C 
ENDROOT
BRANCH   1   2
ATOM      2  C   UNL     1      -2.974  -6.437   2.434  1.00  0.00     0.116 C 
BRANCH   2   3
ATOM      3  N   UNL     1      -3.313  -5.041   2.253  1.00  0.00    -0.354 N 
ATOM      4  C   UNL     1      -3.219  -4.292   1.114  1.00  0.00     0.245 C 
ATOM      5  O   UNL     1      -3.719  -3.168   1.096  1.00  0.00    -0.272 OA
ATOM      6  H   UNL     1      -3.653  -4.573   3.050  1.00  0.00     0.163 HD
BRANCH   4   7
ATOM      7  C   UNL     1      -2.548  -4.897  -0.128  1.00  0.00     0.260 C 
BRANCH   7   8
ATOM      8  O   UNL     1      -1.240  -5.437   0.025  1.00  0.00    -0.370 OA
BRANCH   8   9
ATOM      9  C   UNL     1      -0.264  -4.456   0.401  1.00  0.00     0.185 C 
BRANCH   9  10
ATOM     10  C   UNL     1       0.206  -3.610  -0.798  1.00  0.00     0.111 C 
ATOM     11  N   UNL     1       1.065  -2.481  -0.443  1.00  0.00    -0.338 N 
ATOM     12  C   UNL     1       2.352  -2.567  -1.107  1.00  0.00     0.120 C 
ATOM     13  C   UNL     1       2.067  -3.440  -2.318  1.00  0.00     0.024 C 
ATOM     14  C   UNL     1       1.046  -4.439  -1.784  1.00  0.00     0.029 C 
BRANCH  11  15
ATOM     15  C   UNL     1       0.559  -1.404   0.253  1.00  0.00     0.219 C 
ATOM     16  C   UNL     1       1.444  -0.194   0.384  1.00  0.00     0.114 C 
ATOM     17  O   UNL     1      -0.582  -1.399   0.710  1.00  0.00    -0.275 OA
ENDBRANCH  11  15
ENDBRANCH   9  10
ENDBRANCH   8   9
ENDBRANCH   7   8
ENDBRANCH   4   7
ENDBRANCH   2   3
ENDBRANCH   1   2
BRANCH   1  18
ATOM     18  C   UNL     1      -1.865  -6.099   4.743  1.00  0.00     0.023 C 
BRANCH  18  19
ATOM     19  C   UNL     1      -3.100  -6.537   5.525  1.00  0.00     0.116 C 
BRANCH  19  20
ATOM     20  N   UNL     1      -3.196  -7.979   5.696  1.00  0.00    -0.352 N 
ATOM     21  C   UNL     1      -3.566  -8.688   6.816  1.00  0.00     0.251 C 
ATOM     22  H   UNL     1      -2.966  -8.518   4.905  1.00  0.00     0.163 HD
ATOM     23  O   UNL     1      -3.498  -9.913   6.822  1.00  0.00    -0.269 OA
BRANCH  21  24
ATOM     24  C   UNL     1      -4.006  -7.960   8.027  1.00  0.00     0.039 A 
ATOM     25  C   UNL     1      -3.409  -8.262   9.255  1.00  0.00     0.014 A 
ATOM     26  C   UNL     1      -4.975  -6.958   7.943  1.00  0.00     0.014 A 
ATOM     27  C   UNL     1      -3.722  -7.500  10.384  1.00  0.00     0.010 A 
ATOM     28  C   UNL     1      -5.244  -6.165   9.055  1.00  0.00     0.010 A 
ATOM     29  C   UNL     1      -4.610  -6.418  10.284  1.00  0.00    -0.014 A 
BRANCH  29  30
ATOM     30  C   UNL     1      -4.890  -5.515  11.431  1.00  0.00     0.031 A 
ATOM     31  C   UNL     1      -6.284  -5.430  11.990  1.00  0.00     0.074 A 
ATOM     32  C   UNL     1      -3.927  -4.687  11.885  1.00  0.00     0.049 A 
ATOM     33  N   UNL     1      -6.777  -4.574  12.846  1.00  0.00    -0.248 NA
ATOM     34  C   UNL     1      -7.258  -6.419  11.498  1.00  0.00     0.031 C 
ATOM     35  C   UNL     1      -2.542  -4.648  11.407  1.00  0.00     0.029 A 
ATOM     36  N   UNL     1      -3.976  -3.691  12.830  1.00  0.00    -0.354 N 
ATOM     37  C   UNL     1      -8.126  -4.891  12.962  1.00  0.00     0.074 A 
ATOM     38  C   UNL     1      -8.377  -6.009  12.080  1.00  0.00     0.031 C 
ATOM     39  C   UNL     1      -1.879  -3.676  12.055  1.00  0.00     0.029 A 
ATOM     40  C   UNL     1      -2.798  -2.991  12.959  1.00  0.00     0.049 A 
ATOM     41  H   UNL     1      -4.779  -3.495  13.365  1.00  0.00     0.167 HD
ATOM     42  C   UNL     1      -9.067  -4.302  13.736  1.00  0.00     0.031 A 
ATOM     43  C   UNL     1      -2.497  -1.903  13.696  1.00  0.00     0.031 A 
ATOM     44  C   UNL     1      -8.805  -3.220  14.645  1.00  0.00     0.049 A 
ATOM     45  C   UNL     1      -3.562  -1.280  14.560  1.00  0.00     0.074 A 
ATOM     46  C   UNL     1      -9.679  -2.616  15.532  1.00  0.00     0.029 A 
ATOM     47  N   UNL     1      -7.583  -2.583  14.788  1.00  0.00    -0.354 N 
ATOM     48  N   UNL     1      -4.814  -1.639  14.708  1.00  0.00    -0.248 NA
ATOM     49  C   UNL     1      -3.172  -0.110  15.362  1.00  0.00     0.031 C 
ATOM     50  C   UNL     1      -8.996  -1.585  16.183  1.00  0.00     0.029 A 
ATOM     51  C   UNL     1      -7.685  -1.580  15.735  1.00  0.00     0.049 A 
ATOM     52  H   UNL     1      -6.765  -2.811  14.290  1.00  0.00     0.167 HD
ATOM     53  C   UNL     1      -5.350  -0.761  15.644  1.00  0.00     0.074 A 
ATOM     54  C   UNL     1      -4.289   0.143  16.032  1.00  0.00     0.031 C 
ATOM     55  C   UNL     1      -6.610  -0.712  16.137  1.00  0.00     0.031 A 
BRANCH  42  56
ATOM     56  C   UNL     1     -10.481  -4.807  13.639  1.00  0.00    -0.014 A 
ATOM     57  C   UNL     1     -10.856  -6.031  14.218  1.00  0.00     0.010 A 
ATOM     58  C   UNL     1     -11.465  -3.998  13.042  1.00  0.00     0.010 A 
ATOM     59  C   UNL     1     -12.190  -6.446  14.186  1.00  0.00     0.020 A 
ATOM     60  C   UNL     1     -12.803  -4.399  13.027  1.00  0.00     0.020 A 
ATOM     61  C   UNL     1     -13.155  -5.627  13.592  1.00  0.00     0.054 A 
BRANCH  61  62
ATOM     62  S   UNL     1     -14.889  -6.162  13.620  1.00  0.00     0.124 S 
ATOM     63  O   UNL     1     -14.894  -7.213  12.606  1.00  0.00    -0.237 OA
ATOM     64  O   UNL     1     -15.062  -6.617  14.997  1.00  0.00    -0.237 OA
ATOM     65  O   UNL     1     -15.631  -4.954  13.268  1.00  0.00    -0.744 OA
ENDBRANCH  61  62
ENDBRANCH  42  56
BRANCH  43  66
ATOM     66  C   UNL     1      -1.134  -1.308  13.638  1.00  0.00    -0.014 A 
ATOM     67  C   UNL     1      -0.267  -1.399  14.742  1.00  0.00     0.010 A 
ATOM     68  C   UNL     1      -0.705  -0.621  12.487  1.00  0.00     0.010 A 
ATOM     69  C   UNL     1       0.987  -0.782  14.711  1.00  0.00     0.020 A 
ATOM     70  C   UNL     1       0.559  -0.026  12.443  1.00  0.00     0.020 A 
ATOM     71  C   UNL     1       1.390  -0.094  13.563  1.00  0.00     0.054 A 
BRANCH  71  72
ATOM     72  S   UNL     1       3.027   0.689  13.535  1.00  0.00     0.124 S 
ATOM     73  O   UNL     1       2.797   1.899  14.318  1.00  0.00    -0.237 OA
ATOM     74  O   UNL     1       3.874  -0.321  14.165  1.00  0.00    -0.237 OA
ATOM     75  O   UNL     1       3.278   0.900  12.111  1.00  0.00    -0.744 OA
ENDBRANCH  71  72
ENDBRANCH  43  66
BRANCH  55  76
ATOM     76  C   UNL     1      -6.912   0.307  17.201  1.00  0.00    -0.014 A 
ATOM     77  C   UNL     1      -7.107   1.661  16.879  1.00  0.00     0.010 A 
ATOM     78  C   UNL     1      -7.114  -0.123  18.526  1.00  0.00     0.010 A 
ATOM     79  C   UNL     1      -7.497   2.569  17.866  1.00  0.00     0.020 A 
ATOM     80  C   UNL     1      -7.525   0.778  19.510  1.00  0.00     0.020 A 
ATOM     81  C   UNL     1      -7.710   2.121  19.175  1.00  0.00     0.054 A 
BRANCH  81  82
ATOM     82  S   UNL     1      -8.307   3.299  20.418  1.00  0.00     0.124 S 
ATOM     83  O   UNL     1      -7.100   4.063  20.719  1.00  0.00    -0.237 OA
ATOM     84  O   UNL     1      -9.349   4.028  19.698  1.00  0.00    -0.237 OA
ATOM     85  O   UNL     1      -8.790   2.445  21.501  1.00  0.00    -0.744 OA
ENDBRANCH  81  82
ENDBRANCH  55  76
ENDBRANCH  29  30
ENDBRANCH  21  24
ENDBRANCH  19  20
ENDBRANCH  18  19
ENDBRANCH   1  18
TORSDOF 18
