REMARK SMILES O=C(NCCCCNC(=O)c1nc(NC[C@H]2c3ccccc3CSc3ccccc32)c2ccccc2n1)c1ccc(-c2c3nc(c(-c4ccc(S(=O)(=O)[O-])cc4)c4ccc([nH]4)c(-c4ccc(S(=O)(=O)[O-])cc4)c4nc(c(-c5ccc(S(=O)(=O)[O-])cc5)c5ccc2[nH]5)C=C4)C=C3)cc1
REMARK SMILES IDX 5 1 4 2 3 3 1 4 2 5 38 7 39 8 97 9 40 10 96 11 41 12 42 13
REMARK SMILES IDX 43 14 90 15 44 16 95 17 89 18 91 19 45 20 94 21 88 22 87 23
REMARK SMILES IDX 46 25 76 26 57 27 75 28 58 29 61 30 74 31 92 32 59 33 60 34
REMARK SMILES IDX 73 36 93 37 62 38 47 39 48 40 56 41 49 42 55 43 50 44 51 45
REMARK SMILES IDX 52 46 53 47 54 48 77 49 78 50 86 51 79 52 85 53 80 54 81 55
REMARK SMILES IDX 82 56 83 57 84 58 63 59 64 60 72 61 65 62 71 63 66 64 67 65
REMARK SMILES IDX 68 66 69 67 70 68 6 69 7 70 8 71 9 72 10 74 11 75 12 76
REMARK SMILES IDX 37 77 13 78 36 79 31 80 35 81 32 82 34 83 33 84 14 85 15 87
REMARK SMILES IDX 16 88 17 89 30 90 18 91 22 92 25 93 29 94 19 95 21 96 23 97
REMARK SMILES IDX 24 98 26 99 28 100 20 101 27 102
REMARK H PARENT 3 6 91 24 61 35 8 73 14 86
REMARK Flexibility Score: inf
ROOT
ATOM      1  C   UNL     1       4.938  -1.401  -2.239  1.00  0.00     0.023 C 
ENDROOT
BRANCH   1   2
ATOM      2  C   UNL     1       4.584  -0.300  -1.247  1.00  0.00     0.116 C 
BRANCH   2   3
ATOM      3  N   UNL     1       3.151  -0.089  -1.134  1.00  0.00    -0.352 N 
ATOM      4  O   UNL     1       1.134  -0.053  -0.142  1.00  0.00    -0.269 OA
ATOM      5  C   UNL     1       2.354  -0.084  -0.016  1.00  0.00     0.251 C 
ATOM      6  H   UNL     1       2.682   0.074  -1.985  1.00  0.00     0.163 HD
BRANCH   5   7
ATOM      7  C   UNL     1       2.960  -0.127   1.335  1.00  0.00     0.039 A 
ATOM      8  C   UNL     1       2.359  -0.919   2.318  1.00  0.00     0.014 A 
ATOM      9  C   UNL     1       4.086   0.639   1.649  1.00  0.00     0.014 A 
ATOM     10  C   UNL     1       2.903  -0.961   3.604  1.00  0.00     0.010 A 
ATOM     11  C   UNL     1       4.676   0.529   2.905  1.00  0.00     0.010 A 
ATOM     12  C   UNL     1       4.072  -0.245   3.906  1.00  0.00    -0.014 A 
BRANCH  12  13
ATOM     13  C   UNL     1       4.635  -0.227   5.281  1.00  0.00     0.031 A 
ATOM     14  C   UNL     1       4.670   1.068   6.050  1.00  0.00     0.074 A 
ATOM     15  C   UNL     1       5.136  -1.352   5.827  1.00  0.00     0.049 A 
ATOM     16  N   UNL     1       5.167   1.308   7.236  1.00  0.00    -0.248 NA
ATOM     17  C   UNL     1       4.093   2.254   5.394  1.00  0.00     0.031 C 
ATOM     18  C   UNL     1       5.171  -2.663   5.178  1.00  0.00     0.029 A 
ATOM     19  N   UNL     1       5.709  -1.575   7.056  1.00  0.00    -0.354 N 
ATOM     20  C   UNL     1       4.976   2.667   7.457  1.00  0.00     0.074 A 
ATOM     21  C   UNL     1       4.375   3.213   6.263  1.00  0.00     0.031 C 
ATOM     22  C   UNL     1       5.702  -3.559   6.026  1.00  0.00     0.029 A 
ATOM     23  C   UNL     1       6.089  -2.881   7.261  1.00  0.00     0.049 A 
ATOM     24  H   UNL     1       5.837  -0.865   7.726  1.00  0.00     0.167 HD
ATOM     25  C   UNL     1       5.247   3.389   8.569  1.00  0.00     0.031 A 
ATOM     26  C   UNL     1       6.681  -3.470   8.321  1.00  0.00     0.031 A 
ATOM     27  C   UNL     1       5.809   2.830   9.769  1.00  0.00     0.049 A 
ATOM     28  C   UNL     1       6.990  -2.644   9.541  1.00  0.00     0.074 A 
ATOM     29  C   UNL     1       6.067   3.470  10.967  1.00  0.00     0.029 A 
ATOM     30  N   UNL     1       6.188   1.506   9.930  1.00  0.00    -0.354 N 
ATOM     31  N   UNL     1       6.757  -1.370   9.751  1.00  0.00    -0.248 NA
ATOM     32  C   UNL     1       7.630  -3.332  10.672  1.00  0.00     0.031 C 
ATOM     33  C   UNL     1       6.666   2.551  11.830  1.00  0.00     0.029 A 
ATOM     34  C   UNL     1       6.707   1.317  11.198  1.00  0.00     0.049 A 
ATOM     35  H   UNL     1       6.100   0.805   9.244  1.00  0.00     0.167 HD
ATOM     36  C   UNL     1       7.202  -1.108  11.042  1.00  0.00     0.074 A 
ATOM     37  C   UNL     1       7.702  -2.359  11.574  1.00  0.00     0.031 C 
ATOM     38  C   UNL     1       7.197   0.065  11.722  1.00  0.00     0.031 A 
BRANCH  25  39
ATOM     39  C   UNL     1       4.918   4.860   8.565  1.00  0.00    -0.014 A 
ATOM     40  C   UNL     1       5.952   5.808   8.676  1.00  0.00     0.010 A 
ATOM     41  C   UNL     1       3.583   5.302   8.572  1.00  0.00     0.010 A 
ATOM     42  C   UNL     1       5.658   7.165   8.829  1.00  0.00     0.020 A 
ATOM     43  C   UNL     1       3.285   6.662   8.692  1.00  0.00     0.020 A 
ATOM     44  C   UNL     1       4.324   7.582   8.847  1.00  0.00     0.054 A 
BRANCH  44  45
ATOM     45  S   UNL     1       3.960   9.343   9.084  1.00  0.00     0.124 S 
ATOM     46  O   UNL     1       4.236   9.526  10.505  1.00  0.00    -0.237 OA
ATOM     47  O   UNL     1       4.899   9.989   8.169  1.00  0.00    -0.237 OA
ATOM     48  O   UNL     1       2.554   9.456   8.699  1.00  0.00    -0.744 OA
ENDBRANCH  44  45
ENDBRANCH  25  39
BRANCH  26  49
ATOM     49  C   UNL     1       6.969  -4.932   8.274  1.00  0.00    -0.014 A 
ATOM     50  C   UNL     1       7.925  -5.444   7.375  1.00  0.00     0.010 A 
ATOM     51  C   UNL     1       6.228  -5.829   9.063  1.00  0.00     0.010 A 
ATOM     52  C   UNL     1       8.089  -6.823   7.222  1.00  0.00     0.020 A 
ATOM     53  C   UNL     1       6.413  -7.210   8.935  1.00  0.00     0.020 A 
ATOM     54  C   UNL     1       7.319  -7.698   7.992  1.00  0.00     0.054 A 
BRANCH  54  55
ATOM     55  S   UNL     1       7.502  -9.484   7.726  1.00  0.00     0.124 S 
ATOM     56  O   UNL     1       6.805  -9.669   6.456  1.00  0.00    -0.237 OA
ATOM     57  O   UNL     1       8.951  -9.653   7.678  1.00  0.00    -0.237 OA
ATOM     58  O   UNL     1       6.846 -10.073   8.891  1.00  0.00    -0.744 OA
ENDBRANCH  54  55
ENDBRANCH  26  49
BRANCH  38  59
ATOM     59  C   UNL     1       7.743   0.086  13.127  1.00  0.00    -0.014 A 
ATOM     60  C   UNL     1       6.881   0.365  14.204  1.00  0.00     0.010 A 
ATOM     61  C   UNL     1       9.126  -0.007  13.363  1.00  0.00     0.010 A 
ATOM     62  C   UNL     1       7.394   0.602  15.482  1.00  0.00     0.020 A 
ATOM     63  C   UNL     1       9.640   0.197  14.646  1.00  0.00     0.020 A 
ATOM     64  C   UNL     1       8.774   0.530  15.691  1.00  0.00     0.054 A 
BRANCH  64  65
ATOM     65  S   UNL     1       9.426   0.897  17.343  1.00  0.00     0.124 S 
ATOM     66  O   UNL     1       9.304   2.350  17.407  1.00  0.00    -0.237 OA
ATOM     67  O   UNL     1       8.525   0.150  18.217  1.00  0.00    -0.237 OA
ATOM     68  O   UNL     1      10.795   0.387  17.292  1.00  0.00    -0.744 OA
ENDBRANCH  64  65
ENDBRANCH  38  59
ENDBRANCH  12  13
ENDBRANCH   5   7
ENDBRANCH   2   3
ENDBRANCH   1   2
BRANCH   1  69
ATOM     69  C   UNL     1       4.474  -1.153  -3.672  1.00  0.00     0.023 C 
BRANCH  69  70
ATOM     70  C   UNL     1       4.918   0.177  -4.273  1.00  0.00     0.116 C 
BRANCH  70  71
ATOM     71  N   UNL     1       6.367   0.287  -4.345  1.00  0.00    -0.349 N 
ATOM     72  C   UNL     1       7.167   0.418  -5.467  1.00  0.00     0.289 C 
ATOM     73  H   UNL     1       6.841   0.264  -3.483  1.00  0.00     0.163 HD
ATOM     74  O   UNL     1       8.387   0.316  -5.341  1.00  0.00    -0.266 OA
BRANCH  72  75
ATOM     75  C   UNL     1       6.543   0.676  -6.809  1.00  0.00     0.220 A 
ATOM     76  N   UNL     1       7.054   0.008  -7.858  1.00  0.00    -0.206 NA
ATOM     77  N   UNL     1       5.499   1.525  -6.834  1.00  0.00    -0.224 NA
ATOM     78  C   UNL     1       6.439   0.185  -9.029  1.00  0.00     0.138 A 
ATOM     79  C   UNL     1       4.868   1.656  -7.993  1.00  0.00     0.077 A 
ATOM     80  C   UNL     1       5.292   1.006  -9.158  1.00  0.00     0.043 A 
ATOM     81  C   UNL     1       3.729   2.451  -8.030  1.00  0.00     0.029 A 
ATOM     82  C   UNL     1       4.542   1.198 -10.348  1.00  0.00     0.014 A 
ATOM     83  C   UNL     1       2.983   2.614  -9.197  1.00  0.00     0.002 A 
ATOM     84  C   UNL     1       3.392   1.985 -10.363  1.00  0.00     0.001 A 
BRANCH  78  85
ATOM     85  N   UNL     1       6.951  -0.446 -10.150  1.00  0.00    -0.368 N 
ATOM     86  H   UNL     1       6.684  -0.083 -11.025  1.00  0.00     0.162 HD
BRANCH  85  87
ATOM     87  C   UNL     1       7.850  -1.602 -10.159  1.00  0.00     0.127 C 
BRANCH  87  88
ATOM     88  C   UNL     1       7.207  -3.067 -10.225  1.00  0.00     0.070 C 
ATOM     89  C   UNL     1       7.553  -3.902  -8.969  1.00  0.00    -0.035 A 
ATOM     90  C   UNL     1       5.787  -3.270 -10.826  1.00  0.00    -0.025 A 
ATOM     91  C   UNL     1       7.778  -3.325  -7.709  1.00  0.00     0.005 A 
ATOM     92  C   UNL     1       7.711  -5.304  -9.066  1.00  0.00    -0.034 A 
ATOM     93  C   UNL     1       5.010  -4.453 -10.766  1.00  0.00     0.011 A 
ATOM     94  C   UNL     1       5.222  -2.229 -11.598  1.00  0.00     0.005 A 
ATOM     95  C   UNL     1       8.184  -4.085  -6.606  1.00  0.00     0.000 A 
ATOM     96  C   UNL     1       8.109  -6.066  -7.947  1.00  0.00     0.005 A 
ATOM     97  C   UNL     1       7.297  -6.035 -10.308  1.00  0.00     0.110 C 
ATOM     98  S   UNL     1       5.492  -6.127 -10.315  1.00  0.00    -0.121 SA
ATOM     99  C   UNL     1       3.665  -4.440 -11.216  1.00  0.00     0.015 A 
ATOM    100  C   UNL     1       3.901  -2.231 -12.057  1.00  0.00     0.000 A 
ATOM    101  C   UNL     1       8.356  -5.456  -6.726  1.00  0.00     0.000 A 
ATOM    102  C   UNL     1       3.101  -3.327 -11.823  1.00  0.00     0.001 A 
ENDBRANCH  87  88
ENDBRANCH  85  87
ENDBRANCH  78  85
ENDBRANCH  72  75
ENDBRANCH  70  71
ENDBRANCH  69  70
ENDBRANCH   1  69
TORSDOF 17
