REMARK SMILES COc1cccc(-c2ccc(Nc3cccc(C(=O)NCCCCNC(=O)c4ccc(-c5c6nc(c(-c7ccc(S(=O)(=O)[O-])cc7)c7ccc([nH]7)c(-c7ccc(S(=O)(=O)[O-])cc7)c7nc(c(-c8ccc(S(=O)(=O)[O-])cc8)c8ccc5[nH]8)C=C7)C=C6)cc4)c3)nn2)c1
REMARK SMILES IDX 22 1 21 2 20 3 18 4 19 5 17 7 13 8 14 9 88 10 15 11 16 12
REMARK SMILES IDX 12 13 11 15 8 16 9 17 90 18 10 19 89 20 7 21 3 22 4 23 91 24
REMARK SMILES IDX 5 25 6 26 2 27 1 28 23 29 24 30 25 31 26 32 27 34 28 35
REMARK SMILES IDX 29 36 87 37 30 38 86 39 31 40 32 41 33 42 80 43 34 44 85 45
REMARK SMILES IDX 79 46 81 47 35 48 84 49 78 50 77 51 36 53 66 54 47 55 65 56
REMARK SMILES IDX 48 57 51 58 64 59 82 60 49 61 50 62 63 64 83 65 52 66 37 67
REMARK SMILES IDX 38 68 46 69 39 70 45 71 40 72 41 73 42 74 43 75 44 76 67 77
REMARK SMILES IDX 68 78 76 79 69 80 75 81 70 82 71 83 72 84 73 85 74 86 53 87
REMARK SMILES IDX 54 88 62 89 55 90 61 91 56 92 57 93 58 94 59 95 60 96
REMARK H PARENT 20 6 12 14 25 33 81 52 51 63
REMARK Flexibility Score: inf
ROOT
ATOM      1  C   UNL     1       7.553   3.218   3.098  1.00  0.00     0.023 C 
ENDROOT
BRANCH   1   2
ATOM      2  C   UNL     1       7.187   4.431   2.251  1.00  0.00     0.116 C 
BRANCH   2   3
ATOM      3  N   UNL     1       7.595   5.710   2.812  1.00  0.00    -0.352 N 
ATOM      4  C   UNL     1       8.248   6.782   2.239  1.00  0.00     0.251 C 
ATOM      5  O   UNL     1       8.502   7.766   2.931  1.00  0.00    -0.269 OA
ATOM      6  H   UNL     1       7.367   5.831   3.762  1.00  0.00     0.163 HD
BRANCH   4   7
ATOM      7  C   UNL     1       8.720   6.750   0.830  1.00  0.00     0.041 A 
ATOM      8  C   UNL     1       8.568   5.863  -1.434  1.00  0.00     0.040 A 
ATOM      9  C   UNL     1       9.817   6.430  -1.715  1.00  0.00     0.026 A 
ATOM     10  C   UNL     1       7.994   6.124  -0.185  1.00  0.00     0.040 A 
ATOM     11  C   UNL     1      10.488   7.196  -0.756  1.00  0.00     0.003 A 
ATOM     12  C   UNL     1       9.952   7.335   0.524  1.00  0.00     0.014 A 
BRANCH   8  13
ATOM     13  N   UNL     1       7.965   4.992  -2.358  1.00  0.00    -0.339 N 
ATOM     14  H   UNL     1       8.537   4.699  -3.103  1.00  0.00     0.168 HD
BRANCH  13  15
ATOM     15  C   UNL     1       6.656   4.484  -2.359  1.00  0.00     0.153 A 
ATOM     16  C   UNL     1       4.096   3.454  -2.264  1.00  0.00     0.093 A 
ATOM     17  C   UNL     1       5.137   2.643  -2.691  1.00  0.00     0.035 A 
ATOM     18  N   UNL     1       4.343   4.727  -1.890  1.00  0.00    -0.148 NA
ATOM     19  C   UNL     1       6.431   3.169  -2.746  1.00  0.00     0.051 A 
ATOM     20  N   UNL     1       5.623   5.231  -1.926  1.00  0.00    -0.132 NA
BRANCH  16  21
ATOM     21  C   UNL     1       2.689   3.041  -2.243  1.00  0.00     0.006 A 
ATOM     22  C   UNL     1       0.925   1.453  -1.691  1.00  0.00     0.119 A 
ATOM     23  C   UNL     1      -0.023   2.286  -2.283  1.00  0.00     0.046 A 
ATOM     24  C   UNL     1       2.276   1.816  -1.687  1.00  0.00     0.056 A 
ATOM     25  C   UNL     1       0.363   3.508  -2.824  1.00  0.00     0.005 A 
ATOM     26  C   UNL     1       1.706   3.883  -2.795  1.00  0.00     0.011 A 
BRANCH  22  27
ATOM     27  O   UNL     1       0.456   0.268  -1.191  1.00  0.00    -0.497 OA
ATOM     28  C   UNL     1       0.977  -0.058   0.098  1.00  0.00     0.278 C 
ENDBRANCH  22  27
ENDBRANCH  16  21
ENDBRANCH  13  15
ENDBRANCH   8  13
ENDBRANCH   4   7
ENDBRANCH   2   3
ENDBRANCH   1   2
BRANCH   1  29
ATOM     29  C   UNL     1       6.899   3.123   4.471  1.00  0.00     0.023 C 
BRANCH  29  30
ATOM     30  C   UNL     1       5.384   3.287   4.510  1.00  0.00     0.116 C 
BRANCH  30  31
ATOM     31  N   UNL     1       4.661   2.355   3.656  1.00  0.00    -0.352 N 
ATOM     32  C   UNL     1       3.599   1.526   3.955  1.00  0.00     0.251 C 
ATOM     33  H   UNL     1       4.978   2.309   2.725  1.00  0.00     0.163 HD
ATOM     34  O   UNL     1       3.159   0.765   3.106  1.00  0.00    -0.269 OA
BRANCH  32  35
ATOM     35  C   UNL     1       3.027   1.531   5.324  1.00  0.00     0.039 A 
ATOM     36  C   UNL     1       2.823   0.310   5.974  1.00  0.00     0.014 A 
ATOM     37  C   UNL     1       2.729   2.728   5.978  1.00  0.00     0.014 A 
ATOM     38  C   UNL     1       2.413   0.296   7.311  1.00  0.00     0.010 A 
ATOM     39  C   UNL     1       2.398   2.714   7.331  1.00  0.00     0.010 A 
ATOM     40  C   UNL     1       2.245   1.499   8.016  1.00  0.00    -0.014 A 
BRANCH  40  41
ATOM     41  C   UNL     1       1.932   1.512   9.470  1.00  0.00     0.031 A 
ATOM     42  C   UNL     1       0.645   2.118   9.964  1.00  0.00     0.074 A 
ATOM     43  C   UNL     1       2.839   1.051  10.356  1.00  0.00     0.049 A 
ATOM     44  N   UNL     1       0.236   2.295  11.195  1.00  0.00    -0.248 NA
ATOM     45  C   UNL     1      -0.291   2.615   8.943  1.00  0.00     0.031 C 
ATOM     46  C   UNL     1       4.146   0.483  10.016  1.00  0.00     0.029 A 
ATOM     47  N   UNL     1       2.804   0.998  11.728  1.00  0.00    -0.354 N 
ATOM     48  C   UNL     1      -0.990   2.942  11.097  1.00  0.00     0.074 A 
ATOM     49  C   UNL     1      -1.237   3.166   9.688  1.00  0.00     0.031 C 
ATOM     50  C   UNL     1       4.775   0.117  11.145  1.00  0.00     0.029 A 
ATOM     51  C   UNL     1       3.937   0.457  12.290  1.00  0.00     0.049 A 
ATOM     52  H   UNL     1       2.040   1.318  12.260  1.00  0.00     0.167 HD
ATOM     53  C   UNL     1      -1.844   3.302  12.085  1.00  0.00     0.031 A 
ATOM     54  C   UNL     1       4.270   0.261  13.581  1.00  0.00     0.031 A 
ATOM     55  C   UNL     1      -1.611   3.063  13.484  1.00  0.00     0.049 A 
ATOM     56  C   UNL     1       3.301   0.659  14.661  1.00  0.00     0.074 A 
ATOM     57  C   UNL     1      -2.443   3.338  14.554  1.00  0.00     0.029 A 
ATOM     58  N   UNL     1      -0.463   2.489  14.007  1.00  0.00    -0.354 N 
ATOM     59  N   UNL     1       2.119   1.215  14.542  1.00  0.00    -0.248 NA
ATOM     60  C   UNL     1       3.707   0.392  16.048  1.00  0.00     0.031 C 
ATOM     61  C   UNL     1      -1.783   2.965  15.730  1.00  0.00     0.029 A 
ATOM     62  C   UNL     1      -0.558   2.414  15.387  1.00  0.00     0.049 A 
ATOM     63  H   UNL     1       0.307   2.180  13.477  1.00  0.00     0.167 HD
ATOM     64  C   UNL     1       1.630   1.341  15.837  1.00  0.00     0.074 A 
ATOM     65  C   UNL     1       2.637   0.792  16.722  1.00  0.00     0.031 C 
ATOM     66  C   UNL     1       0.450   1.863  16.255  1.00  0.00     0.031 A 
BRANCH  53  67
ATOM     67  C   UNL     1      -3.118   3.995  11.679  1.00  0.00    -0.014 A 
ATOM     68  C   UNL     1      -4.146   3.293  11.023  1.00  0.00     0.010 A 
ATOM     69  C   UNL     1      -3.302   5.356  11.981  1.00  0.00     0.010 A 
ATOM     70  C   UNL     1      -5.315   3.951  10.635  1.00  0.00     0.020 A 
ATOM     71  C   UNL     1      -4.482   6.012  11.618  1.00  0.00     0.020 A 
ATOM     72  C   UNL     1      -5.473   5.309  10.929  1.00  0.00     0.054 A 
BRANCH  72  73
ATOM     73  S   UNL     1      -7.007   6.135  10.425  1.00  0.00     0.124 S 
ATOM     74  O   UNL     1      -6.802   6.297   8.988  1.00  0.00    -0.237 OA
ATOM     75  O   UNL     1      -8.034   5.169  10.807  1.00  0.00    -0.237 OA
ATOM     76  O   UNL     1      -7.004   7.374  11.199  1.00  0.00    -0.744 OA
ENDBRANCH  72  73
ENDBRANCH  53  67
BRANCH  54  77
ATOM     77  C   UNL     1       5.575  -0.366  13.926  1.00  0.00    -0.014 A 
ATOM     78  C   UNL     1       5.622  -1.687  14.405  1.00  0.00     0.010 A 
ATOM     79  C   UNL     1       6.776   0.348  13.767  1.00  0.00     0.010 A 
ATOM     80  C   UNL     1       6.845  -2.278  14.734  1.00  0.00     0.020 A 
ATOM     81  C   UNL     1       8.003  -0.248  14.072  1.00  0.00     0.020 A 
ATOM     82  C   UNL     1       8.029  -1.555  14.565  1.00  0.00     0.054 A 
BRANCH  82  83
ATOM     83  S   UNL     1       9.610  -2.360  14.944  1.00  0.00     0.124 S 
ATOM     84  O   UNL     1       9.627  -2.322  16.403  1.00  0.00    -0.237 OA
ATOM     85  O   UNL     1       9.444  -3.683  14.347  1.00  0.00    -0.237 OA
ATOM     86  O   UNL     1      10.594  -1.507  14.282  1.00  0.00    -0.744 OA
ENDBRANCH  82  83
ENDBRANCH  54  77
BRANCH  66  87
ATOM     87  C   UNL     1       0.165   1.836  17.732  1.00  0.00    -0.014 A 
ATOM     88  C   UNL     1       0.812   2.718  18.614  1.00  0.00     0.010 A 
ATOM     89  C   UNL     1      -0.805   0.950  18.234  1.00  0.00     0.010 A 
ATOM     90  C   UNL     1       0.513   2.696  19.979  1.00  0.00     0.020 A 
ATOM     91  C   UNL     1      -1.124   0.941  19.594  1.00  0.00     0.020 A 
ATOM     92  C   UNL     1      -0.453   1.806  20.461  1.00  0.00     0.054 A 
BRANCH  92  93
ATOM     93  S   UNL     1      -0.859   1.827  22.229  1.00  0.00     0.124 S 
ATOM     94  O   UNL     1       0.284   1.128  22.811  1.00  0.00    -0.237 OA
ATOM     95  O   UNL     1      -0.939   3.255  22.525  1.00  0.00    -0.237 OA
ATOM     96  O   UNL     1      -2.130   1.110  22.300  1.00  0.00    -0.744 OA
ENDBRANCH  92  93
ENDBRANCH  66  87
ENDBRANCH  40  41
ENDBRANCH  32  35
ENDBRANCH  30  31
ENDBRANCH  29  30
ENDBRANCH   1  29
TORSDOF 18
