REMARK SMILES CCN(CCO)C(=O)N[C@H]1CCCCC[C@H]1C(=O)NCCCCNC(=O)c1ccc(-c2c3nc(c(-c4ccc(S(=O)(=O)[O-])cc4)c4ccc([nH]4)c(-c4ccc(S(=O)(=O)[O-])cc4)c4nc(c(-c5ccc(S(=O)(=O)[O-])cc5)c5ccc2[nH]5)C=C4)C=C3)cc1
REMARK SMILES IDX 20 1 19 2 17 3 18 4 16 6 10 7 9 8 7 9 8 10 3 12 2 13 1 14
REMARK SMILES IDX 4 15 5 16 6 17 11 19 15 21 14 22 13 23 12 24 21 26 22 27
REMARK SMILES IDX 23 28 24 29 25 30 26 32 27 33 28 34 86 35 29 36 85 37 30 38
REMARK SMILES IDX 31 39 32 40 79 41 33 42 84 43 78 44 80 45 34 46 83 47 77 48
REMARK SMILES IDX 76 49 35 51 65 52 46 53 64 54 47 55 50 56 63 57 81 58 48 59
REMARK SMILES IDX 49 60 62 62 82 63 51 64 36 65 37 66 45 67 38 68 44 69 39 70
REMARK SMILES IDX 40 71 41 72 42 73 43 74 66 75 67 76 75 77 68 78 74 79 69 80
REMARK SMILES IDX 70 81 71 82 72 83 73 84 52 85 53 86 61 87 54 88 60 89 55 90
REMARK SMILES IDX 56 91 57 92 58 93 59 94
REMARK H PARENT 19 5 9 11 6 18 24 31 80 50 50 61
REMARK Flexibility Score: 100.00
ROOT
ATOM      1  C   UNL     1      -0.751   7.167  -1.246  1.00  0.00     0.116 C 
ENDROOT
BRANCH   1   2
ATOM      2  N   UNL     1      -0.995   5.873  -1.825  1.00  0.00    -0.356 N 
ATOM      3  C   UNL     1      -0.749   4.634  -1.327  1.00  0.00     0.225 C 
ATOM      4  O   UNL     1      -1.309   3.690  -1.900  1.00  0.00    -0.275 OA
ATOM      5  H   UNL     1      -1.402   5.889  -2.721  1.00  0.00     0.163 HD
BRANCH   3   6
ATOM      6  C   UNL     1       0.168   4.342  -0.120  1.00  0.00     0.101 C 
BRANCH   6   7
ATOM      7  C   UNL     1       1.675   4.670  -0.244  1.00  0.00     0.096 C 
BRANCH   7   8
ATOM      8  N   UNL     1       2.084   5.101  -1.582  1.00  0.00    -0.334 N 
ATOM      9  C   UNL     1       2.183   4.515  -2.794  1.00  0.00     0.317 C 
ATOM     10  O   UNL     1       2.309   5.301  -3.739  1.00  0.00    -0.249 OA
ATOM     11  H   UNL     1       2.353   6.048  -1.603  1.00  0.00     0.165 HD
BRANCH   9  12
ATOM     12  N   UNL     1       2.177   3.158  -2.990  1.00  0.00    -0.323 N 
BRANCH  12  13
ATOM     13  C   UNL     1       2.066   2.705  -4.384  1.00  0.00     0.118 C 
ATOM     14  C   UNL     1       0.639   2.821  -4.904  1.00  0.00     0.027 C 
ENDBRANCH  12  13
BRANCH  12  15
ATOM     15  C   UNL     1       2.339   2.079  -2.008  1.00  0.00     0.149 C 
BRANCH  15  16
ATOM     16  C   UNL     1       3.799   1.862  -1.586  1.00  0.00     0.177 C 
BRANCH  16  17
ATOM     17  O   UNL     1       4.414   3.039  -1.074  1.00  0.00    -0.395 OA
ATOM     18  H   UNL     1       4.430   3.721  -1.763  1.00  0.00     0.210 HD
ENDBRANCH  16  17
ENDBRANCH  15  16
ENDBRANCH  12  15
ENDBRANCH   9  12
ENDBRANCH   7   8
BRANCH   7  19
ATOM     19  C   UNL     1       2.353   5.508   0.858  1.00  0.00     0.026 CG0
ATOM     20  G   UNL     1       1.695   6.782   1.356  1.00  0.00     0.000 G0
ENDBRANCH   7  19
ENDBRANCH   6   7
BRANCH   6  21
ATOM     21  C   UNL     1      -0.475   4.456   1.268  1.00  0.00     0.015 C 
BRANCH  21  22
ATOM     22  C   UNL     1      -0.695   5.824   1.890  1.00  0.00     0.001 C 
BRANCH  22  23
ATOM     23  C   UNL     1       0.554   6.570   2.348  1.00  0.00     0.000 C 
BRANCH  23  24
ATOM     24  C   UNL     1       1.695   6.782   1.356  1.00  0.00     0.002 CG0
ATOM     25  G   UNL     1       2.353   5.508   0.858  1.00  0.00     0.000 G0
ENDBRANCH  23  24
ENDBRANCH  22  23
ENDBRANCH  21  22
ENDBRANCH   6  21
ENDBRANCH   3   6
ENDBRANCH   1   2
BRANCH   1  26
ATOM     26  C   UNL     1       0.124   8.093  -2.082  1.00  0.00     0.023 C 
BRANCH  26  27
ATOM     27  C   UNL     1      -0.601   9.271  -2.728  1.00  0.00     0.023 C 
BRANCH  27  28
ATOM     28  C   UNL     1      -1.534  10.081  -1.833  1.00  0.00     0.116 C 
BRANCH  28  29
ATOM     29  N   UNL     1      -0.952  10.578  -0.592  1.00  0.00    -0.352 N 
ATOM     30  C   UNL     1      -1.346  11.704   0.111  1.00  0.00     0.251 C 
ATOM     31  H   UNL     1      -0.203  10.061  -0.217  1.00  0.00     0.163 HD
ATOM     32  O   UNL     1      -0.787  12.040   1.143  1.00  0.00    -0.269 OA
BRANCH  30  33
ATOM     33  C   UNL     1      -2.431  12.525  -0.472  1.00  0.00     0.039 A 
ATOM     34  C   UNL     1      -2.129  13.813  -0.919  1.00  0.00     0.014 A 
ATOM     35  C   UNL     1      -3.662  11.935  -0.764  1.00  0.00     0.014 A 
ATOM     36  C   UNL     1      -3.019  14.461  -1.779  1.00  0.00     0.010 A 
ATOM     37  C   UNL     1      -4.505  12.549  -1.683  1.00  0.00     0.010 A 
ATOM     38  C   UNL     1      -4.175  13.801  -2.228  1.00  0.00    -0.014 A 
BRANCH  38  39
ATOM     39  C   UNL     1      -5.014  14.359  -3.322  1.00  0.00     0.031 A 
ATOM     40  C   UNL     1      -6.466  14.666  -3.081  1.00  0.00     0.074 A 
ATOM     41  C   UNL     1      -4.499  14.483  -4.564  1.00  0.00     0.049 A 
ATOM     42  N   UNL     1      -7.383  15.037  -3.937  1.00  0.00    -0.248 NA
ATOM     43  C   UNL     1      -6.959  14.497  -1.705  1.00  0.00     0.031 C 
ATOM     44  C   UNL     1      -3.122  14.160  -4.952  1.00  0.00     0.029 A 
ATOM     45  N   UNL     1      -5.079  14.902  -5.737  1.00  0.00    -0.354 N 
ATOM     46  C   UNL     1      -8.565  15.116  -3.212  1.00  0.00     0.074 A 
ATOM     47  C   UNL     1      -8.257  14.713  -1.857  1.00  0.00     0.031 C 
ATOM     48  C   UNL     1      -2.958  14.421  -6.260  1.00  0.00     0.029 A 
ATOM     49  C   UNL     1      -4.224  14.888  -6.815  1.00  0.00     0.049 A 
ATOM     50  H   UNL     1      -6.020  15.186  -5.800  1.00  0.00     0.167 HD
ATOM     51  C   UNL     1      -9.793  15.504  -3.630  1.00  0.00     0.031 A 
ATOM     52  C   UNL     1      -4.433  15.207  -8.107  1.00  0.00     0.031 A 
ATOM     53  C   UNL     1     -10.095  15.935  -4.968  1.00  0.00     0.049 A 
ATOM     54  C   UNL     1      -5.798  15.664  -8.542  1.00  0.00     0.074 A 
ATOM     55  C   UNL     1     -11.292  16.418  -5.467  1.00  0.00     0.029 A 
ATOM     56  N   UNL     1      -9.191  15.942  -6.018  1.00  0.00    -0.354 N 
ATOM     57  N   UNL     1      -6.888  15.793  -7.824  1.00  0.00    -0.248 NA
ATOM     58  C   UNL     1      -5.960  16.021  -9.958  1.00  0.00     0.031 C 
ATOM     59  C   UNL     1     -11.120  16.687  -6.829  1.00  0.00     0.029 A 
ATOM     60  C   UNL     1      -9.806  16.407  -7.168  1.00  0.00     0.049 A 
ATOM     61  H   UNL     1      -8.250  15.658  -5.956  1.00  0.00     0.167 HD
ATOM     62  C   UNL     1      -7.861  16.264  -8.698  1.00  0.00     0.074 A 
ATOM     63  C   UNL     1      -7.228  16.410  -9.993  1.00  0.00     0.031 C 
ATOM     64  C   UNL     1      -9.162  16.549  -8.448  1.00  0.00     0.031 A 
BRANCH  51  65
ATOM     65  C   UNL     1     -10.903  15.480  -2.615  1.00  0.00    -0.014 A 
ATOM     66  C   UNL     1     -10.948  16.423  -1.572  1.00  0.00     0.010 A 
ATOM     67  C   UNL     1     -11.921  14.515  -2.712  1.00  0.00     0.010 A 
ATOM     68  C   UNL     1     -11.962  16.369  -0.614  1.00  0.00     0.020 A 
ATOM     69  C   UNL     1     -12.952  14.473  -1.769  1.00  0.00     0.020 A 
ATOM     70  C   UNL     1     -12.952  15.387  -0.713  1.00  0.00     0.054 A 
BRANCH  70  71
ATOM     71  S   UNL     1     -14.259  15.339   0.543  1.00  0.00     0.124 S 
ATOM     72  O   UNL     1     -13.568  14.717   1.670  1.00  0.00    -0.237 OA
ATOM     73  O   UNL     1     -14.596  16.750   0.716  1.00  0.00    -0.237 OA
ATOM     74  O   UNL     1     -15.303  14.524  -0.075  1.00  0.00    -0.744 OA
ENDBRANCH  70  71
ENDBRANCH  51  65
BRANCH  52  75
ATOM     75  C   UNL     1      -3.314  15.127  -9.085  1.00  0.00    -0.014 A 
ATOM     76  C   UNL     1      -2.706  16.302  -9.560  1.00  0.00     0.010 A 
ATOM     77  C   UNL     1      -2.843  13.881  -9.536  1.00  0.00     0.010 A 
ATOM     78  C   UNL     1      -1.656  16.235 -10.480  1.00  0.00     0.020 A 
ATOM     79  C   UNL     1      -1.778  13.809 -10.440  1.00  0.00     0.020 A 
ATOM     80  C   UNL     1      -1.198  14.988 -10.915  1.00  0.00     0.054 A 
BRANCH  80  81
ATOM     81  S   UNL     1       0.202  14.920 -12.067  1.00  0.00     0.124 S 
ATOM     82  O   UNL     1      -0.432  15.262 -13.336  1.00  0.00    -0.237 OA
ATOM     83  O   UNL     1       1.111  15.926 -11.522  1.00  0.00    -0.237 OA
ATOM     84  O   UNL     1       0.671  13.541 -11.950  1.00  0.00    -0.744 OA
ENDBRANCH  80  81
ENDBRANCH  52  75
BRANCH  64  85
ATOM     85  C   UNL     1      -9.989  17.070  -9.591  1.00  0.00    -0.014 A 
ATOM     86  C   UNL     1     -10.456  16.206 -10.596  1.00  0.00     0.010 A 
ATOM     87  C   UNL     1     -10.360  18.426  -9.618  1.00  0.00     0.010 A 
ATOM     88  C   UNL     1     -11.270  16.695 -11.621  1.00  0.00     0.020 A 
ATOM     89  C   UNL     1     -11.191  18.913 -10.630  1.00  0.00     0.020 A 
ATOM     90  C   UNL     1     -11.633  18.046 -11.631  1.00  0.00     0.054 A 
BRANCH  90  91
ATOM     91  S   UNL     1     -12.744  18.645 -12.935  1.00  0.00     0.124 S 
ATOM     92  O   UNL     1     -11.841  18.751 -14.078  1.00  0.00    -0.237 OA
ATOM     93  O   UNL     1     -13.744  17.584 -13.020  1.00  0.00    -0.237 OA
ATOM     94  O   UNL     1     -13.238  19.916 -12.410  1.00  0.00    -0.744 OA
ENDBRANCH  90  91
ENDBRANCH  64  85
ENDBRANCH  38  39
ENDBRANCH  30  33
ENDBRANCH  28  29
ENDBRANCH  27  28
ENDBRANCH  26  27
ENDBRANCH   1  26
TORSDOF 20
