REMARK SMILES O=C(NCCCCNC(=O)c1ccc(-c2c3nc(c(-c4ccc(S(=O)(=O)[O-])cc4)c4ccc([nH]4)c(-c4ccc(S(=O)(=O)[O-])cc4)c4nc(c(-c5ccc(S(=O)(=O)[O-])cc5)c5ccc2[nH]5)C=C4)C=C3)cc1)C1=Cc2cc(Cl)cc(Cl)c2O[C@@H]1C(F)(F)F
REMARK SMILES IDX 6 1 5 2 4 3 3 4 1 5 2 6 71 8 72 9 82 10 73 11 81 12 74 13
REMARK SMILES IDX 80 14 75 15 78 16 76 17 77 18 79 19 83 20 84 21 85 22 86 23
REMARK SMILES IDX 7 24 8 25 9 26 10 28 11 29 12 30 70 31 13 32 69 33 14 34
REMARK SMILES IDX 15 35 16 36 63 37 17 38 68 39 62 40 64 41 18 42 67 43 61 44
REMARK SMILES IDX 60 45 19 47 49 48 30 49 48 50 31 51 34 52 47 53 65 54 32 55
REMARK SMILES IDX 33 56 46 58 66 59 35 60 20 61 21 62 29 63 22 64 28 65 23 66
REMARK SMILES IDX 24 67 25 68 26 69 27 70 50 71 51 72 59 73 52 74 58 75 53 76
REMARK SMILES IDX 54 77 55 78 56 79 57 80 36 81 37 82 45 83 38 84 44 85 39 86
REMARK SMILES IDX 40 87 41 88 42 89 43 90
REMARK H PARENT 3 7 8 27 64 46 34 57
REMARK Flexibility Score: inf
ROOT
ATOM      1  C   UNL     1       3.969   4.371   0.435  1.00  0.00     0.023 C 
ENDROOT
BRANCH   1   2
ATOM      2  C   UNL     1       4.316   3.313  -0.604  1.00  0.00     0.023 C 
BRANCH   2   3
ATOM      3  C   UNL     1       3.999   1.870  -0.235  1.00  0.00     0.116 C 
BRANCH   3   4
ATOM      4  N   UNL     1       2.704   1.379  -0.677  1.00  0.00    -0.352 N 
ATOM      5  O   UNL     1       1.099  -0.131  -1.125  1.00  0.00    -0.270 OA
ATOM      6  C   UNL     1       2.287   0.095  -0.900  1.00  0.00     0.251 C 
ATOM      7  H   UNL     1       2.026   2.074  -0.840  1.00  0.00     0.163 HD
BRANCH   6   8
ATOM      8  C   UNL     1       3.214  -1.072  -0.799  1.00  0.00     0.067 C 
ATOM      9  C   UNL     1       4.462  -1.036  -1.295  1.00  0.00     0.025 C 
ATOM     10  C   UNL     1       2.917  -1.969   0.380  1.00  0.00     0.314 C 
ATOM     11  C   UNL     1       5.474  -1.003  -0.209  1.00  0.00     0.020 A 
ATOM     12  O   UNL     1       3.866  -1.757   1.459  1.00  0.00    -0.474 OA
ATOM     13  C   UNL     1       6.727  -0.449  -0.499  1.00  0.00     0.032 A 
ATOM     14  C   UNL     1       5.102  -1.256   1.123  1.00  0.00     0.146 A 
ATOM     15  C   UNL     1       7.567  -0.067   0.544  1.00  0.00     0.043 A 
ATOM     16  C   UNL     1       5.971  -0.888   2.157  1.00  0.00     0.085 A 
ATOM     17  Cl  UNL     1       9.037   0.750   0.185  1.00  0.00    -0.084 Cl
ATOM     18  C   UNL     1       7.192  -0.271   1.870  1.00  0.00     0.045 A 
ATOM     19  Cl  UNL     1       5.522  -1.086   3.812  1.00  0.00    -0.080 Cl
BRANCH  10  20
ATOM     20  C   UNL     1       2.854  -3.452  -0.023  1.00  0.00     0.429 C 
ATOM     21  F   UNL     1       2.473  -4.234   1.014  1.00  0.00    -0.167 F 
ATOM     22  F   UNL     1       1.966  -3.664  -1.023  1.00  0.00    -0.167 F 
ATOM     23  F   UNL     1       4.052  -3.917  -0.455  1.00  0.00    -0.167 F 
ENDBRANCH  10  20
ENDBRANCH   6   8
ENDBRANCH   3   4
ENDBRANCH   2   3
ENDBRANCH   1   2
BRANCH   1  24
ATOM     24  C   UNL     1       4.535   4.174   1.841  1.00  0.00     0.116 C 
BRANCH  24  25
ATOM     25  N   UNL     1       5.973   3.955   1.907  1.00  0.00    -0.352 N 
ATOM     26  C   UNL     1       6.912   4.510   2.757  1.00  0.00     0.251 C 
ATOM     27  H   UNL     1       6.330   3.316   1.248  1.00  0.00     0.163 HD
ATOM     28  O   UNL     1       8.085   4.191   2.659  1.00  0.00    -0.269 OA
BRANCH  26  29
ATOM     29  C   UNL     1       6.498   5.539   3.743  1.00  0.00     0.039 A 
ATOM     30  C   UNL     1       7.212   6.739   3.791  1.00  0.00     0.014 A 
ATOM     31  C   UNL     1       5.382   5.356   4.562  1.00  0.00     0.014 A 
ATOM     32  C   UNL     1       6.734   7.797   4.569  1.00  0.00     0.010 A 
ATOM     33  C   UNL     1       4.862   6.437   5.274  1.00  0.00     0.010 A 
ATOM     34  C   UNL     1       5.518   7.677   5.265  1.00  0.00    -0.014 A 
BRANCH  34  35
ATOM     35  C   UNL     1       4.894   8.863   5.912  1.00  0.00     0.031 A 
ATOM     36  C   UNL     1       4.679   8.917   7.399  1.00  0.00     0.074 A 
ATOM     37  C   UNL     1       4.461   9.879   5.137  1.00  0.00     0.049 A 
ATOM     38  N   UNL     1       4.187   9.891   8.122  1.00  0.00    -0.248 NA
ATOM     39  C   UNL     1       5.035   7.717   8.169  1.00  0.00     0.031 C 
ATOM     40  C   UNL     1       4.535   9.921   3.673  1.00  0.00     0.029 A 
ATOM     41  N   UNL     1       3.878  11.077   5.470  1.00  0.00    -0.354 N 
ATOM     42  C   UNL     1       4.163   9.418   9.429  1.00  0.00     0.074 A 
ATOM     43  C   UNL     1       4.642   8.053   9.390  1.00  0.00     0.031 C 
ATOM     44  C   UNL     1       4.068  11.103   3.241  1.00  0.00     0.029 A 
ATOM     45  C   UNL     1       3.633  11.891   4.389  1.00  0.00     0.049 A 
ATOM     46  H   UNL     1       3.656  11.329   6.396  1.00  0.00     0.167 HD
ATOM     47  C   UNL     1       3.794  10.065  10.562  1.00  0.00     0.031 A 
ATOM     48  C   UNL     1       3.133  13.140   4.325  1.00  0.00     0.031 A 
ATOM     49  C   UNL     1       3.323  11.425  10.604  1.00  0.00     0.049 A 
ATOM     50  C   UNL     1       2.763  13.850   5.596  1.00  0.00     0.074 A 
ATOM     51  C   UNL     1       3.000  12.192  11.710  1.00  0.00     0.029 A 
ATOM     52  N   UNL     1       3.100  12.219   9.489  1.00  0.00    -0.354 N 
ATOM     53  N   UNL     1       2.840  13.419   6.833  1.00  0.00    -0.248 NA
ATOM     54  C   UNL     1       2.256  15.222   5.462  1.00  0.00     0.031 C 
ATOM     55  C   UNL     1       2.539  13.436  11.261  1.00  0.00     0.029 A 
ATOM     56  C   UNL     1       2.621  13.460   9.878  1.00  0.00     0.049 A 
ATOM     57  H   UNL     1       3.259  11.943   8.558  1.00  0.00     0.167 HD
ATOM     58  C   UNL     1       2.409  14.475   7.627  1.00  0.00     0.074 A 
ATOM     59  C   UNL     1       2.092  15.570   6.731  1.00  0.00     0.031 C 
ATOM     60  C   UNL     1       2.289  14.534   8.977  1.00  0.00     0.031 A 
BRANCH  47  61
ATOM     61  C   UNL     1       3.884   9.294  11.853  1.00  0.00    -0.014 A 
ATOM     62  C   UNL     1       5.131   8.956  12.411  1.00  0.00     0.010 A 
ATOM     63  C   UNL     1       2.708   8.910  12.523  1.00  0.00     0.010 A 
ATOM     64  C   UNL     1       5.200   8.200  13.584  1.00  0.00     0.020 A 
ATOM     65  C   UNL     1       2.774   8.177  13.712  1.00  0.00     0.020 A 
ATOM     66  C   UNL     1       4.021   7.806  14.222  1.00  0.00     0.054 A 
BRANCH  66  67
ATOM     67  S   UNL     1       4.137   6.820  15.739  1.00  0.00     0.124 S 
ATOM     68  O   UNL     1       4.476   5.500  15.213  1.00  0.00    -0.237 OA
ATOM     69  O   UNL     1       5.200   7.492  16.481  1.00  0.00    -0.237 OA
ATOM     70  O   UNL     1       2.804   6.932  16.328  1.00  0.00    -0.744 OA
ENDBRANCH  66  67
ENDBRANCH  47  61
BRANCH  48  71
ATOM     71  C   UNL     1       3.010  13.821   3.008  1.00  0.00    -0.014 A 
ATOM     72  C   UNL     1       3.909  14.843   2.656  1.00  0.00     0.010 A 
ATOM     73  C   UNL     1       2.018  13.434   2.090  1.00  0.00     0.010 A 
ATOM     74  C   UNL     1       3.813  15.473   1.412  1.00  0.00     0.020 A 
ATOM     75  C   UNL     1       1.933  14.046   0.836  1.00  0.00     0.020 A 
ATOM     76  C   UNL     1       2.827  15.068   0.508  1.00  0.00     0.054 A 
BRANCH  76  77
ATOM     77  S   UNL     1       2.767  15.848  -1.129  1.00  0.00     0.124 S 
ATOM     78  O   UNL     1       2.159  17.140  -0.828  1.00  0.00    -0.237 OA
ATOM     79  O   UNL     1       4.175  15.885  -1.516  1.00  0.00    -0.237 OA
ATOM     80  O   UNL     1       1.939  14.932  -1.911  1.00  0.00    -0.744 OA
ENDBRANCH  76  77
ENDBRANCH  48  71
BRANCH  60  81
ATOM     81  C   UNL     1       1.807  15.834   9.562  1.00  0.00    -0.014 A 
ATOM     82  C   UNL     1       0.467  16.239   9.427  1.00  0.00     0.010 A 
ATOM     83  C   UNL     1       2.706  16.658  10.262  1.00  0.00     0.010 A 
ATOM     84  C   UNL     1       0.046  17.469   9.938  1.00  0.00     0.020 A 
ATOM     85  C   UNL     1       2.282  17.877  10.798  1.00  0.00     0.020 A 
ATOM     86  C   UNL     1       0.959  18.285  10.613  1.00  0.00     0.054 A 
BRANCH  86  87
ATOM     87  S   UNL     1       0.393  19.876  11.275  1.00  0.00     0.124 S 
ATOM     88  O   UNL     1       0.365  20.709  10.076  1.00  0.00    -0.237 OA
ATOM     89  O   UNL     1      -0.914  19.546  11.840  1.00  0.00    -0.237 OA
ATOM     90  O   UNL     1       1.417  20.226  12.256  1.00  0.00    -0.744 OA
ENDBRANCH  86  87
ENDBRANCH  60  81
ENDBRANCH  34  35
ENDBRANCH  26  29
ENDBRANCH  24  25
ENDBRANCH   1  24
TORSDOF 15
