REMARK SMILES O=C(NCCCCNC(=O)[C@H]1CC[C@H](CNC(=O)c2ccccc2O)O1)c1ccc(-c2c3nc(c(-c4ccc(S(=O)(=O)[O-])cc4)c4ccc([nH]4)c(-c4ccc(S(=O)(=O)[O-])cc4)c4nc(c(-c5ccc(S(=O)(=O)[O-])cc5)c5ccc2[nH]5)C=C4)C=C3)cc1
REMARK SMILES IDX 6 1 5 2 4 3 3 4 1 5 2 6 27 8 28 9 86 10 29 11 85 12 30 13
REMARK SMILES IDX 31 14 32 15 79 16 33 17 84 18 78 19 80 20 34 21 83 22 77 23
REMARK SMILES IDX 76 24 35 26 65 27 46 28 64 29 47 30 50 31 63 32 81 33 48 34
REMARK SMILES IDX 49 35 62 37 82 38 51 39 36 40 37 41 45 42 38 43 44 44 39 45
REMARK SMILES IDX 40 46 41 47 42 48 43 49 66 50 67 51 75 52 68 53 74 54 69 55
REMARK SMILES IDX 70 56 71 57 72 58 73 59 52 60 53 61 61 62 54 63 60 64 55 65
REMARK SMILES IDX 56 66 57 67 58 68 59 69 7 70 8 71 9 72 10 74 11 75 12 76
REMARK SMILES IDX 26 77 13 78 14 79 15 80 16 81 17 82 18 84 19 85 20 86 24 87
REMARK SMILES IDX 21 88 23 89 22 90 25 91
REMARK H PARENT 3 7 80 25 50 36 8 73 16 83 25 92
REMARK Flexibility Score: inf
ROOT
ATOM      1  C   UNL     1       8.532  -0.913   5.544  1.00  0.00     0.023 C 
ENDROOT
BRANCH   1   2
ATOM      2  C   UNL     1       9.159  -0.206   6.751  1.00  0.00     0.023 C 
BRANCH   2   3
ATOM      3  C   UNL     1      10.646  -0.476   6.965  1.00  0.00     0.116 C 
BRANCH   3   4
ATOM      4  N   UNL     1      11.456  -0.079   5.825  1.00  0.00    -0.352 N 
ATOM      5  O   UNL     1      13.033   1.079   4.712  1.00  0.00    -0.269 OA
ATOM      6  C   UNL     1      12.570   0.722   5.793  1.00  0.00     0.251 C 
ATOM      7  H   UNL     1      11.164  -0.434   4.955  1.00  0.00     0.163 HD
BRANCH   6   8
ATOM      8  C   UNL     1      13.192   1.172   7.056  1.00  0.00     0.039 A 
ATOM      9  C   UNL     1      13.445   0.269   8.093  1.00  0.00     0.014 A 
ATOM     10  C   UNL     1      13.537   2.518   7.194  1.00  0.00     0.014 A 
ATOM     11  C   UNL     1      13.940   0.733   9.310  1.00  0.00     0.010 A 
ATOM     12  C   UNL     1      14.092   2.970   8.392  1.00  0.00     0.010 A 
ATOM     13  C   UNL     1      14.276   2.085   9.468  1.00  0.00    -0.014 A 
BRANCH  13  14
ATOM     14  C   UNL     1      14.870   2.569  10.739  1.00  0.00     0.031 A 
ATOM     15  C   UNL     1      14.137   3.555  11.603  1.00  0.00     0.074 A 
ATOM     16  C   UNL     1      16.100   2.148  11.087  1.00  0.00     0.049 A 
ATOM     17  N   UNL     1      14.541   4.153  12.694  1.00  0.00    -0.248 NA
ATOM     18  C   UNL     1      12.777   3.925  11.180  1.00  0.00     0.031 C 
ATOM     19  C   UNL     1      16.910   1.193  10.327  1.00  0.00     0.029 A 
ATOM     20  N   UNL     1      16.892   2.481  12.156  1.00  0.00    -0.354 N 
ATOM     21  C   UNL     1      13.500   4.992  13.075  1.00  0.00     0.074 A 
ATOM     22  C   UNL     1      12.454   4.838  12.087  1.00  0.00     0.031 C 
ATOM     23  C   UNL     1      18.082   1.017  10.953  1.00  0.00     0.029 A 
ATOM     24  C   UNL     1      18.132   1.889  12.122  1.00  0.00     0.049 A 
ATOM     25  H   UNL     1      16.601   3.085  12.877  1.00  0.00     0.167 HD
ATOM     26  C   UNL     1      13.427   5.817  14.149  1.00  0.00     0.031 A 
ATOM     27  C   UNL     1      19.207   2.055  12.915  1.00  0.00     0.031 A 
ATOM     28  C   UNL     1      14.482   5.973  15.117  1.00  0.00     0.049 A 
ATOM     29  C   UNL     1      19.123   3.001  14.076  1.00  0.00     0.074 A 
ATOM     30  C   UNL     1      14.491   6.754  16.260  1.00  0.00     0.029 A 
ATOM     31  N   UNL     1      15.720   5.351  15.048  1.00  0.00    -0.354 N 
ATOM     32  N   UNL     1      18.115   3.752  14.449  1.00  0.00    -0.248 NA
ATOM     33  C   UNL     1      20.314   3.119  14.928  1.00  0.00     0.031 C 
ATOM     34  C   UNL     1      15.755   6.648  16.850  1.00  0.00     0.029 A 
ATOM     35  C   UNL     1      16.512   5.751  16.111  1.00  0.00     0.049 A 
ATOM     36  H   UNL     1      15.995   4.717  14.347  1.00  0.00     0.167 HD
ATOM     37  C   UNL     1      18.540   4.416  15.593  1.00  0.00     0.074 A 
ATOM     38  C   UNL     1      19.896   3.974  15.853  1.00  0.00     0.031 C 
ATOM     39  C   UNL     1      17.861   5.303  16.361  1.00  0.00     0.031 A 
BRANCH  26  40
ATOM     40  C   UNL     1      12.181   6.652  14.297  1.00  0.00    -0.014 A 
ATOM     41  C   UNL     1      10.941   6.072  14.619  1.00  0.00     0.010 A 
ATOM     42  C   UNL     1      12.255   8.045  14.112  1.00  0.00     0.010 A 
ATOM     43  C   UNL     1       9.787   6.859  14.685  1.00  0.00     0.020 A 
ATOM     44  C   UNL     1      11.109   8.840  14.207  1.00  0.00     0.020 A 
ATOM     45  C   UNL     1       9.877   8.237  14.464  1.00  0.00     0.054 A 
BRANCH  45  46
ATOM     46  S   UNL     1       8.361   9.231  14.518  1.00  0.00     0.124 S 
ATOM     47  O   UNL     1       7.722   8.870  13.255  1.00  0.00    -0.237 OA
ATOM     48  O   UNL     1       7.694   8.737  15.721  1.00  0.00    -0.237 OA
ATOM     49  O   UNL     1       8.848  10.605  14.600  1.00  0.00    -0.744 OA
ENDBRANCH  45  46
ENDBRANCH  26  40
BRANCH  27  50
ATOM     50  C   UNL     1      20.453   1.307  12.598  1.00  0.00    -0.014 A 
ATOM     51  C   UNL     1      20.840   0.201  13.371  1.00  0.00     0.010 A 
ATOM     52  C   UNL     1      21.202   1.643  11.454  1.00  0.00     0.010 A 
ATOM     53  C   UNL     1      21.947  -0.567  12.997  1.00  0.00     0.020 A 
ATOM     54  C   UNL     1      22.293   0.863  11.063  1.00  0.00     0.020 A 
ATOM     55  C   UNL     1      22.659  -0.239  11.838  1.00  0.00     0.054 A 
BRANCH  55  56
ATOM     56  S   UNL     1      24.020  -1.317  11.313  1.00  0.00     0.124 S 
ATOM     57  O   UNL     1      25.061  -0.984  12.280  1.00  0.00    -0.237 OA
ATOM     58  O   UNL     1      23.435  -2.649  11.444  1.00  0.00    -0.237 OA
ATOM     59  O   UNL     1      24.281  -0.893   9.939  1.00  0.00    -0.744 OA
ENDBRANCH  55  56
ENDBRANCH  27  50
BRANCH  39  60
ATOM     60  C   UNL     1      18.548   5.838  17.588  1.00  0.00    -0.014 A 
ATOM     61  C   UNL     1      19.553   6.817  17.494  1.00  0.00     0.010 A 
ATOM     62  C   UNL     1      18.102   5.429  18.859  1.00  0.00     0.010 A 
ATOM     63  C   UNL     1      20.100   7.377  18.653  1.00  0.00     0.020 A 
ATOM     64  C   UNL     1      18.630   6.003  20.017  1.00  0.00     0.020 A 
ATOM     65  C   UNL     1      19.629   6.972  19.907  1.00  0.00     0.054 A 
BRANCH  65  66
ATOM     66  S   UNL     1      20.287   7.783  21.391  1.00  0.00     0.124 S 
ATOM     67  O   UNL     1      21.624   7.205  21.486  1.00  0.00    -0.237 OA
ATOM     68  O   UNL     1      20.237   9.198  21.031  1.00  0.00    -0.237 OA
ATOM     69  O   UNL     1      19.358   7.382  22.445  1.00  0.00    -0.744 OA
ENDBRANCH  65  66
ENDBRANCH  39  60
ENDBRANCH  13  14
ENDBRANCH   6   8
ENDBRANCH   3   4
ENDBRANCH   2   3
ENDBRANCH   1   2
BRANCH   1  70
ATOM     70  C   UNL     1       8.757  -2.424   5.503  1.00  0.00     0.116 C 
BRANCH  70  71
ATOM     71  N   UNL     1       8.154  -3.088   6.643  1.00  0.00    -0.354 N 
ATOM     72  C   UNL     1       7.059  -3.898   6.716  1.00  0.00     0.249 C 
ATOM     73  H   UNL     1       8.608  -2.929   7.502  1.00  0.00     0.163 HD
ATOM     74  O   UNL     1       6.725  -4.315   7.828  1.00  0.00    -0.272 OA
BRANCH  72  75
ATOM     75  C   UNL     1       6.307  -4.301   5.438  1.00  0.00     0.207 C 
ATOM     76  C   UNL     1       6.547  -5.775   5.137  1.00  0.00     0.045 C 
ATOM     77  O   UNL     1       4.892  -4.121   5.601  1.00  0.00    -0.363 OA
ATOM     78  C   UNL     1       5.308  -6.440   5.691  1.00  0.00     0.037 C 
ATOM     79  C   UNL     1       4.233  -5.393   5.463  1.00  0.00     0.138 C 
BRANCH  79  80
ATOM     80  C   UNL     1       3.601  -5.441   4.064  1.00  0.00     0.148 C 
BRANCH  80  81
ATOM     81  N   UNL     1       2.732  -6.587   3.858  1.00  0.00    -0.349 N 
ATOM     82  C   UNL     1       1.412  -6.606   3.482  1.00  0.00     0.255 C 
ATOM     83  H   UNL     1       3.145  -7.468   4.008  1.00  0.00     0.163 HD
ATOM     84  O   UNL     1       0.807  -7.675   3.425  1.00  0.00    -0.269 OA
BRANCH  82  85
ATOM     85  C   UNL     1       0.682  -5.346   3.224  1.00  0.00     0.081 A 
ATOM     86  C   UNL     1      -0.468  -5.110   3.989  1.00  0.00     0.018 A 
ATOM     87  C   UNL     1       1.067  -4.422   2.246  1.00  0.00     0.128 A 
ATOM     88  C   UNL     1      -1.199  -3.935   3.810  1.00  0.00     0.001 A 
ATOM     89  C   UNL     1       0.339  -3.242   2.075  1.00  0.00     0.047 A 
ATOM     90  C   UNL     1      -0.789  -2.999   2.861  1.00  0.00     0.004 A 
BRANCH  87  91
ATOM     91  O   UNL     1       2.155  -4.660   1.452  1.00  0.00    -0.507 OA
ATOM     92  H   UNL     1       2.649  -5.449   1.559  1.00  0.00     0.293 HD
ENDBRANCH  87  91
ENDBRANCH  82  85
ENDBRANCH  80  81
ENDBRANCH  79  80
ENDBRANCH  72  75
ENDBRANCH  70  71
ENDBRANCH   1  70
TORSDOF 18
