REMARK SMILES Cc1ccc2[nH]cc([C@@H](C(=O)NCCCCNC(=O)c3ccc(-c4c5nc(c(-c6ccc(S(=O)(=O)[O-])cc6)c6ccc([nH]6)c(-c6ccc(S(=O)(=O)[O-])cc6)c6nc(c(-c7ccc(S(=O)(=O)[O-])cc7)c7ccc4[nH]7)C=C6)C=C5)cc3)[NH+]3CCN(c4ccc(F)cc4)CC3)c2c1
REMARK SMILES IDX 15 1 14 2 13 3 12 4 10 5 11 6 9 8 8 9 1 10 2 11 3 12 94 13
REMARK SMILES IDX 4 14 93 15 5 16 6 17 7 18 80 20 81 21 92 22 82 24 91 25
REMARK SMILES IDX 83 26 84 27 85 28 90 29 86 30 89 31 87 32 88 33 16 34 17 35
REMARK SMILES IDX 18 36 19 38 20 39 21 40 79 41 22 42 78 43 23 44 24 45 25 46
REMARK SMILES IDX 72 47 26 48 77 49 71 50 73 51 27 52 76 53 70 54 69 55 28 57
REMARK SMILES IDX 58 58 39 59 57 60 40 61 43 62 56 63 74 64 41 65 42 66 55 68
REMARK SMILES IDX 75 69 44 70 29 71 30 72 38 73 31 74 37 75 32 76 33 77 34 78
REMARK SMILES IDX 35 79 36 80 59 81 60 82 68 83 61 84 67 85 62 86 63 87 64 88
REMARK SMILES IDX 65 89 66 90 45 91 46 92 54 93 47 94 53 95 48 96 49 97 50 98
REMARK SMILES IDX 51 99 52 100
REMARK H PARENT 12 7 6 19 80 23 17 37 73 56 43 67
REMARK Flexibility Score: inf
ROOT
ATOM      1  C   UNL     1      -1.478  -1.114   4.865  1.00  0.00     0.023 C 
ENDROOT
BRANCH   1   2
ATOM      2  C   UNL     1      -0.853  -1.182   3.475  1.00  0.00     0.023 C 
BRANCH   2   3
ATOM      3  C   UNL     1      -0.712  -2.590   2.899  1.00  0.00     0.116 C 
BRANCH   3   4
ATOM      4  N   UNL     1      -1.996  -3.176   2.577  1.00  0.00    -0.351 N 
ATOM      5  C   UNL     1      -2.666  -3.197   1.378  1.00  0.00     0.283 C 
ATOM      6  O   UNL     1      -3.773  -3.743   1.394  1.00  0.00    -0.268 OA
ATOM      7  H   UNL     1      -2.455  -3.624   3.324  1.00  0.00     0.163 HD
BRANCH   5   8
ATOM      8  C   UNL     1      -1.985  -2.616   0.091  1.00  0.00     0.307 C 
BRANCH   8   9
ATOM      9  C   UNL     1      -1.711  -1.134   0.182  1.00  0.00     0.044 A 
ATOM     10  C   UNL     1       3.381  -0.634  -0.236  1.00  0.00     0.044 C 
ATOM     11  C   UNL     1       1.982  -0.095  -0.148  1.00  0.00    -0.050 A 
ATOM     12  C   UNL     1       1.752   1.275  -0.002  1.00  0.00     0.005 A 
ATOM     13  C   UNL     1       0.895  -0.985  -0.157  1.00  0.00     0.014 A 
ATOM     14  C   UNL     1       0.461   1.782   0.173  1.00  0.00     0.027 A 
ATOM     15  C   UNL     1      -0.419  -0.504   0.050  1.00  0.00     0.009 A 
ATOM     16  C   UNL     1      -0.596   0.867   0.224  1.00  0.00     0.046 A 
ATOM     17  N   UNL     1      -1.932   1.075   0.468  1.00  0.00    -0.361 N 
ATOM     18  C   UNL     1      -2.594  -0.121   0.514  1.00  0.00     0.094 A 
ATOM     19  H   UNL     1      -2.351   1.957   0.592  1.00  0.00     0.166 HD
ENDBRANCH   8   9
BRANCH   8  20
ATOM     20  N   UNL     1      -2.677  -3.016  -1.160  1.00  0.00    -0.318 N 
ATOM     21  C   UNL     1      -4.077  -2.607  -1.350  1.00  0.00     0.284 C 
ATOM     22  C   UNL     1      -1.908  -2.798  -2.396  1.00  0.00     0.284 C 
ATOM     23  H   UNL     1      -2.730  -4.018  -0.977  1.00  0.00     0.349 HD
ATOM     24  C   UNL     1      -4.346  -1.263  -2.060  1.00  0.00     0.178 C 
ATOM     25  C   UNL     1      -2.066  -1.417  -3.074  1.00  0.00     0.178 C 
ATOM     26  N   UNL     1      -3.481  -1.050  -3.227  1.00  0.00    -0.360 N 
BRANCH  26  27
ATOM     27  C   UNL     1      -3.708   0.113  -3.965  1.00  0.00     0.037 A 
ATOM     28  C   UNL     1      -3.852   1.375  -3.367  1.00  0.00     0.029 A 
ATOM     29  C   UNL     1      -3.796   0.024  -5.360  1.00  0.00     0.029 A 
ATOM     30  C   UNL     1      -4.117   2.509  -4.137  1.00  0.00     0.041 A 
ATOM     31  C   UNL     1      -4.066   1.153  -6.135  1.00  0.00     0.041 A 
ATOM     32  C   UNL     1      -4.231   2.385  -5.514  1.00  0.00     0.123 A 
ATOM     33  F   UNL     1      -4.502   3.467  -6.255  1.00  0.00    -0.207 F 
ENDBRANCH  26  27
ENDBRANCH   8  20
ENDBRANCH   5   8
ENDBRANCH   3   4
ENDBRANCH   2   3
ENDBRANCH   1   2
BRANCH   1  34
ATOM     34  C   UNL     1      -0.730  -1.898   5.928  1.00  0.00     0.116 C 
BRANCH  34  35
ATOM     35  N   UNL     1       0.667  -1.509   6.041  1.00  0.00    -0.352 N 
ATOM     36  C   UNL     1       1.436  -1.412   7.176  1.00  0.00     0.251 C 
ATOM     37  H   UNL     1       1.120  -1.286   5.196  1.00  0.00     0.163 HD
ATOM     38  O   UNL     1       2.566  -0.949   7.123  1.00  0.00    -0.269 OA
BRANCH  36  39
ATOM     39  C   UNL     1       0.854  -1.841   8.465  1.00  0.00     0.039 A 
ATOM     40  C   UNL     1       0.952  -0.988   9.565  1.00  0.00     0.014 A 
ATOM     41  C   UNL     1       0.172  -3.057   8.565  1.00  0.00     0.014 A 
ATOM     42  C   UNL     1       0.316  -1.334  10.757  1.00  0.00     0.010 A 
ATOM     43  C   UNL     1      -0.531  -3.357   9.724  1.00  0.00     0.010 A 
ATOM     44  C   UNL     1      -0.455  -2.506  10.836  1.00  0.00    -0.014 A 
BRANCH  44  45
ATOM     45  C   UNL     1      -1.169  -2.871  12.083  1.00  0.00     0.031 A 
ATOM     46  C   UNL     1      -0.788  -4.125  12.823  1.00  0.00     0.074 A 
ATOM     47  C   UNL     1      -2.190  -2.107  12.518  1.00  0.00     0.049 A 
ATOM     48  N   UNL     1      -1.312  -4.632  13.909  1.00  0.00    -0.248 NA
ATOM     49  C   UNL     1       0.303  -4.932  12.251  1.00  0.00     0.031 C 
ATOM     50  C   UNL     1      -2.687  -0.897  11.857  1.00  0.00     0.029 A 
ATOM     51  N   UNL     1      -2.995  -2.236  13.620  1.00  0.00    -0.354 N 
ATOM     52  C   UNL     1      -0.629  -5.820  14.138  1.00  0.00     0.074 A 
ATOM     53  C   UNL     1       0.306  -5.989  13.049  1.00  0.00     0.031 C 
ATOM     54  C   UNL     1      -3.689  -0.379  12.585  1.00  0.00     0.029 A 
ATOM     55  C   UNL     1      -3.928  -1.234  13.743  1.00  0.00     0.049 A 
ATOM     56  H   UNL     1      -2.913  -2.976  14.264  1.00  0.00     0.167 HD
ATOM     57  C   UNL     1      -0.750  -6.682  15.175  1.00  0.00     0.031 A 
ATOM     58  C   UNL     1      -4.869  -1.026  14.684  1.00  0.00     0.031 A 
ATOM     59  C   UNL     1      -1.668  -6.499  16.267  1.00  0.00     0.049 A 
ATOM     60  C   UNL     1      -4.972  -1.986  15.838  1.00  0.00     0.074 A 
ATOM     61  C   UNL     1      -1.829  -7.282  17.396  1.00  0.00     0.029 A 
ATOM     62  N   UNL     1      -2.579  -5.458  16.367  1.00  0.00    -0.354 N 
ATOM     63  N   UNL     1      -4.269  -3.068  16.073  1.00  0.00    -0.248 NA
ATOM     64  C   UNL     1      -5.981  -1.685  16.861  1.00  0.00     0.031 C 
ATOM     65  C   UNL     1      -2.868  -6.737  18.159  1.00  0.00     0.029 A 
ATOM     66  C   UNL     1      -3.316  -5.585  17.532  1.00  0.00     0.049 A 
ATOM     67  H   UNL     1      -2.685  -4.735  15.707  1.00  0.00     0.167 HD
ATOM     68  C   UNL     1      -4.732  -3.562  17.288  1.00  0.00     0.074 A 
ATOM     69  C   UNL     1      -5.763  -2.652  17.743  1.00  0.00     0.031 C 
ATOM     70  C   UNL     1      -4.338  -4.668  17.967  1.00  0.00     0.031 A 
BRANCH  57  71
ATOM     71  C   UNL     1       0.136  -7.900  15.172  1.00  0.00    -0.014 A 
ATOM     72  C   UNL     1       1.524  -7.788  15.374  1.00  0.00     0.010 A 
ATOM     73  C   UNL     1      -0.428  -9.175  14.991  1.00  0.00     0.010 A 
ATOM     74  C   UNL     1       2.337  -8.923  15.349  1.00  0.00     0.020 A 
ATOM     75  C   UNL     1       0.379 -10.317  14.994  1.00  0.00     0.020 A 
ATOM     76  C   UNL     1       1.759 -10.181  15.155  1.00  0.00     0.054 A 
BRANCH  76  77
ATOM     77  S   UNL     1       2.837 -11.640  15.146  1.00  0.00     0.124 S 
ATOM     78  O   UNL     1       3.496 -11.518  13.848  1.00  0.00    -0.237 OA
ATOM     79  O   UNL     1       3.692 -11.415  16.308  1.00  0.00    -0.237 OA
ATOM     80  O   UNL     1       1.906 -12.759  15.269  1.00  0.00    -0.744 OA
ENDBRANCH  76  77
ENDBRANCH  57  71
BRANCH  58  81
ATOM     81  C   UNL     1      -5.765   0.159  14.591  1.00  0.00    -0.014 A 
ATOM     82  C   UNL     1      -5.617   1.237  15.481  1.00  0.00     0.010 A 
ATOM     83  C   UNL     1      -6.762   0.221  13.600  1.00  0.00     0.010 A 
ATOM     84  C   UNL     1      -6.463   2.348  15.396  1.00  0.00     0.020 A 
ATOM     85  C   UNL     1      -7.592   1.342  13.495  1.00  0.00     0.020 A 
ATOM     86  C   UNL     1      -7.444   2.393  14.402  1.00  0.00     0.054 A 
BRANCH  86  87
ATOM     87  S   UNL     1      -8.495   3.867  14.276  1.00  0.00     0.124 S 
ATOM     88  O   UNL     1      -9.396   3.695  15.411  1.00  0.00    -0.237 OA
ATOM     89  O   UNL     1      -7.529   4.956  14.393  1.00  0.00    -0.237 OA
ATOM     90  O   UNL     1      -9.113   3.733  12.959  1.00  0.00    -0.744 OA
ENDBRANCH  86  87
ENDBRANCH  58  81
BRANCH  70  91
ATOM     91  C   UNL     1      -4.998  -4.934  19.293  1.00  0.00    -0.014 A 
ATOM     92  C   UNL     1      -6.331  -5.374  19.372  1.00  0.00     0.010 A 
ATOM     93  C   UNL     1      -4.254  -4.780  20.477  1.00  0.00     0.010 A 
ATOM     94  C   UNL     1      -6.921  -5.617  20.615  1.00  0.00     0.020 A 
ATOM     95  C   UNL     1      -4.831  -5.050  21.720  1.00  0.00     0.020 A 
ATOM     96  C   UNL     1      -6.168  -5.450  21.782  1.00  0.00     0.054 A 
BRANCH  96  97
ATOM     97  S   UNL     1      -6.946  -5.799  23.382  1.00  0.00     0.124 S 
ATOM     98  O   UNL     1      -7.803  -4.631  23.564  1.00  0.00    -0.237 OA
ATOM     99  O   UNL     1      -7.643  -7.059  23.133  1.00  0.00    -0.237 OA
ATOM    100  O   UNL     1      -5.815  -5.893  24.303  1.00  0.00    -0.744 OA
ENDBRANCH  96  97
ENDBRANCH  70  91
ENDBRANCH  44  45
ENDBRANCH  36  39
ENDBRANCH  34  35
ENDBRANCH   1  34
TORSDOF 17
