REMARK SMILES O=C(NCCCCNC(=O)c1[nH]ncc1C[N@H+]1CCC[C@H](C(=O)c2ccc3ccccc3c2)C1)c1ccc(-c2c3nc(c(-c4ccc(S(=O)(=O)[O-])cc4)c4ccc([nH]4)c(-c4ccc(S(=O)(=O)[O-])cc4)c4nc(c(-c5ccc(S(=O)(=O)[O-])cc5)c5ccc2[nH]5)C=C4)C=C3)cc1
REMARK SMILES IDX 6 1 5 2 4 3 3 4 1 5 2 6 35 8 36 9 94 10 37 11 93 12 38 13
REMARK SMILES IDX 39 14 40 15 87 16 41 17 92 18 86 19 88 20 42 21 91 22 85 23
REMARK SMILES IDX 84 24 43 26 73 27 54 28 72 29 55 30 58 31 71 32 89 33 56 34
REMARK SMILES IDX 57 35 70 37 90 38 59 39 44 40 45 41 53 42 46 43 52 44 47 45
REMARK SMILES IDX 48 46 49 47 50 48 51 49 74 50 75 51 83 52 76 53 82 54 77 55
REMARK SMILES IDX 78 56 79 57 80 58 81 59 60 60 61 61 69 62 62 63 68 64 63 65
REMARK SMILES IDX 64 66 65 67 66 68 67 69 7 70 8 71 9 72 10 74 11 75 12 76
REMARK SMILES IDX 15 77 13 78 14 80 16 81 17 82 18 83 34 84 19 86 21 87 20 88
REMARK SMILES IDX 22 89 23 90 24 91 25 92 33 93 26 94 32 95 27 96 31 97 28 98
REMARK SMILES IDX 30 99 29 100
REMARK H PARENT 3 7 88 25 58 36 8 73 12 79 17 85
REMARK Flexibility Score: inf
ROOT
ATOM      1  C   UNL     1       4.308  -3.851  -0.854  1.00  0.00     0.023 C 
ENDROOT
BRANCH   1   2
ATOM      2  C   UNL     1       4.849  -2.741   0.048  1.00  0.00     0.023 C 
BRANCH   2   3
ATOM      3  C   UNL     1       4.666  -1.315  -0.460  1.00  0.00     0.116 C 
BRANCH   3   4
ATOM      4  N   UNL     1       3.274  -0.955  -0.684  1.00  0.00    -0.352 N 
ATOM      5  O   UNL     1       1.343   0.174  -0.429  1.00  0.00    -0.269 OA
ATOM      6  C   UNL     1       2.542   0.093  -0.177  1.00  0.00     0.251 C 
ATOM      7  H   UNL     1       2.781  -1.553  -1.291  1.00  0.00     0.163 HD
BRANCH   6   8
ATOM      8  C   UNL     1       3.185   1.100   0.697  1.00  0.00     0.039 A 
ATOM      9  C   UNL     1       4.397   1.694   0.341  1.00  0.00     0.014 A 
ATOM     10  C   UNL     1       2.562   1.448   1.900  1.00  0.00     0.014 A 
ATOM     11  C   UNL     1       5.060   2.510   1.255  1.00  0.00     0.010 A 
ATOM     12  C   UNL     1       3.199   2.321   2.789  1.00  0.00     0.010 A 
ATOM     13  C   UNL     1       4.477   2.818   2.496  1.00  0.00    -0.014 A 
BRANCH  13  14
ATOM     14  C   UNL     1       5.237   3.646   3.467  1.00  0.00     0.031 A 
ATOM     15  C   UNL     1       5.775   3.045   4.739  1.00  0.00     0.074 A 
ATOM     16  C   UNL     1       5.508   4.931   3.170  1.00  0.00     0.049 A 
ATOM     17  N   UNL     1       6.553   3.591   5.640  1.00  0.00    -0.248 NA
ATOM     18  C   UNL     1       5.387   1.659   5.044  1.00  0.00     0.031 C 
ATOM     19  C   UNL     1       5.033   5.640   1.980  1.00  0.00     0.029 A 
ATOM     20  N   UNL     1       6.282   5.856   3.824  1.00  0.00    -0.354 N 
ATOM     21  C   UNL     1       6.724   2.631   6.630  1.00  0.00     0.074 A 
ATOM     22  C   UNL     1       5.963   1.469   6.223  1.00  0.00     0.031 C 
ATOM     23  C   UNL     1       5.581   6.865   1.953  1.00  0.00     0.029 A 
ATOM     24  C   UNL     1       6.422   7.035   3.135  1.00  0.00     0.049 A 
ATOM     25  H   UNL     1       6.696   5.690   4.701  1.00  0.00     0.167 HD
ATOM     26  C   UNL     1       7.448   2.704   7.773  1.00  0.00     0.031 A 
ATOM     27  C   UNL     1       7.163   8.126   3.405  1.00  0.00     0.031 A 
ATOM     28  C   UNL     1       8.232   3.841   8.173  1.00  0.00     0.049 A 
ATOM     29  C   UNL     1       8.014   8.159   4.640  1.00  0.00     0.074 A 
ATOM     30  C   UNL     1       9.011   3.997   9.307  1.00  0.00     0.029 A 
ATOM     31  N   UNL     1       8.347   5.014   7.445  1.00  0.00    -0.354 N 
ATOM     32  N   UNL     1       8.169   7.233   5.554  1.00  0.00    -0.248 NA
ATOM     33  C   UNL     1       8.791   9.383   4.874  1.00  0.00     0.031 C 
ATOM     34  C   UNL     1       9.591   5.272   9.269  1.00  0.00     0.029 A 
ATOM     35  C   UNL     1       9.184   5.899   8.103  1.00  0.00     0.049 A 
ATOM     36  H   UNL     1       7.899   5.192   6.587  1.00  0.00     0.167 HD
ATOM     37  C   UNL     1       9.064   7.763   6.475  1.00  0.00     0.074 A 
ATOM     38  C   UNL     1       9.430   9.081   5.997  1.00  0.00     0.031 C 
ATOM     39  C   UNL     1       9.535   7.207   7.617  1.00  0.00     0.031 A 
BRANCH  26  40
ATOM     40  C   UNL     1       7.404   1.512   8.684  1.00  0.00    -0.014 A 
ATOM     41  C   UNL     1       8.198   0.380   8.431  1.00  0.00     0.010 A 
ATOM     42  C   UNL     1       6.566   1.527   9.812  1.00  0.00     0.010 A 
ATOM     43  C   UNL     1       8.124  -0.735   9.270  1.00  0.00     0.020 A 
ATOM     44  C   UNL     1       6.499   0.418  10.660  1.00  0.00     0.020 A 
ATOM     45  C   UNL     1       7.264  -0.714  10.371  1.00  0.00     0.054 A 
BRANCH  45  46
ATOM     46  S   UNL     1       7.170  -2.169  11.451  1.00  0.00     0.124 S 
ATOM     47  O   UNL     1       6.189  -2.996  10.752  1.00  0.00    -0.237 OA
ATOM     48  O   UNL     1       8.540  -2.678  11.440  1.00  0.00    -0.237 OA
ATOM     49  O   UNL     1       6.726  -1.617  12.729  1.00  0.00    -0.744 OA
ENDBRANCH  45  46
ENDBRANCH  26  40
BRANCH  27  50
ATOM     50  C   UNL     1       7.163   9.259   2.448  1.00  0.00    -0.014 A 
ATOM     51  C   UNL     1       8.220   9.408   1.536  1.00  0.00     0.010 A 
ATOM     52  C   UNL     1       6.081  10.153   2.405  1.00  0.00     0.010 A 
ATOM     53  C   UNL     1       8.194  10.434   0.588  1.00  0.00     0.020 A 
ATOM     54  C   UNL     1       6.045  11.172   1.450  1.00  0.00     0.020 A 
ATOM     55  C   UNL     1       7.105  11.308   0.549  1.00  0.00     0.054 A 
BRANCH  55  56
ATOM     56  S   UNL     1       7.025  12.578  -0.745  1.00  0.00     0.124 S 
ATOM     57  O   UNL     1       7.718  13.696  -0.114  1.00  0.00    -0.237 OA
ATOM     58  O   UNL     1       7.725  11.950  -1.863  1.00  0.00    -0.237 OA
ATOM     59  O   UNL     1       5.589  12.756  -0.945  1.00  0.00    -0.744 OA
ENDBRANCH  55  56
ENDBRANCH  27  50
BRANCH  39  60
ATOM     60  C   UNL     1      10.497   8.028   8.424  1.00  0.00    -0.014 A 
ATOM     61  C   UNL     1      10.029   9.038   9.282  1.00  0.00     0.010 A 
ATOM     62  C   UNL     1      11.877   7.777   8.339  1.00  0.00     0.010 A 
ATOM     63  C   UNL     1      10.930   9.807  10.022  1.00  0.00     0.020 A 
ATOM     64  C   UNL     1      12.780   8.538   9.086  1.00  0.00     0.020 A 
ATOM     65  C   UNL     1      12.301   9.559   9.912  1.00  0.00     0.054 A 
BRANCH  65  66
ATOM     66  S   UNL     1      13.464  10.546  10.894  1.00  0.00     0.124 S 
ATOM     67  O   UNL     1      13.686  11.701  10.028  1.00  0.00    -0.237 OA
ATOM     68  O   UNL     1      12.718  10.815  12.120  1.00  0.00    -0.237 OA
ATOM     69  O   UNL     1      14.612   9.656  11.055  1.00  0.00    -0.744 OA
ENDBRANCH  65  66
ENDBRANCH  39  60
ENDBRANCH  13  14
ENDBRANCH   6   8
ENDBRANCH   3   4
ENDBRANCH   2   3
ENDBRANCH   1   2
BRANCH   1  70
ATOM     70  C   UNL     1       4.713  -3.772  -2.324  1.00  0.00     0.116 C 
BRANCH  70  71
ATOM     71  N   UNL     1       6.152  -3.792  -2.518  1.00  0.00    -0.351 N 
ATOM     72  C   UNL     1       6.913  -4.609  -3.312  1.00  0.00     0.269 C 
ATOM     73  H   UNL     1       6.655  -3.119  -2.005  1.00  0.00     0.163 HD
ATOM     74  O   UNL     1       8.136  -4.579  -3.186  1.00  0.00    -0.268 OA
BRANCH  72  75
ATOM     75  C   UNL     1       6.266  -5.519  -4.213  1.00  0.00     0.131 A 
ATOM     76  N   UNL     1       6.629  -6.836  -4.272  1.00  0.00    -0.272 N 
ATOM     77  C   UNL     1       5.302  -5.353  -5.202  1.00  0.00     0.057 A 
ATOM     78  N   UNL     1       5.864  -7.574  -5.092  1.00  0.00    -0.183 NA
ATOM     79  H   UNL     1       7.383  -7.210  -3.760  1.00  0.00     0.190 HD
ATOM     80  C   UNL     1       5.061  -6.671  -5.658  1.00  0.00     0.145 A 
BRANCH  77  81
ATOM     81  C   UNL     1       4.659  -4.082  -5.655  1.00  0.00     0.303 C 
BRANCH  81  82
ATOM     82  N   UNL     1       4.931  -3.719  -7.048  1.00  0.00    -0.330 N 
ATOM     83  C   UNL     1       6.346  -3.755  -7.419  1.00  0.00     0.262 C 
ATOM     84  C   UNL     1       4.076  -4.378  -8.030  1.00  0.00     0.274 C 
ATOM     85  H   UNL     1       4.666  -2.735  -7.082  1.00  0.00     0.348 HD
ATOM     86  C   UNL     1       6.568  -3.024  -8.740  1.00  0.00     0.062 C 
ATOM     87  C   UNL     1       4.189  -3.728  -9.412  1.00  0.00     0.116 C 
ATOM     88  C   UNL     1       5.641  -3.511  -9.853  1.00  0.00     0.023 C 
BRANCH  87  89
ATOM     89  C   UNL     1       3.287  -2.503  -9.571  1.00  0.00     0.171 C 
ATOM     90  O   UNL     1       2.385  -2.466 -10.408  1.00  0.00    -0.294 OA
BRANCH  89  91
ATOM     91  C   UNL     1       3.464  -1.325  -8.699  1.00  0.00     0.019 A 
ATOM     92  C   UNL     1       4.378  -0.335  -9.052  1.00  0.00     0.012 A 
ATOM     93  C   UNL     1       2.660  -1.181  -7.565  1.00  0.00     0.020 A 
ATOM     94  C   UNL     1       4.549   0.772  -8.220  1.00  0.00     0.009 A 
ATOM     95  C   UNL     1       2.816  -0.066  -6.726  1.00  0.00    -0.018 A 
ATOM     96  C   UNL     1       3.783   0.916  -7.051  1.00  0.00    -0.018 A 
ATOM     97  C   UNL     1       2.034   0.100  -5.571  1.00  0.00     0.009 A 
ATOM     98  C   UNL     1       3.951   2.022  -6.204  1.00  0.00     0.009 A 
ATOM     99  C   UNL     1       2.212   1.208  -4.740  1.00  0.00     0.001 A 
ATOM    100  C   UNL     1       3.171   2.166  -5.055  1.00  0.00     0.001 A 
ENDBRANCH  89  91
ENDBRANCH  87  89
ENDBRANCH  81  82
ENDBRANCH  77  81
ENDBRANCH  72  75
ENDBRANCH  70  71
ENDBRANCH   1  70
TORSDOF 18
