REMARK SMILES O=C(NCCCCNC(=O)c1cc(NC(=O)c2ccccc2Cl)ccc1N1CCC[C@H](C[NH+]2CCCC2)C1)c1ccc(-c2c3nc(c(-c4ccc(S(=O)(=O)[O-])cc4)c4ccc([nH]4)c(-c4ccc(S(=O)(=O)[O-])cc4)c4nc(c(-c5ccc(S(=O)(=O)[O-])cc5)c5ccc2[nH]5)C=C4)C=C3)cc1
REMARK SMILES IDX 5 1 4 2 3 3 1 4 2 5 39 7 40 8 98 9 41 10 97 11 42 12 43 13
REMARK SMILES IDX 44 14 91 15 45 16 96 17 90 18 92 19 46 20 95 21 89 22 88 23
REMARK SMILES IDX 47 25 77 26 58 27 76 28 59 29 62 30 75 31 93 32 60 33 61 34
REMARK SMILES IDX 74 36 94 37 63 38 48 39 49 40 57 41 50 42 56 43 51 44 52 45
REMARK SMILES IDX 53 46 54 47 55 48 78 49 79 50 87 51 80 52 86 53 81 54 82 55
REMARK SMILES IDX 83 56 84 57 85 58 64 59 65 60 73 61 66 62 72 63 67 64 68 65
REMARK SMILES IDX 69 66 70 67 71 68 6 69 7 70 8 71 9 72 10 74 11 75 12 76
REMARK SMILES IDX 26 77 13 78 25 79 24 80 27 81 28 82 38 83 29 84 31 85 30 86
REMARK SMILES IDX 32 87 33 88 34 89 37 90 35 92 36 93 14 94 15 95 16 97 17 98
REMARK SMILES IDX 18 99 22 100 19 101 21 102 23 103 20 104
REMARK H PARENT 3 6 92 24 62 35 8 73 33 91 14 96
REMARK Flexibility Score: inf
ROOT
ATOM      1  C   UNL     1       5.125  -0.215  -2.682  1.00  0.00     0.023 C 
ENDROOT
BRANCH   1   2
ATOM      2  C   UNL     1       4.723   0.384  -1.339  1.00  0.00     0.116 C 
BRANCH   2   3
ATOM      3  N   UNL     1       3.284   0.426  -1.118  1.00  0.00    -0.352 N 
ATOM      4  O   UNL     1       1.306  -0.107  -0.170  1.00  0.00    -0.269 OA
ATOM      5  C   UNL     1       2.525  -0.188  -0.141  1.00  0.00     0.251 C 
ATOM      6  H   UNL     1       2.777   0.974  -1.760  1.00  0.00     0.163 HD
BRANCH   5   7
ATOM      7  C   UNL     1       3.198  -0.978   0.917  1.00  0.00     0.039 A 
ATOM      8  C   UNL     1       4.316  -0.468   1.573  1.00  0.00     0.014 A 
ATOM      9  C   UNL     1       2.732  -2.261   1.223  1.00  0.00     0.014 A 
ATOM     10  C   UNL     1       5.086  -1.308   2.367  1.00  0.00     0.010 A 
ATOM     11  C   UNL     1       3.450  -3.069   2.115  1.00  0.00     0.010 A 
ATOM     12  C   UNL     1       4.663  -2.618   2.656  1.00  0.00    -0.014 A 
BRANCH  12  13
ATOM     13  C   UNL     1       5.502  -3.452   3.559  1.00  0.00     0.031 A 
ATOM     14  C   UNL     1       6.161  -4.722   3.083  1.00  0.00     0.074 A 
ATOM     15  C   UNL     1       5.744  -2.996   4.805  1.00  0.00     0.049 A 
ATOM     16  N   UNL     1       7.007  -5.493   3.721  1.00  0.00    -0.248 NA
ATOM     17  C   UNL     1       5.829  -5.194   1.730  1.00  0.00     0.031 C 
ATOM     18  C   UNL     1       5.148  -1.790   5.389  1.00  0.00     0.029 A 
ATOM     19  N   UNL     1       6.583  -3.458   5.786  1.00  0.00    -0.354 N 
ATOM     20  C   UNL     1       7.297  -6.545   2.858  1.00  0.00     0.074 A 
ATOM     21  C   UNL     1       6.517  -6.327   1.659  1.00  0.00     0.031 C 
ATOM     22  C   UNL     1       5.697  -1.564   6.590  1.00  0.00     0.029 A 
ATOM     23  C   UNL     1       6.632  -2.641   6.892  1.00  0.00     0.049 A 
ATOM     24  H   UNL     1       7.100  -4.292   5.707  1.00  0.00     0.167 HD
ATOM     25  C   UNL     1       8.141  -7.590   3.044  1.00  0.00     0.031 A 
ATOM     26  C   UNL     1       7.343  -2.743   8.030  1.00  0.00     0.031 A 
ATOM     27  C   UNL     1       8.918  -7.804   4.239  1.00  0.00     0.049 A 
ATOM     28  C   UNL     1       8.277  -3.903   8.203  1.00  0.00     0.074 A 
ATOM     29  C   UNL     1       9.801  -8.834   4.520  1.00  0.00     0.029 A 
ATOM     30  N   UNL     1       8.913  -6.973   5.349  1.00  0.00    -0.354 N 
ATOM     31  N   UNL     1       8.538  -4.879   7.367  1.00  0.00    -0.248 NA
ATOM     32  C   UNL     1       9.011  -3.975   9.472  1.00  0.00     0.031 C 
ATOM     33  C   UNL     1      10.301  -8.645   5.813  1.00  0.00     0.029 A 
ATOM     34  C   UNL     1       9.767  -7.472   6.320  1.00  0.00     0.049 A 
ATOM     35  H   UNL     1       8.380  -6.149   5.435  1.00  0.00     0.167 HD
ATOM     36  C   UNL     1       9.465  -5.687   8.013  1.00  0.00     0.074 A 
ATOM     37  C   UNL     1       9.748  -5.062   9.290  1.00  0.00     0.031 C 
ATOM     38  C   UNL     1      10.021  -6.849   7.593  1.00  0.00     0.031 A 
BRANCH  25  39
ATOM     39  C   UNL     1       8.264  -8.600   1.932  1.00  0.00    -0.014 A 
ATOM     40  C   UNL     1       8.972  -8.298   0.755  1.00  0.00     0.010 A 
ATOM     41  C   UNL     1       7.726  -9.890   2.093  1.00  0.00     0.010 A 
ATOM     42  C   UNL     1       9.117  -9.258  -0.251  1.00  0.00     0.020 A 
ATOM     43  C   UNL     1       7.887 -10.860   1.099  1.00  0.00     0.020 A 
ATOM     44  C   UNL     1       8.571 -10.533  -0.074  1.00  0.00     0.054 A 
BRANCH  44  45
ATOM     45  S   UNL     1       8.805 -11.771  -1.381  1.00  0.00     0.124 S 
ATOM     46  O   UNL     1       7.876 -11.302  -2.407  1.00  0.00    -0.237 OA
ATOM     47  O   UNL     1      10.221 -11.630  -1.707  1.00  0.00    -0.237 OA
ATOM     48  O   UNL     1       8.438 -13.029  -0.737  1.00  0.00    -0.744 OA
ENDBRANCH  44  45
ENDBRANCH  25  39
BRANCH  26  49
ATOM     49  C   UNL     1       7.169  -1.724   9.098  1.00  0.00    -0.014 A 
ATOM     50  C   UNL     1       8.192  -0.810   9.400  1.00  0.00     0.010 A 
ATOM     51  C   UNL     1       5.952  -1.650   9.802  1.00  0.00     0.010 A 
ATOM     52  C   UNL     1       8.006   0.152  10.398  1.00  0.00     0.020 A 
ATOM     53  C   UNL     1       5.752  -0.672  10.777  1.00  0.00     0.020 A 
ATOM     54  C   UNL     1       6.787   0.215  11.079  1.00  0.00     0.054 A 
BRANCH  54  55
ATOM     55  S   UNL     1       6.538   1.505  12.330  1.00  0.00     0.124 S 
ATOM     56  O   UNL     1       7.236   0.945  13.483  1.00  0.00    -0.237 OA
ATOM     57  O   UNL     1       7.164   2.672  11.714  1.00  0.00    -0.237 OA
ATOM     58  O   UNL     1       5.083   1.582  12.451  1.00  0.00    -0.744 OA
ENDBRANCH  54  55
ENDBRANCH  26  49
BRANCH  38  59
ATOM     59  C   UNL     1      10.992  -7.511   8.532  1.00  0.00    -0.014 A 
ATOM     60  C   UNL     1      10.543  -8.151   9.701  1.00  0.00     0.010 A 
ATOM     61  C   UNL     1      12.367  -7.493   8.242  1.00  0.00     0.010 A 
ATOM     62  C   UNL     1      11.457  -8.718  10.591  1.00  0.00     0.020 A 
ATOM     63  C   UNL     1      13.284  -8.082   9.118  1.00  0.00     0.020 A 
ATOM     64  C   UNL     1      12.824  -8.671  10.298  1.00  0.00     0.054 A 
BRANCH  64  65
ATOM     65  S   UNL     1      13.995  -9.415  11.465  1.00  0.00     0.124 S 
ATOM     66  O   UNL     1      14.058  -8.404  12.517  1.00  0.00    -0.237 OA
ATOM     67  O   UNL     1      13.335 -10.665  11.834  1.00  0.00    -0.237 OA
ATOM     68  O   UNL     1      15.215  -9.572  10.676  1.00  0.00    -0.744 OA
ENDBRANCH  64  65
ENDBRANCH  38  59
ENDBRANCH  12  13
ENDBRANCH   5   7
ENDBRANCH   2   3
ENDBRANCH   1   2
BRANCH   1  69
ATOM     69  C   UNL     1       4.737   0.590  -3.918  1.00  0.00     0.023 C 
BRANCH  69  70
ATOM     70  C   UNL     1       5.056   2.077  -3.862  1.00  0.00     0.116 C 
BRANCH  70  71
ATOM     71  N   UNL     1       6.445   2.407  -3.623  1.00  0.00    -0.352 N 
ATOM     72  C   UNL     1       7.089   3.571  -3.980  1.00  0.00     0.253 C 
ATOM     73  H   UNL     1       6.986   1.729  -3.156  1.00  0.00     0.163 HD
ATOM     74  O   UNL     1       8.234   3.792  -3.596  1.00  0.00    -0.269 OA
BRANCH  72  75
ATOM     75  C   UNL     1       6.444   4.499  -4.940  1.00  0.00     0.065 A 
ATOM     76  C   UNL     1       7.089   4.539  -6.188  1.00  0.00     0.042 A 
ATOM     77  C   UNL     1       5.246   5.199  -4.703  1.00  0.00     0.050 A 
ATOM     78  C   UNL     1       6.497   5.154  -7.282  1.00  0.00     0.042 A 
ATOM     79  C   UNL     1       4.697   5.870  -5.809  1.00  0.00     0.029 A 
ATOM     80  C   UNL     1       5.303   5.845  -7.075  1.00  0.00     0.028 A 
BRANCH  77  81
ATOM     81  N   UNL     1       4.626   5.318  -3.469  1.00  0.00    -0.370 N 
ATOM     82  C   UNL     1       3.204   5.010  -3.296  1.00  0.00     0.116 C 
ATOM     83  C   UNL     1       5.441   5.520  -2.268  1.00  0.00     0.126 C 
ATOM     84  C   UNL     1       2.539   5.988  -2.332  1.00  0.00     0.022 C 
ATOM     85  C   UNL     1       4.813   6.625  -1.399  1.00  0.00     0.064 C 
ATOM     86  C   UNL     1       3.375   6.196  -1.069  1.00  0.00     0.013 C 
BRANCH  85  87
ATOM     87  C   UNL     1       4.957   7.993  -2.125  1.00  0.00     0.267 C 
BRANCH  87  88
ATOM     88  N   UNL     1       4.699   9.246  -1.408  1.00  0.00    -0.335 N 
ATOM     89  C   UNL     1       5.508   9.448  -0.209  1.00  0.00     0.262 C 
ATOM     90  C   UNL     1       3.308   9.527  -1.064  1.00  0.00     0.262 C 
ATOM     91  H   UNL     1       4.981   9.911  -2.128  1.00  0.00     0.348 HD
ATOM     92  C   UNL     1       4.590   9.124   0.951  1.00  0.00     0.067 C 
ATOM     93  C   UNL     1       3.219   9.551   0.458  1.00  0.00     0.067 C 
ENDBRANCH  87  88
ENDBRANCH  85  87
ENDBRANCH  77  81
BRANCH  78  94
ATOM     94  N   UNL     1       7.007   5.117  -8.594  1.00  0.00    -0.322 N 
ATOM     95  C   UNL     1       7.972   4.335  -9.193  1.00  0.00     0.257 C 
ATOM     96  H   UNL     1       6.596   5.775  -9.199  1.00  0.00     0.170 HD
ATOM     97  O   UNL     1       8.337   4.585 -10.342  1.00  0.00    -0.269 OA
BRANCH  95  98
ATOM     98  C   UNL     1       8.592   3.191  -8.503  1.00  0.00     0.058 A 
ATOM     99  C   UNL     1       9.963   3.287  -8.222  1.00  0.00     0.015 A 
ATOM    100  C   UNL     1       7.867   2.063  -8.098  1.00  0.00     0.053 A 
ATOM    101  C   UNL     1      10.589   2.292  -7.470  1.00  0.00     0.001 A 
ATOM    102  C   UNL     1       8.500   1.078  -7.334  1.00  0.00     0.021 A 
ATOM    103  Cl  UNL     1       6.198   1.837  -8.481  1.00  0.00    -0.083 Cl
ATOM    104  C   UNL     1       9.854   1.200  -7.011  1.00  0.00     0.002 A 
ENDBRANCH  95  98
ENDBRANCH  78  94
ENDBRANCH  72  75
ENDBRANCH  70  71
ENDBRANCH  69  70
ENDBRANCH   1  69
TORSDOF 19
