REMARK SMILES CCCSc1nc2n(n1)[C@@H](c1ccccc1C(=O)NCCCCNC(=O)c1ccc(-c3c4nc(c(-c5ccc(S(=O)(=O)[O-])cc5)c5ccc([nH]5)c(-c5ccc(S(=O)(=O)[O-])cc5)c5nc(c(-c6ccc(S(=O)(=O)[O-])cc6)c6ccc3[nH]6)C=C5)C=C4)cc1)C(C(=O)Nc1cccc(C)c1C)=C(C)N2
REMARK SMILES IDX 21 1 20 2 19 3 17 4 18 5 16 7 11 8 12 9 13 10 15 11 14 12
REMARK SMILES IDX 10 13 5 14 6 15 9 16 7 17 8 18 101 19 99 20 87 22 100 23
REMARK SMILES IDX 4 24 3 25 2 26 1 27 88 28 89 29 90 30 91 32 92 33 97 34
REMARK SMILES IDX 93 35 95 36 98 37 94 38 96 39 22 40 23 41 24 42 25 43 26 45
REMARK SMILES IDX 27 46 28 47 86 48 29 49 85 50 30 51 31 52 32 53 79 54 33 55
REMARK SMILES IDX 84 56 78 57 80 58 34 59 83 60 77 61 76 62 35 64 65 65 46 66
REMARK SMILES IDX 64 67 47 68 50 69 63 70 81 71 48 72 49 73 62 75 82 76 51 77
REMARK SMILES IDX 36 78 37 79 45 80 38 81 44 82 39 83 40 84 41 85 42 86 43 87
REMARK SMILES IDX 66 88 67 89 75 90 68 91 74 92 69 93 70 94 71 95 72 96 73 97
REMARK SMILES IDX 52 98 53 99 61 100 54 101 60 102 55 103 56 104 57 105 58 106
REMARK SMILES IDX 59 107
REMARK H PARENT 19 6 101 21 90 31 24 44 80 63 50 74
REMARK Flexibility Score: inf
ROOT
ATOM      1  C   UNL     1      -0.405  -5.971   4.502  1.00  0.00     0.023 C 
ENDROOT
BRANCH   1   2
ATOM      2  C   UNL     1       0.860  -5.809   5.360  1.00  0.00     0.116 C 
BRANCH   2   3
ATOM      3  N   UNL     1       1.899  -6.802   5.122  1.00  0.00    -0.352 N 
ATOM      4  C   UNL     1       3.126  -7.014   4.554  1.00  0.00     0.251 C 
ATOM      5  O   UNL     1       3.604  -8.087   4.964  1.00  0.00    -0.269 OA
ATOM      6  H   UNL     1       1.605  -7.649   5.529  1.00  0.00     0.163 HD
BRANCH   4   7
ATOM      7  C   UNL     1       3.942  -6.269   3.510  1.00  0.00     0.045 A 
ATOM      8  C   UNL     1       3.681  -5.106   2.752  1.00  0.00    -0.006 A 
ATOM      9  C   UNL     1       4.607  -4.726   1.727  1.00  0.00     0.007 A 
ATOM     10  C   UNL     1       5.803  -5.396   1.504  1.00  0.00     0.000 A 
ATOM     11  C   UNL     1       5.212  -6.880   3.288  1.00  0.00     0.014 A 
ATOM     12  C   UNL     1       6.128  -6.453   2.321  1.00  0.00     0.001 A 
BRANCH   8  13
ATOM     13  C   UNL     1       2.638  -4.066   3.139  1.00  0.00     0.180 C 
ATOM     14  C   UNL     1       1.199  -2.760   0.205  1.00  0.00     0.210 A 
ATOM     15  N   UNL     1       1.923  -1.666   0.575  1.00  0.00    -0.185 NA
ATOM     16  N   UNL     1       1.283  -3.817   1.028  1.00  0.00    -0.141 NA
ATOM     17  C   UNL     1       2.441  -2.022   1.710  1.00  0.00     0.227 A 
ATOM     18  N   UNL     1       2.126  -3.325   1.969  1.00  0.00    -0.218 N 
ATOM     19  N   UNL     1       3.186  -1.326   2.574  1.00  0.00    -0.328 N 
ATOM     20  C   UNL     1       3.606  -1.831   3.792  1.00  0.00     0.026 C 
ATOM     21  H   UNL     1       3.450  -0.409   2.332  1.00  0.00     0.169 HD
ATOM     22  C   UNL     1       3.256  -3.089   4.156  1.00  0.00     0.065 C 
ATOM     23  C   UNL     1       4.440  -0.871   4.592  1.00  0.00     0.065 C 
BRANCH  14  24
ATOM     24  S   UNL     1       0.221  -2.736  -1.234  1.00  0.00    -0.084 SA
BRANCH  24  25
ATOM     25  C   UNL     1       0.931  -1.284  -2.088  1.00  0.00     0.078 C 
BRANCH  25  26
ATOM     26  C   UNL     1       0.267   0.064  -1.776  1.00  0.00     0.008 C 
ATOM     27  C   UNL     1       0.572   0.665  -0.411  1.00  0.00     0.005 C 
ENDBRANCH  25  26
ENDBRANCH  24  25
ENDBRANCH  14  24
BRANCH  22  28
ATOM     28  C   UNL     1       3.537  -3.658   5.500  1.00  0.00     0.255 C 
ATOM     29  O   UNL     1       4.432  -4.474   5.671  1.00  0.00    -0.269 OA
ATOM     30  N   UNL     1       2.703  -3.341   6.551  1.00  0.00    -0.322 N 
ATOM     31  H   UNL     1       2.307  -4.057   7.098  1.00  0.00     0.170 HD
BRANCH  30  32
ATOM     32  C   UNL     1       2.418  -1.997   6.841  1.00  0.00     0.044 A 
ATOM     33  C   UNL     1       3.332  -1.428   7.731  1.00  0.00     0.026 A 
ATOM     34  C   UNL     1       1.464  -1.216   6.151  1.00  0.00    -0.025 A 
ATOM     35  C   UNL     1       3.483  -0.060   7.731  1.00  0.00     0.002 A 
ATOM     36  C   UNL     1       1.511   0.179   6.318  1.00  0.00    -0.046 A 
ATOM     37  C   UNL     1       0.465  -1.808   5.199  1.00  0.00     0.047 C 
ATOM     38  C   UNL     1       2.587   0.737   7.022  1.00  0.00     0.004 A 
ATOM     39  C   UNL     1       0.460   1.129   5.811  1.00  0.00     0.044 C 
ENDBRANCH  30  32
ENDBRANCH  22  28
ENDBRANCH   8  13
ENDBRANCH   4   7
ENDBRANCH   2   3
ENDBRANCH   1   2
BRANCH   1  40
ATOM     40  C   UNL     1      -1.722  -6.066   5.307  1.00  0.00     0.023 C 
BRANCH  40  41
ATOM     41  C   UNL     1      -2.052  -4.867   6.203  1.00  0.00     0.116 C 
BRANCH  41  42
ATOM     42  N   UNL     1      -2.568  -3.692   5.506  1.00  0.00    -0.352 N 
ATOM     43  C   UNL     1      -3.005  -2.469   6.012  1.00  0.00     0.251 C 
ATOM     44  H   UNL     1      -2.614  -3.777   4.526  1.00  0.00     0.163 HD
ATOM     45  O   UNL     1      -3.796  -1.816   5.340  1.00  0.00    -0.269 OA
BRANCH  43  46
ATOM     46  C   UNL     1      -2.468  -1.878   7.279  1.00  0.00     0.039 A 
ATOM     47  C   UNL     1      -3.066  -0.758   7.891  1.00  0.00     0.014 A 
ATOM     48  C   UNL     1      -1.241  -2.295   7.767  1.00  0.00     0.014 A 
ATOM     49  C   UNL     1      -2.429  -0.094   8.965  1.00  0.00     0.010 A 
ATOM     50  C   UNL     1      -0.597  -1.632   8.783  1.00  0.00     0.010 A 
ATOM     51  C   UNL     1      -1.170  -0.522   9.388  1.00  0.00    -0.014 A 
BRANCH  51  52
ATOM     52  C   UNL     1      -0.464  -0.151  10.616  1.00  0.00     0.031 A 
ATOM     53  C   UNL     1      -0.918  -0.926  11.784  1.00  0.00     0.074 A 
ATOM     54  C   UNL     1       0.729   0.479  10.641  1.00  0.00     0.049 A 
ATOM     55  N   UNL     1      -1.730  -0.456  12.672  1.00  0.00    -0.248 NA
ATOM     56  C   UNL     1      -0.658  -2.368  11.911  1.00  0.00     0.031 C 
ATOM     57  C   UNL     1       1.274   1.384   9.643  1.00  0.00     0.029 A 
ATOM     58  N   UNL     1       1.735   0.411  11.571  1.00  0.00    -0.354 N 
ATOM     59  C   UNL     1      -1.816  -1.444  13.631  1.00  0.00     0.074 A 
ATOM     60  C   UNL     1      -1.429  -2.660  12.963  1.00  0.00     0.031 C 
ATOM     61  C   UNL     1       2.552   1.702   9.961  1.00  0.00     0.029 A 
ATOM     62  C   UNL     1       2.941   0.988  11.168  1.00  0.00     0.049 A 
ATOM     63  H   UNL     1       1.617  -0.011  12.452  1.00  0.00     0.167 HD
ATOM     64  C   UNL     1      -1.824  -1.119  14.954  1.00  0.00     0.031 A 
ATOM     65  C   UNL     1       4.052   1.308  11.889  1.00  0.00     0.031 A 
ATOM     66  C   UNL     1      -1.910   0.319  15.134  1.00  0.00     0.049 A 
ATOM     67  C   UNL     1       3.538   1.600  13.243  1.00  0.00     0.074 A 
ATOM     68  C   UNL     1      -2.806   1.303  14.764  1.00  0.00     0.029 A 
ATOM     69  N   UNL     1      -0.727   0.968  15.419  1.00  0.00    -0.354 N 
ATOM     70  N   UNL     1       2.817   2.656  13.488  1.00  0.00    -0.248 NA
ATOM     71  C   UNL     1       3.398   0.509  14.194  1.00  0.00     0.031 C 
ATOM     72  C   UNL     1      -2.009   2.440  14.440  1.00  0.00     0.029 A 
ATOM     73  C   UNL     1      -0.673   2.135  14.700  1.00  0.00     0.049 A 
ATOM     74  H   UNL     1      -0.033   0.645  16.038  1.00  0.00     0.167 HD
ATOM     75  C   UNL     1       1.792   2.186  14.294  1.00  0.00     0.074 A 
ATOM     76  C   UNL     1       2.268   0.895  14.794  1.00  0.00     0.031 C 
ATOM     77  C   UNL     1       0.556   2.764  14.259  1.00  0.00     0.031 A 
BRANCH  64  78
ATOM     78  C   UNL     1      -1.305  -2.017  16.050  1.00  0.00    -0.014 A 
ATOM     79  C   UNL     1      -1.387  -1.552  17.378  1.00  0.00     0.010 A 
ATOM     80  C   UNL     1      -0.538  -3.179  15.831  1.00  0.00     0.010 A 
ATOM     81  C   UNL     1      -0.667  -2.164  18.409  1.00  0.00     0.020 A 
ATOM     82  C   UNL     1       0.149  -3.824  16.858  1.00  0.00     0.020 A 
ATOM     83  C   UNL     1       0.110  -3.289  18.136  1.00  0.00     0.054 A 
BRANCH  83  84
ATOM     84  S   UNL     1       1.120  -4.007  19.449  1.00  0.00     0.124 S 
ATOM     85  O   UNL     1       2.082  -2.939  19.700  1.00  0.00    -0.237 OA
ATOM     86  O   UNL     1       0.135  -4.239  20.501  1.00  0.00    -0.237 OA
ATOM     87  O   UNL     1       1.668  -5.214  18.835  1.00  0.00    -0.744 OA
ENDBRANCH  83  84
ENDBRANCH  64  78
BRANCH  65  88
ATOM     88  C   UNL     1       5.427   0.753  11.675  1.00  0.00    -0.014 A 
ATOM     89  C   UNL     1       6.523   1.246  12.414  1.00  0.00     0.010 A 
ATOM     90  C   UNL     1       5.658  -0.374  10.864  1.00  0.00     0.010 A 
ATOM     91  C   UNL     1       7.781   0.610  12.380  1.00  0.00     0.020 A 
ATOM     92  C   UNL     1       6.913  -1.007  10.811  1.00  0.00     0.020 A 
ATOM     93  C   UNL     1       7.965  -0.524  11.587  1.00  0.00     0.054 A 
BRANCH  93  94
ATOM     94  S   UNL     1       9.553  -1.417  11.653  1.00  0.00     0.124 S 
ATOM     95  O   UNL     1      10.476  -0.460  11.048  1.00  0.00    -0.237 OA
ATOM     96  O   UNL     1       9.728  -1.644  13.084  1.00  0.00    -0.237 OA
ATOM     97  O   UNL     1       9.302  -2.620  10.862  1.00  0.00    -0.744 OA
ENDBRANCH  93  94
ENDBRANCH  65  88
BRANCH  77  98
ATOM     98  C   UNL     1       0.418   4.080  13.517  1.00  0.00    -0.014 A 
ATOM     99  C   UNL     1       0.586   4.206  12.124  1.00  0.00     0.010 A 
ATOM    100  C   UNL     1      -0.031   5.199  14.233  1.00  0.00     0.010 A 
ATOM    101  C   UNL     1       0.329   5.418  11.466  1.00  0.00     0.020 A 
ATOM    102  C   UNL     1      -0.304   6.408  13.584  1.00  0.00     0.020 A 
ATOM    103  C   UNL     1      -0.117   6.515  12.204  1.00  0.00     0.054 A 
BRANCH 103 104
ATOM    104  S   UNL     1      -0.501   8.068  11.346  1.00  0.00     0.124 S 
ATOM    105  O   UNL     1       0.819   8.533  10.927  1.00  0.00    -0.237 OA
ATOM    106  O   UNL     1      -1.383   7.632  10.266  1.00  0.00    -0.237 OA
ATOM    107  O   UNL     1      -1.148   8.883  12.373  1.00  0.00    -0.744 OA
ENDBRANCH 103 104
ENDBRANCH  77  98
ENDBRANCH  51  52
ENDBRANCH  43  46
ENDBRANCH  41  42
ENDBRANCH  40  41
ENDBRANCH   1  40
TORSDOF 20
