REMARK SMILES Cc1ccc(-c2nc(C)cc(N3CCCC[C@H]3C(=O)NCCCCNC(=O)c3ccc(-c4c5nc(c(-c6ccc(S(=O)(=O)[O-])cc6)c6ccc([nH]6)c(-c6ccc(S(=O)(=O)[O-])cc6)c6nc(c(-c7ccc(S(=O)(=O)[O-])cc7)c7ccc4[nH]7)C=C6)C=C5)cc3)n2)cc1
REMARK SMILES IDX 23 1 22 2 21 3 20 4 18 5 19 6 17 8 12 9 13 10 14 11 16 12
REMARK SMILES IDX 15 13 11 14 6 15 7 16 88 17 8 18 9 19 10 20 5 21 1 22 2 23
REMARK SMILES IDX 3 24 90 25 4 26 89 27 24 28 25 29 26 30 27 32 28 33 29 34
REMARK SMILES IDX 87 35 30 36 86 37 31 38 32 39 33 40 80 41 34 42 85 43 79 44
REMARK SMILES IDX 81 45 35 46 84 47 78 48 77 49 36 51 66 52 47 53 65 54 48 55
REMARK SMILES IDX 51 56 64 57 82 58 49 59 50 60 63 62 83 63 52 64 37 65 38 66
REMARK SMILES IDX 46 67 39 68 45 69 40 70 41 71 42 72 43 73 44 74 67 75 68 76
REMARK SMILES IDX 76 77 69 78 75 79 70 80 71 81 72 82 73 83 74 84 53 85 54 86
REMARK SMILES IDX 62 87 55 88 61 89 56 90 57 91 58 92 59 93 60 94
REMARK H PARENT 20 7 25 31 81 50 51 61
REMARK Flexibility Score: inf
ROOT
ATOM      1  C   UNL     1      -9.081   3.311  -6.775  1.00  0.00     0.023 C 
ENDROOT
BRANCH   1   2
ATOM      2  C   UNL     1      -7.911   3.790  -5.915  1.00  0.00     0.023 C 
BRANCH   2   3
ATOM      3  C   UNL     1      -8.243   4.111  -4.449  1.00  0.00     0.116 C 
BRANCH   3   4
ATOM      4  N   UNL     1      -8.629   2.935  -3.688  1.00  0.00    -0.354 N 
ATOM      5  C   UNL     1      -8.071   2.202  -2.696  1.00  0.00     0.242 C 
ATOM      6  O   UNL     1      -8.821   1.323  -2.233  1.00  0.00    -0.273 OA
ATOM      7  H   UNL     1      -9.510   2.588  -3.958  1.00  0.00     0.163 HD
BRANCH   5   8
ATOM      8  C   UNL     1      -6.628   2.325  -2.113  1.00  0.00     0.173 C 
ATOM      9  N   UNL     1      -5.948   1.014  -2.257  1.00  0.00    -0.344 N 
ATOM     10  C   UNL     1      -5.402   0.710  -3.573  1.00  0.00     0.119 C 
ATOM     11  C   UNL     1      -4.381   1.760  -3.997  1.00  0.00     0.022 C 
ATOM     12  C   UNL     1      -5.641   3.422  -2.526  1.00  0.00     0.035 C 
ATOM     13  C   UNL     1      -4.934   3.176  -3.861  1.00  0.00     0.004 C 
BRANCH   9  14
ATOM     14  C   UNL     1      -5.284   0.514  -1.147  1.00  0.00     0.133 A 
ATOM     15  C   UNL     1      -3.336  -0.059  -0.078  1.00  0.00     0.161 A 
ATOM     16  N   UNL     1      -3.961  -0.572   0.996  1.00  0.00    -0.233 NA
ATOM     17  N   UNL     1      -3.943   0.466  -1.155  1.00  0.00    -0.211 NA
ATOM     18  C   UNL     1      -5.306  -0.502   0.988  1.00  0.00     0.043 A 
ATOM     19  C   UNL     1      -6.013  -1.080   2.175  1.00  0.00     0.067 C 
ATOM     20  C   UNL     1      -6.010   0.051  -0.064  1.00  0.00     0.070 A 
BRANCH  15  21
ATOM     21  C   UNL     1      -1.872  -0.044  -0.066  1.00  0.00     0.019 A 
ATOM     22  C   UNL     1       2.458   0.002  -0.017  1.00  0.00     0.044 C 
ATOM     23  C   UNL     1       0.959  -0.004  -0.026  1.00  0.00    -0.051 A 
ATOM     24  C   UNL     1       0.262  -1.212   0.096  1.00  0.00     0.004 A 
ATOM     25  C   UNL     1       0.236   1.183  -0.179  1.00  0.00     0.004 A 
ATOM     26  C   UNL     1      -1.136  -1.229   0.087  1.00  0.00     0.012 A 
ATOM     27  C   UNL     1      -1.163   1.160  -0.205  1.00  0.00     0.012 A 
ENDBRANCH  15  21
ENDBRANCH   9  14
ENDBRANCH   5   8
ENDBRANCH   3   4
ENDBRANCH   2   3
ENDBRANCH   1   2
BRANCH   1  28
ATOM     28  C   UNL     1     -10.164   4.352  -6.986  1.00  0.00     0.116 C 
BRANCH  28  29
ATOM     29  N   UNL     1      -9.992   5.217  -8.145  1.00  0.00    -0.352 N 
ATOM     30  C   UNL     1     -10.768   6.293  -8.545  1.00  0.00     0.251 C 
ATOM     31  H   UNL     1      -9.221   5.010  -8.721  1.00  0.00     0.163 HD
ATOM     32  O   UNL     1     -10.680   6.721  -9.676  1.00  0.00    -0.269 OA
BRANCH  30  33
ATOM     33  C   UNL     1     -11.653   6.961  -7.545  1.00  0.00     0.039 A 
ATOM     34  C   UNL     1     -11.625   8.359  -7.445  1.00  0.00     0.014 A 
ATOM     35  C   UNL     1     -12.362   6.218  -6.610  1.00  0.00     0.014 A 
ATOM     36  C   UNL     1     -12.145   8.987  -6.308  1.00  0.00     0.010 A 
ATOM     37  C   UNL     1     -12.741   6.818  -5.430  1.00  0.00     0.010 A 
ATOM     38  C   UNL     1     -12.624   8.204  -5.263  1.00  0.00    -0.014 A 
BRANCH  38  39
ATOM     39  C   UNL     1     -13.035   8.676  -3.944  1.00  0.00     0.031 A 
ATOM     40  C   UNL     1     -14.461   8.551  -3.536  1.00  0.00     0.074 A 
ATOM     41  C   UNL     1     -12.103   8.978  -3.012  1.00  0.00     0.049 A 
ATOM     42  N   UNL     1     -14.967   9.073  -2.470  1.00  0.00    -0.248 NA
ATOM     43  C   UNL     1     -15.455   7.841  -4.341  1.00  0.00     0.031 C 
ATOM     44  C   UNL     1     -12.285   8.950  -1.562  1.00  0.00     0.029 A 
ATOM     45  N   UNL     1     -10.856   9.582  -3.177  1.00  0.00    -0.354 N 
ATOM     46  C   UNL     1     -16.220   8.530  -2.290  1.00  0.00     0.074 A 
ATOM     47  C   UNL     1     -16.506   7.828  -3.517  1.00  0.00     0.031 C 
ATOM     48  C   UNL     1     -11.375   9.755  -0.997  1.00  0.00     0.029 A 
ATOM     49  C   UNL     1     -10.695  10.445  -2.077  1.00  0.00     0.049 A 
ATOM     50  H   UNL     1     -10.219   9.435  -3.913  1.00  0.00     0.167 HD
ATOM     51  C   UNL     1     -16.827   8.626  -1.074  1.00  0.00     0.031 A 
ATOM     52  C   UNL     1     -10.538  11.800  -2.163  1.00  0.00     0.031 A 
ATOM     53  C   UNL     1     -16.049   9.442  -0.147  1.00  0.00     0.049 A 
ATOM     54  C   UNL     1     -11.552  12.580  -1.353  1.00  0.00     0.074 A 
ATOM     55  C   UNL     1     -15.199   9.142   0.905  1.00  0.00     0.029 A 
ATOM     56  N   UNL     1     -15.885  10.791  -0.418  1.00  0.00    -0.354 N 
ATOM     57  N   UNL     1     -12.642  12.063  -0.861  1.00  0.00    -0.248 NA
ATOM     58  C   UNL     1     -11.450  14.011  -1.080  1.00  0.00     0.031 C 
ATOM     59  C   UNL     1     -14.486  10.323   1.240  1.00  0.00     0.029 A 
ATOM     60  C   UNL     1     -14.921  11.337   0.405  1.00  0.00     0.049 A 
ATOM     61  H   UNL     1     -16.387  11.291  -1.102  1.00  0.00     0.167 HD
ATOM     62  C   UNL     1     -13.387  13.036  -0.247  1.00  0.00     0.074 A 
ATOM     63  C   UNL     1     -12.585  14.237  -0.394  1.00  0.00     0.031 C 
ATOM     64  C   UNL     1     -14.606  12.756   0.303  1.00  0.00     0.031 A 
BRANCH  51  65
ATOM     65  C   UNL     1     -18.012   7.795  -0.633  1.00  0.00    -0.014 A 
ATOM     66  C   UNL     1     -18.237   7.590   0.746  1.00  0.00     0.010 A 
ATOM     67  C   UNL     1     -18.913   7.157  -1.504  1.00  0.00     0.010 A 
ATOM     68  C   UNL     1     -19.240   6.732   1.222  1.00  0.00     0.020 A 
ATOM     69  C   UNL     1     -19.902   6.272  -1.047  1.00  0.00     0.020 A 
ATOM     70  C   UNL     1     -20.052   6.056   0.317  1.00  0.00     0.054 A 
BRANCH  70  71
ATOM     71  S   UNL     1     -21.298   4.898   0.940  1.00  0.00     0.124 S 
ATOM     72  O   UNL     1     -20.489   3.942   1.692  1.00  0.00    -0.237 OA
ATOM     73  O   UNL     1     -22.159   5.763   1.741  1.00  0.00    -0.237 OA
ATOM     74  O   UNL     1     -21.912   4.363  -0.274  1.00  0.00    -0.744 OA
ENDBRANCH  70  71
ENDBRANCH  51  65
BRANCH  52  75
ATOM     75  C   UNL     1      -9.932  12.262  -3.440  1.00  0.00    -0.014 A 
ATOM     76  C   UNL     1      -8.567  11.968  -3.639  1.00  0.00     0.010 A 
ATOM     77  C   UNL     1     -10.758  12.492  -4.555  1.00  0.00     0.010 A 
ATOM     78  C   UNL     1      -8.091  11.690  -4.920  1.00  0.00     0.020 A 
ATOM     79  C   UNL     1     -10.277  12.223  -5.842  1.00  0.00     0.020 A 
ATOM     80  C   UNL     1      -8.973  11.743  -6.000  1.00  0.00     0.054 A 
BRANCH  80  81
ATOM     81  S   UNL     1      -8.469  10.928  -7.545  1.00  0.00     0.124 S 
ATOM     82  O   UNL     1      -7.211  11.597  -7.860  1.00  0.00    -0.237 OA
ATOM     83  O   UNL     1      -8.354   9.536  -7.112  1.00  0.00    -0.237 OA
ATOM     84  O   UNL     1      -9.579  11.207  -8.451  1.00  0.00    -0.744 OA
ENDBRANCH  80  81
ENDBRANCH  52  75
BRANCH  64  85
ATOM     85  C   UNL     1     -15.629  13.739   0.836  1.00  0.00    -0.014 A 
ATOM     86  C   UNL     1     -15.621  15.119   0.597  1.00  0.00     0.010 A 
ATOM     87  C   UNL     1     -16.754  13.227   1.538  1.00  0.00     0.010 A 
ATOM     88  C   UNL     1     -16.654  15.950   1.063  1.00  0.00     0.020 A 
ATOM     89  C   UNL     1     -17.809  14.036   1.968  1.00  0.00     0.020 A 
ATOM     90  C   UNL     1     -17.741  15.403   1.745  1.00  0.00     0.054 A 
BRANCH  90  91
ATOM     91  S   UNL     1     -19.103  16.474   2.270  1.00  0.00     0.124 S 
ATOM     92  O   UNL     1     -18.626  16.955   3.564  1.00  0.00    -0.237 OA
ATOM     93  O   UNL     1     -19.156  17.479   1.210  1.00  0.00    -0.237 OA
ATOM     94  O   UNL     1     -20.250  15.572   2.319  1.00  0.00    -0.744 OA
ENDBRANCH  90  91
ENDBRANCH  64  85
ENDBRANCH  38  39
ENDBRANCH  30  33
ENDBRANCH  28  29
ENDBRANCH   1  28
TORSDOF 16
