REMARK SMILES C[C@H](C(=O)NCCCCNC(=O)c1ccc(-c2c3nc(c(-c4ccc(S(=O)(=O)[O-])cc4)c4ccc([nH]4)c(-c4ccc(S(=O)(=O)[O-])cc4)c4nc(c(-c5ccc(S(=O)(=O)[O-])cc5)c5ccc2[nH]5)C=C4)C=C3)cc1)c1ccc(C[C@H]2CCC[C@@H]2O)cc1
REMARK SMILES IDX 7 1 6 2 5 3 3 4 4 5 2 7 1 8 73 9 74 10 85 11 75 12 84 13
REMARK SMILES IDX 76 14 77 15 78 16 79 17 82 18 80 19 81 20 83 21 8 23 9 24
REMARK SMILES IDX 10 25 11 26 12 28 13 29 14 30 72 31 15 32 71 33 16 34 17 35
REMARK SMILES IDX 18 36 65 37 19 38 70 39 64 40 66 41 20 42 69 43 63 44 62 45
REMARK SMILES IDX 21 47 51 48 32 49 50 50 33 51 36 52 49 53 67 54 34 55 35 56
REMARK SMILES IDX 48 58 68 59 37 60 22 61 23 62 31 63 24 64 30 65 25 66 26 67
REMARK SMILES IDX 27 68 28 69 29 70 52 71 53 72 61 73 54 74 60 75 55 76 56 77
REMARK SMILES IDX 57 78 58 79 59 80 38 81 39 82 47 83 40 84 46 85 41 86 42 87
REMARK SMILES IDX 43 88 44 89 45 90
REMARK H PARENT 5 6 83 22 10 27 66 46 36 57
REMARK Flexibility Score: inf
ROOT
ATOM      1  C   UNL     1      -1.487   1.935   2.172  1.00  0.00     0.023 C 
ENDROOT
BRANCH   1   2
ATOM      2  C   UNL     1      -1.182   1.109   0.927  1.00  0.00     0.116 C 
BRANCH   2   3
ATOM      3  N   UNL     1       0.220   0.998   0.575  1.00  0.00    -0.356 N 
ATOM      4  C   UNL     1       0.852   0.111  -0.249  1.00  0.00     0.227 C 
ATOM      5  O   UNL     1       1.988   0.441  -0.619  1.00  0.00    -0.274 OA
ATOM      6  H   UNL     1       0.808   1.667   0.996  1.00  0.00     0.163 HD
BRANCH   4   7
ATOM      7  C   UNL     1       0.333  -1.297  -0.608  1.00  0.00     0.105 C 
ATOM      8  C   UNL     1       0.975  -2.246   0.421  1.00  0.00     0.023 C 
BRANCH   7   9
ATOM      9  C   UNL     1      -1.167  -1.484  -0.796  1.00  0.00    -0.036 A 
ATOM     10  C   UNL     1      -1.917  -0.552  -1.530  1.00  0.00     0.005 A 
ATOM     11  C   UNL     1      -1.858  -2.560  -0.218  1.00  0.00     0.005 A 
ATOM     12  C   UNL     1      -3.315  -0.538  -1.441  1.00  0.00     0.004 A 
ATOM     13  C   UNL     1      -3.251  -2.580  -0.183  1.00  0.00     0.004 A 
ATOM     14  C   UNL     1      -3.987  -1.511  -0.697  1.00  0.00    -0.048 A 
BRANCH  14  15
ATOM     15  C   UNL     1      -5.460  -1.391  -0.387  1.00  0.00     0.041 C 
BRANCH  15  16
ATOM     16  C   UNL     1      -5.810  -0.730   0.966  1.00  0.00     0.022 C 
ATOM     17  C   UNL     1      -5.222  -1.371   2.236  1.00  0.00     0.007 C 
ATOM     18  C   UNL     1      -5.441   0.751   1.094  1.00  0.00     0.117 C 
ATOM     19  C   UNL     1      -4.997  -0.227   3.230  1.00  0.00     0.003 C 
ATOM     20  C   UNL     1      -5.610   1.006   2.587  1.00  0.00     0.032 C 
BRANCH  18  21
ATOM     21  O   UNL     1      -6.312   1.560   0.327  1.00  0.00    -0.393 OA
ATOM     22  H   UNL     1      -7.229   1.399   0.603  1.00  0.00     0.210 HD
ENDBRANCH  18  21
ENDBRANCH  15  16
ENDBRANCH  14  15
ENDBRANCH   7   9
ENDBRANCH   4   7
ENDBRANCH   2   3
ENDBRANCH   1   2
BRANCH   1  23
ATOM     23  C   UNL     1      -0.989   3.379   2.189  1.00  0.00     0.023 C 
BRANCH  23  24
ATOM     24  C   UNL     1      -1.341   4.248   0.985  1.00  0.00     0.116 C 
BRANCH  24  25
ATOM     25  N   UNL     1      -2.772   4.407   0.775  1.00  0.00    -0.352 N 
ATOM     26  C   UNL     1      -3.571   5.526   0.804  1.00  0.00     0.251 C 
ATOM     27  H   UNL     1      -3.251   3.569   0.579  1.00  0.00     0.163 HD
ATOM     28  O   UNL     1      -4.792   5.374   0.724  1.00  0.00    -0.269 OA
BRANCH  26  29
ATOM     29  C   UNL     1      -3.004   6.891   0.968  1.00  0.00     0.039 A 
ATOM     30  C   UNL     1      -3.689   7.812   1.768  1.00  0.00     0.014 A 
ATOM     31  C   UNL     1      -1.822   7.289   0.337  1.00  0.00     0.014 A 
ATOM     32  C   UNL     1      -3.146   9.081   2.004  1.00  0.00     0.010 A 
ATOM     33  C   UNL     1      -1.235   8.520   0.647  1.00  0.00     0.010 A 
ATOM     34  C   UNL     1      -1.885   9.431   1.490  1.00  0.00    -0.014 A 
BRANCH  34  35
ATOM     35  C   UNL     1      -1.241  10.724   1.865  1.00  0.00     0.031 A 
ATOM     36  C   UNL     1      -0.901  11.761   0.824  1.00  0.00     0.074 A 
ATOM     37  C   UNL     1      -0.929  10.956   3.158  1.00  0.00     0.049 A 
ATOM     38  N   UNL     1      -0.367  12.947   0.987  1.00  0.00    -0.248 NA
ATOM     39  C   UNL     1      -1.173  11.419  -0.581  1.00  0.00     0.031 C 
ATOM     40  C   UNL     1      -1.133  10.012   4.261  1.00  0.00     0.029 A 
ATOM     41  N   UNL     1      -0.378  12.057   3.768  1.00  0.00    -0.354 N 
ATOM     42  C   UNL     1      -0.243  13.491  -0.287  1.00  0.00     0.074 A 
ATOM     43  C   UNL     1      -0.697  12.480  -1.218  1.00  0.00     0.031 C 
ATOM     44  C   UNL     1      -0.754  10.588   5.412  1.00  0.00     0.029 A 
ATOM     45  C   UNL     1      -0.244  11.926   5.132  1.00  0.00     0.049 A 
ATOM     46  H   UNL     1      -0.104  12.865   3.276  1.00  0.00     0.167 HD
ATOM     47  C   UNL     1       0.179  14.726  -0.653  1.00  0.00     0.031 A 
ATOM     48  C   UNL     1       0.232  12.782   6.058  1.00  0.00     0.031 A 
ATOM     49  C   UNL     1       0.635  15.734   0.270  1.00  0.00     0.049 A 
ATOM     50  C   UNL     1       0.690  14.149   5.629  1.00  0.00     0.074 A 
ATOM     51  C   UNL     1       1.044  17.029  -0.003  1.00  0.00     0.029 A 
ATOM     52  N   UNL     1       0.744  15.565   1.642  1.00  0.00    -0.354 N 
ATOM     53  N   UNL     1       0.724  14.666   4.424  1.00  0.00    -0.248 NA
ATOM     54  C   UNL     1       1.153  15.055   6.688  1.00  0.00     0.031 C 
ATOM     55  C   UNL     1       1.448  17.625   1.197  1.00  0.00     0.029 A 
ATOM     56  C   UNL     1       1.231  16.724   2.226  1.00  0.00     0.049 A 
ATOM     57  H   UNL     1       0.509  14.742   2.129  1.00  0.00     0.167 HD
ATOM     58  C   UNL     1       1.197  15.964   4.583  1.00  0.00     0.074 A 
ATOM     59  C   UNL     1       1.400  16.162   6.004  1.00  0.00     0.031 C 
ATOM     60  C   UNL     1       1.447  16.905   3.639  1.00  0.00     0.031 A 
BRANCH  47  61
ATOM     61  C   UNL     1       0.152  15.067  -2.122  1.00  0.00    -0.014 A 
ATOM     62  C   UNL     1      -1.070  15.234  -2.800  1.00  0.00     0.010 A 
ATOM     63  C   UNL     1       1.354  15.283  -2.821  1.00  0.00     0.010 A 
ATOM     64  C   UNL     1      -1.090  15.575  -4.155  1.00  0.00     0.020 A 
ATOM     65  C   UNL     1       1.338  15.654  -4.170  1.00  0.00     0.020 A 
ATOM     66  C   UNL     1       0.115  15.784  -4.832  1.00  0.00     0.054 A 
BRANCH  66  67
ATOM     67  S   UNL     1       0.054  16.265  -6.580  1.00  0.00     0.124 S 
ATOM     68  O   UNL     1      -0.389  15.027  -7.218  1.00  0.00    -0.237 OA
ATOM     69  O   UNL     1      -0.920  17.353  -6.579  1.00  0.00    -0.237 OA
ATOM     70  O   UNL     1       1.428  16.662  -6.880  1.00  0.00    -0.744 OA
ENDBRANCH  66  67
ENDBRANCH  47  61
BRANCH  48  71
ATOM     71  C   UNL     1       0.292  12.373   7.491  1.00  0.00    -0.014 A 
ATOM     72  C   UNL     1      -0.542  12.975   8.450  1.00  0.00     0.010 A 
ATOM     73  C   UNL     1       1.196  11.377   7.903  1.00  0.00     0.010 A 
ATOM     74  C   UNL     1      -0.453  12.608   9.797  1.00  0.00     0.020 A 
ATOM     75  C   UNL     1       1.264  10.984   9.242  1.00  0.00     0.020 A 
ATOM     76  C   UNL     1       0.450  11.614  10.184  1.00  0.00     0.054 A 
BRANCH  76  77
ATOM     77  S   UNL     1       0.522  11.125  11.930  1.00  0.00     0.124 S 
ATOM     78  O   UNL     1       1.205  12.263  12.536  1.00  0.00    -0.237 OA
ATOM     79  O   UNL     1      -0.890  10.976  12.275  1.00  0.00    -0.237 OA
ATOM     80  O   UNL     1       1.282   9.877  11.903  1.00  0.00    -0.744 OA
ENDBRANCH  76  77
ENDBRANCH  48  71
BRANCH  60  81
ATOM     81  C   UNL     1       1.950  18.242   4.121  1.00  0.00    -0.014 A 
ATOM     82  C   UNL     1       3.236  18.383   4.673  1.00  0.00     0.010 A 
ATOM     83  C   UNL     1       1.125  19.377   4.015  1.00  0.00     0.010 A 
ATOM     84  C   UNL     1       3.664  19.618   5.167  1.00  0.00     0.020 A 
ATOM     85  C   UNL     1       1.562  20.622   4.476  1.00  0.00     0.020 A 
ATOM     86  C   UNL     1       2.820  20.729   5.072  1.00  0.00     0.054 A 
BRANCH  86  87
ATOM     87  S   UNL     1       3.395  22.321   5.723  1.00  0.00     0.124 S 
ATOM     88  O   UNL     1       3.294  22.112   7.165  1.00  0.00    -0.237 OA
ATOM     89  O   UNL     1       4.754  22.412   5.195  1.00  0.00    -0.237 OA
ATOM     90  O   UNL     1       2.450  23.285   5.166  1.00  0.00    -0.744 OA
ENDBRANCH  86  87
ENDBRANCH  60  81
ENDBRANCH  34  35
ENDBRANCH  26  29
ENDBRANCH  24  25
ENDBRANCH  23  24
ENDBRANCH   1  23
TORSDOF 18
