REMARK SMILES CSc1cccc(N2C[C@@H](C(=O)NCCCCNC(=O)c3ccc(-c4c5nc(c(-c6ccc(S(=O)(=O)[O-])cc6)c6ccc([nH]6)c(-c6ccc(S(=O)(=O)[O-])cc6)c6nc(c(-c7ccc(S(=O)(=O)[O-])cc7)c7ccc4[nH]7)C=C6)C=C5)cc3)CC2=O)c1
REMARK SMILES IDX 16 1 15 2 14 3 13 4 11 5 12 6 10 8 8 9 9 10 82 11 81 12
REMARK SMILES IDX 83 13 7 14 3 15 4 16 84 17 5 18 6 19 2 20 1 21 17 22 18 23
REMARK SMILES IDX 19 24 20 26 21 27 22 28 80 29 23 30 79 31 24 32 25 33 26 34
REMARK SMILES IDX 73 35 27 36 78 37 72 38 74 39 28 40 77 41 71 42 70 43 29 45
REMARK SMILES IDX 59 46 40 47 58 48 41 49 44 50 57 51 75 52 42 53 43 54 56 56
REMARK SMILES IDX 76 57 45 58 30 59 31 60 39 61 32 62 38 63 33 64 34 65 35 66
REMARK SMILES IDX 36 67 37 68 60 69 61 70 69 71 62 72 68 73 63 74 64 75 65 76
REMARK SMILES IDX 66 77 67 78 46 79 47 80 55 81 48 82 54 83 49 84 50 85 51 86
REMARK SMILES IDX 52 87 53 88
REMARK H PARENT 13 7 18 25 74 44 44 55
REMARK Flexibility Score: inf
ROOT
ATOM      1  C   UNL     1       6.355   0.564   8.620  1.00  0.00     0.023 C 
ENDROOT
BRANCH   1   2
ATOM      2  C   UNL     1       5.030   0.197   7.948  1.00  0.00     0.023 C 
BRANCH   2   3
ATOM      3  C   UNL     1       5.062  -1.080   7.110  1.00  0.00     0.116 C 
BRANCH   3   4
ATOM      4  N   UNL     1       5.299  -2.261   7.921  1.00  0.00    -0.356 N 
ATOM      5  C   UNL     1       4.513  -3.330   8.210  1.00  0.00     0.225 C 
ATOM      6  O   UNL     1       4.999  -4.220   8.913  1.00  0.00    -0.275 OA
ATOM      7  H   UNL     1       6.191  -2.293   8.337  1.00  0.00     0.163 HD
BRANCH   5   8
ATOM      8  C   UNL     1       3.100  -3.482   7.685  1.00  0.00     0.107 C 
ATOM      9  N   UNL     1       2.002  -2.792   5.711  1.00  0.00    -0.312 N 
ATOM     10  C   UNL     1       3.042  -3.675   6.182  1.00  0.00     0.139 C 
ATOM     11  C   UNL     1       1.511  -1.962   6.717  1.00  0.00     0.227 C 
ATOM     12  C   UNL     1       2.163  -2.336   8.021  1.00  0.00     0.116 C 
ATOM     13  O   UNL     1       0.656  -1.090   6.633  1.00  0.00    -0.274 OA
BRANCH   9  14
ATOM     14  C   UNL     1       1.579  -2.765   4.357  1.00  0.00     0.045 A 
ATOM     15  C   UNL     1       0.701  -1.552   2.423  1.00  0.00     0.009 A 
ATOM     16  C   UNL     1       0.653  -2.746   1.702  1.00  0.00     0.015 A 
ATOM     17  C   UNL     1       1.133  -1.577   3.758  1.00  0.00     0.041 A 
ATOM     18  C   UNL     1       1.092  -3.934   2.283  1.00  0.00     0.003 A 
ATOM     19  C   UNL     1       1.578  -3.938   3.592  1.00  0.00     0.026 A 
BRANCH  15  20
ATOM     20  S   UNL     1       0.175   0.004   1.717  1.00  0.00    -0.130 SA
ATOM     21  C   UNL     1       0.968  -0.065   0.085  1.00  0.00     0.091 C 
ENDBRANCH  15  20
ENDBRANCH   9  14
ENDBRANCH   5   8
ENDBRANCH   3   4
ENDBRANCH   2   3
ENDBRANCH   1   2
BRANCH   1  22
ATOM     22  C   UNL     1       7.552   0.686   7.683  1.00  0.00     0.116 C 
BRANCH  22  23
ATOM     23  N   UNL     1       7.354   1.673   6.633  1.00  0.00    -0.352 N 
ATOM     24  C   UNL     1       8.200   2.673   6.213  1.00  0.00     0.251 C 
ATOM     25  H   UNL     1       6.494   1.618   6.156  1.00  0.00     0.163 HD
ATOM     26  O   UNL     1       7.811   3.501   5.395  1.00  0.00    -0.269 OA
BRANCH  24  27
ATOM     27  C   UNL     1       9.565   2.764   6.774  1.00  0.00     0.039 A 
ATOM     28  C   UNL     1      10.032   4.004   7.215  1.00  0.00     0.014 A 
ATOM     29  C   UNL     1      10.370   1.628   6.889  1.00  0.00     0.014 A 
ATOM     30  C   UNL     1      11.279   4.091   7.838  1.00  0.00     0.010 A 
ATOM     31  C   UNL     1      11.577   1.703   7.579  1.00  0.00     0.010 A 
ATOM     32  C   UNL     1      12.044   2.934   8.063  1.00  0.00    -0.014 A 
BRANCH  32  33
ATOM     33  C   UNL     1      13.330   2.991   8.807  1.00  0.00     0.031 A 
ATOM     34  C   UNL     1      14.616   2.605   8.126  1.00  0.00     0.074 A 
ATOM     35  C   UNL     1      13.332   3.332  10.112  1.00  0.00     0.049 A 
ATOM     36  N   UNL     1      15.823   2.530   8.626  1.00  0.00    -0.248 NA
ATOM     37  C   UNL     1      14.533   2.234   6.703  1.00  0.00     0.031 C 
ATOM     38  C   UNL     1      12.149   3.691  10.898  1.00  0.00     0.029 A 
ATOM     39  N   UNL     1      14.365   3.426  11.012  1.00  0.00    -0.354 N 
ATOM     40  C   UNL     1      16.637   2.094   7.588  1.00  0.00     0.074 A 
ATOM     41  C   UNL     1      15.781   1.869   6.444  1.00  0.00     0.031 C 
ATOM     42  C   UNL     1      12.526   3.994  12.151  1.00  0.00     0.029 A 
ATOM     43  C   UNL     1      13.968   3.807  12.273  1.00  0.00     0.049 A 
ATOM     44  H   UNL     1      15.303   3.239  10.777  1.00  0.00     0.167 HD
ATOM     45  C   UNL     1      17.980   1.919   7.578  1.00  0.00     0.031 A 
ATOM     46  C   UNL     1      14.681   3.978  13.404  1.00  0.00     0.031 A 
ATOM     47  C   UNL     1      18.832   2.153   8.714  1.00  0.00     0.049 A 
ATOM     48  C   UNL     1      16.170   3.750  13.372  1.00  0.00     0.074 A 
ATOM     49  C   UNL     1      20.210   2.047   8.790  1.00  0.00     0.029 A 
ATOM     50  N   UNL     1      18.391   2.542   9.970  1.00  0.00    -0.354 N 
ATOM     51  N   UNL     1      16.928   3.396  12.362  1.00  0.00    -0.248 NA
ATOM     52  C   UNL     1      16.899   3.955  14.631  1.00  0.00     0.031 C 
ATOM     53  C   UNL     1      20.597   2.318  10.106  1.00  0.00     0.029 A 
ATOM     54  C   UNL     1      19.468   2.657  10.833  1.00  0.00     0.049 A 
ATOM     55  H   UNL     1      17.452   2.710  10.211  1.00  0.00     0.167 HD
ATOM     56  C   UNL     1      18.228   3.370  12.857  1.00  0.00     0.074 A 
ATOM     57  C   UNL     1      18.154   3.760  14.250  1.00  0.00     0.031 C 
ATOM     58  C   UNL     1      19.380   3.054  12.215  1.00  0.00     0.031 A 
BRANCH  45  59
ATOM     59  C   UNL     1      18.617   1.454   6.294  1.00  0.00    -0.014 A 
ATOM     60  C   UNL     1      18.691   2.302   5.174  1.00  0.00     0.010 A 
ATOM     61  C   UNL     1      19.206   0.178   6.225  1.00  0.00     0.010 A 
ATOM     62  C   UNL     1      19.311   1.871   3.999  1.00  0.00     0.020 A 
ATOM     63  C   UNL     1      19.854  -0.246   5.062  1.00  0.00     0.020 A 
ATOM     64  C   UNL     1      19.891   0.599   3.951  1.00  0.00     0.054 A 
BRANCH  64  65
ATOM     65  S   UNL     1      20.727   0.085   2.426  1.00  0.00     0.124 S 
ATOM     66  O   UNL     1      19.600  -0.112   1.517  1.00  0.00    -0.237 OA
ATOM     67  O   UNL     1      21.581   1.232   2.127  1.00  0.00    -0.237 OA
ATOM     68  O   UNL     1      21.435  -1.133   2.811  1.00  0.00    -0.744 OA
ENDBRANCH  64  65
ENDBRANCH  45  59
BRANCH  46  69
ATOM     69  C   UNL     1      14.004   4.390  14.665  1.00  0.00    -0.014 A 
ATOM     70  C   UNL     1      14.246   5.657  15.227  1.00  0.00     0.010 A 
ATOM     71  C   UNL     1      13.128   3.509  15.325  1.00  0.00     0.010 A 
ATOM     72  C   UNL     1      13.654   6.021  16.440  1.00  0.00     0.020 A 
ATOM     73  C   UNL     1      12.507   3.882  16.520  1.00  0.00     0.020 A 
ATOM     74  C   UNL     1      12.789   5.129  17.080  1.00  0.00     0.054 A 
BRANCH  74  75
ATOM     75  S   UNL     1      12.014   5.630  18.642  1.00  0.00     0.124 S 
ATOM     76  O   UNL     1      13.135   5.553  19.574  1.00  0.00    -0.237 OA
ATOM     77  O   UNL     1      11.533   6.975  18.339  1.00  0.00    -0.237 OA
ATOM     78  O   UNL     1      10.966   4.631  18.839  1.00  0.00    -0.744 OA
ENDBRANCH  74  75
ENDBRANCH  46  69
BRANCH  58  79
ATOM     79  C   UNL     1      20.663   3.159  12.997  1.00  0.00    -0.014 A 
ATOM     80  C   UNL     1      20.979   2.240  14.014  1.00  0.00     0.010 A 
ATOM     81  C   UNL     1      21.593   4.162  12.667  1.00  0.00     0.010 A 
ATOM     82  C   UNL     1      22.187   2.345  14.709  1.00  0.00     0.020 A 
ATOM     83  C   UNL     1      22.815   4.251  13.338  1.00  0.00     0.020 A 
ATOM     84  C   UNL     1      23.098   3.349  14.366  1.00  0.00     0.054 A 
BRANCH  84  85
ATOM     85  S   UNL     1      24.677   3.434  15.253  1.00  0.00     0.124 S 
ATOM     86  O   UNL     1      24.266   3.943  16.558  1.00  0.00    -0.237 OA
ATOM     87  O   UNL     1      25.130   2.046  15.233  1.00  0.00    -0.237 OA
ATOM     88  O   UNL     1      25.478   4.356  14.449  1.00  0.00    -0.744 OA
ENDBRANCH  84  85
ENDBRANCH  58  79
ENDBRANCH  32  33
ENDBRANCH  24  27
ENDBRANCH  22  23
ENDBRANCH   1  22
TORSDOF 16
