REMARK SMILES CCc1nc(N2CC[N@H+](CC=C(C)C)[C@H](C(=O)NCCCCNC(=O)c3ccc(-c4c5nc(c(-c6ccc(S(=O)(=O)[O-])cc6)c6ccc([nH]6)c(-c6ccc(S(=O)(=O)[O-])cc6)c6nc(c(-c7ccc(S(=O)(=O)[O-])cc7)c7ccc4[nH]7)C=C6)C=C5)cc3)C2)no1
REMARK SMILES IDX 21 1 20 2 19 3 18 4 16 5 17 6 15 8 6 9 7 10 86 11 8 12 9 13
REMARK SMILES IDX 5 15 3 16 4 17 88 18 87 19 2 20 1 21 10 22 11 23 12 24 13 25
REMARK SMILES IDX 14 26 22 27 23 28 24 29 25 31 26 32 27 33 85 34 28 35 84 36
REMARK SMILES IDX 29 37 30 38 31 39 78 40 32 41 83 42 77 43 79 44 33 45 82 46
REMARK SMILES IDX 76 47 75 48 34 50 64 51 45 52 63 53 46 54 49 55 62 56 80 57
REMARK SMILES IDX 47 58 48 59 61 61 81 62 50 63 35 64 36 65 44 66 37 67 43 68
REMARK SMILES IDX 38 69 39 70 40 71 41 72 42 73 65 74 66 75 74 76 67 77 73 78
REMARK SMILES IDX 68 79 69 80 70 81 71 82 72 83 51 84 52 85 60 86 53 87 59 88
REMARK SMILES IDX 54 89 55 90 56 91 57 92 58 93
REMARK H PARENT 18 7 9 14 23 30 79 49 49 60
REMARK Flexibility Score: inf
ROOT
ATOM      1  C   UNL     1       7.842  -0.412   3.822  1.00  0.00     0.023 C 
ENDROOT
BRANCH   1   2
ATOM      2  C   UNL     1       6.356  -0.076   3.957  1.00  0.00     0.023 C 
BRANCH   2   3
ATOM      3  C   UNL     1       5.975   0.609   5.268  1.00  0.00     0.116 C 
BRANCH   3   4
ATOM      4  N   UNL     1       6.622   1.904   5.392  1.00  0.00    -0.351 N 
ATOM      5  C   UNL     1       6.073   3.157   5.410  1.00  0.00     0.280 C 
ATOM      6  O   UNL     1       6.847   4.108   5.282  1.00  0.00    -0.268 OA
ATOM      7  H   UNL     1       7.603   1.875   5.475  1.00  0.00     0.163 HD
BRANCH   5   8
ATOM      8  C   UNL     1       4.550   3.307   5.528  1.00  0.00     0.294 C 
ATOM      9  N   UNL     1       2.482   3.512   4.182  1.00  0.00    -0.326 N 
ATOM     10  C   UNL     1       1.932   4.475   5.133  1.00  0.00     0.181 C 
ATOM     11  C   UNL     1       3.940   3.399   4.113  1.00  0.00     0.195 C 
ATOM     12  C   UNL     1       2.614   4.345   6.519  1.00  0.00     0.284 C 
ATOM     13  N   UNL     1       4.093   4.314   6.532  1.00  0.00    -0.318 N 
ATOM     14  H   UNL     1       4.461   3.979   7.422  1.00  0.00     0.349 HD
BRANCH   9  15
ATOM     15  C   UNL     1       1.699   3.005   3.209  1.00  0.00     0.266 A 
ATOM     16  C   UNL     1       0.927   1.492   1.991  1.00  0.00     0.227 A 
ATOM     17  N   UNL     1       1.982   1.754   2.727  1.00  0.00    -0.176 NA
ATOM     18  O   UNL     1       0.056   2.535   1.905  1.00  0.00    -0.337 OA
ATOM     19  N   UNL     1       0.562   3.531   2.731  1.00  0.00    -0.038 NA
BRANCH  16  20
ATOM     20  C   UNL     1       0.496   0.217   1.377  1.00  0.00     0.097 C 
ATOM     21  C   UNL     1       1.027   0.044  -0.031  1.00  0.00     0.014 C 
ENDBRANCH  16  20
ENDBRANCH   9  15
BRANCH  13  22
ATOM     22  C   UNL     1       4.697   5.649   6.529  1.00  0.00     0.291 C 
BRANCH  22  23
ATOM     23  C   UNL     1       4.421   6.497   5.323  1.00  0.00     0.032 C 
ATOM     24  C   UNL     1       3.620   7.581   5.260  1.00  0.00    -0.075 C 
ATOM     25  C   UNL     1       3.308   8.226   3.938  1.00  0.00     0.039 C 
ATOM     26  C   UNL     1       2.927   8.170   6.455  1.00  0.00     0.039 C 
ENDBRANCH  22  23
ENDBRANCH  13  22
ENDBRANCH   5   8
ENDBRANCH   3   4
ENDBRANCH   2   3
ENDBRANCH   1   2
BRANCH   1  27
ATOM     27  C   UNL     1       8.422  -1.240   4.963  1.00  0.00     0.116 C 
BRANCH  27  28
ATOM     28  N   UNL     1       7.757  -2.523   5.120  1.00  0.00    -0.352 N 
ATOM     29  C   UNL     1       8.309  -3.780   5.217  1.00  0.00     0.251 C 
ATOM     30  H   UNL     1       6.774  -2.488   5.163  1.00  0.00     0.163 HD
ATOM     31  O   UNL     1       7.589  -4.769   5.188  1.00  0.00    -0.269 OA
BRANCH  29  32
ATOM     32  C   UNL     1       9.777  -3.924   5.326  1.00  0.00     0.039 A 
ATOM     33  C   UNL     1      10.425  -4.865   4.523  1.00  0.00     0.014 A 
ATOM     34  C   UNL     1      10.513  -3.120   6.201  1.00  0.00     0.014 A 
ATOM     35  C   UNL     1      11.819  -4.952   4.549  1.00  0.00     0.010 A 
ATOM     36  C   UNL     1      11.904  -3.152   6.165  1.00  0.00     0.010 A 
ATOM     37  C   UNL     1      12.572  -4.071   5.342  1.00  0.00    -0.014 A 
BRANCH  37  38
ATOM     38  C   UNL     1      14.058  -4.094   5.323  1.00  0.00     0.031 A 
ATOM     39  C   UNL     1      14.826  -4.430   6.573  1.00  0.00     0.074 A 
ATOM     40  C   UNL     1      14.718  -3.751   4.199  1.00  0.00     0.049 A 
ATOM     41  N   UNL     1      16.120  -4.454   6.765  1.00  0.00    -0.248 NA
ATOM     42  C   UNL     1      14.036  -4.757   7.771  1.00  0.00     0.031 C 
ATOM     43  C   UNL     1      14.091  -3.367   2.931  1.00  0.00     0.029 A 
ATOM     44  N   UNL     1      16.063  -3.665   3.941  1.00  0.00    -0.354 N 
ATOM     45  C   UNL     1      16.298  -4.781   8.104  1.00  0.00     0.074 A 
ATOM     46  C   UNL     1      14.980  -4.891   8.690  1.00  0.00     0.031 C 
ATOM     47  C   UNL     1      15.049  -3.120   2.024  1.00  0.00     0.029 A 
ATOM     48  C   UNL     1      16.356  -3.282   2.653  1.00  0.00     0.049 A 
ATOM     49  H   UNL     1      16.754  -3.861   4.615  1.00  0.00     0.167 HD
ATOM     50  C   UNL     1      17.453  -4.991   8.782  1.00  0.00     0.031 A 
ATOM     51  C   UNL     1      17.541  -3.076   2.046  1.00  0.00     0.031 A 
ATOM     52  C   UNL     1      18.762  -4.882   8.194  1.00  0.00     0.049 A 
ATOM     53  C   UNL     1      18.811  -3.293   2.823  1.00  0.00     0.074 A 
ATOM     54  C   UNL     1      19.991  -5.127   8.782  1.00  0.00     0.029 A 
ATOM     55  N   UNL     1      19.015  -4.488   6.888  1.00  0.00    -0.354 N 
ATOM     56  N   UNL     1      18.959  -3.670   4.071  1.00  0.00    -0.248 NA
ATOM     57  C   UNL     1      20.073  -3.068   2.106  1.00  0.00     0.031 C 
ATOM     58  C   UNL     1      20.988  -4.822   7.850  1.00  0.00     0.029 A 
ATOM     59  C   UNL     1      20.380  -4.455   6.660  1.00  0.00     0.049 A 
ATOM     60  H   UNL     1      18.325  -4.266   6.222  1.00  0.00     0.167 HD
ATOM     61  C   UNL     1      20.331  -3.755   4.281  1.00  0.00     0.074 A 
ATOM     62  C   UNL     1      20.967  -3.404   3.027  1.00  0.00     0.031 C 
ATOM     63  C   UNL     1      21.002  -4.098   5.408  1.00  0.00     0.031 A 
BRANCH  50  64
ATOM     64  C   UNL     1      17.344  -5.346  10.243  1.00  0.00    -0.014 A 
ATOM     65  C   UNL     1      16.797  -6.575  10.658  1.00  0.00     0.010 A 
ATOM     66  C   UNL     1      17.813  -4.446  11.217  1.00  0.00     0.010 A 
ATOM     67  C   UNL     1      16.670  -6.872  12.017  1.00  0.00     0.020 A 
ATOM     68  C   UNL     1      17.718  -4.753  12.578  1.00  0.00     0.020 A 
ATOM     69  C   UNL     1      17.126  -5.956  12.969  1.00  0.00     0.054 A 
BRANCH  69  70
ATOM     70  S   UNL     1      16.949  -6.368  14.726  1.00  0.00     0.124 S 
ATOM     71  O   UNL     1      15.508  -6.227  14.924  1.00  0.00    -0.237 OA
ATOM     72  O   UNL     1      17.459  -7.736  14.787  1.00  0.00    -0.237 OA
ATOM     73  O   UNL     1      17.771  -5.368  15.403  1.00  0.00    -0.744 OA
ENDBRANCH  69  70
ENDBRANCH  50  64
BRANCH  51  74
ATOM     74  C   UNL     1      17.578  -2.662   0.616  1.00  0.00    -0.014 A 
ATOM     75  C   UNL     1      18.025  -3.556  -0.374  1.00  0.00     0.010 A 
ATOM     76  C   UNL     1      17.141  -1.381   0.231  1.00  0.00     0.010 A 
ATOM     77  C   UNL     1      18.042  -3.174  -1.718  1.00  0.00     0.020 A 
ATOM     78  C   UNL     1      17.129  -1.006  -1.115  1.00  0.00     0.020 A 
ATOM     79  C   UNL     1      17.587  -1.903  -2.081  1.00  0.00     0.054 A 
BRANCH  79  80
ATOM     80  S   UNL     1      17.556  -1.457  -3.840  1.00  0.00     0.124 S 
ATOM     81  O   UNL     1      18.976  -1.300  -4.139  1.00  0.00    -0.237 OA
ATOM     82  O   UNL     1      16.904  -2.615  -4.446  1.00  0.00    -0.237 OA
ATOM     83  O   UNL     1      16.770  -0.225  -3.866  1.00  0.00    -0.744 OA
ENDBRANCH  79  80
ENDBRANCH  51  74
BRANCH  63  84
ATOM     84  C   UNL     1      22.506  -4.145   5.335  1.00  0.00    -0.014 A 
ATOM     85  C   UNL     1      23.273  -2.971   5.233  1.00  0.00     0.010 A 
ATOM     86  C   UNL     1      23.164  -5.386   5.428  1.00  0.00     0.010 A 
ATOM     87  C   UNL     1      24.669  -3.040   5.193  1.00  0.00     0.020 A 
ATOM     88  C   UNL     1      24.559  -5.457   5.420  1.00  0.00     0.020 A 
ATOM     89  C   UNL     1      25.303  -4.283   5.289  1.00  0.00     0.054 A 
BRANCH  89  90
ATOM     90  S   UNL     1      27.116  -4.340   5.281  1.00  0.00     0.124 S 
ATOM     91  O   UNL     1      27.424  -4.031   3.888  1.00  0.00    -0.237 OA
ATOM     92  O   UNL     1      27.473  -3.306   6.249  1.00  0.00    -0.237 OA
ATOM     93  O   UNL     1      27.422  -5.707   5.698  1.00  0.00    -0.744 OA
ENDBRANCH  89  90
ENDBRANCH  63  84
ENDBRANCH  37  38
ENDBRANCH  29  32
ENDBRANCH  27  28
ENDBRANCH   1  27
TORSDOF 18
