REMARK SMILES O=C(NCCCCNC(=O)c1ccc(-c2c3nc(c(-c4ccc(S(=O)(=O)[O-])cc4)c4ccc([nH]4)c(-c4ccc(S(=O)(=O)[O-])cc4)c4nc(c(-c5ccc(S(=O)(=O)[O-])cc5)c5ccc2[nH]5)C=C4)C=C3)cc1)c1ccc(Cn2cc(Cl)c(=O)[nH]c2=O)cc1
REMARK SMILES IDX 6 1 5 2 4 3 3 4 1 5 2 6 71 8 72 9 86 10 73 11 85 12 74 13
REMARK SMILES IDX 75 14 76 15 77 16 83 17 78 18 82 19 84 20 79 21 80 22 81 24
REMARK SMILES IDX 7 25 8 26 9 27 10 29 11 30 12 31 70 32 13 33 69 34 14 35
REMARK SMILES IDX 15 36 16 37 63 38 17 39 68 40 62 41 64 42 18 43 67 44 61 45
REMARK SMILES IDX 60 46 19 48 49 49 30 50 48 51 31 52 34 53 47 54 65 55 32 56
REMARK SMILES IDX 33 57 46 59 66 60 35 61 20 62 21 63 29 64 22 65 28 66 23 67
REMARK SMILES IDX 24 68 25 69 26 70 27 71 50 72 51 73 59 74 52 75 58 76 53 77
REMARK SMILES IDX 54 78 55 79 56 80 57 81 36 82 37 83 45 84 38 85 44 86 39 87
REMARK SMILES IDX 40 88 41 89 42 90 43 91
REMARK H PARENT 3 7 82 23 8 28 64 47 34 58
REMARK Flexibility Score: inf
ROOT
ATOM      1  C   UNL     1       4.459   1.937  -3.255  1.00  0.00     0.023 C 
ENDROOT
BRANCH   1   2
ATOM      2  C   UNL     1       4.923   0.803  -2.341  1.00  0.00     0.023 C 
BRANCH   2   3
ATOM      3  C   UNL     1       4.514   0.933  -0.877  1.00  0.00     0.116 C 
BRANCH   3   4
ATOM      4  N   UNL     1       3.073   0.860  -0.685  1.00  0.00    -0.352 N 
ATOM      5  O   UNL     1       1.135  -0.025   0.103  1.00  0.00    -0.269 OA
ATOM      6  C   UNL     1       2.360  -0.025   0.087  1.00  0.00     0.251 C 
ATOM      7  H   UNL     1       2.541   1.530  -1.171  1.00  0.00     0.163 HD
BRANCH   6   8
ATOM      8  C   UNL     1       3.103  -1.006   0.897  1.00  0.00     0.039 A 
ATOM      9  C   UNL     1       3.904  -0.571   1.955  1.00  0.00     0.014 A 
ATOM     10  C   UNL     1       3.048  -2.355   0.545  1.00  0.00     0.014 A 
ATOM     11  C   UNL     1       4.723  -1.486   2.613  1.00  0.00     0.006 A 
ATOM     12  C   UNL     1       3.877  -3.267   1.201  1.00  0.00     0.006 A 
ATOM     13  C   UNL     1       4.742  -2.835   2.219  1.00  0.00    -0.028 A 
BRANCH  13  14
ATOM     14  C   UNL     1       5.742  -3.794   2.828  1.00  0.00     0.162 C 
BRANCH  14  15
ATOM     15  N   UNL     1       6.965  -3.902   2.021  1.00  0.00    -0.295 N 
ATOM     16  C   UNL     1       7.838  -2.828   1.952  1.00  0.00     0.117 A 
ATOM     17  C   UNL     1       7.209  -5.081   1.326  1.00  0.00     0.328 A 
ATOM     18  C   UNL     1       8.959  -2.856   1.225  1.00  0.00     0.122 A 
ATOM     19  N   UNL     1       8.367  -5.103   0.589  1.00  0.00    -0.273 N 
ATOM     20  O   UNL     1       6.476  -6.066   1.349  1.00  0.00    -0.248 OA
ATOM     21  Cl  UNL     1      10.022  -1.514   1.139  1.00  0.00    -0.077 Cl
ATOM     22  C   UNL     1       9.288  -4.094   0.481  1.00  0.00     0.272 A 
ATOM     23  H   UNL     1       8.555  -5.929   0.087  1.00  0.00     0.175 HD
ATOM     24  O   UNL     1      10.313  -4.232  -0.178  1.00  0.00    -0.268 OA
ENDBRANCH  14  15
ENDBRANCH  13  14
ENDBRANCH   6   8
ENDBRANCH   3   4
ENDBRANCH   2   3
ENDBRANCH   1   2
BRANCH   1  25
ATOM     25  C   UNL     1       4.825   3.348  -2.800  1.00  0.00     0.116 C 
BRANCH  25  26
ATOM     26  N   UNL     1       6.257   3.549  -2.634  1.00  0.00    -0.352 N 
ATOM     27  C   UNL     1       7.072   4.527  -3.156  1.00  0.00     0.251 C 
ATOM     28  H   UNL     1       6.710   2.886  -2.064  1.00  0.00     0.163 HD
ATOM     29  O   UNL     1       8.286   4.471  -2.979  1.00  0.00    -0.269 OA
BRANCH  27  30
ATOM     30  C   UNL     1       6.491   5.621  -3.965  1.00  0.00     0.039 A 
ATOM     31  C   UNL     1       7.058   5.911  -5.209  1.00  0.00     0.014 A 
ATOM     32  C   UNL     1       5.372   6.329  -3.519  1.00  0.00     0.014 A 
ATOM     33  C   UNL     1       6.439   6.838  -6.052  1.00  0.00     0.010 A 
ATOM     34  C   UNL     1       4.721   7.205  -4.385  1.00  0.00     0.010 A 
ATOM     35  C   UNL     1       5.235   7.449  -5.668  1.00  0.00    -0.014 A 
BRANCH  35  36
ATOM     36  C   UNL     1       4.454   8.282  -6.618  1.00  0.00     0.031 A 
ATOM     37  C   UNL     1       4.220   9.740  -6.347  1.00  0.00     0.074 A 
ATOM     38  C   UNL     1       3.860   7.692  -7.674  1.00  0.00     0.049 A 
ATOM     39  N   UNL     1       3.478  10.591  -7.007  1.00  0.00    -0.248 NA
ATOM     40  C   UNL     1       4.889  10.309  -5.167  1.00  0.00     0.031 C 
ATOM     41  C   UNL     1       3.961   6.271  -8.018  1.00  0.00     0.029 A 
ATOM     42  N   UNL     1       3.030   8.208  -8.639  1.00  0.00    -0.354 N 
ATOM     43  C   UNL     1       3.573  11.792  -6.316  1.00  0.00     0.074 A 
ATOM     44  C   UNL     1       4.417  11.547  -5.164  1.00  0.00     0.031 C 
ATOM     45  C   UNL     1       3.225   6.031  -9.114  1.00  0.00     0.029 A 
ATOM     46  C   UNL     1       2.571   7.268  -9.530  1.00  0.00     0.049 A 
ATOM     47  H   UNL     1       2.788   9.161  -8.687  1.00  0.00     0.167 HD
ATOM     48  C   UNL     1       3.018  12.991  -6.617  1.00  0.00     0.031 A 
ATOM     49  C   UNL     1       1.704   7.376 -10.554  1.00  0.00     0.031 A 
ATOM     50  C   UNL     1       2.179  13.233  -7.760  1.00  0.00     0.049 A 
ATOM     51  C   UNL     1       1.093   8.711 -10.868  1.00  0.00     0.074 A 
ATOM     52  C   UNL     1       1.630  14.430  -8.187  1.00  0.00     0.029 A 
ATOM     53  N   UNL     1       1.755  12.259  -8.650  1.00  0.00    -0.354 N 
ATOM     54  N   UNL     1       1.259   9.854 -10.247  1.00  0.00    -0.248 NA
ATOM     55  C   UNL     1       0.183   8.771 -12.019  1.00  0.00     0.031 C 
ATOM     56  C   UNL     1       0.836  14.170  -9.311  1.00  0.00     0.029 A 
ATOM     57  C   UNL     1       0.925  12.820  -9.608  1.00  0.00     0.049 A 
ATOM     58  H   UNL     1       2.006  11.308  -8.609  1.00  0.00     0.167 HD
ATOM     59  C   UNL     1       0.477  10.773 -10.935  1.00  0.00     0.074 A 
ATOM     60  C   UNL     1      -0.147  10.057 -12.030  1.00  0.00     0.031 C 
ATOM     61  C   UNL     1       0.293  12.092 -10.680  1.00  0.00     0.031 A 
BRANCH  48  62
ATOM     62  C   UNL     1       3.299  14.128  -5.671  1.00  0.00    -0.014 A 
ATOM     63  C   UNL     1       4.575  14.716  -5.604  1.00  0.00     0.010 A 
ATOM     64  C   UNL     1       2.276  14.611  -4.835  1.00  0.00     0.010 A 
ATOM     65  C   UNL     1       4.841  15.724  -4.674  1.00  0.00     0.020 A 
ATOM     66  C   UNL     1       2.532  15.637  -3.920  1.00  0.00     0.020 A 
ATOM     67  C   UNL     1       3.821  16.168  -3.828  1.00  0.00     0.054 A 
BRANCH  67  68
ATOM     68  S   UNL     1       4.195  17.459  -2.610  1.00  0.00     0.124 S 
ATOM     69  O   UNL     1       4.888  16.699  -1.573  1.00  0.00    -0.237 OA
ATOM     70  O   UNL     1       5.028  18.389  -3.368  1.00  0.00    -0.237 OA
ATOM     71  O   UNL     1       2.880  17.971  -2.234  1.00  0.00    -0.744 OA
ENDBRANCH  67  68
ENDBRANCH  48  62
BRANCH  49  72
ATOM     72  C   UNL     1       1.366   6.166 -11.349  1.00  0.00    -0.014 A 
ATOM     73  C   UNL     1       1.931   5.968 -12.619  1.00  0.00     0.010 A 
ATOM     74  C   UNL     1       0.532   5.172 -10.804  1.00  0.00     0.010 A 
ATOM     75  C   UNL     1       1.677   4.791 -13.329  1.00  0.00     0.020 A 
ATOM     76  C   UNL     1       0.292   3.986 -11.502  1.00  0.00     0.020 A 
ATOM     77  C   UNL     1       0.866   3.804 -12.762  1.00  0.00     0.054 A 
BRANCH  77  78
ATOM     78  S   UNL     1       0.635   2.239 -13.653  1.00  0.00     0.124 S 
ATOM     79  O   UNL     1      -0.345   2.609 -14.668  1.00  0.00    -0.237 OA
ATOM     80  O   UNL     1       1.980   1.953 -14.146  1.00  0.00    -0.237 OA
ATOM     81  O   UNL     1       0.155   1.327 -12.617  1.00  0.00    -0.744 OA
ENDBRANCH  77  78
ENDBRANCH  49  72
BRANCH  61  82
ATOM     82  C   UNL     1      -0.628  12.849 -11.597  1.00  0.00    -0.014 A 
ATOM     83  C   UNL     1      -2.022  12.704 -11.496  1.00  0.00     0.010 A 
ATOM     84  C   UNL     1      -0.096  13.758 -12.530  1.00  0.00     0.010 A 
ATOM     85  C   UNL     1      -2.871  13.443 -12.325  1.00  0.00     0.020 A 
ATOM     86  C   UNL     1      -0.942  14.512 -13.347  1.00  0.00     0.020 A 
ATOM     87  C   UNL     1      -2.325  14.342 -13.246  1.00  0.00     0.054 A 
BRANCH  87  88
ATOM     88  S   UNL     1      -3.446  15.332 -14.274  1.00  0.00     0.124 S 
ATOM     89  O   UNL     1      -3.878  14.360 -15.274  1.00  0.00    -0.237 OA
ATOM     90  O   UNL     1      -4.471  15.751 -13.321  1.00  0.00    -0.237 OA
ATOM     91  O   UNL     1      -2.595  16.408 -14.776  1.00  0.00    -0.744 OA
ENDBRANCH  87  88
ENDBRANCH  61  82
ENDBRANCH  35  36
ENDBRANCH  27  30
ENDBRANCH  25  26
ENDBRANCH   1  25
TORSDOF 16
