REMARK SMILES COCC[C@H](NC(=O)N1CC[C@H](C(=O)OC)C1)C(=O)NCCCCNC(=O)c1ccc(-c2c3nc(c(-c4ccc(S(=O)(=O)[O-])cc4)c4ccc([nH]4)c(-c4ccc(S(=O)(=O)[O-])cc4)c4nc(c(-c5ccc(S(=O)(=O)[O-])cc5)c5ccc2[nH]5)C=C4)C=C3)cc1
REMARK SMILES IDX 22 1 21 2 20 3 18 4 19 5 5 7 4 8 3 9 2 10 1 11 6 12 7 13
REMARK SMILES IDX 8 15 9 16 10 17 17 18 11 19 12 20 13 21 14 22 15 23 16 24
REMARK SMILES IDX 23 25 24 26 25 27 26 28 27 30 28 31 29 32 87 33 30 34 86 35
REMARK SMILES IDX 31 36 32 37 33 38 80 39 34 40 85 41 79 42 81 43 35 44 84 45
REMARK SMILES IDX 78 46 77 47 36 49 66 50 47 51 65 52 48 53 51 54 64 55 82 56
REMARK SMILES IDX 49 57 50 58 63 60 83 61 52 62 37 63 38 64 46 65 39 66 45 67
REMARK SMILES IDX 40 68 41 69 42 70 43 71 44 72 67 73 68 74 76 75 69 76 75 77
REMARK SMILES IDX 70 78 71 79 72 80 73 81 74 82 53 83 54 84 62 85 55 86 61 87
REMARK SMILES IDX 56 88 57 89 58 90 59 91 60 92
REMARK H PARENT 20 6 6 14 25 29 81 48 51 59
REMARK Flexibility Score: inf
ROOT
ATOM      1  C   UNL     1       0.816   2.546  -5.872  1.00  0.00     0.023 C 
ENDROOT
BRANCH   1   2
ATOM      2  C   UNL     1       1.512   2.718  -4.527  1.00  0.00     0.116 C 
BRANCH   2   3
ATOM      3  N   UNL     1       0.615   3.276  -3.526  1.00  0.00    -0.354 N 
ATOM      4  C   UNL     1       0.441   2.940  -2.213  1.00  0.00     0.242 C 
ATOM      5  O   UNL     1      -0.258   3.680  -1.516  1.00  0.00    -0.273 OA
ATOM      6  H   UNL     1       0.043   4.011  -3.845  1.00  0.00     0.163 HD
BRANCH   4   7
ATOM      7  C   UNL     1       1.226   1.774  -1.583  1.00  0.00     0.175 C 
BRANCH   7   8
ATOM      8  C   UNL     1       2.695   2.210  -1.442  1.00  0.00     0.063 C 
BRANCH   8   9
ATOM      9  C   UNL     1       2.910   3.292  -0.386  1.00  0.00     0.162 C 
BRANCH   9  10
ATOM     10  O   UNL     1       2.612   2.815   0.925  1.00  0.00    -0.385 OA
ATOM     11  C   UNL     1       1.386   3.307   1.455  1.00  0.00     0.194 C 
ENDBRANCH   9  10
ENDBRANCH   8   9
ENDBRANCH   7   8
BRANCH   7  12
ATOM     12  N   UNL     1       1.011   0.550  -2.362  1.00  0.00    -0.326 N 
ATOM     13  C   UNL     1       1.664  -0.631  -2.355  1.00  0.00     0.318 C 
ATOM     14  H   UNL     1       0.261   0.598  -2.998  1.00  0.00     0.166 HD
ATOM     15  O   UNL     1       1.561  -1.349  -3.350  1.00  0.00    -0.249 OA
BRANCH  13  16
ATOM     16  N   UNL     1       2.491  -0.938  -1.325  1.00  0.00    -0.324 N 
ATOM     17  C   UNL     1       2.252  -0.791   0.097  1.00  0.00     0.122 C 
ATOM     18  C   UNL     1       3.666  -1.755  -1.544  1.00  0.00     0.136 C 
ATOM     19  C   UNL     1       3.649  -0.754   0.689  1.00  0.00     0.039 C 
ATOM     20  C   UNL     1       4.483  -1.627  -0.258  1.00  0.00     0.120 C 
BRANCH  20  21
ATOM     21  C   UNL     1       5.852  -1.039  -0.510  1.00  0.00     0.310 C 
ATOM     22  O   UNL     1       6.883  -1.536  -0.074  1.00  0.00    -0.252 OA
BRANCH  21  23
ATOM     23  O   UNL     1       5.792   0.108  -1.239  1.00  0.00    -0.469 OA
ATOM     24  C   UNL     1       7.061   0.709  -1.503  1.00  0.00     0.282 C 
ENDBRANCH  21  23
ENDBRANCH  20  21
ENDBRANCH  13  16
ENDBRANCH   7  12
ENDBRANCH   4   7
ENDBRANCH   2   3
ENDBRANCH   1   2
BRANCH   1  25
ATOM     25  C   UNL     1       0.440   3.860  -6.559  1.00  0.00     0.023 C 
BRANCH  25  26
ATOM     26  C   UNL     1       1.595   4.836  -6.768  1.00  0.00     0.116 C 
BRANCH  26  27
ATOM     27  N   UNL     1       2.685   4.262  -7.542  1.00  0.00    -0.352 N 
ATOM     28  C   UNL     1       3.277   4.732  -8.694  1.00  0.00     0.251 C 
ATOM     29  H   UNL     1       3.051   3.417  -7.193  1.00  0.00     0.163 HD
ATOM     30  O   UNL     1       4.081   4.044  -9.299  1.00  0.00    -0.269 OA
BRANCH  28  31
ATOM     31  C   UNL     1       2.900   6.069  -9.201  1.00  0.00     0.039 A 
ATOM     32  C   UNL     1       2.517   6.198 -10.538  1.00  0.00     0.014 A 
ATOM     33  C   UNL     1       2.884   7.175  -8.348  1.00  0.00     0.014 A 
ATOM     34  C   UNL     1       2.033   7.424 -10.998  1.00  0.00     0.010 A 
ATOM     35  C   UNL     1       2.336   8.376  -8.790  1.00  0.00     0.010 A 
ATOM     36  C   UNL     1       1.893   8.508 -10.115  1.00  0.00    -0.014 A 
BRANCH  36  37
ATOM     37  C   UNL     1       1.240   9.771 -10.545  1.00  0.00     0.031 A 
ATOM     38  C   UNL     1       2.014  11.060 -10.569  1.00  0.00     0.074 A 
ATOM     39  C   UNL     1      -0.075   9.766 -10.843  1.00  0.00     0.049 A 
ATOM     40  N   UNL     1       1.595  12.265 -10.856  1.00  0.00    -0.248 NA
ATOM     41  C   UNL     1       3.437  10.990 -10.198  1.00  0.00     0.031 C 
ATOM     42  C   UNL     1      -0.946   8.588 -10.812  1.00  0.00     0.029 A 
ATOM     43  N   UNL     1      -0.912  10.786 -11.220  1.00  0.00    -0.354 N 
ATOM     44  C   UNL     1       2.695  13.098 -10.691  1.00  0.00     0.074 A 
ATOM     45  C   UNL     1       3.788  12.267 -10.232  1.00  0.00     0.031 C 
ATOM     46  C   UNL     1      -2.186   8.947 -11.180  1.00  0.00     0.029 A 
ATOM     47  C   UNL     1      -2.211  10.385 -11.430  1.00  0.00     0.049 A 
ATOM     48  H   UNL     1      -0.612  11.716 -11.330  1.00  0.00     0.167 HD
ATOM     49  C   UNL     1       2.791  14.430 -10.916  1.00  0.00     0.031 A 
ATOM     50  C   UNL     1      -3.304  11.093 -11.775  1.00  0.00     0.031 A 
ATOM     51  C   UNL     1       1.702  15.252 -11.376  1.00  0.00     0.049 A 
ATOM     52  C   UNL     1      -3.175  12.574 -12.002  1.00  0.00     0.074 A 
ATOM     53  C   UNL     1       1.717  16.600 -11.691  1.00  0.00     0.029 A 
ATOM     54  N   UNL     1       0.404  14.808 -11.579  1.00  0.00    -0.354 N 
ATOM     55  N   UNL     1      -2.108  13.331 -11.911  1.00  0.00    -0.248 NA
ATOM     56  C   UNL     1      -4.397  13.295 -12.384  1.00  0.00     0.031 C 
ATOM     57  C   UNL     1       0.415  16.983 -12.032  1.00  0.00     0.029 A 
ATOM     58  C   UNL     1      -0.398  15.862 -11.985  1.00  0.00     0.049 A 
ATOM     59  H   UNL     1       0.098  13.881 -11.453  1.00  0.00     0.167 HD
ATOM     60  C   UNL     1      -2.526  14.614 -12.242  1.00  0.00     0.074 A 
ATOM     61  C   UNL     1      -3.938  14.527 -12.556  1.00  0.00     0.031 C 
ATOM     62  C   UNL     1      -1.805  15.762 -12.282  1.00  0.00     0.031 A 
BRANCH  49  63
ATOM     63  C   UNL     1       4.123  15.085 -10.660  1.00  0.00    -0.014 A 
ATOM     64  C   UNL     1       5.226  14.838 -11.497  1.00  0.00     0.010 A 
ATOM     65  C   UNL     1       4.263  15.992  -9.594  1.00  0.00     0.010 A 
ATOM     66  C   UNL     1       6.456  15.453 -11.248  1.00  0.00     0.020 A 
ATOM     67  C   UNL     1       5.484  16.631  -9.358  1.00  0.00     0.020 A 
ATOM     68  C   UNL     1       6.578  16.343 -10.177  1.00  0.00     0.054 A 
BRANCH  68  69
ATOM     69  S   UNL     1       8.181  17.142  -9.890  1.00  0.00     0.124 S 
ATOM     70  O   UNL     1       8.974  16.039  -9.353  1.00  0.00    -0.237 OA
ATOM     71  O   UNL     1       8.558  17.593 -11.227  1.00  0.00    -0.237 OA
ATOM     72  O   UNL     1       7.872  18.208  -8.940  1.00  0.00    -0.744 OA
ENDBRANCH  68  69
ENDBRANCH  49  63
BRANCH  50  73
ATOM     73  C   UNL     1      -4.615  10.406 -11.932  1.00  0.00    -0.014 A 
ATOM     74  C   UNL     1      -5.184  10.238 -13.206  1.00  0.00     0.010 A 
ATOM     75  C   UNL     1      -5.293   9.901 -10.807  1.00  0.00     0.010 A 
ATOM     76  C   UNL     1      -6.414   9.590 -13.352  1.00  0.00     0.020 A 
ATOM     77  C   UNL     1      -6.509   9.228 -10.952  1.00  0.00     0.020 A 
ATOM     78  C   UNL     1      -7.067   9.086 -12.223  1.00  0.00     0.054 A 
BRANCH  78  79
ATOM     79  S   UNL     1      -8.634   8.198 -12.443  1.00  0.00     0.124 S 
ATOM     80  O   UNL     1      -9.563   9.287 -12.726  1.00  0.00    -0.237 OA
ATOM     81  O   UNL     1      -8.339   7.309 -13.563  1.00  0.00    -0.237 OA
ATOM     82  O   UNL     1      -8.828   7.526 -11.159  1.00  0.00    -0.744 OA
ENDBRANCH  78  79
ENDBRANCH  50  73
BRANCH  62  83
ATOM     83  C   UNL     1      -2.528  17.017 -12.692  1.00  0.00    -0.014 A 
ATOM     84  C   UNL     1      -3.449  17.639 -11.831  1.00  0.00     0.010 A 
ATOM     85  C   UNL     1      -2.245  17.608 -13.937  1.00  0.00     0.010 A 
ATOM     86  C   UNL     1      -4.097  18.814 -12.220  1.00  0.00     0.020 A 
ATOM     87  C   UNL     1      -2.871  18.799 -14.318  1.00  0.00     0.020 A 
ATOM     88  C   UNL     1      -3.803  19.387 -13.461  1.00  0.00     0.054 A 
BRANCH  88  89
ATOM     89  S   UNL     1      -4.626  20.936 -13.924  1.00  0.00     0.124 S 
ATOM     90  O   UNL     1      -5.979  20.481 -14.233  1.00  0.00    -0.237 OA
ATOM     91  O   UNL     1      -4.495  21.743 -12.714  1.00  0.00    -0.237 OA
ATOM     92  O   UNL     1      -3.852  21.410 -15.069  1.00  0.00    -0.744 OA
ENDBRANCH  88  89
ENDBRANCH  62  83
ENDBRANCH  36  37
ENDBRANCH  28  31
ENDBRANCH  26  27
ENDBRANCH  25  26
ENDBRANCH   1  25
TORSDOF 21
