REMARK SMILES CN1C(=O)c2ccc(NC(=O)C[C@@](C)(C(=O)NCCCCNC(=O)c3ccc(-c4c5nc(c(-c6ccc(S(=O)(=O)[O-])cc6)c6ccc([nH]6)c(-c6ccc(S(=O)(=O)[O-])cc6)c6nc(c(-c7ccc(S(=O)(=O)[O-])cc7)c7ccc4[nH]7)C=C6)C=C5)cc3)c3ccccc3)cc2C1=O
REMARK SMILES IDX 19 1 18 2 17 3 15 4 16 5 13 7 14 8 12 9 10 10 9 11 11 13
REMARK SMILES IDX 8 14 1 15 2 16 3 17 93 18 4 19 5 20 92 21 94 22 6 23 91 24
REMARK SMILES IDX 7 25 85 26 86 27 90 28 87 29 89 30 88 31 20 32 21 33 22 34
REMARK SMILES IDX 23 35 24 37 25 38 26 39 84 40 27 41 83 42 28 43 29 44 30 45
REMARK SMILES IDX 77 46 31 47 82 48 76 49 78 50 32 51 81 52 75 53 74 54 33 56
REMARK SMILES IDX 63 57 44 58 62 59 45 60 48 61 61 62 79 63 46 64 47 65 60 67
REMARK SMILES IDX 80 68 49 69 34 70 35 71 43 72 36 73 42 74 37 75 38 76 39 77
REMARK SMILES IDX 40 78 41 79 64 80 65 81 73 82 66 83 72 84 67 85 68 86 69 87
REMARK SMILES IDX 70 88 71 89 50 90 51 91 59 92 52 93 58 94 53 95 54 96 55 97
REMARK SMILES IDX 56 98 57 99
REMARK H PARENT 17 6 9 12 22 36 78 55 48 66
REMARK Flexibility Score: inf
ROOT
ATOM      1  C   UNL     1      -0.150   4.796  -2.713  1.00  0.00     0.023 C 
ENDROOT
BRANCH   1   2
ATOM      2  C   UNL     1      -0.613   4.018  -1.483  1.00  0.00     0.116 C 
BRANCH   2   3
ATOM      3  N   UNL     1      -0.616   4.777  -0.241  1.00  0.00    -0.355 N 
ATOM      4  C   UNL     1      -1.143   4.622   1.010  1.00  0.00     0.230 C 
ATOM      5  O   UNL     1      -0.602   5.370   1.840  1.00  0.00    -0.274 OA
ATOM      6  H   UNL     1      -0.108   5.616  -0.323  1.00  0.00     0.163 HD
BRANCH   4   7
ATOM      7  C   UNL     1      -2.217   3.549   1.476  1.00  0.00     0.080 C 
ATOM      8  C   UNL     1      -1.330   2.378   1.957  1.00  0.00     0.027 C 
BRANCH   7   9
ATOM      9  C   UNL     1      -3.251   3.232   0.366  1.00  0.00     0.121 C 
BRANCH   9  10
ATOM     10  C   UNL     1      -4.228   2.073   0.480  1.00  0.00     0.225 C 
ATOM     11  N   UNL     1      -3.947   0.774   0.162  1.00  0.00    -0.326 N 
ATOM     12  H   UNL     1      -4.751   0.206   0.187  1.00  0.00     0.169 HD
ATOM     13  O   UNL     1      -5.396   2.294   0.826  1.00  0.00    -0.275 OA
BRANCH  11  14
ATOM     14  C   UNL     1      -2.797   0.042  -0.192  1.00  0.00     0.042 A 
ATOM     15  C   UNL     1       3.098  -1.007  -0.027  1.00  0.00     0.157 C 
ATOM     16  N   UNL     1       1.670  -0.971  -0.233  1.00  0.00    -0.277 N 
ATOM     17  C   UNL     1       0.848  -2.063  -0.128  1.00  0.00     0.261 C 
ATOM     18  C   UNL     1       0.964   0.172  -0.453  1.00  0.00     0.261 C 
ATOM     19  O   UNL     1       1.124  -3.220   0.098  1.00  0.00    -0.269 OA
ATOM     20  C   UNL     1      -0.523  -1.562  -0.274  1.00  0.00     0.053 A 
ATOM     21  C   UNL     1      -0.447  -0.205  -0.481  1.00  0.00     0.055 A 
ATOM     22  O   UNL     1       1.356   1.321  -0.545  1.00  0.00    -0.269 OA
ATOM     23  C   UNL     1      -1.742  -2.187  -0.126  1.00  0.00     0.017 A 
ATOM     24  C   UNL     1      -1.569   0.604  -0.507  1.00  0.00     0.040 A 
ATOM     25  C   UNL     1      -2.885  -1.368  -0.085  1.00  0.00     0.027 A 
ENDBRANCH  11  14
ENDBRANCH   9  10
ENDBRANCH   7   9
BRANCH   7  26
ATOM     26  C   UNL     1      -3.033   4.004   2.737  1.00  0.00    -0.032 A 
ATOM     27  C   UNL     1      -3.132   5.347   3.136  1.00  0.00     0.005 A 
ATOM     28  C   UNL     1      -3.695   3.050   3.543  1.00  0.00     0.005 A 
ATOM     29  C   UNL     1      -3.777   5.709   4.325  1.00  0.00     0.000 A 
ATOM     30  C   UNL     1      -4.359   3.414   4.719  1.00  0.00     0.000 A 
ATOM     31  C   UNL     1      -4.383   4.743   5.120  1.00  0.00     0.000 A 
ENDBRANCH   7  26
ENDBRANCH   4   7
ENDBRANCH   2   3
ENDBRANCH   1   2
BRANCH   1  32
ATOM     32  C   UNL     1       1.343   5.087  -2.811  1.00  0.00     0.023 C 
BRANCH  32  33
ATOM     33  C   UNL     1       2.276   3.883  -2.707  1.00  0.00     0.116 C 
BRANCH  33  34
ATOM     34  N   UNL     1       2.025   2.847  -3.704  1.00  0.00    -0.352 N 
ATOM     35  C   UNL     1       2.843   2.349  -4.692  1.00  0.00     0.251 C 
ATOM     36  H   UNL     1       1.129   2.440  -3.663  1.00  0.00     0.163 HD
ATOM     37  O   UNL     1       2.414   1.510  -5.480  1.00  0.00    -0.269 OA
BRANCH  35  38
ATOM     38  C   UNL     1       4.226   2.854  -4.830  1.00  0.00     0.039 A 
ATOM     39  C   UNL     1       4.671   3.285  -6.082  1.00  0.00     0.014 A 
ATOM     40  C   UNL     1       5.065   2.946  -3.718  1.00  0.00     0.014 A 
ATOM     41  C   UNL     1       5.916   3.912  -6.196  1.00  0.00     0.010 A 
ATOM     42  C   UNL     1       6.265   3.646  -3.817  1.00  0.00     0.010 A 
ATOM     43  C   UNL     1       6.697   4.150  -5.053  1.00  0.00    -0.014 A 
BRANCH  43  44
ATOM     44  C   UNL     1       7.950   4.950  -5.119  1.00  0.00     0.031 A 
ATOM     45  C   UNL     1       9.267   4.330  -4.739  1.00  0.00     0.074 A 
ATOM     46  C   UNL     1       7.892   6.258  -5.441  1.00  0.00     0.049 A 
ATOM     47  N   UNL     1      10.448   4.888  -4.657  1.00  0.00    -0.248 NA
ATOM     48  C   UNL     1       9.250   2.903  -4.380  1.00  0.00     0.031 C 
ATOM     49  C   UNL     1       6.674   6.995  -5.790  1.00  0.00     0.029 A 
ATOM     50  N   UNL     1       8.884   7.205  -5.524  1.00  0.00    -0.354 N 
ATOM     51  C   UNL     1      11.309   3.888  -4.220  1.00  0.00     0.074 A 
ATOM     52  C   UNL     1      10.505   2.704  -4.004  1.00  0.00     0.031 C 
ATOM     53  C   UNL     1       6.996   8.266  -6.081  1.00  0.00     0.029 A 
ATOM     54  C   UNL     1       8.432   8.449  -5.898  1.00  0.00     0.049 A 
ATOM     55  H   UNL     1       9.830   7.011  -5.332  1.00  0.00     0.167 HD
ATOM     56  C   UNL     1      12.650   3.940  -4.035  1.00  0.00     0.031 A 
ATOM     57  C   UNL     1       9.096   9.609  -6.073  1.00  0.00     0.031 A 
ATOM     58  C   UNL     1      13.453   5.113  -4.257  1.00  0.00     0.049 A 
ATOM     59  C   UNL     1      10.582   9.647  -5.847  1.00  0.00     0.074 A 
ATOM     60  C   UNL     1      14.825   5.252  -4.143  1.00  0.00     0.029 A 
ATOM     61  N   UNL     1      12.956   6.350  -4.640  1.00  0.00    -0.354 N 
ATOM     62  N   UNL     1      11.386   8.675  -5.486  1.00  0.00    -0.248 NA
ATOM     63  C   UNL     1      11.252  10.938  -6.059  1.00  0.00     0.031 C 
ATOM     64  C   UNL     1      15.153   6.585  -4.416  1.00  0.00     0.029 A 
ATOM     65  C   UNL     1      13.992   7.262  -4.750  1.00  0.00     0.049 A 
ATOM     66  H   UNL     1      12.007   6.549  -4.809  1.00  0.00     0.167 HD
ATOM     67  C   UNL     1      12.660   9.231  -5.456  1.00  0.00     0.074 A 
ATOM     68  C   UNL     1      12.521  10.619  -5.846  1.00  0.00     0.031 C 
ATOM     69  C   UNL     1      13.839   8.642  -5.139  1.00  0.00     0.031 A 
BRANCH  56  70
ATOM     70  C   UNL     1      13.329   2.680  -3.564  1.00  0.00    -0.014 A 
ATOM     71  C   UNL     1      13.444   1.561  -4.409  1.00  0.00     0.010 A 
ATOM     72  C   UNL     1      13.869   2.616  -2.267  1.00  0.00     0.010 A 
ATOM     73  C   UNL     1      14.034   0.382  -3.947  1.00  0.00     0.020 A 
ATOM     74  C   UNL     1      14.488   1.448  -1.811  1.00  0.00     0.020 A 
ATOM     75  C   UNL     1      14.545   0.331  -2.647  1.00  0.00     0.054 A 
BRANCH  75  76
ATOM     76  S   UNL     1      15.303  -1.213  -2.072  1.00  0.00     0.124 S 
ATOM     77  O   UNL     1      14.132  -2.055  -1.843  1.00  0.00    -0.237 OA
ATOM     78  O   UNL     1      16.143  -1.601  -3.202  1.00  0.00    -0.237 OA
ATOM     79  O   UNL     1      16.029  -0.816  -0.868  1.00  0.00    -0.744 OA
ENDBRANCH  75  76
ENDBRANCH  56  70
BRANCH  57  80
ATOM     80  C   UNL     1       8.363  10.826  -6.517  1.00  0.00    -0.014 A 
ATOM     81  C   UNL     1       8.533  11.317  -7.824  1.00  0.00     0.010 A 
ATOM     82  C   UNL     1       7.484  11.494  -5.645  1.00  0.00     0.010 A 
ATOM     83  C   UNL     1       7.849  12.460  -8.247  1.00  0.00     0.020 A 
ATOM     84  C   UNL     1       6.779  12.623  -6.073  1.00  0.00     0.020 A 
ATOM     85  C   UNL     1       6.974  13.105  -7.369  1.00  0.00     0.054 A 
BRANCH  85  86
ATOM     86  S   UNL     1       6.055  14.554  -7.959  1.00  0.00     0.124 S 
ATOM     87  O   UNL     1       7.088  15.585  -7.972  1.00  0.00    -0.237 OA
ATOM     88  O   UNL     1       5.580  14.116  -9.269  1.00  0.00    -0.237 OA
ATOM     89  O   UNL     1       5.009  14.727  -6.953  1.00  0.00    -0.744 OA
ENDBRANCH  85  86
ENDBRANCH  57  80
BRANCH  69  90
ATOM     90  C   UNL     1      15.082   9.485  -5.233  1.00  0.00    -0.014 A 
ATOM     91  C   UNL     1      15.361  10.481  -4.281  1.00  0.00     0.010 A 
ATOM     92  C   UNL     1      16.009   9.240  -6.262  1.00  0.00     0.010 A 
ATOM     93  C   UNL     1      16.534  11.236  -4.373  1.00  0.00     0.020 A 
ATOM     94  C   UNL     1      17.195   9.975  -6.343  1.00  0.00     0.020 A 
ATOM     95  C   UNL     1      17.443  10.978  -5.404  1.00  0.00     0.054 A 
BRANCH  95  96
ATOM     96  S   UNL     1      18.980  11.939  -5.476  1.00  0.00     0.124 S 
ATOM     97  O   UNL     1      18.510  13.226  -5.981  1.00  0.00    -0.237 OA
ATOM     98  O   UNL     1      19.427  11.935  -4.085  1.00  0.00    -0.237 OA
ATOM     99  O   UNL     1      19.822  11.178  -6.396  1.00  0.00    -0.744 OA
ENDBRANCH  95  96
ENDBRANCH  69  90
ENDBRANCH  43  44
ENDBRANCH  35  38
ENDBRANCH  33  34
ENDBRANCH  32  33
ENDBRANCH   1  32
TORSDOF 18
