REMARK SMILES Cc1nc2nc(CNC(=O)OC(C)(C)C)nn2c(C)c1CCC(=O)NCCCCNC(=O)c1ccc(-c2c3nc(c(-c4ccc(S(=O)(=O)[O-])cc4)c4ccc([nH]4)c(-c4ccc(S(=O)(=O)[O-])cc4)c4nc(c(-c5ccc(S(=O)(=O)[O-])cc5)c5ccc2[nH]5)C=C4)C=C3)cc1
REMARK SMILES IDX 26 1 25 2 23 3 24 4 22 6 21 7 20 8 1 9 2 10 3 11 4 12 18 13
REMARK SMILES IDX 5 14 17 15 19 16 6 17 16 18 7 19 8 20 9 21 10 23 11 24 12 25
REMARK SMILES IDX 13 26 14 27 15 28 27 29 28 30 29 31 30 32 31 33 32 35 33 36
REMARK SMILES IDX 34 37 92 38 35 39 91 40 36 41 37 42 38 43 85 44 39 45 90 46
REMARK SMILES IDX 84 47 86 48 40 49 89 50 83 51 82 52 41 54 71 55 52 56 70 57
REMARK SMILES IDX 53 58 56 59 69 60 87 61 54 62 55 63 68 65 88 66 57 67 42 68
REMARK SMILES IDX 43 69 51 70 44 71 50 72 45 73 46 74 47 75 48 76 49 77 72 78
REMARK SMILES IDX 73 79 81 80 74 81 80 82 75 83 76 84 77 85 78 86 79 87 58 88
REMARK SMILES IDX 59 89 67 90 60 91 66 92 61 93 62 94 63 95 64 96 65 97
REMARK H PARENT 25 5 8 22 30 34 86 53 56 64
REMARK Flexibility Score: inf
ROOT
ATOM      1  C   UNL     1      -3.034   1.276  -3.213  1.00  0.00     0.116 C 
ENDROOT
BRANCH   1   2
ATOM      2  N   UNL     1      -3.047  -0.059  -3.793  1.00  0.00    -0.356 N 
ATOM      3  C   UNL     1      -2.252  -1.128  -3.478  1.00  0.00     0.220 C 
ATOM      4  O   UNL     1      -2.207  -2.084  -4.252  1.00  0.00    -0.275 OA
ATOM      5  H   UNL     1      -3.713  -0.213  -4.502  1.00  0.00     0.163 HD
BRANCH   3   6
ATOM      6  C   UNL     1      -1.449  -1.140  -2.180  1.00  0.00     0.105 C 
BRANCH   6   7
ATOM      7  C   UNL     1       0.074  -1.311  -2.389  1.00  0.00     0.049 C 
BRANCH   7   8
ATOM      8  C   UNL     1       0.839   0.000  -2.496  1.00  0.00    -0.005 A 
ATOM      9  C   UNL     1       0.842   0.263   0.116  1.00  0.00     0.067 C 
ATOM     10  C   UNL     1       0.995   0.880  -1.263  1.00  0.00     0.046 A 
ATOM     11  N   UNL     1       1.333   2.136  -1.281  1.00  0.00    -0.216 NA
ATOM     12  C   UNL     1       1.566   2.700  -2.495  1.00  0.00     0.252 A 
ATOM     13  C   UNL     1       1.317   0.551  -3.645  1.00  0.00     0.048 A 
ATOM     14  N   UNL     1       1.628   3.973  -2.820  1.00  0.00    -0.192 NA
ATOM     15  N   UNL     1       1.672   1.923  -3.653  1.00  0.00    -0.201 N 
ATOM     16  C   UNL     1       1.273  -0.137  -4.983  1.00  0.00     0.067 C 
ATOM     17  C   UNL     1       1.863   3.974  -4.171  1.00  0.00     0.172 A 
ATOM     18  N   UNL     1       1.953   2.746  -4.712  1.00  0.00    -0.148 NA
BRANCH  17  19
ATOM     19  C   UNL     1       1.897   5.257  -4.981  1.00  0.00     0.199 C 
BRANCH  19  20
ATOM     20  N   UNL     1       0.789   6.115  -4.613  1.00  0.00    -0.314 N 
ATOM     21  C   UNL     1       0.599   7.453  -4.718  1.00  0.00     0.408 C 
ATOM     22  H   UNL     1       0.031   5.635  -4.209  1.00  0.00     0.167 HD
ATOM     23  O   UNL     1      -0.467   7.946  -4.406  1.00  0.00    -0.225 OA
BRANCH  21  24
ATOM     24  O   UNL     1       1.667   8.141  -5.183  1.00  0.00    -0.444 OA
BRANCH  24  25
ATOM     25  C   UNL     1       1.584   9.595  -5.160  1.00  0.00     0.106 C 
ATOM     26  C   UNL     1       0.466  10.145  -6.062  1.00  0.00     0.056 C 
ATOM     27  C   UNL     1       1.445  10.122  -3.721  1.00  0.00     0.056 C 
ATOM     28  C   UNL     1       2.931  10.064  -5.723  1.00  0.00     0.056 C 
ENDBRANCH  24  25
ENDBRANCH  21  24
ENDBRANCH  19  20
ENDBRANCH  17  19
ENDBRANCH   7   8
ENDBRANCH   6   7
ENDBRANCH   3   6
ENDBRANCH   1   2
BRANCH   1  29
ATOM     29  C   UNL     1      -1.718   1.953  -3.553  1.00  0.00     0.023 C 
BRANCH  29  30
ATOM     30  C   UNL     1      -1.650   2.776  -4.834  1.00  0.00     0.023 C 
BRANCH  30  31
ATOM     31  C   UNL     1      -2.014   4.234  -4.646  1.00  0.00     0.116 C 
BRANCH  31  32
ATOM     32  N   UNL     1      -1.466   4.839  -3.417  1.00  0.00    -0.352 N 
ATOM     33  C   UNL     1      -1.988   5.923  -2.718  1.00  0.00     0.251 C 
ATOM     34  H   UNL     1      -0.647   4.433  -3.053  1.00  0.00     0.163 HD
ATOM     35  O   UNL     1      -1.407   6.444  -1.779  1.00  0.00    -0.269 OA
BRANCH  33  36
ATOM     36  C   UNL     1      -3.352   6.293  -3.093  1.00  0.00     0.039 A 
ATOM     37  C   UNL     1      -3.634   7.372  -3.934  1.00  0.00     0.014 A 
ATOM     38  C   UNL     1      -4.248   5.252  -2.889  1.00  0.00     0.014 A 
ATOM     39  C   UNL     1      -4.836   7.366  -4.639  1.00  0.00     0.010 A 
ATOM     40  C   UNL     1      -5.308   5.161  -3.749  1.00  0.00     0.010 A 
ATOM     41  C   UNL     1      -5.668   6.240  -4.563  1.00  0.00    -0.014 A 
BRANCH  41  42
ATOM     42  C   UNL     1      -6.917   6.145  -5.317  1.00  0.00     0.031 A 
ATOM     43  C   UNL     1      -6.934   6.570  -6.744  1.00  0.00     0.074 A 
ATOM     44  C   UNL     1      -8.018   5.579  -4.776  1.00  0.00     0.049 A 
ATOM     45  N   UNL     1      -7.472   7.645  -7.220  1.00  0.00    -0.248 NA
ATOM     46  C   UNL     1      -6.246   5.758  -7.757  1.00  0.00     0.031 C 
ATOM     47  C   UNL     1      -8.164   4.926  -3.463  1.00  0.00     0.029 A 
ATOM     48  N   UNL     1      -9.236   5.375  -5.341  1.00  0.00    -0.354 N 
ATOM     49  C   UNL     1      -7.399   7.545  -8.607  1.00  0.00     0.074 A 
ATOM     50  C   UNL     1      -6.499   6.450  -8.873  1.00  0.00     0.031 C 
ATOM     51  C   UNL     1      -9.278   4.172  -3.446  1.00  0.00     0.029 A 
ATOM     52  C   UNL     1     -10.039   4.500  -4.630  1.00  0.00     0.049 A 
ATOM     53  H   UNL     1      -9.521   5.808  -6.178  1.00  0.00     0.167 HD
ATOM     54  C   UNL     1      -8.268   8.219  -9.417  1.00  0.00     0.031 A 
ATOM     55  C   UNL     1     -11.299   4.113  -4.910  1.00  0.00     0.031 A 
ATOM     56  C   UNL     1      -9.023   9.205  -8.684  1.00  0.00     0.049 A 
ATOM     57  C   UNL     1     -11.900   5.204  -5.705  1.00  0.00     0.074 A 
ATOM     58  C   UNL     1      -8.717  10.330  -7.947  1.00  0.00     0.029 A 
ATOM     59  N   UNL     1     -10.308   8.856  -8.339  1.00  0.00    -0.354 N 
ATOM     60  N   UNL     1     -12.091   6.407  -5.229  1.00  0.00    -0.248 NA
ATOM     61  C   UNL     1     -11.911   5.101  -7.154  1.00  0.00     0.031 C 
ATOM     62  C   UNL     1      -9.658  10.338  -6.876  1.00  0.00     0.029 A 
ATOM     63  C   UNL     1     -10.522   9.251  -7.045  1.00  0.00     0.049 A 
ATOM     64  H   UNL     1     -10.960   8.403  -8.921  1.00  0.00     0.167 HD
ATOM     65  C   UNL     1     -11.823   7.257  -6.292  1.00  0.00     0.074 A 
ATOM     66  C   UNL     1     -11.858   6.398  -7.472  1.00  0.00     0.031 C 
ATOM     67  C   UNL     1     -11.336   8.518  -6.091  1.00  0.00     0.031 A 
BRANCH  54  68
ATOM     68  C   UNL     1      -8.747   7.730 -10.768  1.00  0.00    -0.014 A 
ATOM     69  C   UNL     1      -9.629   8.545 -11.514  1.00  0.00     0.010 A 
ATOM     70  C   UNL     1      -8.608   6.394 -11.190  1.00  0.00     0.010 A 
ATOM     71  C   UNL     1     -10.403   8.022 -12.560  1.00  0.00     0.020 A 
ATOM     72  C   UNL     1      -9.342   5.873 -12.260  1.00  0.00     0.020 A 
ATOM     73  C   UNL     1     -10.269   6.679 -12.909  1.00  0.00     0.054 A 
BRANCH  73  74
ATOM     74  S   UNL     1     -11.379   5.967 -14.150  1.00  0.00     0.124 S 
ATOM     75  O   UNL     1     -12.666   6.019 -13.463  1.00  0.00    -0.237 OA
ATOM     76  O   UNL     1     -11.221   6.886 -15.274  1.00  0.00    -0.237 OA
ATOM     77  O   UNL     1     -10.836   4.628 -14.365  1.00  0.00    -0.744 OA
ENDBRANCH  73  74
ENDBRANCH  54  68
BRANCH  55  78
ATOM     78  C   UNL     1     -11.861   2.764  -4.701  1.00  0.00    -0.014 A 
ATOM     79  C   UNL     1     -13.241   2.533  -4.766  1.00  0.00     0.010 A 
ATOM     80  C   UNL     1     -10.999   1.642  -4.675  1.00  0.00     0.010 A 
ATOM     81  C   UNL     1     -13.742   1.226  -4.875  1.00  0.00     0.020 A 
ATOM     82  C   UNL     1     -11.490   0.338  -4.776  1.00  0.00     0.020 A 
ATOM     83  C   UNL     1     -12.861   0.139  -4.907  1.00  0.00     0.054 A 
BRANCH  83  84
ATOM     84  S   UNL     1     -13.510  -1.521  -5.247  1.00  0.00     0.124 S 
ATOM     85  O   UNL     1     -14.291  -1.802  -4.046  1.00  0.00    -0.237 OA
ATOM     86  O   UNL     1     -14.281  -1.311  -6.469  1.00  0.00    -0.237 OA
ATOM     87  O   UNL     1     -12.307  -2.336  -5.410  1.00  0.00    -0.744 OA
ENDBRANCH  83  84
ENDBRANCH  55  78
BRANCH  67  88
ATOM     88  C   UNL     1     -11.416   9.122  -4.707  1.00  0.00    -0.014 A 
ATOM     89  C   UNL     1     -10.666   8.654  -3.611  1.00  0.00     0.010 A 
ATOM     90  C   UNL     1     -12.112  10.338  -4.573  1.00  0.00     0.010 A 
ATOM     91  C   UNL     1     -10.607   9.393  -2.417  1.00  0.00     0.020 A 
ATOM     92  C   UNL     1     -12.046  11.083  -3.393  1.00  0.00     0.020 A 
ATOM     93  C   UNL     1     -11.290  10.610  -2.320  1.00  0.00     0.054 A 
BRANCH  93  94
ATOM     94  S   UNL     1     -11.122  11.616  -0.817  1.00  0.00     0.124 S 
ATOM     95  O   UNL     1     -11.861  10.835   0.172  1.00  0.00    -0.237 OA
ATOM     96  O   UNL     1      -9.675  11.671  -0.621  1.00  0.00    -0.237 OA
ATOM     97  O   UNL     1     -11.736  12.892  -1.180  1.00  0.00    -0.744 OA
ENDBRANCH  93  94
ENDBRANCH  67  88
ENDBRANCH  41  42
ENDBRANCH  33  36
ENDBRANCH  31  32
ENDBRANCH  30  31
ENDBRANCH  29  30
ENDBRANCH   1  29
TORSDOF 20
