REMARK SMILES O=C(NCCCCNC(=O)C1CCN(c2ccc(C(F)(F)F)cc2[N+](=O)[O-])CC1)c1ccc(-c2c3nc(c(-c4ccc(S(=O)(=O)[O-])cc4)c4ccc([nH]4)c(-c4ccc(S(=O)(=O)[O-])cc4)c4nc(c(-c5ccc(S(=O)(=O)[O-])cc5)c5ccc2[nH]5)C=C4)C=C3)cc1
REMARK SMILES IDX 5 1 4 2 3 3 1 4 2 5 30 7 31 8 89 9 32 10 88 11 33 12 34 13
REMARK SMILES IDX 35 14 82 15 36 16 87 17 81 18 83 19 37 20 86 21 80 22 79 23
REMARK SMILES IDX 38 25 68 26 49 27 67 28 50 29 53 30 66 31 84 32 51 33 52 34
REMARK SMILES IDX 65 36 85 37 54 38 39 39 40 40 48 41 41 42 47 43 42 44 43 45
REMARK SMILES IDX 44 46 45 47 46 48 69 49 70 50 78 51 71 52 77 53 72 54 73 55
REMARK SMILES IDX 74 56 75 57 76 58 55 59 56 60 64 61 57 62 63 63 58 64 59 65
REMARK SMILES IDX 60 66 61 67 62 68 6 69 7 70 8 71 9 72 10 74 11 75 12 76
REMARK SMILES IDX 29 77 13 78 28 79 14 80 15 81 16 82 24 83 17 84 23 85 18 86
REMARK SMILES IDX 25 87 26 88 27 89 19 90 20 91 21 92 22 93
REMARK H PARENT 3 6 83 24 53 35 8 73
REMARK Flexibility Score: inf
ROOT
ATOM      1  C   UNL     1       4.820  -0.227  -2.824  1.00  0.00     0.023 C 
ENDROOT
BRANCH   1   2
ATOM      2  C   UNL     1       4.563   0.140  -1.368  1.00  0.00     0.116 C 
BRANCH   2   3
ATOM      3  N   UNL     1       3.151   0.305  -1.056  1.00  0.00    -0.352 N 
ATOM      4  O   UNL     1       1.240  -0.018   0.101  1.00  0.00    -0.269 OA
ATOM      5  C   UNL     1       2.459  -0.144   0.046  1.00  0.00     0.251 C 
ATOM      6  H   UNL     1       2.621   0.803  -1.720  1.00  0.00     0.163 HD
BRANCH   5   7
ATOM      7  C   UNL     1       3.195  -0.809   1.145  1.00  0.00     0.039 A 
ATOM      8  C   UNL     1       4.377  -0.255   1.639  1.00  0.00     0.014 A 
ATOM      9  C   UNL     1       2.714  -2.015   1.662  1.00  0.00     0.014 A 
ATOM     10  C   UNL     1       5.152  -0.979   2.537  1.00  0.00     0.010 A 
ATOM     11  C   UNL     1       3.455  -2.702   2.630  1.00  0.00     0.010 A 
ATOM     12  C   UNL     1       4.699  -2.207   3.049  1.00  0.00    -0.014 A 
BRANCH  12  13
ATOM     13  C   UNL     1       5.532  -2.908   4.060  1.00  0.00     0.031 A 
ATOM     14  C   UNL     1       6.178  -4.234   3.765  1.00  0.00     0.074 A 
ATOM     15  C   UNL     1       5.764  -2.289   5.235  1.00  0.00     0.049 A 
ATOM     16  N   UNL     1       7.011  -4.922   4.507  1.00  0.00    -0.248 NA
ATOM     17  C   UNL     1       5.849  -4.877   2.483  1.00  0.00     0.031 C 
ATOM     18  C   UNL     1       5.175  -1.010   5.642  1.00  0.00     0.029 A 
ATOM     19  N   UNL     1       6.581  -2.626   6.282  1.00  0.00    -0.354 N 
ATOM     20  C   UNL     1       7.297  -6.079   3.791  1.00  0.00     0.074 A 
ATOM     21  C   UNL     1       6.529  -6.014   2.566  1.00  0.00     0.031 C 
ATOM     22  C   UNL     1       5.699  -0.639   6.819  1.00  0.00     0.029 A 
ATOM     23  C   UNL     1       6.618  -1.675   7.275  1.00  0.00     0.049 A 
ATOM     24  H   UNL     1       7.092  -3.467   6.320  1.00  0.00     0.167 HD
ATOM     25  C   UNL     1       8.129  -7.097   4.121  1.00  0.00     0.031 A 
ATOM     26  C   UNL     1       7.311  -1.637   8.427  1.00  0.00     0.031 A 
ATOM     27  C   UNL     1       8.891  -7.160   5.343  1.00  0.00     0.049 A 
ATOM     28  C   UNL     1       8.236  -2.769   8.760  1.00  0.00     0.074 A 
ATOM     29  C   UNL     1       9.759  -8.152   5.768  1.00  0.00     0.029 A 
ATOM     30  N   UNL     1       8.883  -6.188   6.332  1.00  0.00    -0.354 N 
ATOM     31  N   UNL     1       8.496  -3.848   8.062  1.00  0.00    -0.248 NA
ATOM     32  C   UNL     1       8.962  -2.677  10.032  1.00  0.00     0.031 C 
ATOM     33  C   UNL     1      10.251  -7.795   7.029  1.00  0.00     0.029 A 
ATOM     34  C   UNL     1       9.723  -6.561   7.370  1.00  0.00     0.049 A 
ATOM     35  H   UNL     1       8.358  -5.356   6.303  1.00  0.00     0.167 HD
ATOM     36  C   UNL     1       9.416  -4.568   8.814  1.00  0.00     0.074 A 
ATOM     37  C   UNL     1       9.693  -3.783  10.000  1.00  0.00     0.031 C 
ATOM     38  C   UNL     1       9.971  -5.776   8.552  1.00  0.00     0.031 A 
BRANCH  25  39
ATOM     39  C   UNL     1       8.253  -8.241   3.150  1.00  0.00    -0.014 A 
ATOM     40  C   UNL     1       8.983  -8.100   1.956  1.00  0.00     0.010 A 
ATOM     41  C   UNL     1       7.683  -9.490   3.459  1.00  0.00     0.010 A 
ATOM     42  C   UNL     1       9.116  -9.178   1.076  1.00  0.00     0.020 A 
ATOM     43  C   UNL     1       7.832 -10.576   2.591  1.00  0.00     0.020 A 
ATOM     44  C   UNL     1       8.537 -10.409   1.397  1.00  0.00     0.054 A 
BRANCH  44  45
ATOM     45  S   UNL     1       8.749 -11.800   0.251  1.00  0.00     0.124 S 
ATOM     46  O   UNL     1       7.821 -11.450  -0.821  1.00  0.00    -0.237 OA
ATOM     47  O   UNL     1      10.166 -11.720  -0.095  1.00  0.00    -0.237 OA
ATOM     48  O   UNL     1       8.371 -12.966   1.047  1.00  0.00    -0.744 OA
ENDBRANCH  44  45
ENDBRANCH  25  39
BRANCH  26  49
ATOM     49  C   UNL     1       7.135  -0.486   9.351  1.00  0.00    -0.014 A 
ATOM     50  C   UNL     1       8.155   0.465   9.521  1.00  0.00     0.010 A 
ATOM     51  C   UNL     1       5.921  -0.322  10.043  1.00  0.00     0.010 A 
ATOM     52  C   UNL     1       7.969   1.554  10.378  1.00  0.00     0.020 A 
ATOM     53  C   UNL     1       5.721   0.778  10.878  1.00  0.00     0.020 A 
ATOM     54  C   UNL     1       6.752   1.703  11.050  1.00  0.00     0.054 A 
BRANCH  54  55
ATOM     55  S   UNL     1       6.500   3.153  12.112  1.00  0.00     0.124 S 
ATOM     56  O   UNL     1       7.181   2.751  13.338  1.00  0.00    -0.237 OA
ATOM     57  O   UNL     1       7.142   4.223  11.352  1.00  0.00    -0.237 OA
ATOM     58  O   UNL     1       5.045   3.254  12.204  1.00  0.00    -0.744 OA
ENDBRANCH  54  55
ENDBRANCH  26  49
BRANCH  38  59
ATOM     59  C   UNL     1      10.933  -6.313   9.574  1.00  0.00    -0.014 A 
ATOM     60  C   UNL     1      10.471  -6.814  10.805  1.00  0.00     0.010 A 
ATOM     61  C   UNL     1      12.312  -6.322   9.301  1.00  0.00     0.010 A 
ATOM     62  C   UNL     1      11.377  -7.272  11.764  1.00  0.00     0.020 A 
ATOM     63  C   UNL     1      13.219  -6.800  10.250  1.00  0.00     0.020 A 
ATOM     64  C   UNL     1      12.746  -7.253  11.484  1.00  0.00     0.054 A 
BRANCH  64  65
ATOM     65  S   UNL     1      13.906  -7.860  12.740  1.00  0.00     0.124 S 
ATOM     66  O   UNL     1      13.975  -6.728  13.660  1.00  0.00    -0.237 OA
ATOM     67  O   UNL     1      13.232  -9.050  13.256  1.00  0.00    -0.237 OA
ATOM     68  O   UNL     1      15.127  -8.124  11.982  1.00  0.00    -0.744 OA
ENDBRANCH  64  65
ENDBRANCH  38  59
ENDBRANCH  12  13
ENDBRANCH   5   7
ENDBRANCH   2   3
ENDBRANCH   1   2
BRANCH   1  69
ATOM     69  C   UNL     1       4.346   0.801  -3.853  1.00  0.00     0.023 C 
BRANCH  69  70
ATOM     70  C   UNL     1       4.860   2.220  -3.626  1.00  0.00     0.116 C 
BRANCH  70  71
ATOM     71  N   UNL     1       6.308   2.292  -3.698  1.00  0.00    -0.356 N 
ATOM     72  C   UNL     1       7.104   2.831  -4.666  1.00  0.00     0.223 C 
ATOM     73  H   UNL     1       6.787   1.894  -2.935  1.00  0.00     0.163 HD
ATOM     74  O   UNL     1       8.322   2.688  -4.572  1.00  0.00    -0.275 OA
BRANCH  72  75
ATOM     75  C   UNL     1       6.455   3.607  -5.804  1.00  0.00     0.082 C 
ATOM     76  C   UNL     1       7.405   3.764  -7.005  1.00  0.00     0.035 C 
ATOM     77  C   UNL     1       5.943   4.969  -5.299  1.00  0.00     0.035 C 
ATOM     78  C   UNL     1       8.469   4.843  -6.803  1.00  0.00     0.117 C 
ATOM     79  C   UNL     1       7.075   5.976  -5.095  1.00  0.00     0.117 C 
ATOM     80  N   UNL     1       7.819   6.067  -6.343  1.00  0.00    -0.366 N 
BRANCH  80  81
ATOM     81  C   UNL     1       8.097   7.274  -6.946  1.00  0.00     0.116 A 
ATOM     82  C   UNL     1       7.688   7.452  -8.279  1.00  0.00     0.034 A 
ATOM     83  C   UNL     1       8.715   8.376  -6.336  1.00  0.00     0.293 A 
ATOM     84  C   UNL     1       7.854   8.668  -8.952  1.00  0.00     0.016 A 
ATOM     85  C   UNL     1       8.893   9.607  -6.997  1.00  0.00     0.101 A 
ATOM     86  C   UNL     1       8.453   9.763  -8.316  1.00  0.00     0.062 A 
BRANCH  83  87
ATOM     87  N   UNL     1       9.252   8.278  -4.990  1.00  0.00     0.064 N 
ATOM     88  O   UNL     1       8.837   9.107  -4.165  1.00  0.00    -0.258 OA
ATOM     89  O   UNL     1      10.126   7.429  -4.775  1.00  0.00    -0.258 OA
ENDBRANCH  83  87
BRANCH  86  90
ATOM     90  C   UNL     1       8.609  11.070  -9.053  1.00  0.00     0.416 C 
ATOM     91  F   UNL     1       9.346  10.941 -10.190  1.00  0.00    -0.166 F 
ATOM     92  F   UNL     1       7.413  11.593  -9.440  1.00  0.00    -0.166 F 
ATOM     93  F   UNL     1       9.220  12.039  -8.318  1.00  0.00    -0.166 F 
ENDBRANCH  86  90
ENDBRANCH  80  81
ENDBRANCH  72  75
ENDBRANCH  70  71
ENDBRANCH  69  70
ENDBRANCH   1  69
TORSDOF 17
