REMARK SMILES O=C(CCC(=O)Nc1ccc2nc(-c3ccccc3)oc2c1)NCCCCNC(=O)c1ccc(-c2c3nc(c(-c4ccc(S(=O)(=O)[O-])cc4)c4ccc([nH]4)c(-c4ccc(S(=O)(=O)[O-])cc4)c4nc(c(-c5ccc(S(=O)(=O)[O-])cc5)c5ccc2[nH]5)C=C4)C=C3)cc1
REMARK SMILES IDX 25 1 24 2 23 3 1 4 2 5 3 7 4 8 5 9 6 10 7 11 8 13 9 14 22 15
REMARK SMILES IDX 10 16 21 17 11 18 20 19 12 20 13 21 14 22 15 23 19 24 16 25
REMARK SMILES IDX 18 26 17 27 26 28 27 29 28 30 29 31 30 33 31 34 32 35 90 36
REMARK SMILES IDX 33 37 89 38 34 39 35 40 36 41 83 42 37 43 88 44 82 45 84 46
REMARK SMILES IDX 38 47 87 48 81 49 80 50 39 52 69 53 50 54 68 55 51 56 54 57
REMARK SMILES IDX 67 58 85 59 52 60 53 61 66 63 86 64 55 65 40 66 41 67 49 68
REMARK SMILES IDX 42 69 48 70 43 71 44 72 45 73 46 74 47 75 70 76 71 77 79 78
REMARK SMILES IDX 72 79 78 80 73 81 74 82 75 83 76 84 77 85 56 86 57 87 65 88
REMARK SMILES IDX 58 89 64 90 59 91 60 92 61 93 62 94 63 95
REMARK H PARENT 23 6 7 12 28 32 84 51 54 62
REMARK Flexibility Score: inf
ROOT
ATOM      1  C   UNL     1       2.954  -2.916   2.628  1.00  0.00     0.023 C 
ENDROOT
BRANCH   1   2
ATOM      2  C   UNL     1       2.457  -1.741   1.793  1.00  0.00     0.116 C 
BRANCH   2   3
ATOM      3  N   UNL     1       3.350  -1.343   0.719  1.00  0.00    -0.356 N 
ATOM      4  O   UNL     1       1.731  -1.182  -0.908  1.00  0.00    -0.275 OA
ATOM      5  C   UNL     1       2.881  -0.985  -0.525  1.00  0.00     0.220 C 
ATOM      6  H   UNL     1       4.321  -1.329   0.886  1.00  0.00     0.163 HD
BRANCH   5   7
ATOM      7  C   UNL     1       3.879  -0.236  -1.387  1.00  0.00     0.110 C 
BRANCH   7   8
ATOM      8  C   UNL     1       4.064   1.237  -1.018  1.00  0.00     0.110 C 
BRANCH   8   9
ATOM      9  C   UNL     1       4.553   1.467   0.393  1.00  0.00     0.224 C 
ATOM     10  O   UNL     1       5.748   1.271   0.647  1.00  0.00    -0.275 OA
ATOM     11  N   UNL     1       3.762   1.849   1.435  1.00  0.00    -0.326 N 
ATOM     12  H   UNL     1       4.276   2.215   2.190  1.00  0.00     0.169 HD
BRANCH  11  13
ATOM     13  C   UNL     1       2.371   1.837   1.674  1.00  0.00     0.045 A 
ATOM     14  C   UNL     1       1.415   1.470   0.723  1.00  0.00     0.028 A 
ATOM     15  C   UNL     1       1.966   2.078   3.006  1.00  0.00     0.075 A 
ATOM     16  C   UNL     1       0.098   1.151   1.068  1.00  0.00     0.034 A 
ATOM     17  C   UNL     1       0.632   1.802   3.307  1.00  0.00     0.157 A 
ATOM     18  C   UNL     1      -0.279   1.297   2.394  1.00  0.00     0.110 A 
ATOM     19  O   UNL     1      -0.031   1.963   4.496  1.00  0.00    -0.436 OA
ATOM     20  N   UNL     1      -1.469   1.043   2.994  1.00  0.00    -0.209 NA
ATOM     21  C   UNL     1      -1.297   1.510   4.213  1.00  0.00     0.227 A 
BRANCH  21  22
ATOM     22  C   UNL     1      -2.357   1.771   5.167  1.00  0.00     0.037 A 
ATOM     23  C   UNL     1      -3.236   0.742   5.529  1.00  0.00     0.014 A 
ATOM     24  C   UNL     1      -2.660   3.093   5.516  1.00  0.00     0.014 A 
ATOM     25  C   UNL     1      -4.422   1.036   6.201  1.00  0.00     0.001 A 
ATOM     26  C   UNL     1      -3.855   3.387   6.172  1.00  0.00     0.001 A 
ATOM     27  C   UNL     1      -4.739   2.360   6.504  1.00  0.00     0.000 A 
ENDBRANCH  21  22
ENDBRANCH  11  13
ENDBRANCH   8   9
ENDBRANCH   7   8
ENDBRANCH   5   7
ENDBRANCH   2   3
ENDBRANCH   1   2
BRANCH   1  28
ATOM     28  C   UNL     1       4.353  -2.751   3.226  1.00  0.00     0.023 C 
BRANCH  28  29
ATOM     29  C   UNL     1       4.548  -1.531   4.123  1.00  0.00     0.116 C 
BRANCH  29  30
ATOM     30  N   UNL     1       3.911  -1.673   5.425  1.00  0.00    -0.352 N 
ATOM     31  C   UNL     1       4.474  -1.860   6.667  1.00  0.00     0.251 C 
ATOM     32  H   UNL     1       2.927  -1.628   5.415  1.00  0.00     0.163 HD
ATOM     33  O   UNL     1       3.752  -2.123   7.629  1.00  0.00    -0.269 OA
BRANCH  31  34
ATOM     34  C   UNL     1       5.941  -1.780   6.852  1.00  0.00     0.039 A 
ATOM     35  C   UNL     1       6.587  -2.768   7.600  1.00  0.00     0.014 A 
ATOM     36  C   UNL     1       6.684  -0.737   6.294  1.00  0.00     0.014 A 
ATOM     37  C   UNL     1       7.982  -2.759   7.710  1.00  0.00     0.010 A 
ATOM     38  C   UNL     1       8.078  -0.776   6.333  1.00  0.00     0.010 A 
ATOM     39  C   UNL     1       8.745  -1.791   7.036  1.00  0.00    -0.014 A 
BRANCH  39  40
ATOM     40  C   UNL     1      10.234  -1.838   7.034  1.00  0.00     0.031 A 
ATOM     41  C   UNL     1      11.037  -0.705   7.617  1.00  0.00     0.074 A 
ATOM     42  C   UNL     1      10.869  -2.873   6.446  1.00  0.00     0.049 A 
ATOM     43  N   UNL     1      12.337  -0.545   7.647  1.00  0.00    -0.248 NA
ATOM     44  C   UNL     1      10.284   0.404   8.224  1.00  0.00     0.031 C 
ATOM     45  C   UNL     1      10.213  -4.016   5.805  1.00  0.00     0.029 A 
ATOM     46  N   UNL     1      12.209  -3.128   6.281  1.00  0.00    -0.354 N 
ATOM     47  C   UNL     1      12.555   0.683   8.262  1.00  0.00     0.074 A 
ATOM     48  C   UNL     1      11.253   1.250   8.539  1.00  0.00     0.031 C 
ATOM     49  C   UNL     1      11.149  -4.859   5.342  1.00  0.00     0.029 A 
ATOM     50  C   UNL     1      12.471  -4.299   5.607  1.00  0.00     0.049 A 
ATOM     51  H   UNL     1      12.916  -2.529   6.614  1.00  0.00     0.167 HD
ATOM     52  C   UNL     1      13.729   1.276   8.587  1.00  0.00     0.031 A 
ATOM     53  C   UNL     1      13.639  -4.858   5.231  1.00  0.00     0.031 A 
ATOM     54  C   UNL     1      15.024   0.712   8.311  1.00  0.00     0.049 A 
ATOM     55  C   UNL     1      14.930  -4.169   5.581  1.00  0.00     0.074 A 
ATOM     56  C   UNL     1      16.270   1.216   8.643  1.00  0.00     0.029 A 
ATOM     57  N   UNL     1      15.244  -0.478   7.633  1.00  0.00    -0.354 N 
ATOM     58  N   UNL     1      15.114  -3.039   6.222  1.00  0.00    -0.248 NA
ATOM     59  C   UNL     1      16.172  -4.836   5.167  1.00  0.00     0.031 C 
ATOM     60  C   UNL     1      17.244   0.363   8.114  1.00  0.00     0.029 A 
ATOM     61  C   UNL     1      16.605  -0.710   7.513  1.00  0.00     0.049 A 
ATOM     62  H   UNL     1      14.537  -1.070   7.287  1.00  0.00     0.167 HD
ATOM     63  C   UNL     1      16.492  -2.876   6.313  1.00  0.00     0.074 A 
ATOM     64  C   UNL     1      17.093  -4.029   5.677  1.00  0.00     0.031 C 
ATOM     65  C   UNL     1      17.195  -1.861   6.876  1.00  0.00     0.031 A 
BRANCH  52  66
ATOM     66  C   UNL     1      13.665   2.617   9.276  1.00  0.00    -0.014 A 
ATOM     67  C   UNL     1      13.177   2.736  10.591  1.00  0.00     0.010 A 
ATOM     68  C   UNL     1      14.138   3.767   8.618  1.00  0.00     0.010 A 
ATOM     69  C   UNL     1      13.117   3.985  11.215  1.00  0.00     0.020 A 
ATOM     70  C   UNL     1      14.111   5.014   9.251  1.00  0.00     0.020 A 
ATOM     71  C   UNL     1      13.583   5.117  10.539  1.00  0.00     0.054 A 
BRANCH  71  72
ATOM     72  S   UNL     1      13.508   6.721  11.382  1.00  0.00     0.124 S 
ATOM     73  O   UNL     1      12.073   6.993  11.383  1.00  0.00    -0.237 OA
ATOM     74  O   UNL     1      14.092   6.425  12.687  1.00  0.00    -0.237 OA
ATOM     75  O   UNL     1      14.306   7.599  10.530  1.00  0.00    -0.744 OA
ENDBRANCH  71  72
ENDBRANCH  52  66
BRANCH  53  76
ATOM     76  C   UNL     1      13.639  -6.147   4.483  1.00  0.00    -0.014 A 
ATOM     77  C   UNL     1      14.112  -7.326   5.086  1.00  0.00     0.010 A 
ATOM     78  C   UNL     1      13.154  -6.203   3.163  1.00  0.00     0.010 A 
ATOM     79  C   UNL     1      14.116  -8.532   4.378  1.00  0.00     0.020 A 
ATOM     80  C   UNL     1      13.127  -7.412   2.463  1.00  0.00     0.020 A 
ATOM     81  C   UNL     1      13.618  -8.568   3.072  1.00  0.00     0.054 A 
BRANCH  81  82
ATOM     82  S   UNL     1      13.584 -10.155   2.192  1.00  0.00     0.124 S 
ATOM     83  O   UNL     1      14.998 -10.379   1.914  1.00  0.00    -0.237 OA
ATOM     84  O   UNL     1      12.982 -11.048   3.179  1.00  0.00    -0.237 OA
ATOM     85  O   UNL     1      12.751  -9.879   1.023  1.00  0.00    -0.744 OA
ENDBRANCH  81  82
ENDBRANCH  53  76
BRANCH  65  86
ATOM     86  C   UNL     1      18.699  -1.965   6.866  1.00  0.00    -0.014 A 
ATOM     87  C   UNL     1      19.437  -1.825   5.677  1.00  0.00     0.010 A 
ATOM     88  C   UNL     1      19.387  -2.152   8.080  1.00  0.00     0.010 A 
ATOM     89  C   UNL     1      20.832  -1.901   5.698  1.00  0.00     0.020 A 
ATOM     90  C   UNL     1      20.783  -2.197   8.109  1.00  0.00     0.020 A 
ATOM     91  C   UNL     1      21.497  -2.085   6.915  1.00  0.00     0.054 A 
BRANCH  91  92
ATOM     92  S   UNL     1      23.310  -2.135   6.920  1.00  0.00     0.124 S 
ATOM     93  O   UNL     1      23.581  -3.430   6.304  1.00  0.00    -0.237 OA
ATOM     94  O   UNL     1      23.664  -0.969   6.115  1.00  0.00    -0.237 OA
ATOM     95  O   UNL     1      23.657  -2.035   8.336  1.00  0.00    -0.744 OA
ENDBRANCH  91  92
ENDBRANCH  65  86
ENDBRANCH  39  40
ENDBRANCH  31  34
ENDBRANCH  29  30
ENDBRANCH  28  29
ENDBRANCH   1  28
TORSDOF 18
