REMARK SMILES Cn1c(=O)c(=O)n(C)c2cc(S(=O)(=O)N3CCC[C@H]3C(=O)NCCCCNC(=O)c3ccc(-c4c5nc(c(-c6ccc(S(=O)(=O)[O-])cc6)c6ccc([nH]6)c(-c6ccc(S(=O)(=O)[O-])cc6)c6nc(c(-c7ccc(S(=O)(=O)[O-])cc7)c7ccc4[nH]7)C=C6)C=C5)cc3)ccc21
REMARK SMILES IDX 25 1 24 2 23 3 22 4 20 5 21 6 19 8 15 9 16 10 17 11 18 12
REMARK SMILES IDX 12 13 13 14 14 15 11 16 1 17 2 18 3 19 92 20 4 21 5 22 9 23
REMARK SMILES IDX 91 24 6 25 7 26 10 27 90 28 8 29 26 30 27 31 28 32 29 34
REMARK SMILES IDX 30 35 31 36 89 37 32 38 88 39 33 40 34 41 35 42 82 43 36 44
REMARK SMILES IDX 87 45 81 46 83 47 37 48 86 49 80 50 79 51 38 53 68 54 49 55
REMARK SMILES IDX 67 56 50 57 53 58 66 59 84 60 51 61 52 62 65 64 85 65 54 66
REMARK SMILES IDX 39 67 40 68 48 69 41 70 47 71 42 72 43 73 44 74 45 75 46 76
REMARK SMILES IDX 69 77 70 78 78 79 71 80 77 81 72 82 73 83 74 84 75 85 76 86
REMARK SMILES IDX 55 87 56 88 64 89 57 90 63 91 58 92 59 93 60 94 61 95 62 96
REMARK H PARENT 22 7 27 33 83 52 53 63
REMARK Flexibility Score: inf
ROOT
ATOM      1  C   UNL     1      -9.541  -3.040  -2.855  1.00  0.00     0.023 C 
ENDROOT
BRANCH   1   2
ATOM      2  C   UNL     1      -8.065  -2.914  -3.235  1.00  0.00     0.023 C 
BRANCH   2   3
ATOM      3  C   UNL     1      -7.650  -1.534  -3.744  1.00  0.00     0.116 C 
BRANCH   3   4
ATOM      4  N   UNL     1      -7.690  -0.546  -2.684  1.00  0.00    -0.355 N 
ATOM      5  C   UNL     1      -6.716   0.078  -1.976  1.00  0.00     0.238 C 
ATOM      6  O   UNL     1      -7.093   0.770  -1.020  1.00  0.00    -0.273 OA
ATOM      7  H   UNL     1      -8.601  -0.276  -2.428  1.00  0.00     0.163 HD
BRANCH   5   8
ATOM      8  C   UNL     1      -5.239   0.089  -2.346  1.00  0.00     0.162 C 
ATOM      9  N   UNL     1      -4.705  -0.832  -3.355  1.00  0.00    -0.185 NA
ATOM     10  C   UNL     1      -4.285  -0.127  -4.568  1.00  0.00     0.103 C 
ATOM     11  C   UNL     1      -4.026   1.296  -4.118  1.00  0.00     0.019 C 
ATOM     12  C   UNL     1      -4.895   1.492  -2.886  1.00  0.00     0.032 C 
BRANCH   9  13
ATOM     13  S   UNL     1      -4.093  -2.327  -2.937  1.00  0.00     0.243 S 
ATOM     14  O   UNL     1      -3.829  -3.050  -4.159  1.00  0.00    -0.207 OA
ATOM     15  O   UNL     1      -4.944  -2.875  -1.901  1.00  0.00    -0.207 OA
BRANCH  13  16
ATOM     16  C   UNL     1      -2.515  -2.072  -2.159  1.00  0.00     0.084 A 
ATOM     17  C   UNL     1       1.603  -0.338   0.320  1.00  0.00     0.154 C 
ATOM     18  N   UNL     1       1.117  -1.665  -0.029  1.00  0.00    -0.305 N 
ATOM     19  C   UNL     1       1.853  -2.764   0.407  1.00  0.00     0.316 A 
ATOM     20  C   UNL     1      -0.088  -1.817  -0.762  1.00  0.00     0.068 A 
ATOM     21  O   UNL     1       2.894  -2.669   1.053  1.00  0.00    -0.263 OA
ATOM     22  C   UNL     1       1.330  -4.162   0.056  1.00  0.00     0.316 A 
ATOM     23  C   UNL     1      -0.590  -3.098  -1.056  1.00  0.00     0.069 A 
ATOM     24  C   UNL     1      -0.803  -0.688  -1.195  1.00  0.00     0.030 A 
ATOM     25  O   UNL     1       1.991  -5.137   0.406  1.00  0.00    -0.263 OA
ATOM     26  N   UNL     1       0.127  -4.255  -0.643  1.00  0.00    -0.305 N 
ATOM     27  C   UNL     1      -1.808  -3.211  -1.752  1.00  0.00     0.050 A 
ATOM     28  C   UNL     1      -2.003  -0.813  -1.892  1.00  0.00     0.024 A 
ATOM     29  C   UNL     1      -0.381  -5.585  -0.947  1.00  0.00     0.154 C 
ENDBRANCH  13  16
ENDBRANCH   9  13
ENDBRANCH   5   8
ENDBRANCH   3   4
ENDBRANCH   2   3
ENDBRANCH   1   2
BRANCH   1  30
ATOM     30  C   UNL     1     -10.529  -2.595  -3.924  1.00  0.00     0.116 C 
BRANCH  30  31
ATOM     31  N   UNL     1     -10.338  -3.247  -5.212  1.00  0.00    -0.352 N 
ATOM     32  C   UNL     1     -11.291  -3.591  -6.144  1.00  0.00     0.251 C 
ATOM     33  H   UNL     1      -9.408  -3.470  -5.446  1.00  0.00     0.163 HD
ATOM     34  O   UNL     1     -10.975  -4.207  -7.157  1.00  0.00    -0.269 OA
BRANCH  32  35
ATOM     35  C   UNL     1     -12.705  -3.253  -5.879  1.00  0.00     0.039 A 
ATOM     36  C   UNL     1     -13.055  -1.975  -5.442  1.00  0.00     0.014 A 
ATOM     37  C   UNL     1     -13.679  -4.247  -6.005  1.00  0.00     0.014 A 
ATOM     38  C   UNL     1     -14.337  -1.745  -4.962  1.00  0.00     0.010 A 
ATOM     39  C   UNL     1     -14.993  -3.983  -5.609  1.00  0.00     0.010 A 
ATOM     40  C   UNL     1     -15.322  -2.746  -5.036  1.00  0.00    -0.014 A 
BRANCH  40  41
ATOM     41  C   UNL     1     -16.685  -2.443  -4.529  1.00  0.00     0.031 A 
ATOM     42  C   UNL     1     -17.256  -3.162  -3.337  1.00  0.00     0.074 A 
ATOM     43  C   UNL     1     -17.378  -1.444  -5.109  1.00  0.00     0.049 A 
ATOM     44  N   UNL     1     -18.372  -2.918  -2.695  1.00  0.00    -0.248 NA
ATOM     45  C   UNL     1     -16.493  -4.298  -2.797  1.00  0.00     0.031 C 
ATOM     46  C   UNL     1     -16.927  -0.685  -6.278  1.00  0.00     0.029 A 
ATOM     47  N   UNL     1     -18.571  -0.860  -4.771  1.00  0.00    -0.354 N 
ATOM     48  C   UNL     1     -18.456  -3.881  -1.696  1.00  0.00     0.074 A 
ATOM     49  C   UNL     1     -17.291  -4.727  -1.828  1.00  0.00     0.031 C 
ATOM     50  C   UNL     1     -17.783   0.320  -6.503  1.00  0.00     0.029 A 
ATOM     51  C   UNL     1     -18.876   0.240  -5.538  1.00  0.00     0.049 A 
ATOM     52  H   UNL     1     -19.153  -1.195  -4.051  1.00  0.00     0.167 HD
ATOM     53  C   UNL     1     -19.416  -4.037  -0.753  1.00  0.00     0.031 A 
ATOM     54  C   UNL     1     -19.910   1.101  -5.475  1.00  0.00     0.031 A 
ATOM     55  C   UNL     1     -20.562  -3.175  -0.614  1.00  0.00     0.049 A 
ATOM     56  C   UNL     1     -20.951   0.917  -4.414  1.00  0.00     0.074 A 
ATOM     57  C   UNL     1     -21.556  -3.223   0.348  1.00  0.00     0.029 A 
ATOM     58  N   UNL     1     -20.872  -2.117  -1.455  1.00  0.00    -0.354 N 
ATOM     59  N   UNL     1     -20.996   0.020  -3.459  1.00  0.00    -0.248 NA
ATOM     60  C   UNL     1     -22.081   1.854  -4.423  1.00  0.00     0.031 C 
ATOM     61  C   UNL     1     -22.499  -2.234   0.053  1.00  0.00     0.029 A 
ATOM     62  C   UNL     1     -22.061  -1.528  -1.056  1.00  0.00     0.049 A 
ATOM     63  H   UNL     1     -20.328  -1.828  -2.223  1.00  0.00     0.167 HD
ATOM     64  C   UNL     1     -22.168   0.273  -2.759  1.00  0.00     0.074 A 
ATOM     65  C   UNL     1     -22.784   1.431  -3.378  1.00  0.00     0.031 C 
ATOM     66  C   UNL     1     -22.688  -0.402  -1.704  1.00  0.00     0.031 A 
BRANCH  53  67
ATOM     67  C   UNL     1     -19.289  -5.192   0.207  1.00  0.00    -0.014 A 
ATOM     68  C   UNL     1     -20.206  -6.258   0.134  1.00  0.00     0.010 A 
ATOM     69  C   UNL     1     -18.334  -5.183   1.240  1.00  0.00     0.010 A 
ATOM     70  C   UNL     1     -20.183  -7.283   1.083  1.00  0.00     0.020 A 
ATOM     71  C   UNL     1     -18.292  -6.221   2.177  1.00  0.00     0.020 A 
ATOM     72  C   UNL     1     -19.230  -7.254   2.104  1.00  0.00     0.054 A 
BRANCH  72  73
ATOM     73  S   UNL     1     -19.213  -8.593   3.329  1.00  0.00     0.124 S 
ATOM     74  O   UNL     1     -20.303  -8.209   4.220  1.00  0.00    -0.237 OA
ATOM     75  O   UNL     1     -19.452  -9.781   2.512  1.00  0.00    -0.237 OA
ATOM     76  O   UNL     1     -17.872  -8.507   3.905  1.00  0.00    -0.744 OA
ENDBRANCH  72  73
ENDBRANCH  53  67
BRANCH  54  77
ATOM     77  C   UNL     1     -19.950   2.230  -6.442  1.00  0.00    -0.014 A 
ATOM     78  C   UNL     1     -20.173   1.980  -7.810  1.00  0.00     0.010 A 
ATOM     79  C   UNL     1     -19.611   3.529  -6.027  1.00  0.00     0.010 A 
ATOM     80  C   UNL     1     -19.973   2.989  -8.754  1.00  0.00     0.020 A 
ATOM     81  C   UNL     1     -19.438   4.548  -6.968  1.00  0.00     0.020 A 
ATOM     82  C   UNL     1     -19.581   4.260  -8.328  1.00  0.00     0.054 A 
BRANCH  82  83
ATOM     83  S   UNL     1     -19.214   5.524  -9.576  1.00  0.00     0.124 S 
ATOM     84  O   UNL     1     -17.879   5.127 -10.018  1.00  0.00    -0.237 OA
ATOM     85  O   UNL     1     -20.282   5.334 -10.552  1.00  0.00    -0.237 OA
ATOM     86  O   UNL     1     -19.277   6.774  -8.823  1.00  0.00    -0.744 OA
ENDBRANCH  82  83
ENDBRANCH  54  77
BRANCH  66  87
ATOM     87  C   UNL     1     -24.016   0.062  -1.168  1.00  0.00    -0.014 A 
ATOM     88  C   UNL     1     -24.093   0.665   0.100  1.00  0.00     0.010 A 
ATOM     89  C   UNL     1     -25.200  -0.179  -1.887  1.00  0.00     0.010 A 
ATOM     90  C   UNL     1     -25.332   1.005   0.648  1.00  0.00     0.020 A 
ATOM     91  C   UNL     1     -26.440   0.184  -1.353  1.00  0.00     0.020 A 
ATOM     92  C   UNL     1     -26.499   0.757  -0.080  1.00  0.00     0.054 A 
BRANCH  92  93
ATOM     93  S   UNL     1     -28.101   1.215   0.637  1.00  0.00     0.124 S 
ATOM     94  O   UNL     1     -28.371   0.091   1.528  1.00  0.00    -0.237 OA
ATOM     95  O   UNL     1     -27.809   2.486   1.297  1.00  0.00    -0.237 OA
ATOM     96  O   UNL     1     -28.978   1.316  -0.527  1.00  0.00    -0.744 OA
ENDBRANCH  92  93
ENDBRANCH  66  87
ENDBRANCH  40  41
ENDBRANCH  32  35
ENDBRANCH  30  31
ENDBRANCH   1  30
TORSDOF 16
