REMARK SMILES Cc1ccc(OCC(=O)NC(=S)Nc2ccc(C(=O)NCCCCNC(=O)c3ccc(-c4c5nc(c(-c6ccc(S(=O)(=O)[O-])cc6)c6ccc([nH]6)c(-c6ccc(S(=O)(=O)[O-])cc6)c6nc(c(-c7ccc(S(=O)(=O)[O-])cc7)c7ccc4[nH]7)C=C6)C=C5)cc3)cc2)cc1
REMARK SMILES IDX 21 1 20 2 18 3 19 4 17 6 14 7 15 8 89 9 16 10 88 11 13 12
REMARK SMILES IDX 11 14 12 15 10 16 8 17 9 18 7 20 6 21 5 22 1 23 2 24 3 25
REMARK SMILES IDX 91 26 4 27 90 28 22 29 23 30 24 31 25 32 26 33 27 35 28 36
REMARK SMILES IDX 29 37 87 38 30 39 86 40 31 41 32 42 33 43 80 44 34 45 85 46
REMARK SMILES IDX 79 47 81 48 35 49 84 50 78 51 77 52 36 54 66 55 47 56 65 57
REMARK SMILES IDX 48 58 51 59 64 60 82 61 49 62 50 63 63 65 83 66 52 67 37 68
REMARK SMILES IDX 38 69 46 70 39 71 45 72 40 73 41 74 42 75 43 76 44 77 67 78
REMARK SMILES IDX 68 79 76 80 69 81 75 82 70 83 71 84 72 85 73 86 74 87 53 88
REMARK SMILES IDX 54 89 62 90 55 91 61 92 56 93 57 94 58 95 59 96 60 97
REMARK H PARENT 20 5 13 13 10 19 25 34 81 53 51 64
REMARK Flexibility Score: inf
ROOT
ATOM      1  C   UNL     1      -1.725   2.385  -3.051  1.00  0.00     0.116 C 
ENDROOT
BRANCH   1   2
ATOM      2  N   UNL     1      -2.795   2.223  -4.030  1.00  0.00    -0.352 N 
ATOM      3  C   UNL     1      -4.032   1.638  -3.907  1.00  0.00     0.251 C 
ATOM      4  O   UNL     1      -4.873   1.752  -4.794  1.00  0.00    -0.269 OA
ATOM      5  H   UNL     1      -2.599   2.592  -4.921  1.00  0.00     0.163 HD
BRANCH   3   6
ATOM      6  C   UNL     1      -4.379   0.892  -2.684  1.00  0.00     0.039 A 
ATOM      7  C   UNL     1      -4.920  -0.339  -0.254  1.00  0.00     0.040 A 
ATOM      8  C   UNL     1      -3.905  -0.837  -1.073  1.00  0.00     0.027 A 
ATOM      9  C   UNL     1      -5.759   0.682  -0.710  1.00  0.00     0.027 A 
ATOM     10  C   UNL     1      -3.609  -0.198  -2.275  1.00  0.00     0.016 A 
ATOM     11  C   UNL     1      -5.502   1.282  -1.945  1.00  0.00     0.016 A 
BRANCH   7  12
ATOM     12  N   UNL     1      -5.033  -0.892   1.025  1.00  0.00    -0.332 N 
ATOM     13  H   UNL     1      -4.813  -1.849   1.091  1.00  0.00     0.169 HD
BRANCH  12  14
ATOM     14  C   UNL     1      -5.400  -0.304   2.181  1.00  0.00     0.177 C 
ATOM     15  S   UNL     1      -6.139  -1.238   3.360  1.00  0.00    -0.040 S 
BRANCH  14  16
ATOM     16  N   UNL     1      -5.144   1.012   2.470  1.00  0.00    -0.300 N 
ATOM     17  C   UNL     1      -4.301   2.045   2.083  1.00  0.00     0.264 C 
ATOM     18  O   UNL     1      -4.541   3.161   2.562  1.00  0.00    -0.271 OA
ATOM     19  H   UNL     1      -5.752   1.324   3.179  1.00  0.00     0.172 HD
BRANCH  17  20
ATOM     20  C   UNL     1      -3.108   1.852   1.150  1.00  0.00     0.329 C 
BRANCH  20  21
ATOM     21  O   UNL     1      -2.397   0.653   1.406  1.00  0.00    -0.484 OA
BRANCH  21  22
ATOM     22  C   UNL     1      -1.130   0.537   0.902  1.00  0.00     0.120 A 
ATOM     23  C   UNL     1       2.934  -0.268  -0.331  1.00  0.00     0.044 C 
ATOM     24  C   UNL     1       1.516   0.004   0.078  1.00  0.00    -0.051 A 
ATOM     25  C   UNL     1       0.681  -1.037   0.490  1.00  0.00     0.007 A 
ATOM     26  C   UNL     1       1.002   1.304   0.043  1.00  0.00     0.007 A 
ATOM     27  C   UNL     1      -0.626  -0.768   0.905  1.00  0.00     0.047 A 
ATOM     28  C   UNL     1      -0.311   1.572   0.452  1.00  0.00     0.047 A 
ENDBRANCH  21  22
ENDBRANCH  20  21
ENDBRANCH  17  20
ENDBRANCH  14  16
ENDBRANCH  12  14
ENDBRANCH   7  12
ENDBRANCH   3   6
ENDBRANCH   1   2
BRANCH   1  29
ATOM     29  C   UNL     1      -0.482   1.539  -3.358  1.00  0.00     0.023 C 
BRANCH  29  30
ATOM     30  C   UNL     1       0.143   1.756  -4.737  1.00  0.00     0.023 C 
BRANCH  30  31
ATOM     31  C   UNL     1       0.797   3.122  -4.909  1.00  0.00     0.116 C 
BRANCH  31  32
ATOM     32  N   UNL     1       2.253   3.081  -4.929  1.00  0.00    -0.352 N 
ATOM     33  C   UNL     1       3.029   4.014  -5.619  1.00  0.00     0.251 C 
ATOM     34  H   UNL     1       2.710   2.363  -4.435  1.00  0.00     0.163 HD
ATOM     35  O   UNL     1       3.959   3.740  -6.338  1.00  0.00    -0.269 OA
BRANCH  33  36
ATOM     36  C   UNL     1       2.669   5.421  -5.332  1.00  0.00     0.039 A 
ATOM     37  C   UNL     1       3.374   6.096  -4.331  1.00  0.00     0.014 A 
ATOM     38  C   UNL     1       1.466   5.910  -5.832  1.00  0.00     0.014 A 
ATOM     39  C   UNL     1       2.775   7.180  -3.697  1.00  0.00     0.010 A 
ATOM     40  C   UNL     1       0.837   6.921  -5.140  1.00  0.00     0.010 A 
ATOM     41  C   UNL     1       1.469   7.517  -4.040  1.00  0.00    -0.014 A 
BRANCH  41  42
ATOM     42  C   UNL     1       0.629   8.431  -3.279  1.00  0.00     0.031 A 
ATOM     43  C   UNL     1       0.307   9.758  -3.839  1.00  0.00     0.074 A 
ATOM     44  C   UNL     1       0.031   8.002  -2.148  1.00  0.00     0.049 A 
ATOM     45  N   UNL     1      -0.291  10.702  -3.196  1.00  0.00    -0.248 NA
ATOM     46  C   UNL     1       0.715  10.148  -5.184  1.00  0.00     0.031 C 
ATOM     47  C   UNL     1      -1.136   8.571  -1.481  1.00  0.00     0.029 A 
ATOM     48  N   UNL     1       0.496   7.059  -1.247  1.00  0.00    -0.354 N 
ATOM     49  C   UNL     1      -0.616  11.680  -4.107  1.00  0.00     0.074 A 
ATOM     50  C   UNL     1       0.127  11.341  -5.296  1.00  0.00     0.031 C 
ATOM     51  C   UNL     1      -1.167   8.132  -0.212  1.00  0.00     0.029 A 
ATOM     52  C   UNL     1       0.083   7.431   0.037  1.00  0.00     0.049 A 
ATOM     53  H   UNL     1       1.027   6.262  -1.472  1.00  0.00     0.167 HD
ATOM     54  C   UNL     1      -1.583  12.587  -3.785  1.00  0.00     0.031 A 
ATOM     55  C   UNL     1       1.010   7.837   0.961  1.00  0.00     0.031 A 
ATOM     56  C   UNL     1      -1.929  12.519  -2.361  1.00  0.00     0.049 A 
ATOM     57  C   UNL     1       0.924   9.309   1.341  1.00  0.00     0.074 A 
ATOM     58  C   UNL     1      -3.010  12.053  -1.629  1.00  0.00     0.029 A 
ATOM     59  N   UNL     1      -0.915  12.735  -1.437  1.00  0.00    -0.354 N 
ATOM     60  N   UNL     1       0.073  10.165   0.842  1.00  0.00    -0.248 NA
ATOM     61  C   UNL     1       1.859   9.944   2.273  1.00  0.00     0.031 C 
ATOM     62  C   UNL     1      -2.610  11.954  -0.259  1.00  0.00     0.029 A 
ATOM     63  C   UNL     1      -1.301  12.386  -0.157  1.00  0.00     0.049 A 
ATOM     64  H   UNL     1      -0.028  13.093  -1.666  1.00  0.00     0.167 HD
ATOM     65  C   UNL     1       0.346  11.420   1.318  1.00  0.00     0.074 A 
ATOM     66  C   UNL     1       1.469  11.229   2.220  1.00  0.00     0.031 C 
ATOM     67  C   UNL     1      -0.331  12.537   0.918  1.00  0.00     0.031 A 
BRANCH  54  68
ATOM     68  C   UNL     1      -2.365  13.377  -4.818  1.00  0.00    -0.014 A 
ATOM     69  C   UNL     1      -3.613  13.939  -4.478  1.00  0.00     0.010 A 
ATOM     70  C   UNL     1      -1.980  13.529  -6.165  1.00  0.00     0.010 A 
ATOM     71  C   UNL     1      -4.454  14.531  -5.439  1.00  0.00     0.020 A 
ATOM     72  C   UNL     1      -2.812  14.097  -7.139  1.00  0.00     0.020 A 
ATOM     73  C   UNL     1      -4.057  14.582  -6.774  1.00  0.00     0.054 A 
BRANCH  73  74
ATOM     74  S   UNL     1      -5.172  15.267  -8.025  1.00  0.00     0.124 S 
ATOM     75  O   UNL     1      -6.349  14.411  -7.899  1.00  0.00    -0.237 OA
ATOM     76  O   UNL     1      -5.341  16.645  -7.575  1.00  0.00    -0.237 OA
ATOM     77  O   UNL     1      -4.430  15.111  -9.275  1.00  0.00    -0.744 OA
ENDBRANCH  73  74
ENDBRANCH  54  68
BRANCH  55  78
ATOM     78  C   UNL     1       2.272   7.037   0.909  1.00  0.00    -0.014 A 
ATOM     79  C   UNL     1       2.200   5.688   1.319  1.00  0.00     0.010 A 
ATOM     80  C   UNL     1       3.335   7.436   0.080  1.00  0.00     0.010 A 
ATOM     81  C   UNL     1       3.034   4.727   0.742  1.00  0.00     0.020 A 
ATOM     82  C   UNL     1       4.175   6.472  -0.497  1.00  0.00     0.020 A 
ATOM     83  C   UNL     1       3.950   5.119  -0.233  1.00  0.00     0.054 A 
BRANCH  83  84
ATOM     84  S   UNL     1       4.665   3.832  -1.303  1.00  0.00     0.124 S 
ATOM     85  O   UNL     1       5.212   2.884  -0.337  1.00  0.00    -0.237 OA
ATOM     86  O   UNL     1       3.490   3.363  -2.045  1.00  0.00    -0.237 OA
ATOM     87  O   UNL     1       5.648   4.559  -2.099  1.00  0.00    -0.744 OA
ENDBRANCH  83  84
ENDBRANCH  55  78
BRANCH  67  88
ATOM     88  C   UNL     1      -0.070  13.910   1.482  1.00  0.00    -0.014 A 
ATOM     89  C   UNL     1       0.191  14.133   2.844  1.00  0.00     0.010 A 
ATOM     90  C   UNL     1      -0.193  15.049   0.654  1.00  0.00     0.010 A 
ATOM     91  C   UNL     1       0.412  15.425   3.338  1.00  0.00     0.020 A 
ATOM     92  C   UNL     1       0.003  16.344   1.140  1.00  0.00     0.020 A 
ATOM     93  C   UNL     1       0.333  16.522   2.477  1.00  0.00     0.054 A 
BRANCH  93  94
ATOM     94  S   UNL     1       0.618  18.186   3.131  1.00  0.00     0.124 S 
ATOM     95  O   UNL     1      -0.115  18.165   4.395  1.00  0.00    -0.237 OA
ATOM     96  O   UNL     1       2.074  18.215   3.251  1.00  0.00    -0.237 OA
ATOM     97  O   UNL     1       0.058  19.064   2.107  1.00  0.00    -0.744 OA
ENDBRANCH  93  94
ENDBRANCH  67  88
ENDBRANCH  41  42
ENDBRANCH  33  36
ENDBRANCH  31  32
ENDBRANCH  30  31
ENDBRANCH  29  30
ENDBRANCH   1  29
TORSDOF 20
