REMARK SMILES NC(=O)CC[C@@H](C(=O)NCCCCNC(=O)c1ccc(-c2c3nc(c(-c4ccc(S(=O)(=O)[O-])cc4)c4ccc([nH]4)c(-c4ccc(S(=O)(=O)[O-])cc4)c4nc(c(-c5ccc(S(=O)(=O)[O-])cc5)c5ccc2[nH]5)C=C4)C=C3)cc1)N1C(=O)/C(=C/c2ccc(C=O)cc2)SC1=S
REMARK SMILES IDX 11 1 10 2 9 3 7 4 8 5 6 7 5 8 4 9 2 10 1 11 3 14 77 15 78 16
REMARK SMILES IDX 91 17 79 18 80 19 90 20 92 21 81 22 82 23 83 24 89 25 84 26
REMARK SMILES IDX 88 27 85 28 86 29 87 30 12 31 13 32 14 33 15 34 16 36 17 37
REMARK SMILES IDX 18 38 76 39 19 40 75 41 20 42 21 43 22 44 69 45 23 46 74 47
REMARK SMILES IDX 68 48 70 49 24 50 73 51 67 52 66 53 25 55 55 56 36 57 54 58
REMARK SMILES IDX 37 59 40 60 53 61 71 62 38 63 39 64 52 66 72 67 41 68 26 69
REMARK SMILES IDX 27 70 35 71 28 72 34 73 29 74 30 75 31 76 32 77 33 78 56 79
REMARK SMILES IDX 57 80 65 81 58 82 64 83 59 84 60 85 61 86 62 87 63 88 42 89
REMARK SMILES IDX 43 90 51 91 44 92 50 93 45 94 46 95 47 96 48 97 49 98
REMARK H PARENT 9 6 1 12 1 13 14 35 70 54 40 65
REMARK Flexibility Score: inf
ROOT
ATOM      1  C   UNL     1       1.513   1.646  -3.014  1.00  0.00     0.023 C 
ENDROOT
BRANCH   1   2
ATOM      2  C   UNL     1       2.326   0.781  -2.050  1.00  0.00     0.116 C 
BRANCH   2   3
ATOM      3  N   UNL     1       3.494   1.498  -1.589  1.00  0.00    -0.354 N 
ATOM      4  C   UNL     1       3.772   2.081  -0.391  1.00  0.00     0.243 C 
ATOM      5  O   UNL     1       4.872   2.637  -0.299  1.00  0.00    -0.273 OA
ATOM      6  H   UNL     1       4.212   1.578  -2.258  1.00  0.00     0.163 HD
BRANCH   4   7
ATOM      7  C   UNL     1       2.800   1.974   0.820  1.00  0.00     0.181 C 
BRANCH   7   8
ATOM      8  C   UNL     1       1.543   2.873   0.812  1.00  0.00     0.045 C 
BRANCH   8   9
ATOM      9  C   UNL     1       0.254   2.442   0.122  1.00  0.00     0.102 C 
BRANCH   9  10
ATOM     10  C   UNL     1      -0.586   1.326   0.707  1.00  0.00     0.217 C 
ATOM     11  N   UNL     1      -0.022   0.110   0.908  1.00  0.00    -0.370 N 
ATOM     12  H   UNL     1      -0.557  -0.624   1.288  1.00  0.00     0.159 HD
ATOM     13  H   UNL     1       0.923  -0.039   0.675  1.00  0.00     0.159 HD
ATOM     14  O   UNL     1      -1.789   1.464   0.912  1.00  0.00    -0.275 OA
ENDBRANCH   9  10
ENDBRANCH   8   9
ENDBRANCH   7   8
BRANCH   7  15
ATOM     15  N   UNL     1       3.650   2.279   2.013  1.00  0.00    -0.280 N 
ATOM     16  C   UNL     1       3.937   3.601   2.328  1.00  0.00     0.266 C 
ATOM     17  C   UNL     1       4.317   1.330   2.761  1.00  0.00     0.149 C 
ATOM     18  O   UNL     1       3.519   4.601   1.758  1.00  0.00    -0.268 OA
ATOM     19  C   UNL     1       4.822   3.679   3.514  1.00  0.00     0.081 C 
ATOM     20  S   UNL     1       5.278   2.108   4.018  1.00  0.00    -0.054 SA
ATOM     21  S   UNL     1       4.259  -0.332   2.603  1.00  0.00    -0.052 S 
ATOM     22  C   UNL     1       5.120   4.865   4.062  1.00  0.00     0.029 C 
BRANCH  22  23
ATOM     23  C   UNL     1       5.953   5.101   5.240  1.00  0.00    -0.024 A 
ATOM     24  C   UNL     1       5.389   5.710   6.368  1.00  0.00     0.009 A 
ATOM     25  C   UNL     1       7.316   4.782   5.234  1.00  0.00     0.009 A 
ATOM     26  C   UNL     1       6.176   5.980   7.489  1.00  0.00     0.012 A 
ATOM     27  C   UNL     1       8.107   5.051   6.353  1.00  0.00     0.012 A 
ATOM     28  C   UNL     1       7.533   5.648   7.478  1.00  0.00     0.014 A 
BRANCH  28  29
ATOM     29  C   UNL     1       8.377   5.931   8.655  1.00  0.00     0.260 C 
ATOM     30  O   UNL     1       7.932   6.456   9.668  1.00  0.00    -0.298 OA
ENDBRANCH  28  29
ENDBRANCH  22  23
ENDBRANCH   7  15
ENDBRANCH   4   7
ENDBRANCH   2   3
ENDBRANCH   1   2
BRANCH   1  31
ATOM     31  C   UNL     1       1.899   1.488  -4.478  1.00  0.00     0.023 C 
BRANCH  31  32
ATOM     32  C   UNL     1       1.570   0.121  -5.061  1.00  0.00     0.116 C 
BRANCH  32  33
ATOM     33  N   UNL     1       0.152  -0.216  -5.008  1.00  0.00    -0.352 N 
ATOM     34  C   UNL     1      -0.597  -0.874  -5.958  1.00  0.00     0.251 C 
ATOM     35  H   UNL     1      -0.328   0.060  -4.194  1.00  0.00     0.163 HD
ATOM     36  O   UNL     1      -1.805  -1.022  -5.814  1.00  0.00    -0.269 OA
BRANCH  34  37
ATOM     37  C   UNL     1       0.085  -1.349  -7.176  1.00  0.00     0.039 A 
ATOM     38  C   UNL     1      -0.380  -0.924  -8.421  1.00  0.00     0.014 A 
ATOM     39  C   UNL     1       1.257  -2.102  -7.067  1.00  0.00     0.014 A 
ATOM     40  C   UNL     1       0.386  -1.182  -9.558  1.00  0.00     0.010 A 
ATOM     41  C   UNL     1       2.059  -2.276  -8.186  1.00  0.00     0.010 A 
ATOM     42  C   UNL     1       1.635  -1.813  -9.442  1.00  0.00    -0.014 A 
BRANCH  42  43
ATOM     43  C   UNL     1       2.524  -1.997 -10.616  1.00  0.00     0.031 A 
ATOM     44  C   UNL     1       2.909  -3.385 -11.050  1.00  0.00     0.074 A 
ATOM     45  C   UNL     1       3.051  -0.921 -11.235  1.00  0.00     0.049 A 
ATOM     46  N   UNL     1       3.741  -3.753 -11.989  1.00  0.00    -0.248 NA
ATOM     47  C   UNL     1       2.306  -4.505 -10.307  1.00  0.00     0.031 C 
ATOM     48  C   UNL     1       2.800   0.477 -10.873  1.00  0.00     0.029 A 
ATOM     49  N   UNL     1       3.917  -0.836 -12.296  1.00  0.00    -0.354 N 
ATOM     50  C   UNL     1       3.779  -5.141 -11.933  1.00  0.00     0.074 A 
ATOM     51  C   UNL     1       2.933  -5.546 -10.832  1.00  0.00     0.031 C 
ATOM     52  C   UNL     1       3.472   1.278 -11.716  1.00  0.00     0.029 A 
ATOM     53  C   UNL     1       4.232   0.456 -12.650  1.00  0.00     0.049 A 
ATOM     54  H   UNL     1       4.279  -1.625 -12.760  1.00  0.00     0.167 HD
ATOM     55  C   UNL     1       4.440  -6.005 -12.740  1.00  0.00     0.031 A 
ATOM     56  C   UNL     1       5.046   0.924 -13.617  1.00  0.00     0.031 A 
ATOM     57  C   UNL     1       5.259  -5.599 -13.849  1.00  0.00     0.049 A 
ATOM     58  C   UNL     1       5.759  -0.053 -14.510  1.00  0.00     0.074 A 
ATOM     59  C   UNL     1       5.918  -6.397 -14.768  1.00  0.00     0.029 A 
ATOM     60  N   UNL     1       5.529  -4.283 -14.192  1.00  0.00    -0.354 N 
ATOM     61  N   UNL     1       5.729  -1.365 -14.485  1.00  0.00    -0.248 NA
ATOM     62  C   UNL     1       6.606   0.511 -15.570  1.00  0.00     0.031 C 
ATOM     63  C   UNL     1       6.624  -5.562 -15.641  1.00  0.00     0.029 A 
ATOM     64  C   UNL     1       6.361  -4.245 -15.298  1.00  0.00     0.049 A 
ATOM     65  H   UNL     1       5.181  -3.493 -13.720  1.00  0.00     0.167 HD
ATOM     66  C   UNL     1       6.533  -1.782 -15.539  1.00  0.00     0.074 A 
ATOM     67  C   UNL     1       7.023  -0.584 -16.191  1.00  0.00     0.031 C 
ATOM     68  C   UNL     1       6.837  -3.043 -15.934  1.00  0.00     0.031 A 
BRANCH  55  69
ATOM     69  C   UNL     1       4.295  -7.474 -12.447  1.00  0.00    -0.014 A 
ATOM     70  C   UNL     1       3.074  -8.139 -12.662  1.00  0.00     0.010 A 
ATOM     71  C   UNL     1       5.398  -8.205 -11.970  1.00  0.00     0.010 A 
ATOM     72  C   UNL     1       2.944  -9.496 -12.357  1.00  0.00     0.020 A 
ATOM     73  C   UNL     1       5.280  -9.570 -11.693  1.00  0.00     0.020 A 
ATOM     74  C   UNL     1       4.048 -10.202 -11.870  1.00  0.00     0.054 A 
BRANCH  74  75
ATOM     75  S   UNL     1       3.854 -11.966 -11.495  1.00  0.00     0.124 S 
ATOM     76  O   UNL     1       3.083 -11.925 -10.255  1.00  0.00    -0.237 OA
ATOM     77  O   UNL     1       3.137 -12.466 -12.665  1.00  0.00    -0.237 OA
ATOM     78  O   UNL     1       5.228 -12.443 -11.358  1.00  0.00    -0.744 OA
ENDBRANCH  74  75
ENDBRANCH  55  69
BRANCH  56  79
ATOM     79  C   UNL     1       5.213   2.392 -13.802  1.00  0.00    -0.014 A 
ATOM     80  C   UNL     1       4.651   3.038 -14.916  1.00  0.00     0.010 A 
ATOM     81  C   UNL     1       5.923   3.155 -12.856  1.00  0.00     0.010 A 
ATOM     82  C   UNL     1       4.809   4.416 -15.092  1.00  0.00     0.020 A 
ATOM     83  C   UNL     1       6.062   4.537 -13.015  1.00  0.00     0.020 A 
ATOM     84  C   UNL     1       5.513   5.157 -14.139  1.00  0.00     0.054 A 
BRANCH  84  85
ATOM     85  S   UNL     1       5.659   6.953 -14.359  1.00  0.00     0.124 S 
ATOM     86  O   UNL     1       6.650   7.048 -15.426  1.00  0.00    -0.237 OA
ATOM     87  O   UNL     1       4.298   7.339 -14.722  1.00  0.00    -0.237 OA
ATOM     88  O   UNL     1       6.102   7.421 -13.047  1.00  0.00    -0.744 OA
ENDBRANCH  84  85
ENDBRANCH  56  79
BRANCH  68  89
ATOM     89  C   UNL     1       7.718  -3.198 -17.143  1.00  0.00    -0.014 A 
ATOM     90  C   UNL     1       9.095  -2.925 -17.080  1.00  0.00     0.010 A 
ATOM     91  C   UNL     1       7.167  -3.688 -18.342  1.00  0.00     0.010 A 
ATOM     92  C   UNL     1       9.903  -3.117 -18.203  1.00  0.00     0.020 A 
ATOM     93  C   UNL     1       7.977  -3.906 -19.459  1.00  0.00     0.020 A 
ATOM     94  C   UNL     1       9.339  -3.607 -19.386  1.00  0.00     0.054 A 
BRANCH  94  95
ATOM     95  S   UNL     1      10.419  -3.899 -20.813  1.00  0.00     0.124 S 
ATOM     96  O   UNL     1      10.674  -2.541 -21.284  1.00  0.00    -0.237 OA
ATOM     97  O   UNL     1      11.564  -4.582 -20.215  1.00  0.00    -0.237 OA
ATOM     98  O   UNL     1       9.604  -4.725 -21.701  1.00  0.00    -0.744 OA
ENDBRANCH  94  95
ENDBRANCH  68  89
ENDBRANCH  42  43
ENDBRANCH  34  37
ENDBRANCH  32  33
ENDBRANCH  31  32
ENDBRANCH   1  31
TORSDOF 20
