REMARK SMILES C#CCN(CC(=O)NCCCCNC(=O)c1ccc(-c2c3nc(c(-c4ccc(S(=O)(=O)[O-])cc4)c4ccc([nH]4)c(-c4ccc(S(=O)(=O)[O-])cc4)c4nc(c(-c5ccc(S(=O)(=O)[O-])cc5)c5ccc2[nH]5)C=C4)C=C3)cc1)C(=O)c1cc(C)c(C)s1
REMARK SMILES IDX 10 1 9 2 8 3 6 4 7 5 5 7 4 8 3 9 2 10 1 11 76 12 77 13 78 14
REMARK SMILES IDX 79 15 84 16 80 17 82 18 81 19 83 20 11 21 12 22 13 23 14 24
REMARK SMILES IDX 15 26 16 27 17 28 75 29 18 30 74 31 19 32 20 33 21 34 68 35
REMARK SMILES IDX 22 36 73 37 67 38 69 39 23 40 72 41 66 42 65 43 24 45 54 46
REMARK SMILES IDX 35 47 53 48 36 49 39 50 52 51 70 52 37 53 38 54 51 56 71 57
REMARK SMILES IDX 40 58 25 59 26 60 34 61 27 62 33 63 28 64 29 65 30 66 31 67
REMARK SMILES IDX 32 68 55 69 56 70 64 71 57 72 63 73 58 74 59 75 60 76 61 77
REMARK SMILES IDX 62 78 41 79 42 80 50 81 43 82 49 83 44 84 45 85 46 86 47 87
REMARK SMILES IDX 48 88
REMARK H PARENT 8 6 13 25 69 44 39 55
REMARK Flexibility Score: inf
ROOT
ATOM      1  C   UNL     1      -4.902  -1.595  -0.430  1.00  0.00     0.023 C 
ENDROOT
BRANCH   1   2
ATOM      2  C   UNL     1      -5.195  -0.113  -0.208  1.00  0.00     0.116 C 
BRANCH   2   3
ATOM      3  N   UNL     1      -5.464   0.233   1.171  1.00  0.00    -0.355 N 
ATOM      4  C   UNL     1      -4.649   0.754   2.132  1.00  0.00     0.239 C 
ATOM      5  O   UNL     1      -5.207   1.269   3.108  1.00  0.00    -0.273 OA
ATOM      6  H   UNL     1      -6.389   0.065   1.464  1.00  0.00     0.163 HD
BRANCH   4   7
ATOM      7  C   UNL     1      -3.119   0.856   1.982  1.00  0.00     0.220 C 
BRANCH   7   8
ATOM      8  N   UNL     1      -2.427  -0.270   1.353  1.00  0.00    -0.318 N 
BRANCH   8   9
ATOM      9  C   UNL     1      -1.885  -0.077   0.017  1.00  0.00     0.210 C 
BRANCH   9  10
ATOM     10  C   UNL     1      -0.365  -0.077   0.017  1.00  0.00    -0.085 C 
ATOM     11  C   UNL     1       0.939  -0.077   0.017  1.00  0.00     0.006 C 
ENDBRANCH   9  10
ENDBRANCH   8   9
BRANCH   8  12
ATOM     12  C   UNL     1      -2.170  -1.495   1.992  1.00  0.00     0.265 C 
ATOM     13  O   UNL     1      -1.625  -2.417   1.379  1.00  0.00    -0.268 OA
BRANCH  12  14
ATOM     14  C   UNL     1      -2.552  -1.643   3.384  1.00  0.00     0.093 A 
ATOM     15  C   UNL     1      -3.803  -1.693   3.962  1.00  0.00     0.029 A 
ATOM     16  S   UNL     1      -1.323  -1.877   4.548  1.00  0.00    -0.135 S 
ATOM     17  C   UNL     1      -3.756  -1.828   5.389  1.00  0.00    -0.037 A 
ATOM     18  C   UNL     1      -2.451  -1.981   5.830  1.00  0.00     0.005 A 
ATOM     19  C   UNL     1      -4.966  -1.830   6.266  1.00  0.00     0.045 C 
ATOM     20  C   UNL     1      -1.972  -2.214   7.224  1.00  0.00     0.056 C 
ENDBRANCH  12  14
ENDBRANCH   8  12
ENDBRANCH   7   8
ENDBRANCH   4   7
ENDBRANCH   2   3
ENDBRANCH   1   2
BRANCH   1  21
ATOM     21  C   UNL     1      -6.084  -2.547  -0.264  1.00  0.00     0.023 C 
BRANCH  21  22
ATOM     22  C   UNL     1      -7.309  -2.233  -1.112  1.00  0.00     0.116 C 
BRANCH  22  23
ATOM     23  N   UNL     1      -7.022  -2.094  -2.530  1.00  0.00    -0.352 N 
ATOM     24  C   UNL     1      -7.834  -2.379  -3.601  1.00  0.00     0.251 C 
ATOM     25  H   UNL     1      -6.127  -1.749  -2.753  1.00  0.00     0.163 HD
ATOM     26  O   UNL     1      -7.402  -2.261  -4.745  1.00  0.00    -0.269 OA
BRANCH  24  27
ATOM     27  C   UNL     1      -9.208  -2.874  -3.370  1.00  0.00     0.039 A 
ATOM     28  C   UNL     1      -9.638  -4.005  -4.069  1.00  0.00     0.014 A 
ATOM     29  C   UNL     1     -10.057  -2.252  -2.450  1.00  0.00     0.014 A 
ATOM     30  C   UNL     1     -10.890  -4.557  -3.792  1.00  0.00     0.010 A 
ATOM     31  C   UNL     1     -11.279  -2.837  -2.131  1.00  0.00     0.010 A 
ATOM     32  C   UNL     1     -11.704  -3.998  -2.794  1.00  0.00    -0.014 A 
BRANCH  32  33
ATOM     33  C   UNL     1     -13.001  -4.613  -2.423  1.00  0.00     0.031 A 
ATOM     34  C   UNL     1     -14.285  -3.880  -2.694  1.00  0.00     0.074 A 
ATOM     35  C   UNL     1     -13.020  -5.799  -1.784  1.00  0.00     0.049 A 
ATOM     36  N   UNL     1     -15.507  -4.207  -2.360  1.00  0.00    -0.248 NA
ATOM     37  C   UNL     1     -14.179  -2.601  -3.416  1.00  0.00     0.031 C 
ATOM     38  C   UNL     1     -11.841  -6.596  -1.436  1.00  0.00     0.029 A 
ATOM     39  N   UNL     1     -14.072  -6.538  -1.306  1.00  0.00    -0.354 N 
ATOM     40  C   UNL     1     -16.312  -3.170  -2.814  1.00  0.00     0.074 A 
ATOM     41  C   UNL     1     -15.437  -2.186  -3.415  1.00  0.00     0.031 C 
ATOM     42  C   UNL     1     -12.238  -7.723  -0.821  1.00  0.00     0.029 A 
ATOM     43  C   UNL     1     -13.693  -7.712  -0.701  1.00  0.00     0.049 A 
ATOM     44  H   UNL     1     -15.011  -6.253  -1.389  1.00  0.00     0.167 HD
ATOM     45  C   UNL     1     -17.660  -3.053  -2.753  1.00  0.00     0.031 A 
ATOM     46  C   UNL     1     -14.433  -8.671  -0.113  1.00  0.00     0.031 A 
ATOM     47  C   UNL     1     -18.533  -4.036  -2.171  1.00  0.00     0.049 A 
ATOM     48  C   UNL     1     -15.928  -8.522  -0.064  1.00  0.00     0.074 A 
ATOM     49  C   UNL     1     -19.914  -4.016  -2.078  1.00  0.00     0.029 A 
ATOM     50  N   UNL     1     -18.110  -5.223  -1.593  1.00  0.00    -0.354 N 
ATOM     51  N   UNL     1     -16.672  -7.541  -0.516  1.00  0.00    -0.248 NA
ATOM     52  C   UNL     1     -16.682  -9.614   0.567  1.00  0.00     0.031 C 
ATOM     53  C   UNL     1     -20.325  -5.185  -1.426  1.00  0.00     0.029 A 
ATOM     54  C   UNL     1     -19.201  -5.944  -1.142  1.00  0.00     0.049 A 
ATOM     55  H   UNL     1     -17.171  -5.509  -1.514  1.00  0.00     0.167 HD
ATOM     56  C   UNL     1     -17.984  -7.909  -0.245  1.00  0.00     0.074 A 
ATOM     57  C   UNL     1     -17.933  -9.205   0.402  1.00  0.00     0.031 C 
ATOM     58  C   UNL     1     -19.130  -7.235  -0.509  1.00  0.00     0.031 A 
BRANCH  45  59
ATOM     59  C   UNL     1     -18.267  -1.808  -3.338  1.00  0.00    -0.014 A 
ATOM     60  C   UNL     1     -18.343  -1.634  -4.731  1.00  0.00     0.010 A 
ATOM     61  C   UNL     1     -18.778  -0.810  -2.490  1.00  0.00     0.010 A 
ATOM     62  C   UNL     1     -18.880  -0.462  -5.268  1.00  0.00     0.020 A 
ATOM     63  C   UNL     1     -19.336   0.355  -3.024  1.00  0.00     0.020 A 
ATOM     64  C   UNL     1     -19.364   0.530  -4.410  1.00  0.00     0.054 A 
BRANCH  64  65
ATOM     65  S   UNL     1     -20.062   2.043  -5.128  1.00  0.00     0.124 S 
ATOM     66  O   UNL     1     -18.856   2.795  -5.469  1.00  0.00    -0.237 OA
ATOM     67  O   UNL     1     -20.830   1.541  -6.264  1.00  0.00    -0.237 OA
ATOM     68  O   UNL     1     -20.860   2.604  -4.040  1.00  0.00    -0.744 OA
ENDBRANCH  64  65
ENDBRANCH  45  59
BRANCH  46  69
ATOM     69  C   UNL     1     -13.774  -9.873   0.460  1.00  0.00    -0.014 A 
ATOM     70  C   UNL     1     -13.852 -11.107  -0.209  1.00  0.00     0.010 A 
ATOM     71  C   UNL     1     -13.070  -9.792   1.674  1.00  0.00     0.010 A 
ATOM     72  C   UNL     1     -13.256 -12.247   0.338  1.00  0.00     0.020 A 
ATOM     73  C   UNL     1     -12.456 -10.926   2.213  1.00  0.00     0.020 A 
ATOM     74  C   UNL     1     -12.565 -12.150   1.549  1.00  0.00     0.054 A 
BRANCH  74  75
ATOM     75  S   UNL     1     -11.763 -13.629   2.227  1.00  0.00     0.124 S 
ATOM     76  O   UNL     1     -12.881 -14.310   2.871  1.00  0.00    -0.237 OA
ATOM     77  O   UNL     1     -11.227 -14.280   1.033  1.00  0.00    -0.237 OA
ATOM     78  O   UNL     1     -10.755 -13.080   3.132  1.00  0.00    -0.744 OA
ENDBRANCH  74  75
ENDBRANCH  46  69
BRANCH  58  79
ATOM     79  C   UNL     1     -20.421  -7.904  -0.134  1.00  0.00    -0.014 A 
ATOM     80  C   UNL     1     -20.861  -7.932   1.200  1.00  0.00     0.010 A 
ATOM     81  C   UNL     1     -21.226  -8.470  -1.139  1.00  0.00     0.010 A 
ATOM     82  C   UNL     1     -22.076  -8.540   1.528  1.00  0.00     0.020 A 
ATOM     83  C   UNL     1     -22.449  -9.062  -0.817  1.00  0.00     0.020 A 
ATOM     84  C   UNL     1     -22.860  -9.104   0.517  1.00  0.00     0.054 A 
BRANCH  84  85
ATOM     85  S   UNL     1     -24.457  -9.848   0.954  1.00  0.00     0.124 S 
ATOM     86  O   UNL     1     -24.053 -11.157   1.460  1.00  0.00    -0.237 OA
ATOM     87  O   UNL     1     -24.983  -8.923   1.955  1.00  0.00    -0.237 OA
ATOM     88  O   UNL     1     -25.186  -9.864  -0.312  1.00  0.00    -0.744 OA
ENDBRANCH  84  85
ENDBRANCH  58  79
ENDBRANCH  32  33
ENDBRANCH  24  27
ENDBRANCH  22  23
ENDBRANCH  21  22
ENDBRANCH   1  21
TORSDOF 19
