REMARK SMILES NC(=O)c1ccc(Oc2cccc(C(=O)NCCCCNC(=O)c3ccc(-c4c5nc(c(-c6ccc(S(=O)(=O)[O-])cc6)c6ccc([nH]6)c(-c6ccc(S(=O)(=O)[O-])cc6)c6nc(c(-c7ccc(S(=O)(=O)[O-])cc7)c7ccc4[nH]7)C=C6)C=C5)cc3)c2)nc1
REMARK SMILES IDX 18 1 17 2 16 3 14 4 15 5 13 7 9 8 10 9 84 10 11 11 12 12
REMARK SMILES IDX 8 13 7 14 4 15 5 16 86 17 6 18 85 19 2 20 1 21 3 24 19 25
REMARK SMILES IDX 20 26 21 27 22 28 23 30 24 31 25 32 83 33 26 34 82 35 27 36
REMARK SMILES IDX 28 37 29 38 76 39 30 40 81 41 75 42 77 43 31 44 80 45 74 46
REMARK SMILES IDX 73 47 32 49 62 50 43 51 61 52 44 53 47 54 60 55 78 56 45 57
REMARK SMILES IDX 46 58 59 60 79 61 48 62 33 63 34 64 42 65 35 66 41 67 36 68
REMARK SMILES IDX 37 69 38 70 39 71 40 72 63 73 64 74 72 75 65 76 71 77 66 78
REMARK SMILES IDX 67 79 68 80 69 81 70 82 49 83 50 84 58 85 51 86 57 87 52 88
REMARK SMILES IDX 53 89 54 90 55 91 56 92
REMARK H PARENT 16 6 1 22 1 23 21 29 77 48 47 59
REMARK Flexibility Score: inf
ROOT
ATOM      1  C   UNL     1       1.119   7.731  -1.204  1.00  0.00     0.023 C 
ENDROOT
BRANCH   1   2
ATOM      2  C   UNL     1       2.260   6.834  -1.689  1.00  0.00     0.116 C 
BRANCH   2   3
ATOM      3  N   UNL     1       3.445   7.624  -1.961  1.00  0.00    -0.352 N 
ATOM      4  C   UNL     1       4.547   7.954  -1.215  1.00  0.00     0.251 C 
ATOM      5  O   UNL     1       5.388   8.678  -1.749  1.00  0.00    -0.269 OA
ATOM      6  H   UNL     1       3.462   8.003  -2.869  1.00  0.00     0.163 HD
BRANCH   4   7
ATOM      7  C   UNL     1       4.822   7.428   0.155  1.00  0.00     0.043 A 
ATOM      8  C   UNL     1       4.271   6.211   2.173  1.00  0.00     0.130 A 
ATOM      9  C   UNL     1       5.593   6.265   2.604  1.00  0.00     0.047 A 
ATOM     10  C   UNL     1       3.870   6.877   1.010  1.00  0.00     0.061 A 
ATOM     11  C   UNL     1       6.538   6.918   1.820  1.00  0.00     0.005 A 
ATOM     12  C   UNL     1       6.159   7.468   0.592  1.00  0.00     0.014 A 
BRANCH   8  13
ATOM     13  O   UNL     1       3.374   5.489   2.923  1.00  0.00    -0.439 OA
BRANCH  13  14
ATOM     14  C   UNL     1       2.698   4.454   2.300  1.00  0.00     0.219 A 
ATOM     15  C   UNL     1       1.228   2.359   1.258  1.00  0.00     0.058 A 
ATOM     16  C   UNL     1       2.418   2.732   0.636  1.00  0.00     0.021 A 
ATOM     17  C   UNL     1       0.831   3.084   2.373  1.00  0.00     0.129 A 
ATOM     18  C   UNL     1       3.172   3.778   1.174  1.00  0.00     0.070 A 
ATOM     19  N   UNL     1       1.541   4.112   2.908  1.00  0.00    -0.221 NA
BRANCH  15  20
ATOM     20  C   UNL     1       0.376   1.240   0.797  1.00  0.00     0.250 C 
ATOM     21  N   UNL     1       0.965   0.262   0.043  1.00  0.00    -0.366 N 
ATOM     22  H   UNL     1       0.430  -0.499  -0.281  1.00  0.00     0.159 HD
ATOM     23  H   UNL     1       1.923   0.318  -0.175  1.00  0.00     0.159 HD
ATOM     24  O   UNL     1      -0.801   1.168   1.110  1.00  0.00    -0.269 OA
ENDBRANCH  15  20
ENDBRANCH  13  14
ENDBRANCH   8  13
ENDBRANCH   4   7
ENDBRANCH   2   3
ENDBRANCH   1   2
BRANCH   1  25
ATOM     25  C   UNL     1       0.364   8.428  -2.339  1.00  0.00     0.023 C 
BRANCH  25  26
ATOM     26  C   UNL     1      -0.337   7.487  -3.315  1.00  0.00     0.116 C 
BRANCH  26  27
ATOM     27  N   UNL     1      -1.276   6.580  -2.669  1.00  0.00    -0.352 N 
ATOM     28  C   UNL     1      -2.482   6.128  -3.151  1.00  0.00     0.251 C 
ATOM     29  H   UNL     1      -1.015   6.249  -1.779  1.00  0.00     0.163 HD
ATOM     30  O   UNL     1      -3.223   5.446  -2.452  1.00  0.00    -0.269 OA
BRANCH  28  31
ATOM     31  C   UNL     1      -2.885   6.520  -4.514  1.00  0.00     0.039 A 
ATOM     32  C   UNL     1      -4.095   7.191  -4.694  1.00  0.00     0.014 A 
ATOM     33  C   UNL     1      -2.013   6.314  -5.587  1.00  0.00     0.014 A 
ATOM     34  C   UNL     1      -4.394   7.738  -5.942  1.00  0.00     0.010 A 
ATOM     35  C   UNL     1      -2.282   6.919  -6.809  1.00  0.00     0.010 A 
ATOM     36  C   UNL     1      -3.466   7.651  -6.993  1.00  0.00    -0.014 A 
BRANCH  36  37
ATOM     37  C   UNL     1      -3.686   8.351  -8.283  1.00  0.00     0.031 A 
ATOM     38  C   UNL     1      -3.816   7.560  -9.555  1.00  0.00     0.074 A 
ATOM     39  C   UNL     1      -3.673   9.699  -8.318  1.00  0.00     0.049 A 
ATOM     40  N   UNL     1      -3.907   7.991 -10.786  1.00  0.00    -0.248 NA
ATOM     41  C   UNL     1      -3.818   6.093  -9.429  1.00  0.00     0.031 C 
ATOM     42  C   UNL     1      -3.521  10.578  -7.155  1.00  0.00     0.029 A 
ATOM     43  N   UNL     1      -3.776  10.569  -9.375  1.00  0.00    -0.354 N 
ATOM     44  C   UNL     1      -3.953   6.853 -11.582  1.00  0.00     0.074 A 
ATOM     45  C   UNL     1      -3.840   5.713 -10.698  1.00  0.00     0.031 C 
ATOM     46  C   UNL     1      -3.567  11.857  -7.560  1.00  0.00     0.029 A 
ATOM     47  C   UNL     1      -3.697  11.893  -9.012  1.00  0.00     0.049 A 
ATOM     48  H   UNL     1      -3.895  10.272 -10.306  1.00  0.00     0.167 HD
ATOM     49  C   UNL     1      -4.088   6.766 -12.926  1.00  0.00     0.031 A 
ATOM     50  C   UNL     1      -3.712  13.011  -9.764  1.00  0.00     0.031 A 
ATOM     51  C   UNL     1      -4.214   7.905 -13.796  1.00  0.00     0.049 A 
ATOM     52  C   UNL     1      -3.833  12.884 -11.259  1.00  0.00     0.074 A 
ATOM     53  C   UNL     1      -4.430   7.919 -15.163  1.00  0.00     0.029 A 
ATOM     54  N   UNL     1      -4.128   9.228 -13.390  1.00  0.00    -0.354 N 
ATOM     55  N   UNL     1      -3.954  11.799 -11.987  1.00  0.00    -0.248 NA
ATOM     56  C   UNL     1      -3.820  14.133 -12.035  1.00  0.00     0.031 C 
ATOM     57  C   UNL     1      -4.408   9.249 -15.594  1.00  0.00     0.029 A 
ATOM     58  C   UNL     1      -4.245  10.066 -14.486  1.00  0.00     0.049 A 
ATOM     59  H   UNL     1      -4.001   9.527 -12.461  1.00  0.00     0.167 HD
ATOM     60  C   UNL     1      -4.058  12.237 -13.303  1.00  0.00     0.074 A 
ATOM     61  C   UNL     1      -4.003  13.684 -13.269  1.00  0.00     0.031 C 
ATOM     62  C   UNL     1      -4.188  11.505 -14.437  1.00  0.00     0.031 A 
BRANCH  49  63
ATOM     63  C   UNL     1      -4.092   5.394 -13.544  1.00  0.00    -0.014 A 
ATOM     64  C   UNL     1      -5.172   4.512 -13.360  1.00  0.00     0.010 A 
ATOM     65  C   UNL     1      -3.022   5.002 -14.370  1.00  0.00     0.010 A 
ATOM     66  C   UNL     1      -5.166   3.251 -13.961  1.00  0.00     0.020 A 
ATOM     67  C   UNL     1      -3.026   3.753 -14.997  1.00  0.00     0.020 A 
ATOM     68  C   UNL     1      -4.092   2.879 -14.777  1.00  0.00     0.054 A 
BRANCH  68  69
ATOM     69  S   UNL     1      -4.129   1.250 -15.573  1.00  0.00     0.124 S 
ATOM     70  O   UNL     1      -3.902   0.356 -14.440  1.00  0.00    -0.237 OA
ATOM     71  O   UNL     1      -5.471   1.207 -16.148  1.00  0.00    -0.237 OA
ATOM     72  O   UNL     1      -3.039   1.313 -16.544  1.00  0.00    -0.744 OA
ENDBRANCH  68  69
ENDBRANCH  49  63
BRANCH  50  73
ATOM     73  C   UNL     1      -3.611  14.351  -9.121  1.00  0.00    -0.014 A 
ATOM     74  C   UNL     1      -4.711  15.227  -9.126  1.00  0.00     0.010 A 
ATOM     75  C   UNL     1      -2.415  14.762  -8.505  1.00  0.00     0.010 A 
ATOM     76  C   UNL     1      -4.610  16.496  -8.550  1.00  0.00     0.020 A 
ATOM     77  C   UNL     1      -2.319  16.019  -7.900  1.00  0.00     0.020 A 
ATOM     78  C   UNL     1      -3.414  16.884  -7.939  1.00  0.00     0.054 A 
BRANCH  78  79
ATOM     79  S   UNL     1      -3.319  18.522  -7.165  1.00  0.00     0.124 S 
ATOM     80  O   UNL     1      -3.276  19.404  -8.326  1.00  0.00    -0.237 OA
ATOM     81  O   UNL     1      -4.549  18.570  -6.378  1.00  0.00    -0.237 OA
ATOM     82  O   UNL     1      -2.088  18.458  -6.380  1.00  0.00    -0.744 OA
ENDBRANCH  78  79
ENDBRANCH  50  73
BRANCH  62  83
ATOM     83  C   UNL     1      -4.306  12.253 -15.738  1.00  0.00    -0.014 A 
ATOM     84  C   UNL     1      -3.198  12.906 -16.306  1.00  0.00     0.010 A 
ATOM     85  C   UNL     1      -5.528  12.241 -16.437  1.00  0.00     0.010 A 
ATOM     86  C   UNL     1      -3.315  13.551 -17.540  1.00  0.00     0.020 A 
ATOM     87  C   UNL     1      -5.640  12.858 -17.685  1.00  0.00     0.020 A 
ATOM     88  C   UNL     1      -4.535  13.519 -18.224  1.00  0.00     0.054 A 
BRANCH  88  89
ATOM     89  S   UNL     1      -4.641  14.310 -19.852  1.00  0.00     0.124 S 
ATOM     90  O   UNL     1      -4.609  15.728 -19.505  1.00  0.00    -0.237 OA
ATOM     91  O   UNL     1      -3.451  13.803 -20.532  1.00  0.00    -0.237 OA
ATOM     92  O   UNL     1      -5.911  13.828 -20.390  1.00  0.00    -0.744 OA
ENDBRANCH  88  89
ENDBRANCH  62  83
ENDBRANCH  36  37
ENDBRANCH  28  31
ENDBRANCH  26  27
ENDBRANCH  25  26
ENDBRANCH   1  25
TORSDOF 17
