REMARK SMILES C[C@H](C(=O)NCCCCNC(=O)c1ccc(-c2c3nc(c(-c4ccc(S(=O)(=O)[O-])cc4)c4ccc([nH]4)c(-c4ccc(S(=O)(=O)[O-])cc4)c4nc(c(-c5ccc(S(=O)(=O)[O-])cc5)c5ccc2[nH]5)C=C4)C=C3)cc1)[C@H](C)[N@@H+]1CC[C@H]([NH+]2CCCCC2)C1
REMARK SMILES IDX 7 1 6 2 5 3 3 4 4 5 2 7 1 8 73 9 74 10 75 11 76 12 85 13
REMARK SMILES IDX 77 15 78 16 79 17 80 18 84 19 81 21 83 22 82 23 8 24 9 25
REMARK SMILES IDX 10 26 11 27 12 29 13 30 14 31 72 32 15 33 71 34 16 35 17 36
REMARK SMILES IDX 18 37 65 38 19 39 70 40 64 41 66 42 20 43 69 44 63 45 62 46
REMARK SMILES IDX 21 48 51 49 32 50 50 51 33 52 36 53 49 54 67 55 34 56 35 57
REMARK SMILES IDX 48 59 68 60 37 61 22 62 23 63 31 64 24 65 30 66 25 67 26 68
REMARK SMILES IDX 27 69 28 70 29 71 52 72 53 73 61 74 54 75 60 76 55 77 56 78
REMARK SMILES IDX 57 79 58 80 59 81 38 82 39 83 47 84 40 85 46 86 41 87 42 88
REMARK SMILES IDX 43 89 44 90 45 91
REMARK H PARENT 5 6 75 14 79 20 10 28 66 47 36 58
REMARK Flexibility Score: inf
ROOT
ATOM      1  C   UNL     1      -4.161   1.453  -0.444  1.00  0.00     0.023 C 
ENDROOT
BRANCH   1   2
ATOM      2  C   UNL     1      -4.139   0.009   0.055  1.00  0.00     0.116 C 
BRANCH   2   3
ATOM      3  N   UNL     1      -3.126  -0.788  -0.611  1.00  0.00    -0.356 N 
ATOM      4  C   UNL     1      -1.983  -1.337  -0.102  1.00  0.00     0.228 C 
ATOM      5  O   UNL     1      -1.295  -2.035  -0.848  1.00  0.00    -0.275 OA
ATOM      6  H   UNL     1      -3.285  -0.957  -1.568  1.00  0.00     0.163 HD
BRANCH   4   7
ATOM      7  C   UNL     1      -1.576  -1.031   1.340  1.00  0.00     0.133 C 
ATOM      8  C   UNL     1      -0.741  -2.179   1.918  1.00  0.00     0.024 C 
BRANCH   7   9
ATOM      9  C   UNL     1      -0.863   0.355   1.385  1.00  0.00     0.193 C 
ATOM     10  C   UNL     1       0.598   0.221   0.926  1.00  0.00     0.076 C 
BRANCH   9  11
ATOM     11  N   UNL     1      -1.125   0.973   2.720  1.00  0.00    -0.327 N 
ATOM     12  C   UNL     1      -2.107   2.074   2.613  1.00  0.00     0.269 C 
ATOM     13  C   UNL     1       0.003   1.598   3.442  1.00  0.00     0.328 C 
ATOM     14  H   UNL     1      -1.426   0.150   3.241  1.00  0.00     0.348 HD
ATOM     15  C   UNL     1      -1.269   3.301   2.290  1.00  0.00     0.132 C 
ATOM     16  C   UNL     1      -0.093   3.140   3.254  1.00  0.00     0.245 C 
BRANCH  16  17
ATOM     17  N   UNL     1       1.149   3.887   2.968  1.00  0.00    -0.328 N 
ATOM     18  C   UNL     1       1.912   3.362   1.831  1.00  0.00     0.262 C 
ATOM     19  C   UNL     1       0.893   5.328   2.808  1.00  0.00     0.262 C 
ATOM     20  H   UNL     1       1.738   3.751   3.790  1.00  0.00     0.348 HD
ATOM     21  C   UNL     1       3.233   4.098   1.621  1.00  0.00     0.062 C 
ATOM     22  C   UNL     1       2.194   6.117   2.642  1.00  0.00     0.062 C 
ATOM     23  C   UNL     1       3.012   5.593   1.468  1.00  0.00     0.012 C 
ENDBRANCH  16  17
ENDBRANCH   9  11
ENDBRANCH   7   9
ENDBRANCH   4   7
ENDBRANCH   2   3
ENDBRANCH   1   2
BRANCH   1  24
ATOM     24  C   UNL     1      -4.688   1.639  -1.863  1.00  0.00     0.023 C 
BRANCH  24  25
ATOM     25  C   UNL     1      -6.072   1.057  -2.119  1.00  0.00     0.116 C 
BRANCH  25  26
ATOM     26  N   UNL     1      -7.089   1.564  -1.208  1.00  0.00    -0.352 N 
ATOM     27  C   UNL     1      -8.368   1.978  -1.494  1.00  0.00     0.251 C 
ATOM     28  H   UNL     1      -6.825   1.616  -0.261  1.00  0.00     0.163 HD
ATOM     29  O   UNL     1      -9.062   2.487  -0.619  1.00  0.00    -0.269 OA
BRANCH  27  30
ATOM     30  C   UNL     1      -8.880   1.841  -2.873  1.00  0.00     0.039 A 
ATOM     31  C   UNL     1      -9.492   2.940  -3.481  1.00  0.00     0.014 A 
ATOM     32  C   UNL     1      -8.707   0.648  -3.579  1.00  0.00     0.014 A 
ATOM     33  C   UNL     1      -9.859   2.866  -4.825  1.00  0.00     0.010 A 
ATOM     34  C   UNL     1      -8.997   0.605  -4.938  1.00  0.00     0.010 A 
ATOM     35  C   UNL     1      -9.577   1.712  -5.575  1.00  0.00    -0.014 A 
BRANCH  35  36
ATOM     36  C   UNL     1      -9.877   1.638  -7.027  1.00  0.00     0.031 A 
ATOM     37  C   UNL     1     -10.865   0.626  -7.539  1.00  0.00     0.074 A 
ATOM     38  C   UNL     1      -9.206   2.426  -7.890  1.00  0.00     0.049 A 
ATOM     39  N   UNL     1     -11.206   0.358  -8.773  1.00  0.00    -0.248 NA
ATOM     40  C   UNL     1     -11.536  -0.215  -6.534  1.00  0.00     0.031 C 
ATOM     41  C   UNL     1      -8.187   3.414  -7.524  1.00  0.00     0.029 A 
ATOM     42  N   UNL     1      -9.274   2.514  -9.258  1.00  0.00    -0.354 N 
ATOM     43  C   UNL     1     -12.109  -0.695  -8.695  1.00  0.00     0.074 A 
ATOM     44  C   UNL     1     -12.225  -1.050  -7.297  1.00  0.00     0.031 C 
ATOM     45  C   UNL     1      -7.749   4.027  -8.635  1.00  0.00     0.029 A 
ATOM     46  C   UNL     1      -8.423   3.451  -9.795  1.00  0.00     0.049 A 
ATOM     47  H   UNL     1      -9.875   1.957  -9.804  1.00  0.00     0.167 HD
ATOM     48  C   UNL     1     -12.798  -1.299  -9.692  1.00  0.00     0.031 A 
ATOM     49  C   UNL     1      -8.206   3.806 -11.076  1.00  0.00     0.031 A 
ATOM     50  C   UNL     1     -12.694  -0.933 -11.079  1.00  0.00     0.049 A 
ATOM     51  C   UNL     1      -8.986   3.126 -12.167  1.00  0.00     0.074 A 
ATOM     52  C   UNL     1     -13.395  -1.441 -12.158  1.00  0.00     0.029 A 
ATOM     53  N   UNL     1     -11.835   0.035 -11.578  1.00  0.00    -0.354 N 
ATOM     54  N   UNL     1      -9.886   2.177 -12.067  1.00  0.00    -0.248 NA
ATOM     55  C   UNL     1      -8.730   3.574 -13.543  1.00  0.00     0.031 C 
ATOM     56  C   UNL     1     -12.928  -0.811 -13.317  1.00  0.00     0.029 A 
ATOM     57  C   UNL     1     -11.973   0.125 -12.953  1.00  0.00     0.049 A 
ATOM     58  H   UNL     1     -11.218   0.577 -11.035  1.00  0.00     0.167 HD
ATOM     59  C   UNL     1     -10.321   1.930 -13.364  1.00  0.00     0.074 A 
ATOM     60  C   UNL     1      -9.596   2.838 -14.229  1.00  0.00     0.031 C 
ATOM     61  C   UNL     1     -11.241   1.033 -13.799  1.00  0.00     0.031 A 
BRANCH  48  62
ATOM     62  C   UNL     1     -13.720  -2.426  -9.309  1.00  0.00    -0.014 A 
ATOM     63  C   UNL     1     -14.902  -2.182  -8.585  1.00  0.00     0.010 A 
ATOM     64  C   UNL     1     -13.409  -3.745  -9.686  1.00  0.00     0.010 A 
ATOM     65  C   UNL     1     -15.727  -3.241  -8.199  1.00  0.00     0.020 A 
ATOM     66  C   UNL     1     -14.247  -4.804  -9.326  1.00  0.00     0.020 A 
ATOM     67  C   UNL     1     -15.389  -4.547  -8.566  1.00  0.00     0.054 A 
BRANCH  67  68
ATOM     68  S   UNL     1     -16.478  -5.904  -8.052  1.00  0.00     0.124 S 
ATOM     69  O   UNL     1     -16.155  -6.026  -6.632  1.00  0.00    -0.237 OA
ATOM     70  O   UNL     1     -17.808  -5.380  -8.350  1.00  0.00    -0.237 OA
ATOM     71  O   UNL     1     -16.052  -7.025  -8.886  1.00  0.00    -0.744 OA
ENDBRANCH  67  68
ENDBRANCH  48  62
BRANCH  49  72
ATOM     72  C   UNL     1      -7.225   4.880 -11.391  1.00  0.00    -0.014 A 
ATOM     73  C   UNL     1      -7.670   6.147 -11.807  1.00  0.00     0.010 A 
ATOM     74  C   UNL     1      -5.845   4.651 -11.248  1.00  0.00     0.010 A 
ATOM     75  C   UNL     1      -6.752   7.163 -12.085  1.00  0.00     0.020 A 
ATOM     76  C   UNL     1      -4.925   5.673 -11.501  1.00  0.00     0.020 A 
ATOM     77  C   UNL     1      -5.384   6.921 -11.926  1.00  0.00     0.054 A 
BRANCH  77  78
ATOM     78  S   UNL     1      -4.215   8.276 -12.226  1.00  0.00     0.124 S 
ATOM     79  O   UNL     1      -4.209   8.355 -13.683  1.00  0.00    -0.237 OA
ATOM     80  O   UNL     1      -4.845   9.397 -11.533  1.00  0.00    -0.237 OA
ATOM     81  O   UNL     1      -2.975   7.797 -11.618  1.00  0.00    -0.744 OA
ENDBRANCH  77  78
ENDBRANCH  49  72
BRANCH  61  82
ATOM     82  C   UNL     1     -11.538   1.008 -15.274  1.00  0.00    -0.014 A 
ATOM     83  C   UNL     1     -10.624   0.461 -16.191  1.00  0.00     0.010 A 
ATOM     84  C   UNL     1     -12.776   1.487 -15.739  1.00  0.00     0.010 A 
ATOM     85  C   UNL     1     -10.932   0.419 -17.553  1.00  0.00     0.020 A 
ATOM     86  C   UNL     1     -13.098   1.424 -17.097  1.00  0.00     0.020 A 
ATOM     87  C   UNL     1     -12.168   0.902 -17.998  1.00  0.00     0.054 A 
BRANCH  87  88
ATOM     88  S   UNL     1     -12.564   0.794 -19.764  1.00  0.00     0.124 S 
ATOM     89  O   UNL     1     -11.753   1.871 -20.324  1.00  0.00    -0.237 OA
ATOM     90  O   UNL     1     -12.135  -0.560 -20.108  1.00  0.00    -0.237 OA
ATOM     91  O   UNL     1     -14.008   1.013 -19.809  1.00  0.00    -0.744 OA
ENDBRANCH  87  88
ENDBRANCH  61  82
ENDBRANCH  35  36
ENDBRANCH  27  30
ENDBRANCH  25  26
ENDBRANCH  24  25
ENDBRANCH   1  24
TORSDOF 17
