REMARK SMILES COc1cccc(CSc2nc3ccccc3c(=O)n2CCC(=O)NCCCCNC(=O)c2ccc(-c3c4nc(c(-c5ccc(S(=O)(=O)[O-])cc5)c5ccc([nH]5)c(-c5ccc(S(=O)(=O)[O-])cc5)c5nc(c(-c6ccc(S(=O)(=O)[O-])cc6)c6ccc3[nH]6)C=C5)C=C4)cc2)c1
REMARK SMILES IDX 26 1 25 2 23 3 24 4 22 6 21 7 20 8 10 9 11 10 12 11 18 12
REMARK SMILES IDX 13 13 17 14 19 15 14 16 16 17 15 18 9 19 8 20 7 21 3 22 4 23
REMARK SMILES IDX 93 24 5 25 6 26 2 27 1 28 27 29 28 30 29 31 30 32 31 33
REMARK SMILES IDX 32 35 33 36 34 37 92 38 35 39 91 40 36 41 37 42 38 43 85 44
REMARK SMILES IDX 39 45 90 46 84 47 86 48 40 49 89 50 83 51 82 52 41 54 71 55
REMARK SMILES IDX 52 56 70 57 53 58 56 59 69 60 87 61 54 62 55 63 68 65 88 66
REMARK SMILES IDX 57 67 42 68 43 69 51 70 44 71 50 72 45 73 46 74 47 75 48 76
REMARK SMILES IDX 49 77 72 78 73 79 81 80 74 81 80 82 75 83 76 84 77 85 78 86
REMARK SMILES IDX 79 87 58 88 59 89 67 90 60 91 66 92 61 93 62 94 63 95 64 96
REMARK SMILES IDX 65 97
REMARK H PARENT 25 5 30 34 86 53 56 64
REMARK Flexibility Score: inf
ROOT
ATOM      1  C   UNL     1       7.640   2.114  -4.010  1.00  0.00     0.116 C 
ENDROOT
BRANCH   1   2
ATOM      2  N   UNL     1       7.120   2.386  -2.678  1.00  0.00    -0.356 N 
ATOM      3  C   UNL     1       6.065   1.797  -2.042  1.00  0.00     0.221 C 
ATOM      4  O   UNL     1       5.723   2.220  -0.937  1.00  0.00    -0.275 OA
ATOM      5  H   UNL     1       7.590   3.086  -2.169  1.00  0.00     0.163 HD
BRANCH   3   6
ATOM      6  C   UNL     1       5.328   0.636  -2.692  1.00  0.00     0.122 C 
BRANCH   6   7
ATOM      7  C   UNL     1       3.809   0.881  -2.671  1.00  0.00     0.138 C 
BRANCH   7   8
ATOM      8  N   UNL     1       3.237   0.987  -4.015  1.00  0.00    -0.287 N 
ATOM      9  C   UNL     1       3.291   2.095  -4.844  1.00  0.00     0.171 A 
ATOM     10  N   UNL     1       3.427   1.966  -6.131  1.00  0.00    -0.224 NA
ATOM     11  C   UNL     1       3.508   0.684  -6.684  1.00  0.00     0.079 A 
ATOM     12  C   UNL     1       2.805  -0.232  -4.549  1.00  0.00     0.262 A 
ATOM     13  C   UNL     1       4.067   0.491  -7.950  1.00  0.00     0.029 A 
ATOM     14  C   UNL     1       3.060  -0.427  -5.984  1.00  0.00     0.066 A 
ATOM     15  O   UNL     1       2.343  -1.158  -3.886  1.00  0.00    -0.269 OA
ATOM     16  C   UNL     1       4.135  -0.791  -8.508  1.00  0.00     0.002 A 
ATOM     17  C   UNL     1       3.055  -1.704  -6.555  1.00  0.00     0.016 A 
ATOM     18  C   UNL     1       3.597  -1.883  -7.826  1.00  0.00     0.001 A 
BRANCH   9  19
ATOM     19  S   UNL     1       3.327   3.773  -4.339  1.00  0.00    -0.083 SA
BRANCH  19  20
ATOM     20  C   UNL     1       2.788   4.049  -2.657  1.00  0.00     0.113 C 
BRANCH  20  21
ATOM     21  C   UNL     1       1.393   3.588  -2.346  1.00  0.00    -0.034 A 
ATOM     22  C   UNL     1      -0.112   2.081  -1.172  1.00  0.00     0.119 A 
ATOM     23  C   UNL     1      -1.187   2.631  -1.869  1.00  0.00     0.046 A 
ATOM     24  C   UNL     1       1.164   2.602  -1.373  1.00  0.00     0.051 A 
ATOM     25  C   UNL     1      -0.988   3.674  -2.774  1.00  0.00     0.004 A 
ATOM     26  C   UNL     1       0.298   4.144  -3.019  1.00  0.00     0.005 A 
BRANCH  22  27
ATOM     27  O   UNL     1      -0.422   1.049  -0.329  1.00  0.00    -0.497 OA
ATOM     28  C   UNL     1       0.672   0.270   0.146  1.00  0.00     0.278 C 
ENDBRANCH  22  27
ENDBRANCH  20  21
ENDBRANCH  19  20
ENDBRANCH   9  19
ENDBRANCH   7   8
ENDBRANCH   6   7
ENDBRANCH   3   6
ENDBRANCH   1   2
BRANCH   1  29
ATOM     29  C   UNL     1       6.615   2.490  -5.067  1.00  0.00     0.023 C 
BRANCH  29  30
ATOM     30  C   UNL     1       6.817   3.818  -5.784  1.00  0.00     0.023 C 
BRANCH  30  31
ATOM     31  C   UNL     1       7.753   3.710  -6.971  1.00  0.00     0.116 C 
BRANCH  31  32
ATOM     32  N   UNL     1       7.349   2.701  -7.947  1.00  0.00    -0.352 N 
ATOM     33  C   UNL     1       7.762   2.536  -9.250  1.00  0.00     0.251 C 
ATOM     34  H   UNL     1       6.687   2.046  -7.627  1.00  0.00     0.163 HD
ATOM     35  O   UNL     1       7.309   1.630  -9.934  1.00  0.00    -0.269 OA
BRANCH  33  36
ATOM     36  C   UNL     1       8.665   3.552  -9.831  1.00  0.00     0.039 A 
ATOM     37  C   UNL     1       8.307   4.136 -11.048  1.00  0.00     0.014 A 
ATOM     38  C   UNL     1       9.738   4.050  -9.096  1.00  0.00     0.014 A 
ATOM     39  C   UNL     1       8.941   5.309 -11.455  1.00  0.00     0.010 A 
ATOM     40  C   UNL     1      10.265   5.286  -9.428  1.00  0.00     0.010 A 
ATOM     41  C   UNL     1       9.864   5.937 -10.605  1.00  0.00    -0.014 A 
BRANCH  41  42
ATOM     42  C   UNL     1      10.429   7.276 -10.904  1.00  0.00     0.031 A 
ATOM     43  C   UNL     1      11.923   7.449 -10.954  1.00  0.00     0.074 A 
ATOM     44  C   UNL     1       9.613   8.345 -11.004  1.00  0.00     0.049 A 
ATOM     45  N   UNL     1      12.626   8.549 -10.998  1.00  0.00    -0.248 NA
ATOM     46  C   UNL     1      12.734   6.221 -10.875  1.00  0.00     0.031 C 
ATOM     47  C   UNL     1       8.150   8.321 -10.897  1.00  0.00     0.029 A 
ATOM     48  N   UNL     1       9.901   9.671 -11.212  1.00  0.00    -0.354 N 
ATOM     49  C   UNL     1      13.952   8.148 -10.885  1.00  0.00     0.074 A 
ATOM     50  C   UNL     1      13.951   6.713 -10.715  1.00  0.00     0.031 C 
ATOM     51  C   UNL     1       7.670   9.561 -11.087  1.00  0.00     0.029 A 
ATOM     52  C   UNL     1       8.787  10.476 -11.283  1.00  0.00     0.049 A 
ATOM     53  H   UNL     1      10.819  10.014 -11.301  1.00  0.00     0.167 HD
ATOM     54  C   UNL     1      15.073   8.904 -10.948  1.00  0.00     0.031 A 
ATOM     55  C   UNL     1       8.683  11.803 -11.485  1.00  0.00     0.031 A 
ATOM     56  C   UNL     1      15.064  10.317 -11.203  1.00  0.00     0.049 A 
ATOM     57  C   UNL     1       9.942  12.607 -11.663  1.00  0.00     0.074 A 
ATOM     58  C   UNL     1      16.139  11.171 -11.371  1.00  0.00     0.029 A 
ATOM     59  N   UNL     1      13.915  11.076 -11.363  1.00  0.00    -0.354 N 
ATOM     60  N   UNL     1      11.189  12.206 -11.593  1.00  0.00    -0.248 NA
ATOM     61  C   UNL     1       9.781  14.036 -11.961  1.00  0.00     0.031 C 
ATOM     62  C   UNL     1      15.637  12.452 -11.623  1.00  0.00     0.029 A 
ATOM     63  C   UNL     1      14.252  12.387 -11.642  1.00  0.00     0.049 A 
ATOM     64  H   UNL     1      12.995  10.733 -11.288  1.00  0.00     0.167 HD
ATOM     65  C   UNL     1      11.962  13.328 -11.864  1.00  0.00     0.074 A 
ATOM     66  C   UNL     1      11.042  14.420 -12.111  1.00  0.00     0.031 C 
ATOM     67  C   UNL     1      13.312  13.446 -11.904  1.00  0.00     0.031 A 
BRANCH  54  68
ATOM     68  C   UNL     1      16.389   8.199 -10.755  1.00  0.00    -0.014 A 
ATOM     69  C   UNL     1      16.875   7.296 -11.718  1.00  0.00     0.010 A 
ATOM     70  C   UNL     1      17.140   8.426  -9.588  1.00  0.00     0.010 A 
ATOM     71  C   UNL     1      18.052   6.581 -11.488  1.00  0.00     0.020 A 
ATOM     72  C   UNL     1      18.337   7.736  -9.369  1.00  0.00     0.020 A 
ATOM     73  C   UNL     1      18.770   6.798 -10.308  1.00  0.00     0.054 A 
BRANCH  73  74
ATOM     74  S   UNL     1      20.289   5.849 -10.025  1.00  0.00     0.124 S 
ATOM     75  O   UNL     1      19.758   4.557  -9.596  1.00  0.00    -0.237 OA
ATOM     76  O   UNL     1      20.927   5.859 -11.339  1.00  0.00    -0.237 OA
ATOM     77  O   UNL     1      20.985   6.612  -8.992  1.00  0.00    -0.744 OA
ENDBRANCH  73  74
ENDBRANCH  54  68
BRANCH  55  78
ATOM     78  C   UNL     1       7.344  12.444 -11.582  1.00  0.00    -0.014 A 
ATOM     79  C   UNL     1       6.850  12.859 -12.832  1.00  0.00     0.010 A 
ATOM     80  C   UNL     1       6.549  12.632 -10.437  1.00  0.00     0.010 A 
ATOM     81  C   UNL     1       5.598  13.472 -12.934  1.00  0.00     0.020 A 
ATOM     82  C   UNL     1       5.285  13.225 -10.539  1.00  0.00     0.020 A 
ATOM     83  C   UNL     1       4.823  13.653 -11.785  1.00  0.00     0.054 A 
BRANCH  83  84
ATOM     84  S   UNL     1       3.182  14.412 -11.946  1.00  0.00     0.124 S 
ATOM     85  O   UNL     1       3.516  15.823 -12.112  1.00  0.00    -0.237 OA
ATOM     86  O   UNL     1       2.639  13.747 -13.128  1.00  0.00    -0.237 OA
ATOM     87  O   UNL     1       2.523  14.066 -10.689  1.00  0.00    -0.744 OA
ENDBRANCH  83  84
ENDBRANCH  55  78
BRANCH  67  88
ATOM     88  C   UNL     1      13.875  14.788 -12.273  1.00  0.00    -0.014 A 
ATOM     89  C   UNL     1      13.903  15.841 -11.344  1.00  0.00     0.010 A 
ATOM     90  C   UNL     1      14.455  14.967 -13.542  1.00  0.00     0.010 A 
ATOM     91  C   UNL     1      14.491  17.061 -11.684  1.00  0.00     0.020 A 
ATOM     92  C   UNL     1      15.061  16.178 -13.878  1.00  0.00     0.020 A 
ATOM     93  C   UNL     1      15.067  17.221 -12.949  1.00  0.00     0.054 A 
BRANCH  93  94
ATOM     94  S   UNL     1      15.885  18.791 -13.345  1.00  0.00     0.124 S 
ATOM     95  O   UNL     1      14.748  19.663 -13.623  1.00  0.00    -0.237 OA
ATOM     96  O   UNL     1      16.622  19.089 -12.119  1.00  0.00    -0.237 OA
ATOM     97  O   UNL     1      16.718  18.463 -14.500  1.00  0.00    -0.744 OA
ENDBRANCH  93  94
ENDBRANCH  67  88
ENDBRANCH  41  42
ENDBRANCH  33  36
ENDBRANCH  31  32
ENDBRANCH  30  31
ENDBRANCH  29  30
ENDBRANCH   1  29
TORSDOF 20
