REMARK SMILES C[C@@H](NC(=O)[C@@H]1CC[C@@H]2CCCC[C@@H]2[NH2+]1)C(=O)NCCCCNC(=O)c1ccc(-c2c3nc(c(-c4ccc(S(=O)(=O)[O-])cc4)c4ccc([nH]4)c(-c4ccc(S(=O)(=O)[O-])cc4)c4nc(c(-c5ccc(S(=O)(=O)[O-])cc5)c5ccc2[nH]5)C=C4)C=C3)cc1
REMARK SMILES IDX 21 1 20 2 19 3 18 4 16 5 17 6 2 8 1 9 3 10 4 11 5 13 6 14
REMARK SMILES IDX 7 15 15 16 8 17 14 18 9 21 13 22 10 23 12 24 11 25 22 26
REMARK SMILES IDX 23 27 24 28 25 30 26 31 27 32 85 33 28 34 84 35 29 36 30 37
REMARK SMILES IDX 31 38 78 39 32 40 83 41 77 42 79 43 33 44 82 45 76 46 75 47
REMARK SMILES IDX 34 49 64 50 45 51 63 52 46 53 49 54 62 55 80 56 47 57 48 58
REMARK SMILES IDX 61 60 81 61 50 62 35 63 36 64 44 65 37 66 43 67 38 68 39 69
REMARK SMILES IDX 40 70 41 71 42 72 65 73 66 74 74 75 67 76 73 77 68 78 69 79
REMARK SMILES IDX 70 80 71 81 72 82 51 83 52 84 60 85 53 86 59 87 54 88 55 89
REMARK SMILES IDX 56 90 57 91 58 92
REMARK H PARENT 18 7 3 12 15 19 15 20 23 29 79 48 49 59
REMARK Flexibility Score: inf
ROOT
ATOM      1  C   UNL     1      -2.982  -1.158  -3.142  1.00  0.00     0.023 C 
ENDROOT
BRANCH   1   2
ATOM      2  C   UNL     1      -1.474  -1.247  -2.905  1.00  0.00     0.023 C 
BRANCH   2   3
ATOM      3  C   UNL     1      -0.910  -0.050  -2.157  1.00  0.00     0.116 C 
BRANCH   3   4
ATOM      4  N   UNL     1      -1.397  -0.036  -0.794  1.00  0.00    -0.354 N 
ATOM      5  C   UNL     1      -0.778   0.418   0.322  1.00  0.00     0.242 C 
ATOM      6  O   UNL     1      -1.325   0.243   1.413  1.00  0.00    -0.273 OA
ATOM      7  H   UNL     1      -2.299  -0.406  -0.660  1.00  0.00     0.163 HD
BRANCH   5   8
ATOM      8  C   UNL     1       0.596   1.084   0.250  1.00  0.00     0.168 C 
ATOM      9  C   UNL     1       1.669  -0.005   0.176  1.00  0.00     0.041 C 
BRANCH   8  10
ATOM     10  N   UNL     1       0.766   2.070  -0.822  1.00  0.00    -0.339 N 
ATOM     11  C   UNL     1       0.085   3.229  -1.083  1.00  0.00     0.278 C 
ATOM     12  H   UNL     1       1.489   1.865  -1.458  1.00  0.00     0.164 HD
ATOM     13  O   UNL     1       0.707   4.062  -1.752  1.00  0.00    -0.268 OA
BRANCH  11  14
ATOM     14  C   UNL     1      -1.416   3.424  -0.726  1.00  0.00     0.272 C 
ATOM     15  C   UNL     1      -1.973   4.755  -1.270  1.00  0.00     0.076 C 
ATOM     16  N   UNL     1      -1.754   3.298   0.694  1.00  0.00    -0.333 N 
ATOM     17  C   UNL     1      -1.552   5.961  -0.428  1.00  0.00     0.016 C 
ATOM     18  C   UNL     1      -1.371   4.393   1.570  1.00  0.00     0.186 C 
ATOM     19  H   UNL     1      -1.302   2.453   1.043  1.00  0.00     0.347 HD
ATOM     20  H   UNL     1      -2.774   3.287   0.720  1.00  0.00     0.347 HD
ATOM     21  C   UNL     1      -1.887   5.736   1.051  1.00  0.00     0.048 C 
ATOM     22  C   UNL     1       0.106   4.367   1.994  1.00  0.00     0.065 C 
ATOM     23  C   UNL     1      -1.378   6.843   1.971  1.00  0.00     0.010 C 
ATOM     24  C   UNL     1       0.904   5.660   1.879  1.00  0.00     0.006 C 
ATOM     25  C   UNL     1       0.137   6.975   1.958  1.00  0.00     0.001 C 
ENDBRANCH  11  14
ENDBRANCH   8  10
ENDBRANCH   5   8
ENDBRANCH   3   4
ENDBRANCH   2   3
ENDBRANCH   1   2
BRANCH   1  26
ATOM     26  C   UNL     1      -3.420   0.096  -3.889  1.00  0.00     0.116 C 
BRANCH  26  27
ATOM     27  N   UNL     1      -2.768   0.203  -5.188  1.00  0.00    -0.352 N 
ATOM     28  C   UNL     1      -3.324   0.080  -6.436  1.00  0.00     0.251 C 
ATOM     29  H   UNL     1      -1.801   0.389  -5.167  1.00  0.00     0.163 HD
ATOM     30  O   UNL     1      -2.608  -0.079  -7.422  1.00  0.00    -0.269 OA
BRANCH  28  31
ATOM     31  C   UNL     1      -4.791   0.126  -6.570  1.00  0.00     0.039 A 
ATOM     32  C   UNL     1      -5.442  -0.849  -7.327  1.00  0.00     0.014 A 
ATOM     33  C   UNL     1      -5.519   1.118  -5.907  1.00  0.00     0.014 A 
ATOM     34  C   UNL     1      -6.837  -0.863  -7.365  1.00  0.00     0.010 A 
ATOM     35  C   UNL     1      -6.906   1.047  -5.874  1.00  0.00     0.010 A 
ATOM     36  C   UNL     1      -7.580   0.061  -6.610  1.00  0.00    -0.014 A 
BRANCH  36  37
ATOM     37  C   UNL     1      -9.063   0.016  -6.579  1.00  0.00     0.031 A 
ATOM     38  C   UNL     1      -9.861   1.183  -7.096  1.00  0.00     0.074 A 
ATOM     39  C   UNL     1      -9.687  -1.045  -6.032  1.00  0.00     0.049 A 
ATOM     40  N   UNL     1     -11.158   1.351  -7.109  1.00  0.00    -0.248 NA
ATOM     41  C   UNL     1      -9.103   2.318  -7.648  1.00  0.00     0.031 C 
ATOM     42  C   UNL     1      -9.022  -2.217  -5.455  1.00  0.00     0.029 A 
ATOM     43  N   UNL     1     -11.024  -1.310  -5.867  1.00  0.00    -0.354 N 
ATOM     44  C   UNL     1     -11.370   2.611  -7.656  1.00  0.00     0.074 A 
ATOM     45  C   UNL     1     -10.068   3.188  -7.907  1.00  0.00     0.031 C 
ATOM     46  C   UNL     1      -9.953  -3.085  -5.028  1.00  0.00     0.029 A 
ATOM     47  C   UNL     1     -11.277  -2.516  -5.256  1.00  0.00     0.049 A 
ATOM     48  H   UNL     1     -11.735  -0.694  -6.157  1.00  0.00     0.167 HD
ATOM     49  C   UNL     1     -12.541   3.224  -7.948  1.00  0.00     0.031 A 
ATOM     50  C   UNL     1     -12.443  -3.095  -4.910  1.00  0.00     0.031 A 
ATOM     51  C   UNL     1     -13.834   2.643  -7.699  1.00  0.00     0.049 A 
ATOM     52  C   UNL     1     -13.732  -2.386  -5.225  1.00  0.00     0.074 A 
ATOM     53  C   UNL     1     -15.081   3.162  -8.000  1.00  0.00     0.029 A 
ATOM     54  N   UNL     1     -14.048   1.418  -7.085  1.00  0.00    -0.354 N 
ATOM     55  N   UNL     1     -13.913  -1.224  -5.806  1.00  0.00    -0.248 NA
ATOM     56  C   UNL     1     -14.976  -3.073  -4.849  1.00  0.00     0.031 C 
ATOM     57  C   UNL     1     -16.049   2.277  -7.515  1.00  0.00     0.029 A 
ATOM     58  C   UNL     1     -15.406   1.175  -6.975  1.00  0.00     0.049 A 
ATOM     59  H   UNL     1     -13.338   0.811  -6.774  1.00  0.00     0.167 HD
ATOM     60  C   UNL     1     -15.290  -1.054  -5.892  1.00  0.00     0.074 A 
ATOM     61  C   UNL     1     -15.894  -2.240  -5.319  1.00  0.00     0.031 C 
ATOM     62  C   UNL     1     -15.992  -0.011  -6.401  1.00  0.00     0.031 A 
BRANCH  49  63
ATOM     63  C   UNL     1     -12.475   4.596  -8.567  1.00  0.00    -0.014 A 
ATOM     64  C   UNL     1     -11.986   4.781  -9.874  1.00  0.00     0.010 A 
ATOM     65  C   UNL     1     -12.943   5.712  -7.849  1.00  0.00     0.010 A 
ATOM     66  C   UNL     1     -11.927   6.060 -10.434  1.00  0.00     0.020 A 
ATOM     67  C   UNL     1     -12.916   6.988  -8.418  1.00  0.00     0.020 A 
ATOM     68  C   UNL     1     -12.392   7.156  -9.702  1.00  0.00     0.054 A 
BRANCH  68  69
ATOM     69  S   UNL     1     -12.326   8.799 -10.466  1.00  0.00     0.124 S 
ATOM     70  O   UNL     1     -10.891   9.075 -10.463  1.00  0.00    -0.237 OA
ATOM     71  O   UNL     1     -12.918   8.564 -11.780  1.00  0.00    -0.237 OA
ATOM     72  O   UNL     1     -13.121   9.633  -9.567  1.00  0.00    -0.744 OA
ENDBRANCH  68  69
ENDBRANCH  49  63
BRANCH  50  73
ATOM     73  C   UNL     1     -12.442  -4.422  -4.232  1.00  0.00    -0.014 A 
ATOM     74  C   UNL     1     -12.917  -5.567  -4.895  1.00  0.00     0.010 A 
ATOM     75  C   UNL     1     -11.952  -4.548  -2.919  1.00  0.00     0.010 A 
ATOM     76  C   UNL     1     -12.922  -6.808  -4.251  1.00  0.00     0.020 A 
ATOM     77  C   UNL     1     -11.926  -5.792  -2.283  1.00  0.00     0.020 A 
ATOM     78  C   UNL     1     -12.423  -6.913  -2.950  1.00  0.00     0.054 A 
BRANCH  78  79
ATOM     79  S   UNL     1     -12.393  -8.543  -2.152  1.00  0.00     0.124 S 
ATOM     80  O   UNL     1     -13.809  -8.774  -1.882  1.00  0.00    -0.237 OA
ATOM     81  O   UNL     1     -11.798  -9.387  -3.185  1.00  0.00    -0.237 OA
ATOM     82  O   UNL     1     -11.556  -8.331  -0.973  1.00  0.00    -0.744 OA
ENDBRANCH  78  79
ENDBRANCH  50  73
BRANCH  62  83
ATOM     83  C   UNL     1     -17.495  -0.116  -6.397  1.00  0.00    -0.014 A 
ATOM     84  C   UNL     1     -18.232  -0.037  -5.202  1.00  0.00     0.010 A 
ATOM     85  C   UNL     1     -18.182  -0.239  -7.619  1.00  0.00     0.010 A 
ATOM     86  C   UNL     1     -19.628  -0.113  -5.228  1.00  0.00     0.020 A 
ATOM     87  C   UNL     1     -19.578  -0.281  -7.651  1.00  0.00     0.020 A 
ATOM     88  C   UNL     1     -20.291  -0.232  -6.453  1.00  0.00     0.054 A 
BRANCH  88  89
ATOM     89  S   UNL     1     -22.104  -0.282  -6.461  1.00  0.00     0.124 S 
ATOM     90  O   UNL     1     -22.375  -1.609  -5.914  1.00  0.00    -0.237 OA
ATOM     91  O   UNL     1     -22.459   0.839  -5.594  1.00  0.00    -0.237 OA
ATOM     92  O   UNL     1     -22.450  -0.107  -7.870  1.00  0.00    -0.744 OA
ENDBRANCH  88  89
ENDBRANCH  62  83
ENDBRANCH  36  37
ENDBRANCH  28  31
ENDBRANCH  26  27
ENDBRANCH   1  26
TORSDOF 16
