REMARK SMILES O=C(COc1nc(-c2cccnc2)nc2c1CCCC2)NCCCCNC(=O)c1ccc(-c2c3nc(c(-c4ccc(S(=O)(=O)[O-])cc4)c4ccc([nH]4)c(-c4ccc(S(=O)(=O)[O-])cc4)c4nc(c(-c5ccc(S(=O)(=O)[O-])cc5)c5ccc2[nH]5)C=C4)C=C3)cc1
REMARK SMILES IDX 23 1 22 2 21 3 1 4 2 5 3 7 4 8 5 9 6 10 16 11 7 12 15 13
REMARK SMILES IDX 17 14 14 15 20 16 18 17 19 18 8 19 9 20 13 21 10 22 12 23
REMARK SMILES IDX 11 24 24 25 25 26 26 27 27 28 28 30 29 31 30 32 88 33 31 34
REMARK SMILES IDX 87 35 32 36 33 37 34 38 81 39 35 40 86 41 80 42 82 43 36 44
REMARK SMILES IDX 85 45 79 46 78 47 37 49 67 50 48 51 66 52 49 53 52 54 65 55
REMARK SMILES IDX 83 56 50 57 51 58 64 60 84 61 53 62 38 63 39 64 47 65 40 66
REMARK SMILES IDX 46 67 41 68 42 69 43 70 44 71 45 72 68 73 69 74 77 75 70 76
REMARK SMILES IDX 76 77 71 78 72 79 73 80 74 81 75 82 54 83 55 84 63 85 56 86
REMARK SMILES IDX 62 87 57 88 58 89 59 90 60 91 61 92
REMARK H PARENT 21 6 26 29 82 48 52 59
REMARK Flexibility Score: inf
ROOT
ATOM      1  C   UNL     1       2.359   1.549   3.021  1.00  0.00     0.023 C 
ENDROOT
BRANCH   1   2
ATOM      2  C   UNL     1       1.966   1.833   1.573  1.00  0.00     0.116 C 
BRANCH   2   3
ATOM      3  N   UNL     1       2.638   0.972   0.625  1.00  0.00    -0.353 N 
ATOM      4  O   UNL     1       0.926  -0.550   0.416  1.00  0.00    -0.271 OA
ATOM      5  C   UNL     1       2.030  -0.134   0.070  1.00  0.00     0.258 C 
ATOM      6  H   UNL     1       3.564   1.183   0.367  1.00  0.00     0.163 HD
BRANCH   5   7
ATOM      7  C   UNL     1       2.884  -0.874  -0.968  1.00  0.00     0.331 C 
BRANCH   7   8
ATOM      8  O   UNL     1       3.816  -0.106  -1.724  1.00  0.00    -0.467 OA
BRANCH   8   9
ATOM      9  C   UNL     1       3.178   0.524  -2.769  1.00  0.00     0.220 A 
ATOM     10  N   UNL     1       2.264   1.446  -2.433  1.00  0.00    -0.193 NA
ATOM     11  C   UNL     1       3.567   0.240  -4.064  1.00  0.00     0.036 A 
ATOM     12  C   UNL     1       1.660   2.068  -3.455  1.00  0.00     0.164 A 
ATOM     13  C   UNL     1       2.906   0.966  -5.043  1.00  0.00     0.051 A 
ATOM     14  C   UNL     1       4.660  -0.735  -4.383  1.00  0.00     0.043 C 
ATOM     15  N   UNL     1       1.927   1.850  -4.755  1.00  0.00    -0.232 NA
ATOM     16  C   UNL     1       3.214   0.775  -6.505  1.00  0.00     0.057 C 
ATOM     17  C   UNL     1       4.694  -1.135  -5.860  1.00  0.00     0.005 C 
ATOM     18  C   UNL     1       4.558   0.094  -6.751  1.00  0.00     0.007 C 
BRANCH  12  19
ATOM     19  C   UNL     1       0.654   3.072  -3.135  1.00  0.00     0.038 A 
ATOM     20  C   UNL     1       0.885   4.088  -2.198  1.00  0.00     0.015 A 
ATOM     21  C   UNL     1      -0.593   3.073  -3.756  1.00  0.00     0.123 A 
ATOM     22  C   UNL     1      -0.101   5.038  -1.934  1.00  0.00     0.021 A 
ATOM     23  N   UNL     1      -1.581   3.973  -3.512  1.00  0.00    -0.264 NA
ATOM     24  C   UNL     1      -1.307   4.935  -2.607  1.00  0.00     0.111 A 
ENDBRANCH  12  19
ENDBRANCH   8   9
ENDBRANCH   7   8
ENDBRANCH   5   7
ENDBRANCH   2   3
ENDBRANCH   1   2
BRANCH   1  25
ATOM     25  C   UNL     1       3.850   1.702   3.334  1.00  0.00     0.023 C 
BRANCH  25  26
ATOM     26  C   UNL     1       4.479   3.036   2.942  1.00  0.00     0.116 C 
BRANCH  26  27
ATOM     27  N   UNL     1       3.881   4.173   3.623  1.00  0.00    -0.352 N 
ATOM     28  C   UNL     1       4.483   5.187   4.328  1.00  0.00     0.251 C 
ATOM     29  H   UNL     1       2.899   4.224   3.571  1.00  0.00     0.163 HD
ATOM     30  O   UNL     1       3.791   6.000   4.936  1.00  0.00    -0.269 OA
BRANCH  28  31
ATOM     31  C   UNL     1       5.960   5.287   4.386  1.00  0.00     0.039 A 
ATOM     32  C   UNL     1       6.569   5.516   5.623  1.00  0.00     0.014 A 
ATOM     33  C   UNL     1       6.742   5.163   3.235  1.00  0.00     0.014 A 
ATOM     34  C   UNL     1       7.963   5.550   5.717  1.00  0.00     0.010 A 
ATOM     35  C   UNL     1       8.133   5.134   3.339  1.00  0.00     0.010 A 
ATOM     36  C   UNL     1       8.758   5.324   4.581  1.00  0.00    -0.014 A 
BRANCH  36  37
ATOM     37  C   UNL     1      10.240   5.279   4.676  1.00  0.00     0.031 A 
ATOM     38  C   UNL     1      11.077   6.331   4.002  1.00  0.00     0.074 A 
ATOM     39  C   UNL     1      10.838   4.266   5.335  1.00  0.00     0.049 A 
ATOM     40  N   UNL     1      12.380   6.432   3.940  1.00  0.00    -0.248 NA
ATOM     41  C   UNL     1      10.356   7.398   3.290  1.00  0.00     0.031 C 
ATOM     42  C   UNL     1      10.142   3.171   6.015  1.00  0.00     0.029 A 
ATOM     43  N   UNL     1      12.167   3.994   5.542  1.00  0.00    -0.354 N 
ATOM     44  C   UNL     1      12.636   7.568   3.181  1.00  0.00     0.074 A 
ATOM     45  C   UNL     1      11.354   8.092   2.761  1.00  0.00     0.031 C 
ATOM     46  C   UNL     1      11.049   2.367   6.593  1.00  0.00     0.029 A 
ATOM     47  C   UNL     1      12.389   2.864   6.293  1.00  0.00     0.049 A 
ATOM     48  H   UNL     1      12.894   4.555   5.187  1.00  0.00     0.167 HD
ATOM     49  C   UNL     1      13.827   8.137   2.878  1.00  0.00     0.031 A 
ATOM     50  C   UNL     1      13.539   2.290   6.698  1.00  0.00     0.031 A 
ATOM     51  C   UNL     1      15.102   7.620   3.296  1.00  0.00     0.049 A 
ATOM     52  C   UNL     1      14.851   2.918   6.319  1.00  0.00     0.074 A 
ATOM     53  C   UNL     1      16.362   8.145   3.064  1.00  0.00     0.029 A 
ATOM     54  N   UNL     1      15.283   6.459   4.033  1.00  0.00    -0.354 N 
ATOM     55  N   UNL     1      15.070   4.010   5.627  1.00  0.00    -0.248 NA
ATOM     56  C   UNL     1      16.071   2.238   6.778  1.00  0.00     0.031 C 
ATOM     57  C   UNL     1      17.307   7.278   3.623  1.00  0.00     0.029 A 
ATOM     58  C   UNL     1      16.633   6.239   4.247  1.00  0.00     0.049 A 
ATOM     59  H   UNL     1      14.558   5.877   4.357  1.00  0.00     0.167 HD
ATOM     60  C   UNL     1      16.452   4.159   5.582  1.00  0.00     0.074 A 
ATOM     61  C   UNL     1      17.017   3.052   6.327  1.00  0.00     0.031 C 
ATOM     62  C   UNL     1      17.184   5.127   4.979  1.00  0.00     0.031 A 
BRANCH  49  63
ATOM     63  C   UNL     1      13.800   9.393   2.049  1.00  0.00    -0.014 A 
ATOM     64  C   UNL     1      13.340  10.606   2.593  1.00  0.00     0.010 A 
ATOM     65  C   UNL     1      14.261   9.370   0.720  1.00  0.00     0.010 A 
ATOM     66  C   UNL     1      13.299  11.763   1.811  1.00  0.00     0.020 A 
ATOM     67  C   UNL     1      14.245  10.531  -0.058  1.00  0.00     0.020 A 
ATOM     68  C   UNL     1      13.746  11.716   0.487  1.00  0.00     0.054 A 
BRANCH  68  69
ATOM     69  S   UNL     1      13.685  13.234  -0.503  1.00  0.00     0.124 S 
ATOM     70  O   UNL     1      12.252  13.373  -0.750  1.00  0.00    -0.237 OA
ATOM     71  O   UNL     1      14.266  14.228   0.396  1.00  0.00    -0.237 OA
ATOM     72  O   UNL     1      14.491  12.915  -1.679  1.00  0.00    -0.744 OA
ENDBRANCH  68  69
ENDBRANCH  49  63
BRANCH  50  73
ATOM     73  C   UNL     1      13.492   1.062   7.537  1.00  0.00    -0.014 A 
ATOM     74  C   UNL     1      13.791   1.133   8.909  1.00  0.00     0.010 A 
ATOM     75  C   UNL     1      13.106  -0.171   6.982  1.00  0.00     0.010 A 
ATOM     76  C   UNL     1      13.702  -0.007   9.712  1.00  0.00     0.020 A 
ATOM     77  C   UNL     1      12.995  -1.309   7.787  1.00  0.00     0.020 A 
ATOM     78  C   UNL     1      13.297  -1.220   9.147  1.00  0.00     0.054 A 
BRANCH  78  79
ATOM     79  S   UNL     1      13.110  -2.666  10.227  1.00  0.00     0.124 S 
ATOM     80  O   UNL     1      14.498  -3.008  10.521  1.00  0.00    -0.237 OA
ATOM     81  O   UNL     1      12.339  -2.126  11.345  1.00  0.00    -0.237 OA
ATOM     82  O   UNL     1      12.391  -3.626   9.392  1.00  0.00    -0.744 OA
ENDBRANCH  78  79
ENDBRANCH  50  73
BRANCH  62  83
ATOM     83  C   UNL     1      18.681   5.045   5.102  1.00  0.00    -0.014 A 
ATOM     84  C   UNL     1      19.417   4.106   4.358  1.00  0.00     0.010 A 
ATOM     85  C   UNL     1      19.366   5.970   5.912  1.00  0.00     0.010 A 
ATOM     86  C   UNL     1      20.812   4.082   4.434  1.00  0.00     0.020 A 
ATOM     87  C   UNL     1      20.762   5.963   5.973  1.00  0.00     0.020 A 
ATOM     88  C   UNL     1      21.476   5.013   5.239  1.00  0.00     0.054 A 
BRANCH  88  89
ATOM     89  S   UNL     1      23.290   5.000   5.271  1.00  0.00     0.124 S 
ATOM     90  O   UNL     1      23.572   3.799   6.053  1.00  0.00    -0.237 OA
ATOM     91  O   UNL     1      23.634   4.922   3.853  1.00  0.00    -0.237 OA
ATOM     92  O   UNL     1      23.635   6.262   5.921  1.00  0.00    -0.744 OA
ENDBRANCH  88  89
ENDBRANCH  62  83
ENDBRANCH  36  37
ENDBRANCH  28  31
ENDBRANCH  26  27
ENDBRANCH  25  26
ENDBRANCH   1  25
TORSDOF 17
