REMARK SMILES O=C(NCCCCNC(=O)[C@@H]1CN(c2nccc(N3CCC(O)CC3)n2)CC[NH2+]1)c1ccc(-c2c3nc(c(-c4ccc(S(=O)(=O)[O-])cc4)c4ccc([nH]4)c(-c4ccc(S(=O)(=O)[O-])cc4)c4nc(c(-c5ccc(S(=O)(=O)[O-])cc5)c5ccc2[nH]5)C=C4)C=C3)cc1
REMARK SMILES IDX 5 1 4 2 3 3 1 4 2 5 30 7 31 8 89 9 32 10 88 11 33 12 34 13
REMARK SMILES IDX 35 14 82 15 36 16 87 17 81 18 83 19 37 20 86 21 80 22 79 23
REMARK SMILES IDX 38 25 68 26 49 27 67 28 50 29 53 30 66 31 84 32 51 33 52 34
REMARK SMILES IDX 65 36 85 37 54 38 39 39 40 40 48 41 41 42 47 43 42 44 43 45
REMARK SMILES IDX 44 46 45 47 46 48 69 49 70 50 78 51 71 52 77 53 72 54 73 55
REMARK SMILES IDX 74 56 75 57 76 58 55 59 56 60 64 61 57 62 63 63 58 64 59 65
REMARK SMILES IDX 60 66 61 67 62 68 6 69 7 70 8 71 9 72 10 74 11 75 12 76
REMARK SMILES IDX 29 77 13 78 28 79 27 82 14 83 15 84 26 85 16 86 18 87 17 88
REMARK SMILES IDX 19 89 20 90 25 91 21 92 24 93 22 94 23 95
REMARK H PARENT 3 6 83 24 53 35 8 73 29 80 29 81 23 96
REMARK Flexibility Score: inf
ROOT
ATOM      1  C   UNL     1       4.877   2.780   0.368  1.00  0.00     0.023 C 
ENDROOT
BRANCH   1   2
ATOM      2  C   UNL     1       4.498   1.308   0.214  1.00  0.00     0.116 C 
BRANCH   2   3
ATOM      3  N   UNL     1       3.073   1.060   0.366  1.00  0.00    -0.352 N 
ATOM      4  O   UNL     1       1.110   0.035  -0.079  1.00  0.00    -0.269 OA
ATOM      5  C   UNL     1       2.330   0.058  -0.211  1.00  0.00     0.251 C 
ATOM      6  H   UNL     1       2.583   1.682   0.951  1.00  0.00     0.163 HD
BRANCH   5   7
ATOM      7  C   UNL     1       3.019  -0.970  -1.016  1.00  0.00     0.039 A 
ATOM      8  C   UNL     1       4.118  -1.657  -0.492  1.00  0.00     0.014 A 
ATOM      9  C   UNL     1       2.563  -1.240  -2.309  1.00  0.00     0.014 A 
ATOM     10  C   UNL     1       4.819  -2.548  -1.296  1.00  0.00     0.010 A 
ATOM     11  C   UNL     1       3.234  -2.180  -3.094  1.00  0.00     0.010 A 
ATOM     12  C   UNL     1       4.372  -2.833  -2.596  1.00  0.00    -0.014 A 
BRANCH  12  13
ATOM     13  C   UNL     1       5.032  -3.909  -3.374  1.00  0.00     0.031 A 
ATOM     14  C   UNL     1       5.818  -3.607  -4.617  1.00  0.00     0.074 A 
ATOM     15  C   UNL     1       4.893  -5.177  -2.939  1.00  0.00     0.049 A 
ATOM     16  N   UNL     1       6.432  -4.441  -5.416  1.00  0.00    -0.248 NA
ATOM     17  C   UNL     1       5.930  -2.196  -5.021  1.00  0.00     0.031 C 
ATOM     18  C   UNL     1       4.131  -5.581  -1.752  1.00  0.00     0.029 A 
ATOM     19  N   UNL     1       5.379  -6.357  -3.437  1.00  0.00    -0.354 N 
ATOM     20  C   UNL     1       6.982  -3.666  -6.429  1.00  0.00     0.074 A 
ATOM     21  C   UNL     1       6.626  -2.291  -6.148  1.00  0.00     0.031 C 
ATOM     22  C   UNL     1       4.218  -6.911  -1.605  1.00  0.00     0.029 A 
ATOM     23  C   UNL     1       4.987  -7.459  -2.714  1.00  0.00     0.049 A 
ATOM     24  H   UNL     1       5.954  -6.410  -4.234  1.00  0.00     0.167 HD
ATOM     25  C   UNL     1       7.713  -4.071  -7.495  1.00  0.00     0.031 A 
ATOM     26  C   UNL     1       5.191  -8.770  -2.936  1.00  0.00     0.031 A 
ATOM     27  C   UNL     1       8.070  -5.442  -7.754  1.00  0.00     0.049 A 
ATOM     28  C   UNL     1       5.979  -9.186  -4.143  1.00  0.00     0.074 A 
ATOM     29  C   UNL     1       8.874  -5.943  -8.764  1.00  0.00     0.029 A 
ATOM     30  N   UNL     1       7.634  -6.530  -7.014  1.00  0.00    -0.354 N 
ATOM     31  N   UNL     1       6.554  -8.430  -5.047  1.00  0.00    -0.248 NA
ATOM     32  C   UNL     1       6.136 -10.629  -4.367  1.00  0.00     0.031 C 
ATOM     33  C   UNL     1       8.877  -7.338  -8.669  1.00  0.00     0.029 A 
ATOM     34  C   UNL     1       8.114  -7.703  -7.572  1.00  0.00     0.049 A 
ATOM     35  H   UNL     1       7.068  -6.477  -6.211  1.00  0.00     0.167 HD
ATOM     36  C   UNL     1       7.141  -9.306  -5.949  1.00  0.00     0.074 A 
ATOM     37  C   UNL     1       6.879 -10.647  -5.465  1.00  0.00     0.031 C 
ATOM     38  C   UNL     1       7.827  -9.027  -7.084  1.00  0.00     0.031 A 
BRANCH  25  39
ATOM     39  C   UNL     1       8.168  -3.035  -8.487  1.00  0.00    -0.014 A 
ATOM     40  C   UNL     1       9.250  -2.183  -8.208  1.00  0.00     0.010 A 
ATOM     41  C   UNL     1       7.574  -2.994  -9.763  1.00  0.00     0.010 A 
ATOM     42  C   UNL     1       9.726  -1.303  -9.185  1.00  0.00     0.020 A 
ATOM     43  C   UNL     1       8.058  -2.127 -10.748  1.00  0.00     0.020 A 
ATOM     44  C   UNL     1       9.129  -1.282 -10.450  1.00  0.00     0.054 A 
BRANCH  44  45
ATOM     45  S   UNL     1       9.810  -0.179 -11.720  1.00  0.00     0.124 S 
ATOM     46  O   UNL     1       9.355   1.129 -11.257  1.00  0.00    -0.237 OA
ATOM     47  O   UNL     1      11.248  -0.416 -11.613  1.00  0.00    -0.237 OA
ATOM     48  O   UNL     1       9.195  -0.651 -12.957  1.00  0.00    -0.744 OA
ENDBRANCH  44  45
ENDBRANCH  25  39
BRANCH  26  49
ATOM     49  C   UNL     1       4.584  -9.777  -2.027  1.00  0.00    -0.014 A 
ATOM     50  C   UNL     1       5.384 -10.553  -1.173  1.00  0.00     0.010 A 
ATOM     51  C   UNL     1       3.187  -9.954  -2.010  1.00  0.00     0.010 A 
ATOM     52  C   UNL     1       4.799 -11.505  -0.332  1.00  0.00     0.020 A 
ATOM     53  C   UNL     1       2.598 -10.883  -1.150  1.00  0.00     0.020 A 
ATOM     54  C   UNL     1       3.410 -11.665  -0.328  1.00  0.00     0.054 A 
BRANCH  54  55
ATOM     55  S   UNL     1       2.664 -12.877   0.796  1.00  0.00     0.124 S 
ATOM     56  O   UNL     1       2.895 -14.130   0.084  1.00  0.00    -0.237 OA
ATOM     57  O   UNL     1       3.437 -12.694   2.022  1.00  0.00    -0.237 OA
ATOM     58  O   UNL     1       1.270 -12.448   0.879  1.00  0.00    -0.744 OA
ENDBRANCH  54  55
ENDBRANCH  26  49
BRANCH  38  59
ATOM     59  C   UNL     1       8.333 -10.196  -7.880  1.00  0.00    -0.014 A 
ATOM     60  C   UNL     1       7.451 -10.968  -8.657  1.00  0.00     0.010 A 
ATOM     61  C   UNL     1       9.706 -10.499  -7.887  1.00  0.00     0.010 A 
ATOM     62  C   UNL     1       7.932 -12.041  -9.410  1.00  0.00     0.020 A 
ATOM     63  C   UNL     1      10.193 -11.556  -8.659  1.00  0.00     0.020 A 
ATOM     64  C   UNL     1       9.300 -12.328  -9.406  1.00  0.00     0.054 A 
BRANCH  64  65
ATOM     65  S   UNL     1       9.907 -13.696 -10.431  1.00  0.00     0.124 S 
ATOM     66  O   UNL     1       9.502 -14.862  -9.651  1.00  0.00    -0.237 OA
ATOM     67  O   UNL     1       9.190 -13.500 -11.688  1.00  0.00    -0.237 OA
ATOM     68  O   UNL     1      11.348 -13.462 -10.500  1.00  0.00    -0.744 OA
ENDBRANCH  64  65
ENDBRANCH  38  59
ENDBRANCH  12  13
ENDBRANCH   5   7
ENDBRANCH   2   3
ENDBRANCH   1   2
BRANCH   1  69
ATOM     69  C   UNL     1       4.464   3.428   1.695  1.00  0.00     0.023 C 
BRANCH  69  70
ATOM     70  C   UNL     1       5.038   2.736   2.928  1.00  0.00     0.116 C 
BRANCH  70  71
ATOM     71  N   UNL     1       6.430   3.078   3.147  1.00  0.00    -0.351 N 
ATOM     72  C   UNL     1       7.081   3.991   3.914  1.00  0.00     0.280 C 
ATOM     73  H   UNL     1       7.045   2.521   2.618  1.00  0.00     0.163 HD
ATOM     74  O   UNL     1       8.318   3.935   3.848  1.00  0.00    -0.268 OA
BRANCH  72  75
ATOM     75  C   UNL     1       6.416   5.084   4.781  1.00  0.00     0.292 C 
ATOM     76  C   UNL     1       5.046   4.757   5.383  1.00  0.00     0.195 C 
ATOM     77  N   UNL     1       6.407   6.396   4.050  1.00  0.00    -0.333 N 
ATOM     78  N   UNL     1       4.614   5.841   6.268  1.00  0.00    -0.329 N 
ATOM     79  C   UNL     1       5.929   7.450   4.980  1.00  0.00     0.283 C 
ATOM     80  H   UNL     1       5.782   6.337   3.246  1.00  0.00     0.347 HD
ATOM     81  H   UNL     1       7.346   6.619   3.721  1.00  0.00     0.347 HD
ATOM     82  C   UNL     1       4.556   7.155   5.644  1.00  0.00     0.181 C 
BRANCH  78  83
ATOM     83  C   UNL     1       3.616   5.445   7.128  1.00  0.00     0.227 A 
ATOM     84  N   UNL     1       2.352   5.826   6.909  1.00  0.00    -0.221 NA
ATOM     85  N   UNL     1       3.982   4.609   8.110  1.00  0.00    -0.196 NA
ATOM     86  C   UNL     1       1.422   5.268   7.704  1.00  0.00     0.119 A 
ATOM     87  C   UNL     1       3.043   4.093   8.915  1.00  0.00     0.134 A 
ATOM     88  C   UNL     1       1.712   4.379   8.712  1.00  0.00     0.067 A 
BRANCH  87  89
ATOM     89  N   UNL     1       3.452   3.320   9.983  1.00  0.00    -0.356 N 
ATOM     90  C   UNL     1       2.944   1.968  10.163  1.00  0.00     0.121 C 
ATOM     91  C   UNL     1       4.649   3.738  10.705  1.00  0.00     0.121 C 
ATOM     92  C   UNL     1       4.072   0.947  10.009  1.00  0.00     0.053 C 
ATOM     93  C   UNL     1       5.775   2.726  10.548  1.00  0.00     0.053 C 
ATOM     94  C   UNL     1       5.301   1.306  10.843  1.00  0.00     0.118 C 
BRANCH  94  95
ATOM     95  O   UNL     1       5.033   1.138  12.236  1.00  0.00    -0.393 OA
ATOM     96  H   UNL     1       4.319   1.738  12.503  1.00  0.00     0.210 HD
ENDBRANCH  94  95
ENDBRANCH  87  89
ENDBRANCH  78  83
ENDBRANCH  72  75
ENDBRANCH  70  71
ENDBRANCH  69  70
ENDBRANCH   1  69
TORSDOF 17
