REMARK SMILES CCc1nc(C)c(C(=O)NCCCCNC(=O)c2ccc(-c3c4nc(c(-c5ccc(S(=O)(=O)[O-])cc5)c5ccc([nH]5)c(-c5ccc(S(=O)(=O)[O-])cc5)c5nc(c(-c6ccc(S(=O)(=O)[O-])cc6)c6ccc3[nH]6)C=C5)C=C4)cc2)c(SCc2cnc(Cl)s2)n1
REMARK SMILES IDX 12 1 11 2 10 3 8 4 9 5 7 7 3 8 4 9 87 10 5 11 78 12 6 13
REMARK SMILES IDX 2 14 1 15 79 16 80 17 81 18 82 19 86 20 83 21 84 22 85 23
REMARK SMILES IDX 13 24 14 25 15 26 16 27 17 29 18 30 19 31 77 32 20 33 76 34
REMARK SMILES IDX 21 35 22 36 23 37 70 38 24 39 75 40 69 41 71 42 25 43 74 44
REMARK SMILES IDX 68 45 67 46 26 48 56 49 37 50 55 51 38 52 41 53 54 54 72 55
REMARK SMILES IDX 39 56 40 57 53 59 73 60 42 61 27 62 28 63 36 64 29 65 35 66
REMARK SMILES IDX 30 67 31 68 32 69 33 70 34 71 57 72 58 73 66 74 59 75 65 76
REMARK SMILES IDX 60 77 61 78 62 79 63 80 64 81 43 82 44 83 52 84 45 85 51 86
REMARK SMILES IDX 46 87 47 88 48 89 49 90 50 91
REMARK H PARENT 10 6 15 28 71 47 41 58
REMARK Flexibility Score: inf
ROOT
ATOM      1  C   UNL     1       5.408   4.944   3.771  1.00  0.00     0.023 C 
ENDROOT
BRANCH   1   2
ATOM      2  C   UNL     1       3.964   5.213   4.222  1.00  0.00     0.116 C 
BRANCH   2   3
ATOM      3  N   UNL     1       3.237   5.757   3.093  1.00  0.00    -0.352 N 
ATOM      4  C   UNL     1       2.666   5.111   2.023  1.00  0.00     0.255 C 
ATOM      5  O   UNL     1       2.729   5.670   0.928  1.00  0.00    -0.269 OA
ATOM      6  H   UNL     1       3.138   6.736   3.092  1.00  0.00     0.163 HD
BRANCH   4   7
ATOM      7  C   UNL     1       1.861   3.878   2.127  1.00  0.00     0.093 A 
ATOM      8  C   UNL     1       0.423   1.578   1.740  1.00  0.00     0.129 A 
ATOM      9  N   UNL     1       1.630   1.479   2.293  1.00  0.00    -0.237 NA
ATOM     10  N   UNL     1      -0.152   2.738   1.430  1.00  0.00    -0.226 NA
ATOM     11  C   UNL     1       2.360   2.611   2.437  1.00  0.00     0.055 A 
ATOM     12  C   UNL     1       0.552   3.886   1.629  1.00  0.00     0.113 A 
ATOM     13  C   UNL     1       3.744   2.265   2.869  1.00  0.00     0.068 C 
BRANCH   8  14
ATOM     14  C   UNL     1      -0.194   0.309   1.228  1.00  0.00     0.074 C 
ATOM     15  C   UNL     1       0.490  -0.108  -0.070  1.00  0.00     0.012 C 
ENDBRANCH   8  14
BRANCH  12  16
ATOM     16  S   UNL     1      -0.470   5.238   1.050  1.00  0.00    -0.100 SA
BRANCH  16  17
ATOM     17  C   UNL     1      -0.034   6.731   1.973  1.00  0.00     0.125 C 
BRANCH  17  18
ATOM     18  C   UNL     1       0.055   6.701   3.464  1.00  0.00     0.036 A 
ATOM     19  C   UNL     1       0.617   7.687   4.263  1.00  0.00     0.129 A 
ATOM     20  S   UNL     1      -0.566   5.464   4.483  1.00  0.00    -0.107 S 
ATOM     21  N   UNL     1       0.655   7.428   5.616  1.00  0.00    -0.233 NA
ATOM     22  C   UNL     1       0.075   6.274   5.829  1.00  0.00     0.183 A 
ATOM     23  Cl  UNL     1      -0.028   5.568   7.387  1.00  0.00    -0.051 Cl
ENDBRANCH  17  18
ENDBRANCH  16  17
ENDBRANCH  12  16
ENDBRANCH   4   7
ENDBRANCH   2   3
ENDBRANCH   1   2
BRANCH   1  24
ATOM     24  C   UNL     1       6.377   6.109   3.934  1.00  0.00     0.023 C 
BRANCH  24  25
ATOM     25  C   UNL     1       6.816   6.341   5.366  1.00  0.00     0.116 C 
BRANCH  25  26
ATOM     26  N   UNL     1       7.458   5.178   5.967  1.00  0.00    -0.352 N 
ATOM     27  C   UNL     1       8.418   5.154   6.948  1.00  0.00     0.251 C 
ATOM     28  H   UNL     1       7.166   4.301   5.628  1.00  0.00     0.163 HD
ATOM     29  O   UNL     1       8.922   4.093   7.303  1.00  0.00    -0.269 OA
BRANCH  27  30
ATOM     30  C   UNL     1       8.868   6.436   7.518  1.00  0.00     0.039 A 
ATOM     31  C   UNL     1      10.235   6.717   7.544  1.00  0.00     0.014 A 
ATOM     32  C   UNL     1       7.932   7.385   7.934  1.00  0.00     0.014 A 
ATOM     33  C   UNL     1      10.661   7.984   7.936  1.00  0.00     0.010 A 
ATOM     34  C   UNL     1       8.352   8.673   8.231  1.00  0.00     0.010 A 
ATOM     35  C   UNL     1       9.721   8.979   8.250  1.00  0.00    -0.014 A 
BRANCH  35  36
ATOM     36  C   UNL     1      10.146  10.339   8.650  1.00  0.00     0.031 A 
ATOM     37  C   UNL     1       9.833  10.831  10.036  1.00  0.00     0.074 A 
ATOM     38  C   UNL     1      10.751  11.143   7.755  1.00  0.00     0.049 A 
ATOM     39  N   UNL     1      10.069  12.002  10.568  1.00  0.00    -0.248 NA
ATOM     40  C   UNL     1       9.129   9.896  10.931  1.00  0.00     0.031 C 
ATOM     41  C   UNL     1      11.053  10.794   6.365  1.00  0.00     0.029 A 
ATOM     42  N   UNL     1      11.217  12.426   7.884  1.00  0.00    -0.354 N 
ATOM     43  C   UNL     1       9.520  11.951  11.843  1.00  0.00     0.074 A 
ATOM     44  C   UNL     1       8.888  10.659  11.985  1.00  0.00     0.031 C 
ATOM     45  C   UNL     1      11.684  11.826   5.780  1.00  0.00     0.029 A 
ATOM     46  C   UNL     1      11.804  12.917   6.742  1.00  0.00     0.049 A 
ATOM     47  H   UNL     1      11.139  12.947   8.716  1.00  0.00     0.167 HD
ATOM     48  C   UNL     1       9.561  12.886  12.821  1.00  0.00     0.031 A 
ATOM     49  C   UNL     1      12.381  14.110   6.503  1.00  0.00     0.031 A 
ATOM     50  C   UNL     1      10.217  14.156  12.684  1.00  0.00     0.049 A 
ATOM     51  C   UNL     1      12.456  15.117   7.618  1.00  0.00     0.074 A 
ATOM     52  C   UNL     1      10.371  15.155  13.628  1.00  0.00     0.029 A 
ATOM     53  N   UNL     1      10.840  14.598  11.525  1.00  0.00    -0.354 N 
ATOM     54  N   UNL     1      11.984  15.029   8.839  1.00  0.00    -0.248 NA
ATOM     55  C   UNL     1      13.159  16.372   7.329  1.00  0.00     0.031 C 
ATOM     56  C   UNL     1      11.059  16.216  13.029  1.00  0.00     0.029 A 
ATOM     57  C   UNL     1      11.375  15.857  11.728  1.00  0.00     0.049 A 
ATOM     58  H   UNL     1      10.893  14.090  10.684  1.00  0.00     0.167 HD
ATOM     59  C   UNL     1      12.362  16.206   9.475  1.00  0.00     0.074 A 
ATOM     60  C   UNL     1      13.109  16.982   8.505  1.00  0.00     0.031 C 
ATOM     61  C   UNL     1      12.118  16.607  10.748  1.00  0.00     0.031 A 
BRANCH  48  62
ATOM     62  C   UNL     1       8.875  12.553  14.119  1.00  0.00    -0.014 A 
ATOM     63  C   UNL     1       9.385  11.560  14.976  1.00  0.00     0.010 A 
ATOM     64  C   UNL     1       7.703  13.238  14.486  1.00  0.00     0.010 A 
ATOM     65  C   UNL     1       8.705  11.218  16.147  1.00  0.00     0.020 A 
ATOM     66  C   UNL     1       7.036  12.919  15.673  1.00  0.00     0.020 A 
ATOM     67  C   UNL     1       7.530  11.895  16.485  1.00  0.00     0.054 A 
BRANCH  67  68
ATOM     68  S   UNL     1       6.667  11.434  18.012  1.00  0.00     0.124 S 
ATOM     69  O   UNL     1       6.025  10.180  17.626  1.00  0.00    -0.237 OA
ATOM     70  O   UNL     1       7.759  11.311  18.974  1.00  0.00    -0.237 OA
ATOM     71  O   UNL     1       5.758  12.553  18.246  1.00  0.00    -0.744 OA
ENDBRANCH  67  68
ENDBRANCH  48  62
BRANCH  49  72
ATOM     72  C   UNL     1      12.974  14.393   5.169  1.00  0.00    -0.014 A 
ATOM     73  C   UNL     1      14.370  14.417   5.003  1.00  0.00     0.010 A 
ATOM     74  C   UNL     1      12.148  14.613   4.052  1.00  0.00     0.010 A 
ATOM     75  C   UNL     1      14.930  14.673   3.748  1.00  0.00     0.020 A 
ATOM     76  C   UNL     1      12.705  14.846   2.791  1.00  0.00     0.020 A 
ATOM     77  C   UNL     1      14.094  14.884   2.649  1.00  0.00     0.054 A 
BRANCH  77  78
ATOM     78  S   UNL     1      14.842  15.156   1.018  1.00  0.00     0.124 S 
ATOM     79  O   UNL     1      15.318  16.531   1.128  1.00  0.00    -0.237 OA
ATOM     80  O   UNL     1      15.879  14.128   0.970  1.00  0.00    -0.237 OA
ATOM     81  O   UNL     1      13.729  14.949   0.094  1.00  0.00    -0.744 OA
ENDBRANCH  77  78
ENDBRANCH  49  72
BRANCH  61  82
ATOM     82  C   UNL     1      12.702  17.925  11.176  1.00  0.00    -0.014 A 
ATOM     83  C   UNL     1      12.168  19.143  10.722  1.00  0.00     0.010 A 
ATOM     84  C   UNL     1      13.776  17.940  12.085  1.00  0.00     0.010 A 
ATOM     85  C   UNL     1      12.724  20.355  11.139  1.00  0.00     0.020 A 
ATOM     86  C   UNL     1      14.317  19.149  12.525  1.00  0.00     0.020 A 
ATOM     87  C   UNL     1      13.798  20.349  12.035  1.00  0.00     0.054 A 
BRANCH  87  88
ATOM     88  S   UNL     1      14.486  21.934  12.588  1.00  0.00     0.124 S 
ATOM     89  O   UNL     1      15.273  22.343  11.429  1.00  0.00    -0.237 OA
ATOM     90  O   UNL     1      13.289  22.731  12.849  1.00  0.00    -0.237 OA
ATOM     91  O   UNL     1      15.260  21.579  13.775  1.00  0.00    -0.744 OA
ENDBRANCH  87  88
ENDBRANCH  61  82
ENDBRANCH  35  36
ENDBRANCH  27  30
ENDBRANCH  25  26
ENDBRANCH  24  25
ENDBRANCH   1  24
TORSDOF 18
