REMARK SMILES O=C(NCCCCNC(=O)c1ccc(C[NH2+][C@@H]2CCCC[C@H]2O)nc1)c1ccc(-c2c3nc(c(-c4ccc(S(=O)(=O)[O-])cc4)c4ccc([nH]4)c(-c4ccc(S(=O)(=O)[O-])cc4)c4nc(c(-c5ccc(S(=O)(=O)[O-])cc5)c5ccc2[nH]5)C=C4)C=C3)cc1
REMARK SMILES IDX 6 1 5 2 4 3 3 4 1 5 2 6 26 8 27 9 85 10 28 11 84 12 29 13
REMARK SMILES IDX 30 14 31 15 78 16 32 17 83 18 77 19 79 20 33 21 82 22 76 23
REMARK SMILES IDX 75 24 34 26 64 27 45 28 63 29 46 30 49 31 62 32 80 33 47 34
REMARK SMILES IDX 48 35 61 37 81 38 50 39 35 40 36 41 44 42 37 43 43 44 38 45
REMARK SMILES IDX 39 46 40 47 41 48 42 49 65 50 66 51 74 52 67 53 73 54 68 55
REMARK SMILES IDX 69 56 70 57 71 58 72 59 51 60 52 61 60 62 53 63 59 64 54 65
REMARK SMILES IDX 55 66 56 67 57 68 58 69 7 70 8 71 9 72 10 74 11 75 12 76
REMARK SMILES IDX 25 77 13 78 24 79 14 80 15 81 16 82 17 85 18 86 22 87 19 88
REMARK SMILES IDX 21 89 20 90 23 91
REMARK H PARENT 3 7 79 25 49 36 8 73 16 83 16 84 23 92
REMARK Flexibility Score: inf
ROOT
ATOM      1  C   UNL     1      -2.255 -13.925  -1.988  1.00  0.00     0.023 C 
ENDROOT
BRANCH   1   2
ATOM      2  C   UNL     1      -3.539 -14.270  -1.240  1.00  0.00     0.023 C 
BRANCH   2   3
ATOM      3  C   UNL     1      -4.353 -15.416  -1.827  1.00  0.00     0.116 C 
BRANCH   3   4
ATOM      4  N   UNL     1      -3.625 -16.675  -1.890  1.00  0.00    -0.352 N 
ATOM      5  O   UNL     1      -3.237 -18.868  -1.523  1.00  0.00    -0.269 OA
ATOM      6  C   UNL     1      -4.024 -17.927  -1.478  1.00  0.00     0.251 C 
ATOM      7  H   UNL     1      -2.723 -16.624  -2.280  1.00  0.00     0.163 HD
BRANCH   6   8
ATOM      8  C   UNL     1      -5.388 -18.117  -0.940  1.00  0.00     0.039 A 
ATOM      9  C   UNL     1      -6.495 -17.585  -1.603  1.00  0.00     0.014 A 
ATOM     10  C   UNL     1      -5.553 -18.792   0.273  1.00  0.00     0.014 A 
ATOM     11  C   UNL     1      -7.732 -17.567  -0.969  1.00  0.00     0.010 A 
ATOM     12  C   UNL     1      -6.818 -18.849   0.868  1.00  0.00     0.010 A 
ATOM     13  C   UNL     1      -7.907 -18.189   0.279  1.00  0.00    -0.014 A 
BRANCH  13  14
ATOM     14  C   UNL     1      -9.238 -18.130   0.938  1.00  0.00     0.031 A 
ATOM     15  C   UNL     1      -9.432 -17.387   2.234  1.00  0.00     0.074 A 
ATOM     16  C   UNL     1     -10.294 -18.702   0.327  1.00  0.00     0.049 A 
ATOM     17  N   UNL     1     -10.539 -17.174   2.901  1.00  0.00    -0.248 NA
ATOM     18  C   UNL     1      -8.234 -16.815   2.870  1.00  0.00     0.031 C 
ATOM     19  C   UNL     1     -10.236 -19.455  -0.928  1.00  0.00     0.029 A 
ATOM     20  N   UNL     1     -11.625 -18.709   0.658  1.00  0.00    -0.354 N 
ATOM     21  C   UNL     1     -10.170 -16.474   4.045  1.00  0.00     0.074 A 
ATOM     22  C   UNL     1      -8.733 -16.311   3.991  1.00  0.00     0.031 C 
ATOM     23  C   UNL     1     -11.481 -19.795  -1.294  1.00  0.00     0.029 A 
ATOM     24  C   UNL     1     -12.418 -19.330  -0.278  1.00  0.00     0.049 A 
ATOM     25  H   UNL     1     -11.978 -18.309   1.485  1.00  0.00     0.167 HD
ATOM     26  C   UNL     1     -10.954 -16.008   5.048  1.00  0.00     0.031 A 
ATOM     27  C   UNL     1     -13.752 -19.505  -0.320  1.00  0.00     0.031 A 
ATOM     28  C   UNL     1     -12.385 -16.149   5.093  1.00  0.00     0.049 A 
ATOM     29  C   UNL     1     -14.600 -18.959   0.792  1.00  0.00     0.074 A 
ATOM     30  C   UNL     1     -13.268 -15.681   6.051  1.00  0.00     0.029 A 
ATOM     31  N   UNL     1     -13.146 -16.804   4.137  1.00  0.00    -0.354 N 
ATOM     32  N   UNL     1     -14.230 -18.283   1.852  1.00  0.00    -0.248 NA
ATOM     33  C   UNL     1     -16.046 -19.199   0.697  1.00  0.00     0.031 C 
ATOM     34  C   UNL     1     -14.560 -16.081   5.691  1.00  0.00     0.029 A 
ATOM     35  C   UNL     1     -14.486 -16.763   4.488  1.00  0.00     0.049 A 
ATOM     36  H   UNL     1     -12.788 -17.234   3.327  1.00  0.00     0.167 HD
ATOM     37  C   UNL     1     -15.400 -18.000   2.544  1.00  0.00     0.074 A 
ATOM     38  C   UNL     1     -16.491 -18.565   1.774  1.00  0.00     0.031 C 
ATOM     39  C   UNL     1     -15.558 -17.333   3.714  1.00  0.00     0.031 A 
BRANCH  26  40
ATOM     40  C   UNL     1     -10.271 -15.320   6.200  1.00  0.00    -0.014 A 
ATOM     41  C   UNL     1      -9.755 -14.018   6.073  1.00  0.00     0.010 A 
ATOM     42  C   UNL     1     -10.178 -15.975   7.442  1.00  0.00     0.010 A 
ATOM     43  C   UNL     1      -9.120 -13.400   7.155  1.00  0.00     0.020 A 
ATOM     44  C   UNL     1      -9.562 -15.352   8.532  1.00  0.00     0.020 A 
ATOM     45  C   UNL     1      -9.020 -14.075   8.375  1.00  0.00     0.054 A 
BRANCH  45  46
ATOM     46  S   UNL     1      -8.199 -13.252   9.768  1.00  0.00     0.124 S 
ATOM     47  O   UNL     1      -6.789 -13.414   9.422  1.00  0.00    -0.237 OA
ATOM     48  O   UNL     1      -8.711 -11.887   9.686  1.00  0.00    -0.237 OA
ATOM     49  O   UNL     1      -8.647 -14.013  10.932  1.00  0.00    -0.744 OA
ENDBRANCH  45  46
ENDBRANCH  26  40
BRANCH  27  50
ATOM     50  C   UNL     1     -14.362 -20.216  -1.473  1.00  0.00    -0.014 A 
ATOM     51  C   UNL     1     -15.088 -19.506  -2.444  1.00  0.00     0.010 A 
ATOM     52  C   UNL     1     -14.184 -21.603  -1.624  1.00  0.00     0.010 A 
ATOM     53  C   UNL     1     -15.633 -20.173  -3.545  1.00  0.00     0.020 A 
ATOM     54  C   UNL     1     -14.707 -22.268  -2.736  1.00  0.00     0.020 A 
ATOM     55  C   UNL     1     -15.437 -21.550  -3.684  1.00  0.00     0.054 A 
BRANCH  55  56
ATOM     56  S   UNL     1     -16.088 -22.387  -5.156  1.00  0.00     0.124 S 
ATOM     57  O   UNL     1     -17.497 -22.552  -4.811  1.00  0.00    -0.237 OA
ATOM     58  O   UNL     1     -15.804 -21.429  -6.222  1.00  0.00    -0.237 OA
ATOM     59  O   UNL     1     -15.307 -23.621  -5.217  1.00  0.00    -0.744 OA
ENDBRANCH  55  56
ENDBRANCH  27  50
BRANCH  39  60
ATOM     60  C   UNL     1     -16.964 -17.155   4.213  1.00  0.00    -0.014 A 
ATOM     61  C   UNL     1     -17.671 -18.226   4.788  1.00  0.00     0.010 A 
ATOM     62  C   UNL     1     -17.577 -15.893   4.125  1.00  0.00     0.010 A 
ATOM     63  C   UNL     1     -18.984 -18.046   5.231  1.00  0.00     0.020 A 
ATOM     64  C   UNL     1     -18.882 -15.704   4.586  1.00  0.00     0.020 A 
ATOM     65  C   UNL     1     -19.584 -16.788   5.120  1.00  0.00     0.054 A 
BRANCH  65  66
ATOM     66  S   UNL     1     -21.282 -16.567   5.719  1.00  0.00     0.124 S 
ATOM     67  O   UNL     1     -22.065 -17.125   4.620  1.00  0.00    -0.237 OA
ATOM     68  O   UNL     1     -21.294 -17.343   6.957  1.00  0.00    -0.237 OA
ATOM     69  O   UNL     1     -21.398 -15.121   5.897  1.00  0.00    -0.744 OA
ENDBRANCH  65  66
ENDBRANCH  39  60
ENDBRANCH  13  14
ENDBRANCH   6   8
ENDBRANCH   3   4
ENDBRANCH   2   3
ENDBRANCH   1   2
BRANCH   1  70
ATOM     70  C   UNL     1      -2.413 -13.741  -3.494  1.00  0.00     0.116 C 
BRANCH  70  71
ATOM     71  N   UNL     1      -3.317 -12.652  -3.837  1.00  0.00    -0.352 N 
ATOM     72  C   UNL     1      -3.028 -11.454  -4.442  1.00  0.00     0.252 C 
ATOM     73  H   UNL     1      -4.263 -12.793  -3.603  1.00  0.00     0.163 HD
ATOM     74  O   UNL     1      -3.875 -10.577  -4.567  1.00  0.00    -0.269 OA
BRANCH  72  75
ATOM     75  C   UNL     1      -1.666 -11.224  -4.929  1.00  0.00     0.058 A 
ATOM     76  C   UNL     1      -1.098 -12.043  -5.900  1.00  0.00     0.017 A 
ATOM     77  C   UNL     1      -0.905 -10.217  -4.362  1.00  0.00     0.125 A 
ATOM     78  C   UNL     1       0.246 -11.875  -6.205  1.00  0.00     0.030 A 
ATOM     79  N   UNL     1       0.405 -10.030  -4.648  1.00  0.00    -0.255 NA
ATOM     80  C   UNL     1       0.970 -10.870  -5.552  1.00  0.00     0.094 A 
BRANCH  80  81
ATOM     81  C   UNL     1       2.454 -10.715  -5.838  1.00  0.00     0.318 C 
BRANCH  81  82
ATOM     82  N   UNL     1       2.692 -10.284  -7.216  1.00  0.00    -0.337 N 
ATOM     83  H   UNL     1       2.304  -9.347  -7.326  1.00  0.00     0.346 HD
ATOM     84  H   UNL     1       2.246 -10.978  -7.815  1.00  0.00     0.346 HD
BRANCH  82  85
ATOM     85  C   UNL     1       4.106 -10.242  -7.614  1.00  0.00     0.211 C 
ATOM     86  C   UNL     1       4.141  -9.757  -9.081  1.00  0.00     0.068 C 
ATOM     87  C   UNL     1       4.872 -11.590  -7.499  1.00  0.00     0.172 C 
ATOM     88  C   UNL     1       3.607 -10.803 -10.066  1.00  0.00     0.006 C 
ATOM     89  C   UNL     1       4.322 -12.647  -8.459  1.00  0.00     0.038 C 
ATOM     90  C   UNL     1       4.289 -12.160  -9.909  1.00  0.00     0.003 C 
BRANCH  87  91
ATOM     91  O   UNL     1       6.273 -11.404  -7.731  1.00  0.00    -0.387 OA
ATOM     92  H   UNL     1       6.411 -11.083  -8.635  1.00  0.00     0.211 HD
ENDBRANCH  87  91
ENDBRANCH  82  85
ENDBRANCH  81  82
ENDBRANCH  80  81
ENDBRANCH  72  75
ENDBRANCH  70  71
ENDBRANCH   1  70
TORSDOF 18
