REMARK SMILES CC(=O)Nc1cc(NC(C)=O)cc(C(=O)Nc2ccc(Br)cc2C(=O)NCCCCNC(=O)c2ccc(-c3c4nc(c(-c5ccc(S(=O)(=O)[O-])cc5)c5ccc([nH]5)c(-c5ccc(S(=O)(=O)[O-])cc5)c5nc(c(-c6ccc(S(=O)(=O)[O-])cc6)c6ccc3[nH]6)C=C5)C=C4)cc2)c1
REMARK SMILES IDX 28 1 27 2 26 3 24 4 25 5 23 7 17 8 18 9 19 10 22 11 20 12
REMARK SMILES IDX 21 13 16 14 14 15 15 16 13 18 5 19 6 20 94 21 7 22 12 23
REMARK SMILES IDX 4 24 1 25 2 26 3 27 8 29 9 30 10 32 11 33 29 34 30 35 31 36
REMARK SMILES IDX 32 37 33 39 34 40 35 41 93 42 36 43 92 44 37 45 38 46 39 47
REMARK SMILES IDX 86 48 40 49 91 50 85 51 87 52 41 53 90 54 84 55 83 56 42 58
REMARK SMILES IDX 72 59 53 60 71 61 54 62 57 63 70 64 88 65 55 66 56 67 69 69
REMARK SMILES IDX 89 70 58 71 43 72 44 73 52 74 45 75 51 76 46 77 47 78 48 79
REMARK SMILES IDX 49 80 50 81 73 82 74 83 82 84 75 85 81 86 76 87 77 88 78 89
REMARK SMILES IDX 79 90 80 91 59 92 60 93 68 94 61 95 67 96 62 97 63 98 64 99
REMARK SMILES IDX 65 100 66 101
REMARK H PARENT 26 6 16 17 4 28 8 31 31 38 87 57 57 68
REMARK Flexibility Score: inf
ROOT
ATOM      1  C   UNL     1       7.971   1.984  -1.947  1.00  0.00     0.023 C 
ENDROOT
BRANCH   1   2
ATOM      2  C   UNL     1       6.617   1.534  -1.411  1.00  0.00     0.116 C 
BRANCH   2   3
ATOM      3  N   UNL     1       5.595   1.395  -2.429  1.00  0.00    -0.352 N 
ATOM      4  C   UNL     1       4.430   0.672  -2.402  1.00  0.00     0.253 C 
ATOM      5  O   UNL     1       3.716   0.655  -3.402  1.00  0.00    -0.269 OA
ATOM      6  H   UNL     1       5.761   1.892  -3.262  1.00  0.00     0.163 HD
BRANCH   4   7
ATOM      7  C   UNL     1       4.050  -0.162  -1.232  1.00  0.00     0.064 A 
ATOM      8  C   UNL     1       4.090   0.229   0.121  1.00  0.00     0.054 A 
ATOM      9  C   UNL     1       3.909  -0.753   1.111  1.00  0.00     0.028 A 
ATOM     10  C   UNL     1       3.529  -2.054   0.771  1.00  0.00     0.018 A 
ATOM     11  C   UNL     1       3.633  -1.466  -1.564  1.00  0.00     0.031 A 
ATOM     12  C   UNL     1       3.353  -2.392  -0.565  1.00  0.00     0.018 A 
ATOM     13  Br  UNL     1       2.729  -4.116  -1.022  1.00  0.00    -0.051 Br
BRANCH   8  14
ATOM     14  N   UNL     1       4.219   1.544   0.620  1.00  0.00    -0.321 N 
ATOM     15  C   UNL     1       3.791   2.756   0.112  1.00  0.00     0.255 C 
ATOM     16  O   UNL     1       4.259   3.797   0.571  1.00  0.00    -0.269 OA
ATOM     17  H   UNL     1       4.697   1.608   1.478  1.00  0.00     0.170 HD
BRANCH  15  18
ATOM     18  C   UNL     1       2.718   2.835  -0.908  1.00  0.00     0.044 A 
ATOM     19  C   UNL     1       0.782   1.866  -1.983  1.00  0.00     0.044 A 
ATOM     20  C   UNL     1       0.859   2.874  -2.957  1.00  0.00     0.052 A 
ATOM     21  C   UNL     1       1.677   1.900  -0.923  1.00  0.00     0.040 A 
ATOM     22  C   UNL     1       1.806   3.903  -2.876  1.00  0.00     0.044 A 
ATOM     23  C   UNL     1       2.756   3.864  -1.854  1.00  0.00     0.040 A 
BRANCH  19  24
ATOM     24  N   UNL     1      -0.139   0.825  -2.209  1.00  0.00    -0.326 N 
ATOM     25  C   UNL     1      -0.320  -0.292   0.021  1.00  0.00     0.114 C 
ATOM     26  C   UNL     1      -0.568  -0.230  -1.459  1.00  0.00     0.221 C 
ATOM     27  O   UNL     1      -1.209  -1.129  -2.010  1.00  0.00    -0.275 OA
ATOM     28  H   UNL     1      -0.562   0.868  -3.096  1.00  0.00     0.169 HD
ENDBRANCH  19  24
BRANCH  22  29
ATOM     29  N   UNL     1       1.871   4.986  -3.781  1.00  0.00    -0.326 N 
ATOM     30  C   UNL     1       0.988   5.273  -4.807  1.00  0.00     0.221 C 
ATOM     31  H   UNL     1       2.628   5.605  -3.669  1.00  0.00     0.169 HD
ATOM     32  C   UNL     1       1.344   6.529  -5.564  1.00  0.00     0.114 C 
ATOM     33  O   UNL     1      -0.014   4.632  -5.108  1.00  0.00    -0.275 OA
ENDBRANCH  22  29
ENDBRANCH  15  18
ENDBRANCH   8  14
ENDBRANCH   4   7
ENDBRANCH   2   3
ENDBRANCH   1   2
BRANCH   1  34
ATOM     34  C   UNL     1       7.981   3.304  -2.721  1.00  0.00     0.023 C 
BRANCH  34  35
ATOM     35  C   UNL     1       7.184   4.458  -2.116  1.00  0.00     0.116 C 
BRANCH  35  36
ATOM     36  N   UNL     1       7.658   4.877  -0.805  1.00  0.00    -0.352 N 
ATOM     37  C   UNL     1       8.248   6.060  -0.417  1.00  0.00     0.251 C 
ATOM     38  H   UNL     1       7.538   4.215  -0.086  1.00  0.00     0.163 HD
ATOM     39  O   UNL     1       8.680   6.199   0.720  1.00  0.00    -0.269 OA
BRANCH  37  40
ATOM     40  C   UNL     1       8.393   7.151  -1.404  1.00  0.00     0.039 A 
ATOM     41  C   UNL     1       9.661   7.683  -1.646  1.00  0.00     0.014 A 
ATOM     42  C   UNL     1       7.288   7.591  -2.136  1.00  0.00     0.014 A 
ATOM     43  C   UNL     1       9.843   8.568  -2.712  1.00  0.00     0.010 A 
ATOM     44  C   UNL     1       7.485   8.412  -3.242  1.00  0.00     0.010 A 
ATOM     45  C   UNL     1       8.769   8.884  -3.560  1.00  0.00    -0.014 A 
BRANCH  45  46
ATOM     46  C   UNL     1       8.964   9.653  -4.817  1.00  0.00     0.031 A 
ATOM     47  C   UNL     1       8.260  10.966  -5.019  1.00  0.00     0.074 A 
ATOM     48  C   UNL     1       9.685   9.116  -5.823  1.00  0.00     0.049 A 
ATOM     49  N   UNL     1       8.178  11.700  -6.098  1.00  0.00    -0.248 NA
ATOM     50  C   UNL     1       7.529  11.507  -3.862  1.00  0.00     0.031 C 
ATOM     51  C   UNL     1      10.394   7.835  -5.772  1.00  0.00     0.029 A 
ATOM     52  N   UNL     1       9.928   9.576  -7.094  1.00  0.00    -0.354 N 
ATOM     53  C   UNL     1       7.365  12.776  -5.761  1.00  0.00     0.074 A 
ATOM     54  C   UNL     1       6.948  12.575  -4.390  1.00  0.00     0.031 C 
ATOM     55  C   UNL     1      11.014   7.626  -6.945  1.00  0.00     0.029 A 
ATOM     56  C   UNL     1      10.706   8.729  -7.849  1.00  0.00     0.049 A 
ATOM     57  H   UNL     1       9.579  10.432  -7.433  1.00  0.00     0.167 HD
ATOM     58  C   UNL     1       7.010  13.842  -6.518  1.00  0.00     0.031 A 
ATOM     59  C   UNL     1      11.116   8.820  -9.129  1.00  0.00     0.031 A 
ATOM     60  C   UNL     1       7.437  14.050  -7.876  1.00  0.00     0.049 A 
ATOM     61  C   UNL     1      10.701  10.007  -9.953  1.00  0.00     0.074 A 
ATOM     62  C   UNL     1       7.158  15.117  -8.712  1.00  0.00     0.029 A 
ATOM     63  N   UNL     1       8.239  13.178  -8.595  1.00  0.00    -0.354 N 
ATOM     64  N   UNL     1       9.952  11.026  -9.608  1.00  0.00    -0.248 NA
ATOM     65  C   UNL     1      11.190  10.056 -11.338  1.00  0.00     0.031 C 
ATOM     66  C   UNL     1       7.766  14.874  -9.949  1.00  0.00     0.029 A 
ATOM     67  C   UNL     1       8.460  13.677  -9.867  1.00  0.00     0.049 A 
ATOM     68  H   UNL     1       8.600  12.329  -8.251  1.00  0.00     0.167 HD
ATOM     69  C   UNL     1       9.906  11.855 -10.723  1.00  0.00     0.074 A 
ATOM     70  C   UNL     1      10.704  11.219 -11.752  1.00  0.00     0.031 C 
ATOM     71  C   UNL     1       9.263  13.038 -10.878  1.00  0.00     0.031 A 
BRANCH  58  72
ATOM     72  C   UNL     1       6.101  14.859  -5.883  1.00  0.00    -0.014 A 
ATOM     73  C   UNL     1       6.567  15.708  -4.862  1.00  0.00     0.010 A 
ATOM     74  C   UNL     1       4.766  14.971  -6.311  1.00  0.00     0.010 A 
ATOM     75  C   UNL     1       5.698  16.606  -4.238  1.00  0.00     0.020 A 
ATOM     76  C   UNL     1       3.901  15.888  -5.708  1.00  0.00     0.020 A 
ATOM     77  C   UNL     1       4.367  16.682  -4.657  1.00  0.00     0.054 A 
BRANCH  77  78
ATOM     78  S   UNL     1       3.254  17.845  -3.822  1.00  0.00     0.124 S 
ATOM     79  O   UNL     1       2.966  17.137  -2.576  1.00  0.00    -0.237 OA
ATOM     80  O   UNL     1       4.079  19.042  -3.687  1.00  0.00    -0.237 OA
ATOM     81  O   UNL     1       2.128  17.968  -4.744  1.00  0.00    -0.744 OA
ENDBRANCH  77  78
ENDBRANCH  58  72
BRANCH  59  82
ATOM     82  C   UNL     1      11.993   7.765  -9.704  1.00  0.00    -0.014 A 
ATOM     83  C   UNL     1      13.356   8.027  -9.928  1.00  0.00     0.010 A 
ATOM     84  C   UNL     1      11.479   6.492 -10.012  1.00  0.00     0.010 A 
ATOM     85  C   UNL     1      14.188   7.039 -10.461  1.00  0.00     0.020 A 
ATOM     86  C   UNL     1      12.314   5.494 -10.524  1.00  0.00     0.020 A 
ATOM     87  C   UNL     1      13.662   5.778 -10.754  1.00  0.00     0.054 A 
BRANCH  87  88
ATOM     88  S   UNL     1      14.774   4.491 -11.387  1.00  0.00     0.124 S 
ATOM     89  O   UNL     1      14.950   4.899 -12.777  1.00  0.00    -0.237 OA
ATOM     90  O   UNL     1      15.949   4.638 -10.530  1.00  0.00    -0.237 OA
ATOM     91  O   UNL     1      14.017   3.258 -11.184  1.00  0.00    -0.744 OA
ENDBRANCH  87  88
ENDBRANCH  59  82
BRANCH  71  92
ATOM     92  C   UNL     1       9.431  13.752 -12.191  1.00  0.00    -0.014 A 
ATOM     93  C   UNL     1       8.755  13.322 -13.346  1.00  0.00     0.010 A 
ATOM     94  C   UNL     1      10.227  14.910 -12.249  1.00  0.00     0.010 A 
ATOM     95  C   UNL     1       8.888  14.030 -14.544  1.00  0.00     0.020 A 
ATOM     96  C   UNL     1      10.345  15.632 -13.439  1.00  0.00     0.020 A 
ATOM     97  C   UNL     1       9.682  15.181 -14.583  1.00  0.00     0.054 A 
BRANCH  97  98
ATOM     98  S   UNL     1       9.791  16.118 -16.132  1.00  0.00     0.124 S 
ATOM     99  O   UNL     1      10.702  15.294 -16.922  1.00  0.00    -0.237 OA
ATOM    100  O   UNL     1       8.405  16.142 -16.593  1.00  0.00    -0.237 OA
ATOM    101  O   UNL     1      10.324  17.414 -15.715  1.00  0.00    -0.744 OA
ENDBRANCH  97  98
ENDBRANCH  71  92
ENDBRANCH  45  46
ENDBRANCH  37  40
ENDBRANCH  35  36
ENDBRANCH  34  35
ENDBRANCH   1  34
TORSDOF 18
