REMARK SMILES C[C@@H]1CCC[C@]1(Sc1ccc(F)cc1)C(=O)NCCCCNC(=O)c1ccc(-c2c3nc(c(-c4ccc(S(=O)(=O)[O-])cc4)c4ccc([nH]4)c(-c4ccc(S(=O)(=O)[O-])cc4)c4nc(c(-c5ccc(S(=O)(=O)[O-])cc5)c5ccc2[nH]5)C=C4)C=C3)cc1
REMARK SMILES IDX 20 1 19 2 18 3 17 4 15 5 16 6 6 8 1 9 2 10 3 11 4 12 5 13
REMARK SMILES IDX 7 14 8 15 9 16 14 17 10 18 13 19 11 20 12 21 21 22 22 23
REMARK SMILES IDX 23 24 24 26 25 27 26 28 84 29 27 30 83 31 28 32 29 33 30 34
REMARK SMILES IDX 77 35 31 36 82 37 76 38 78 39 32 40 81 41 75 42 74 43 33 45
REMARK SMILES IDX 63 46 44 47 62 48 45 49 48 50 61 51 79 52 46 53 47 54 60 56
REMARK SMILES IDX 80 57 49 58 34 59 35 60 43 61 36 62 42 63 37 64 38 65 39 66
REMARK SMILES IDX 40 67 41 68 64 69 65 70 73 71 66 72 72 73 67 74 68 75 69 76
REMARK SMILES IDX 70 77 71 78 50 79 51 80 59 81 52 82 58 83 53 84 54 85 55 86
REMARK SMILES IDX 56 87 57 88
REMARK H PARENT 17 7 22 25 78 44 48 55
REMARK Flexibility Score: inf
ROOT
ATOM      1  C   UNL     1       4.644   2.903   1.570  1.00  0.00     0.023 C 
ENDROOT
BRANCH   1   2
ATOM      2  C   UNL     1       3.692   1.748   1.873  1.00  0.00     0.023 C 
BRANCH   2   3
ATOM      3  C   UNL     1       2.243   2.158   2.118  1.00  0.00     0.116 C 
BRANCH   3   4
ATOM      4  N   UNL     1       1.617   2.750   0.948  1.00  0.00    -0.355 N 
ATOM      5  C   UNL     1       0.507   2.365   0.241  1.00  0.00     0.236 C 
ATOM      6  O   UNL     1       0.132   3.120  -0.661  1.00  0.00    -0.273 OA
ATOM      7  H   UNL     1       2.062   3.560   0.607  1.00  0.00     0.163 HD
BRANCH   5   8
ATOM      8  C   UNL     1      -0.229   1.028   0.558  1.00  0.00     0.102 C 
ATOM      9  C   UNL     1       1.660  -0.054  -0.853  1.00  0.00     0.009 C 
ATOM     10  C   UNL     1       0.682  -0.210   0.330  1.00  0.00     0.012 C 
ATOM     11  C   UNL     1      -0.270  -1.365  -0.015  1.00  0.00     0.005 C 
ATOM     12  C   UNL     1      -1.550  -0.734  -0.544  1.00  0.00     0.002 C 
ATOM     13  C   UNL     1      -1.372   0.778  -0.449  1.00  0.00     0.028 C 
BRANCH   8  14
ATOM     14  S   UNL     1      -0.991   1.348   2.266  1.00  0.00    -0.109 SA
BRANCH  14  15
ATOM     15  C   UNL     1      -1.615  -0.193   2.872  1.00  0.00     0.008 A 
ATOM     16  C   UNL     1      -0.764  -1.193   3.354  1.00  0.00     0.018 A 
ATOM     17  C   UNL     1      -2.999  -0.336   3.034  1.00  0.00     0.018 A 
ATOM     18  C   UNL     1      -1.292  -2.356   3.919  1.00  0.00     0.040 A 
ATOM     19  C   UNL     1      -3.528  -1.488   3.619  1.00  0.00     0.040 A 
ATOM     20  C   UNL     1      -2.669  -2.493   4.045  1.00  0.00     0.123 A 
ATOM     21  F   UNL     1      -3.174  -3.600   4.604  1.00  0.00    -0.207 F 
ENDBRANCH  14  15
ENDBRANCH   8  14
ENDBRANCH   5   8
ENDBRANCH   3   4
ENDBRANCH   2   3
ENDBRANCH   1   2
BRANCH   1  22
ATOM     22  C   UNL     1       4.682   4.001   2.626  1.00  0.00     0.116 C 
BRANCH  22  23
ATOM     23  N   UNL     1       5.058   3.510   3.944  1.00  0.00    -0.352 N 
ATOM     24  C   UNL     1       5.944   4.057   4.842  1.00  0.00     0.251 C 
ATOM     25  H   UNL     1       4.620   2.676   4.231  1.00  0.00     0.163 HD
ATOM     26  O   UNL     1       6.247   3.448   5.863  1.00  0.00    -0.269 OA
BRANCH  24  27
ATOM     27  C   UNL     1       6.550   5.371   4.544  1.00  0.00     0.039 A 
ATOM     28  C   UNL     1       7.936   5.519   4.638  1.00  0.00     0.014 A 
ATOM     29  C   UNL     1       5.749   6.439   4.131  1.00  0.00     0.014 A 
ATOM     30  C   UNL     1       8.528   6.722   4.248  1.00  0.00     0.010 A 
ATOM     31  C   UNL     1       6.346   7.609   3.677  1.00  0.00     0.010 A 
ATOM     32  C   UNL     1       7.740   7.763   3.732  1.00  0.00    -0.014 A 
BRANCH  32  33
ATOM     33  C   UNL     1       8.335   9.038   3.262  1.00  0.00     0.031 A 
ATOM     34  C   UNL     1       7.993  10.321   3.968  1.00  0.00     0.074 A 
ATOM     35  C   UNL     1       9.103   9.059   2.155  1.00  0.00     0.049 A 
ATOM     36  N   UNL     1       8.291  11.551   3.639  1.00  0.00    -0.248 NA
ATOM     37  C   UNL     1       7.179  10.202   5.189  1.00  0.00     0.031 C 
ATOM     38  C   UNL     1       9.492   7.886   1.369  1.00  0.00     0.029 A 
ATOM     39  N   UNL     1       9.683  10.111   1.492  1.00  0.00    -0.354 N 
ATOM     40  C   UNL     1       7.676  12.353   4.593  1.00  0.00     0.074 A 
ATOM     41  C   UNL     1       6.953  11.473   5.485  1.00  0.00     0.031 C 
ATOM     42  C   UNL     1      10.267   8.283   0.345  1.00  0.00     0.029 A 
ATOM     43  C   UNL     1      10.391   9.737   0.375  1.00  0.00     0.049 A 
ATOM     44  H   UNL     1       9.600  11.046   1.789  1.00  0.00     0.167 HD
ATOM     45  C   UNL     1       7.719  13.700   4.725  1.00  0.00     0.031 A 
ATOM     46  C   UNL     1      11.057  10.482  -0.529  1.00  0.00     0.031 A 
ATOM     47  C   UNL     1       8.450  14.571   3.845  1.00  0.00     0.049 A 
ATOM     48  C   UNL     1      11.087  11.977  -0.371  1.00  0.00     0.074 A 
ATOM     49  C   UNL     1       8.591  15.945   3.914  1.00  0.00     0.029 A 
ATOM     50  N   UNL     1       9.167  14.149   2.735  1.00  0.00    -0.354 N 
ATOM     51  N   UNL     1      10.526  12.718   0.555  1.00  0.00    -0.248 NA
ATOM     52  C   UNL     1      11.847  12.736  -1.374  1.00  0.00     0.031 C 
ATOM     53  C   UNL     1       9.366  16.359   2.824  1.00  0.00     0.029 A 
ATOM     54  C   UNL     1       9.746  15.236   2.105  1.00  0.00     0.049 A 
ATOM     55  H   UNL     1       9.252  13.214   2.440  1.00  0.00     0.167 HD
ATOM     56  C   UNL     1      10.893  14.027   0.266  1.00  0.00     0.074 A 
ATOM     57  C   UNL     1      11.723  13.977  -0.921  1.00  0.00     0.031 C 
ATOM     58  C   UNL     1      10.579  15.166   0.930  1.00  0.00     0.031 A 
BRANCH  45  59
ATOM     59  C   UNL     1       6.933  14.301   5.860  1.00  0.00    -0.014 A 
ATOM     60  C   UNL     1       7.325  14.108   7.197  1.00  0.00     0.010 A 
ATOM     61  C   UNL     1       5.775  15.051   5.588  1.00  0.00     0.010 A 
ATOM     62  C   UNL     1       6.536  14.592   8.243  1.00  0.00     0.020 A 
ATOM     63  C   UNL     1       4.999  15.564   6.631  1.00  0.00     0.020 A 
ATOM     64  C   UNL     1       5.369  15.306   7.952  1.00  0.00     0.054 A 
BRANCH  64  65
ATOM     65  S   UNL     1       4.344  15.900   9.326  1.00  0.00     0.124 S 
ATOM     66  O   UNL     1       3.658  14.677   9.736  1.00  0.00    -0.237 OA
ATOM     67  O   UNL     1       5.334  16.411  10.271  1.00  0.00    -0.237 OA
ATOM     68  O   UNL     1       3.495  16.915   8.709  1.00  0.00    -0.744 OA
ENDBRANCH  64  65
ENDBRANCH  45  59
BRANCH  46  69
ATOM     69  C   UNL     1      11.784   9.813  -1.641  1.00  0.00    -0.014 A 
ATOM     70  C   UNL     1      13.186   9.725  -1.612  1.00  0.00     0.010 A 
ATOM     71  C   UNL     1      11.082   9.225  -2.709  1.00  0.00     0.010 A 
ATOM     72  C   UNL     1      13.876   9.062  -2.631  1.00  0.00     0.020 A 
ATOM     73  C   UNL     1      11.767   8.542  -3.719  1.00  0.00     0.020 A 
ATOM     74  C   UNL     1      13.161   8.469  -3.675  1.00  0.00     0.054 A 
BRANCH  74  75
ATOM     75  S   UNL     1      14.073   7.546  -4.944  1.00  0.00     0.124 S 
ATOM     76  O   UNL     1      14.678   8.620  -5.726  1.00  0.00    -0.237 OA
ATOM     77  O   UNL     1      14.998   6.744  -4.147  1.00  0.00    -0.237 OA
ATOM     78  O   UNL     1      13.030   6.783  -5.626  1.00  0.00    -0.744 OA
ENDBRANCH  74  75
ENDBRANCH  46  69
BRANCH  58  79
ATOM     79  C   UNL     1      11.173  16.453   0.426  1.00  0.00    -0.014 A 
ATOM     80  C   UNL     1      10.675  17.086  -0.725  1.00  0.00     0.010 A 
ATOM     81  C   UNL     1      12.192  17.077   1.170  1.00  0.00     0.010 A 
ATOM     82  C   UNL     1      11.198  18.317  -1.133  1.00  0.00     0.020 A 
ATOM     83  C   UNL     1      12.701  18.316   0.777  1.00  0.00     0.020 A 
ATOM     84  C   UNL     1      12.206  18.925  -0.377  1.00  0.00     0.054 A 
BRANCH  84  85
ATOM     85  S   UNL     1      12.820  20.555  -0.886  1.00  0.00     0.124 S 
ATOM     86  O   UNL     1      13.665  20.218  -2.028  1.00  0.00    -0.237 OA
ATOM     87  O   UNL     1      11.590  21.277  -1.205  1.00  0.00    -0.237 OA
ATOM     88  O   UNL     1      13.531  21.041   0.294  1.00  0.00    -0.744 OA
ENDBRANCH  84  85
ENDBRANCH  58  79
ENDBRANCH  32  33
ENDBRANCH  24  27
ENDBRANCH  22  23
ENDBRANCH   1  22
TORSDOF 16
