REMARK SMILES CCCCCCNC(=O)Oc1cccc(-c2ccc([C@@H](C)C(=O)NCCCCNC(=O)c3ccc(-c4c5nc(c(-c6ccc(S(=O)(=O)[O-])cc6)c6ccc([nH]6)c(-c6ccc(S(=O)(=O)[O-])cc6)c6nc(c(-c7ccc(S(=O)(=O)[O-])cc7)c7ccc4[nH]7)C=C6)C=C5)cc3)cc2[N+](=O)[O-])c1
REMARK SMILES IDX 20 1 21 2 19 3 16 4 17 5 93 6 18 7 92 8 15 9 11 10 12 11
REMARK SMILES IDX 97 12 13 13 14 14 10 15 8 16 7 17 9 19 6 20 5 21 4 22 3 23
REMARK SMILES IDX 2 24 1 25 94 26 95 27 96 28 22 29 23 30 24 31 25 33 26 34
REMARK SMILES IDX 27 35 28 36 29 37 30 38 31 40 32 41 33 42 91 43 34 44 90 45
REMARK SMILES IDX 35 46 36 47 37 48 84 49 38 50 89 51 83 52 85 53 39 54 88 55
REMARK SMILES IDX 82 56 81 57 40 59 70 60 51 61 69 62 52 63 55 64 68 65 86 66
REMARK SMILES IDX 53 67 54 68 67 70 87 71 56 72 41 73 42 74 50 75 43 76 49 77
REMARK SMILES IDX 44 78 45 79 46 80 47 81 48 82 71 83 72 84 80 85 73 86 79 87
REMARK SMILES IDX 74 88 75 89 76 90 77 91 78 92 57 93 58 94 66 95 59 96 65 97
REMARK SMILES IDX 60 98 61 99 62 100 63 101 64 102
REMARK H PARENT 7 18 24 32 29 39 85 58 55 69
REMARK Flexibility Score: inf
ROOT
ATOM      1  C   UNL     1      -4.776  13.415  -0.015  1.00  0.00     0.105 C 
ATOM      2  C   UNL     1      -5.935  14.409  -0.017  1.00  0.00     0.023 C 
ENDROOT
BRANCH   1   3
ATOM      3  C   UNL     1      -5.075  12.058   0.607  1.00  0.00    -0.029 A 
ATOM      4  C   UNL     1      -5.363   9.479   1.844  1.00  0.00     0.060 A 
ATOM      5  C   UNL     1      -5.748  10.665   2.492  1.00  0.00     0.016 A 
ATOM      6  C   UNL     1      -4.930   9.620   0.511  1.00  0.00     0.277 A 
ATOM      7  C   UNL     1      -5.659  11.915   1.866  1.00  0.00     0.005 A 
ATOM      8  C   UNL     1      -4.740  10.885  -0.084  1.00  0.00     0.090 A 
BRANCH   4   9
ATOM      9  C   UNL     1      -5.399   8.205   2.599  1.00  0.00    -0.008 A 
ATOM     10  C   UNL     1      -4.382   6.104   3.279  1.00  0.00     0.133 A 
ATOM     11  C   UNL     1      -5.497   5.774   4.044  1.00  0.00     0.047 A 
ATOM     12  C   UNL     1      -4.317   7.308   2.575  1.00  0.00     0.056 A 
ATOM     13  C   UNL     1      -6.561   6.666   4.111  1.00  0.00     0.004 A 
ATOM     14  C   UNL     1      -6.516   7.862   3.387  1.00  0.00     0.009 A 
BRANCH  10  15
ATOM     15  O   UNL     1      -3.412   5.100   3.116  1.00  0.00    -0.410 OA
BRANCH  15  16
ATOM     16  C   UNL     1      -2.066   5.421   3.198  1.00  0.00     0.412 C 
ATOM     17  N   UNL     1      -1.252   4.400   2.789  1.00  0.00    -0.321 N 
ATOM     18  H   UNL     1      -0.282   4.544   2.877  1.00  0.00     0.167 HD
ATOM     19  O   UNL     1      -1.606   6.485   3.590  1.00  0.00    -0.224 OA
BRANCH  17  20
ATOM     20  C   UNL     1      -1.674   3.127   2.239  1.00  0.00     0.119 C 
BRANCH  20  21
ATOM     21  C   UNL     1      -1.088   2.881   0.848  1.00  0.00     0.021 C 
BRANCH  21  22
ATOM     22  C   UNL     1       0.440   2.760   0.804  1.00  0.00     0.002 C 
BRANCH  22  23
ATOM     23  C   UNL     1       1.038   1.652   1.678  1.00  0.00    -0.000 C 
BRANCH  23  24
ATOM     24  C   UNL     1       0.550   0.235   1.366  1.00  0.00    -0.003 C 
ATOM     25  C   UNL     1       0.920  -0.234  -0.033  1.00  0.00     0.004 C 
ENDBRANCH  23  24
ENDBRANCH  22  23
ENDBRANCH  21  22
ENDBRANCH  20  21
ENDBRANCH  17  20
ENDBRANCH  15  16
ENDBRANCH  10  15
ENDBRANCH   4   9
BRANCH   6  26
ATOM     26  N   UNL     1      -4.746   8.456  -0.353  1.00  0.00     0.063 N 
ATOM     27  O   UNL     1      -3.759   8.453  -1.102  1.00  0.00    -0.258 OA
ATOM     28  O   UNL     1      -5.620   7.578  -0.331  1.00  0.00    -0.258 OA
ENDBRANCH   6  26
ENDBRANCH   1   3
BRANCH   1  29
ATOM     29  C   UNL     1      -3.424  14.014   0.411  1.00  0.00     0.227 C 
ATOM     30  O   UNL     1      -2.472  13.989  -0.378  1.00  0.00    -0.274 OA
ATOM     31  N   UNL     1      -3.193  14.595   1.619  1.00  0.00    -0.356 N 
ATOM     32  H   UNL     1      -2.302  15.004   1.703  1.00  0.00     0.163 HD
BRANCH  31  33
ATOM     33  C   UNL     1      -4.016  14.723   2.804  1.00  0.00     0.116 C 
BRANCH  33  34
ATOM     34  C   UNL     1      -3.723  13.618   3.821  1.00  0.00     0.023 C 
BRANCH  34  35
ATOM     35  C   UNL     1      -2.601  13.929   4.807  1.00  0.00     0.023 C 
BRANCH  35  36
ATOM     36  C   UNL     1      -2.845  15.138   5.699  1.00  0.00     0.116 C 
BRANCH  36  37
ATOM     37  N   UNL     1      -4.072  15.063   6.481  1.00  0.00    -0.352 N 
ATOM     38  C   UNL     1      -4.306  15.582   7.734  1.00  0.00     0.251 C 
ATOM     39  H   UNL     1      -4.823  14.585   6.062  1.00  0.00     0.163 HD
ATOM     40  O   UNL     1      -5.367  15.369   8.310  1.00  0.00    -0.269 OA
BRANCH  38  41
ATOM     41  C   UNL     1      -3.234  16.360   8.389  1.00  0.00     0.039 A 
ATOM     42  C   UNL     1      -2.823  16.003   9.674  1.00  0.00     0.014 A 
ATOM     43  C   UNL     1      -2.582  17.381   7.692  1.00  0.00     0.014 A 
ATOM     44  C   UNL     1      -1.705  16.624  10.233  1.00  0.00     0.010 A 
ATOM     45  C   UNL     1      -1.418  17.932   8.213  1.00  0.00     0.010 A 
ATOM     46  C   UNL     1      -0.970  17.564   9.491  1.00  0.00    -0.014 A 
BRANCH  46  47
ATOM     47  C   UNL     1       0.264  18.186  10.033  1.00  0.00     0.031 A 
ATOM     48  C   UNL     1       0.319  19.676  10.244  1.00  0.00     0.074 A 
ATOM     49  C   UNL     1       1.355  17.428  10.263  1.00  0.00     0.049 A 
ATOM     50  N   UNL     1       1.321  20.416  10.640  1.00  0.00    -0.248 NA
ATOM     51  C   UNL     1      -0.905  20.437   9.939  1.00  0.00     0.031 C 
ATOM     52  C   UNL     1       1.446  15.981  10.046  1.00  0.00     0.029 A 
ATOM     53  N   UNL     1       2.601  17.771  10.724  1.00  0.00    -0.354 N 
ATOM     54  C   UNL     1       0.858  21.726  10.608  1.00  0.00     0.074 A 
ATOM     55  C   UNL     1      -0.495  21.685  10.101  1.00  0.00     0.031 C 
ATOM     56  C   UNL     1       2.670  15.559  10.403  1.00  0.00     0.029 A 
ATOM     57  C   UNL     1       3.463  16.705  10.836  1.00  0.00     0.049 A 
ATOM     58  H   UNL     1       2.855  18.694  10.954  1.00  0.00     0.167 HD
ATOM     59  C   UNL     1       1.492  22.860  10.989  1.00  0.00     0.031 A 
ATOM     60  C   UNL     1       4.748  16.655  11.239  1.00  0.00     0.031 A 
ATOM     61  C   UNL     1       2.829  22.894  11.516  1.00  0.00     0.049 A 
ATOM     62  C   UNL     1       5.427  17.926  11.673  1.00  0.00     0.074 A 
ATOM     63  C   UNL     1       3.539  23.982  11.991  1.00  0.00     0.029 A 
ATOM     64  N   UNL     1       3.657  21.788  11.640  1.00  0.00    -0.354 N 
ATOM     65  N   UNL     1       4.948  19.148  11.701  1.00  0.00    -0.248 NA
ATOM     66  C   UNL     1       6.813  17.810  12.146  1.00  0.00     0.031 C 
ATOM     67  C   UNL     1       4.815  23.542  12.359  1.00  0.00     0.029 A 
ATOM     68  C   UNL     1       4.878  22.170  12.168  1.00  0.00     0.049 A 
ATOM     69  H   UNL     1       3.413  20.868  11.390  1.00  0.00     0.167 HD
ATOM     70  C   UNL     1       5.964  19.941  12.224  1.00  0.00     0.074 A 
ATOM     71  C   UNL     1       7.077  19.058  12.509  1.00  0.00     0.031 C 
ATOM     72  C   UNL     1       5.973  21.277  12.450  1.00  0.00     0.031 A 
BRANCH  59  73
ATOM     73  C   UNL     1       0.739  24.157  10.849  1.00  0.00    -0.014 A 
ATOM     74  C   UNL     1      -0.369  24.447  11.666  1.00  0.00     0.010 A 
ATOM     75  C   UNL     1       1.162  25.113   9.908  1.00  0.00     0.010 A 
ATOM     76  C   UNL     1      -1.068  25.647  11.512  1.00  0.00     0.020 A 
ATOM     77  C   UNL     1       0.484  26.328   9.772  1.00  0.00     0.020 A 
ATOM     78  C   UNL     1      -0.639  26.578  10.563  1.00  0.00     0.054 A 
BRANCH  78  79
ATOM     79  S   UNL     1      -1.554  28.136  10.399  1.00  0.00     0.124 S 
ATOM     80  O   UNL     1      -2.776  27.696   9.732  1.00  0.00    -0.237 OA
ATOM     81  O   UNL     1      -1.715  28.561  11.787  1.00  0.00    -0.237 OA
ATOM     82  O   UNL     1      -0.670  28.974   9.592  1.00  0.00    -0.744 OA
ENDBRANCH  78  79
ENDBRANCH  59  73
BRANCH  60  83
ATOM     83  C   UNL     1       5.468  15.352  11.277  1.00  0.00    -0.014 A 
ATOM     84  C   UNL     1       5.788  14.750  12.506  1.00  0.00     0.010 A 
ATOM     85  C   UNL     1       5.825  14.699  10.083  1.00  0.00     0.010 A 
ATOM     86  C   UNL     1       6.471  13.530  12.543  1.00  0.00     0.020 A 
ATOM     87  C   UNL     1       6.483  13.466  10.115  1.00  0.00     0.020 A 
ATOM     88  C   UNL     1       6.813  12.895  11.346  1.00  0.00     0.054 A 
BRANCH  88  89
ATOM     89  S   UNL     1       7.654  11.289  11.418  1.00  0.00     0.124 S 
ATOM     90  O   UNL     1       9.000  11.669  11.835  1.00  0.00    -0.237 OA
ATOM     91  O   UNL     1       6.865  10.563  12.410  1.00  0.00    -0.237 OA
ATOM     92  O   UNL     1       7.541  10.783  10.052  1.00  0.00    -0.744 OA
ENDBRANCH  88  89
ENDBRANCH  60  83
BRANCH  72  93
ATOM     93  C   UNL     1       7.209  21.867  13.075  1.00  0.00    -0.014 A 
ATOM     94  C   UNL     1       8.405  22.002  12.348  1.00  0.00     0.010 A 
ATOM     95  C   UNL     1       7.151  22.347  14.397  1.00  0.00     0.010 A 
ATOM     96  C   UNL     1       9.530  22.577  12.944  1.00  0.00     0.020 A 
ATOM     97  C   UNL     1       8.265  22.949  14.985  1.00  0.00     0.020 A 
ATOM     98  C   UNL     1       9.453  23.047  14.259  1.00  0.00     0.054 A 
BRANCH  98  99
ATOM     99  S   UNL     1      10.915  23.830  14.994  1.00  0.00     0.124 S 
ATOM    100  O   UNL     1      11.777  22.680  15.252  1.00  0.00    -0.237 OA
ATOM    101  O   UNL     1      11.365  24.728  13.934  1.00  0.00    -0.237 OA
ATOM    102  O   UNL     1      10.389  24.495  16.184  1.00  0.00    -0.744 OA
ENDBRANCH  98  99
ENDBRANCH  72  93
ENDBRANCH  46  47
ENDBRANCH  38  41
ENDBRANCH  36  37
ENDBRANCH  35  36
ENDBRANCH  34  35
ENDBRANCH  33  34
ENDBRANCH  31  33
ENDBRANCH   1  29
TORSDOF 24
