REMARK SMILES CCN(Cc1ccccn1)c1nc(C)cc(C)c1C(=O)NCCCCNC(=O)c1ccc(-c2c3nc(c(-c4ccc(S(=O)(=O)[O-])cc4)c4ccc([nH]4)c(-c4ccc(S(=O)(=O)[O-])cc4)c4nc(c(-c5ccc(S(=O)(=O)[O-])cc5)c5ccc2[nH]5)C=C4)C=C3)cc1
REMARK SMILES IDX 23 1 22 2 21 3 19 4 20 5 18 7 11 8 12 9 13 10 16 11 14 12
REMARK SMILES IDX 15 13 17 14 3 15 2 16 1 17 4 18 5 19 6 20 10 21 7 22 9 23
REMARK SMILES IDX 8 24 24 25 25 26 26 27 27 28 28 30 29 31 30 32 88 33 31 34
REMARK SMILES IDX 87 35 32 36 33 37 34 38 81 39 35 40 86 41 80 42 82 43 36 44
REMARK SMILES IDX 85 45 79 46 78 47 37 49 67 50 48 51 66 52 49 53 52 54 65 55
REMARK SMILES IDX 83 56 50 57 51 58 64 60 84 61 53 62 38 63 39 64 47 65 40 66
REMARK SMILES IDX 46 67 41 68 42 69 43 70 44 71 45 72 68 73 69 74 77 75 70 76
REMARK SMILES IDX 76 77 71 78 72 79 73 80 74 81 75 82 54 83 55 84 63 85 56 86
REMARK SMILES IDX 62 87 57 88 58 89 59 90 60 91 61 92
REMARK H PARENT 21 6 26 29 82 48 52 59
REMARK Flexibility Score: inf
ROOT
ATOM      1  C   UNL     1       5.239   1.187  -1.881  1.00  0.00     0.023 C 
ENDROOT
BRANCH   1   2
ATOM      2  C   UNL     1       5.112   0.947  -0.381  1.00  0.00     0.116 C 
BRANCH   2   3
ATOM      3  N   UNL     1       3.854   1.323   0.232  1.00  0.00    -0.352 N 
ATOM      4  C   UNL     1       3.244   0.814   1.366  1.00  0.00     0.255 C 
ATOM      5  O   UNL     1       2.335   1.465   1.881  1.00  0.00    -0.269 OA
ATOM      6  H   UNL     1       3.362   2.043  -0.224  1.00  0.00     0.163 HD
BRANCH   4   7
ATOM      7  C   UNL     1       3.662  -0.481   1.972  1.00  0.00     0.085 A 
ATOM      8  C   UNL     1       2.701  -1.498   2.156  1.00  0.00     0.142 A 
ATOM      9  N   UNL     1       3.043  -2.679   2.729  1.00  0.00    -0.235 NA
ATOM     10  C   UNL     1       4.293  -2.888   3.178  1.00  0.00     0.040 A 
ATOM     11  C   UNL     1       4.957  -0.679   2.505  1.00  0.00    -0.033 A 
ATOM     12  C   UNL     1       4.531  -4.175   3.904  1.00  0.00     0.067 C 
ATOM     13  C   UNL     1       5.270  -1.918   3.084  1.00  0.00     0.028 A 
ATOM     14  C   UNL     1       6.038   0.362   2.534  1.00  0.00     0.045 C 
BRANCH   8  15
ATOM     15  N   UNL     1       1.355  -1.363   1.841  1.00  0.00    -0.350 N 
BRANCH  15  16
ATOM     16  C   UNL     1       0.918  -1.829   0.530  1.00  0.00     0.115 C 
ATOM     17  C   UNL     1       0.782  -0.657  -0.432  1.00  0.00     0.027 C 
ENDBRANCH  15  16
BRANCH  15  18
ATOM     18  C   UNL     1       0.401  -1.507   2.956  1.00  0.00     0.174 C 
BRANCH  18  19
ATOM     19  C   UNL     1       0.305  -2.901   3.581  1.00  0.00     0.060 A 
ATOM     20  C   UNL     1       0.774  -3.104   4.883  1.00  0.00     0.026 A 
ATOM     21  N   UNL     1      -0.224  -3.916   2.842  1.00  0.00    -0.259 NA
ATOM     22  C   UNL     1       0.751  -4.386   5.426  1.00  0.00     0.004 A 
ATOM     23  C   UNL     1      -0.210  -5.152   3.390  1.00  0.00     0.111 A 
ATOM     24  C   UNL     1       0.262  -5.436   4.661  1.00  0.00     0.020 A 
ENDBRANCH  18  19
ENDBRANCH  15  18
ENDBRANCH   8  15
ENDBRANCH   4   7
ENDBRANCH   2   3
ENDBRANCH   1   2
BRANCH   1  25
ATOM     25  C   UNL     1       5.003   2.603  -2.409  1.00  0.00     0.023 C 
BRANCH  25  26
ATOM     26  C   UNL     1       5.525   3.778  -1.586  1.00  0.00     0.116 C 
BRANCH  26  27
ATOM     27  N   UNL     1       6.965   3.791  -1.372  1.00  0.00    -0.352 N 
ATOM     28  C   UNL     1       7.924   4.710  -1.746  1.00  0.00     0.251 C 
ATOM     29  H   UNL     1       7.313   3.014  -0.877  1.00  0.00     0.163 HD
ATOM     30  O   UNL     1       9.098   4.514  -1.454  1.00  0.00    -0.269 OA
BRANCH  28  31
ATOM     31  C   UNL     1       7.554   5.893  -2.556  1.00  0.00     0.039 A 
ATOM     32  C   UNL     1       8.275   6.149  -3.727  1.00  0.00     0.014 A 
ATOM     33  C   UNL     1       6.477   6.710  -2.209  1.00  0.00     0.014 A 
ATOM     34  C   UNL     1       7.824   7.125  -4.620  1.00  0.00     0.010 A 
ATOM     35  C   UNL     1       5.982   7.626  -3.135  1.00  0.00     0.010 A 
ATOM     36  C   UNL     1       6.627   7.814  -4.367  1.00  0.00    -0.014 A 
BRANCH  36  37
ATOM     37  C   UNL     1       5.979   8.653  -5.410  1.00  0.00     0.031 A 
ATOM     38  C   UNL     1       5.731  10.116  -5.177  1.00  0.00     0.074 A 
ATOM     39  C   UNL     1       5.503   8.063  -6.527  1.00  0.00     0.049 A 
ATOM     40  N   UNL     1       5.069  10.968  -5.917  1.00  0.00    -0.248 NA
ATOM     41  C   UNL     1       6.276  10.690  -3.937  1.00  0.00     0.031 C 
ATOM     42  C   UNL     1       5.624   6.639  -6.851  1.00  0.00     0.029 A 
ATOM     43  N   UNL     1       4.797   8.582  -7.585  1.00  0.00    -0.354 N 
ATOM     44  C   UNL     1       5.100  12.173  -5.227  1.00  0.00     0.074 A 
ATOM     45  C   UNL     1       5.809  11.929  -3.988  1.00  0.00     0.031 C 
ATOM     46  C   UNL     1       5.025   6.401  -8.028  1.00  0.00     0.029 A 
ATOM     47  C   UNL     1       4.436   7.641  -8.521  1.00  0.00     0.049 A 
ATOM     48  H   UNL     1       4.572   9.537  -7.667  1.00  0.00     0.167 HD
ATOM     49  C   UNL     1       4.599  13.377  -5.596  1.00  0.00     0.031 A 
ATOM     50  C   UNL     1       3.693   7.750  -9.640  1.00  0.00     0.031 A 
ATOM     51  C   UNL     1       3.891  13.618  -6.825  1.00  0.00     0.049 A 
ATOM     52  C   UNL     1       3.131   9.088 -10.024  1.00  0.00     0.074 A 
ATOM     53  C   UNL     1       3.399  14.815  -7.315  1.00  0.00     0.029 A 
ATOM     54  N   UNL     1       3.563  12.642  -7.754  1.00  0.00    -0.354 N 
ATOM     55  N   UNL     1       3.237  10.233  -9.393  1.00  0.00    -0.248 NA
ATOM     56  C   UNL     1       2.351   9.151 -11.267  1.00  0.00     0.031 C 
ATOM     57  C   UNL     1       2.732  14.555  -8.518  1.00  0.00     0.029 A 
ATOM     58  C   UNL     1       2.849  13.203  -8.800  1.00  0.00     0.049 A 
ATOM     59  H   UNL     1       3.803  11.690  -7.681  1.00  0.00     0.167 HD
ATOM     60  C   UNL     1       2.542  11.156 -10.166  1.00  0.00     0.074 A 
ATOM     61  C   UNL     1       2.038  10.440 -11.321  1.00  0.00     0.031 C 
ATOM     62  C   UNL     1       2.338  12.476  -9.936  1.00  0.00     0.031 A 
BRANCH  49  63
ATOM     63  C   UNL     1       4.797  14.523  -4.639  1.00  0.00    -0.014 A 
ATOM     64  C   UNL     1       6.074  15.073  -4.424  1.00  0.00     0.010 A 
ATOM     65  C   UNL     1       3.696  15.057  -3.945  1.00  0.00     0.010 A 
ATOM     66  C   UNL     1       6.257  16.093  -3.487  1.00  0.00     0.020 A 
ATOM     67  C   UNL     1       3.871  16.097  -3.027  1.00  0.00     0.020 A 
ATOM     68  C   UNL     1       5.155  16.590  -2.785  1.00  0.00     0.054 A 
BRANCH  68  69
ATOM     69  S   UNL     1       5.423  17.901  -1.560  1.00  0.00     0.124 S 
ATOM     70  O   UNL     1       6.007  17.155  -0.448  1.00  0.00    -0.237 OA
ATOM     71  O   UNL     1       6.334  18.809  -2.253  1.00  0.00    -0.237 OA
ATOM     72  O   UNL     1       4.083  18.430  -1.321  1.00  0.00    -0.744 OA
ENDBRANCH  68  69
ENDBRANCH  49  63
BRANCH  50  73
ATOM     73  C   UNL     1       3.438   6.541 -10.469  1.00  0.00    -0.014 A 
ATOM     74  C   UNL     1       4.105   6.360 -11.692  1.00  0.00     0.010 A 
ATOM     75  C   UNL     1       2.565   5.536 -10.009  1.00  0.00     0.010 A 
ATOM     76  C   UNL     1       3.908   5.195 -12.440  1.00  0.00     0.020 A 
ATOM     77  C   UNL     1       2.384   4.360 -10.742  1.00  0.00     0.020 A 
ATOM     78  C   UNL     1       3.054   4.199 -11.956  1.00  0.00     0.054 A 
BRANCH  78  79
ATOM     79  S   UNL     1       2.886   2.656 -12.897  1.00  0.00     0.124 S 
ATOM     80  O   UNL     1       2.027   3.066 -14.002  1.00  0.00    -0.237 OA
ATOM     81  O   UNL     1       4.270   2.348 -13.250  1.00  0.00    -0.237 OA
ATOM     82  O   UNL     1       2.279   1.736 -11.937  1.00  0.00    -0.744 OA
ENDBRANCH  78  79
ENDBRANCH  50  73
BRANCH  62  83
ATOM     83  C   UNL     1       1.531  13.239 -10.951  1.00  0.00    -0.014 A 
ATOM     84  C   UNL     1       0.135  13.092 -11.019  1.00  0.00     0.010 A 
ATOM     85  C   UNL     1       2.167  14.165 -11.798  1.00  0.00     0.010 A 
ATOM     86  C   UNL     1      -0.611  13.847 -11.928  1.00  0.00     0.020 A 
ATOM     87  C   UNL     1       1.422  14.938 -12.692  1.00  0.00     0.020 A 
ATOM     88  C   UNL     1       0.037  14.768 -12.757  1.00  0.00     0.054 A 
BRANCH  88  89
ATOM     89  S   UNL     1      -0.961  15.784 -13.881  1.00  0.00     0.124 S 
ATOM     90  O   UNL     1      -1.316  14.825 -14.924  1.00  0.00    -0.237 OA
ATOM     91  O   UNL     1      -2.062  16.221 -13.027  1.00  0.00    -0.237 OA
ATOM     92  O   UNL     1      -0.044  16.844 -14.296  1.00  0.00    -0.744 OA
ENDBRANCH  88  89
ENDBRANCH  62  83
ENDBRANCH  36  37
ENDBRANCH  28  31
ENDBRANCH  26  27
ENDBRANCH  25  26
ENDBRANCH   1  25
TORSDOF 18
