REMARK SMILES C[C@@H](C(=O)NCCCCNC(=O)c1ccc(-c2c3nc(c(-c4ccc(S(=O)(=O)[O-])cc4)c4ccc([nH]4)c(-c4ccc(S(=O)(=O)[O-])cc4)c4nc(c(-c5ccc(S(=O)(=O)[O-])cc5)c5ccc2[nH]5)C=C4)C=C3)cc1)c1ccc(C[C@H]2CCC[C@@H]2O)cc1Br
REMARK SMILES IDX 7 1 6 2 5 3 3 4 4 5 2 7 1 8 73 9 74 10 85 11 75 12 84 13
REMARK SMILES IDX 86 14 76 15 77 16 78 17 79 18 82 19 80 20 81 21 83 22 8 24
REMARK SMILES IDX 9 25 10 26 11 27 12 29 13 30 14 31 72 32 15 33 71 34 16 35
REMARK SMILES IDX 17 36 18 37 65 38 19 39 70 40 64 41 66 42 20 43 69 44 63 45
REMARK SMILES IDX 62 46 21 48 51 49 32 50 50 51 33 52 36 53 49 54 67 55 34 56
REMARK SMILES IDX 35 57 48 59 68 60 37 61 22 62 23 63 31 64 24 65 30 66 25 67
REMARK SMILES IDX 26 68 27 69 28 70 29 71 52 72 53 73 61 74 54 75 60 76 55 77
REMARK SMILES IDX 56 78 57 79 58 80 59 81 38 82 39 83 47 84 40 85 46 86 41 87
REMARK SMILES IDX 42 88 43 89 44 90 45 91
REMARK H PARENT 5 6 83 23 10 28 66 47 36 58
REMARK Flexibility Score: inf
ROOT
ATOM      1  C   UNL     1       4.323  -1.058  -0.721  1.00  0.00     0.023 C 
ENDROOT
BRANCH   1   2
ATOM      2  C   UNL     1       3.578  -0.350  -1.851  1.00  0.00     0.116 C 
BRANCH   2   3
ATOM      3  N   UNL     1       2.576  -1.196  -2.465  1.00  0.00    -0.356 N 
ATOM      4  C   UNL     1       1.215  -1.153  -2.404  1.00  0.00     0.227 C 
ATOM      5  O   UNL     1       0.615  -1.870  -3.209  1.00  0.00    -0.274 OA
ATOM      6  H   UNL     1       2.939  -1.925  -3.019  1.00  0.00     0.163 HD
BRANCH   4   7
ATOM      7  C   UNL     1       0.498  -0.173  -1.461  1.00  0.00     0.106 C 
ATOM      8  C   UNL     1       0.890  -0.251   0.019  1.00  0.00     0.023 C 
BRANCH   7   9
ATOM      9  C   UNL     1      -1.029  -0.230  -1.569  1.00  0.00    -0.022 A 
ATOM     10  C   UNL     1      -1.694   0.951  -1.957  1.00  0.00     0.006 A 
ATOM     11  C   UNL     1      -1.819  -1.345  -1.233  1.00  0.00     0.022 A 
ATOM     12  C   UNL     1      -3.087   1.042  -1.942  1.00  0.00     0.004 A 
ATOM     13  C   UNL     1      -3.216  -1.248  -1.224  1.00  0.00     0.019 A 
ATOM     14  Br  UNL     1      -1.116  -3.033  -0.703  1.00  0.00    -0.051 Br
ATOM     15  C   UNL     1      -3.860  -0.043  -1.527  1.00  0.00    -0.047 A 
BRANCH  15  16
ATOM     16  C   UNL     1      -5.352   0.083  -1.339  1.00  0.00     0.041 C 
BRANCH  16  17
ATOM     17  C   UNL     1      -5.798   0.669   0.014  1.00  0.00     0.022 C 
ATOM     18  C   UNL     1      -5.304  -0.071   1.271  1.00  0.00     0.007 C 
ATOM     19  C   UNL     1      -5.415   2.131   0.263  1.00  0.00     0.117 C 
ATOM     20  C   UNL     1      -5.051   1.006   2.330  1.00  0.00     0.003 C 
ATOM     21  C   UNL     1      -5.641   2.285   1.760  1.00  0.00     0.032 C 
BRANCH  19  22
ATOM     22  O   UNL     1      -6.240   3.028  -0.457  1.00  0.00    -0.393 OA
ATOM     23  H   UNL     1      -7.168   2.879  -0.216  1.00  0.00     0.210 HD
ENDBRANCH  19  22
ENDBRANCH  16  17
ENDBRANCH  15  16
ENDBRANCH   7   9
ENDBRANCH   4   7
ENDBRANCH   2   3
ENDBRANCH   1   2
BRANCH   1  24
ATOM     24  C   UNL     1       5.101  -2.310  -1.139  1.00  0.00     0.023 C 
BRANCH  24  25
ATOM     25  C   UNL     1       6.062  -2.135  -2.311  1.00  0.00     0.116 C 
BRANCH  25  26
ATOM     26  N   UNL     1       7.046  -1.087  -2.091  1.00  0.00    -0.352 N 
ATOM     27  C   UNL     1       8.403  -1.106  -2.319  1.00  0.00     0.251 C 
ATOM     28  H   UNL     1       6.691  -0.244  -1.728  1.00  0.00     0.163 HD
ATOM     29  O   UNL     1       9.095  -0.157  -1.974  1.00  0.00    -0.269 OA
BRANCH  27  30
ATOM     30  C   UNL     1       9.024  -2.296  -2.942  1.00  0.00     0.039 A 
ATOM     31  C   UNL     1      10.138  -2.870  -2.323  1.00  0.00     0.014 A 
ATOM     32  C   UNL     1       8.492  -2.863  -4.103  1.00  0.00     0.014 A 
ATOM     33  C   UNL     1      10.662  -4.067  -2.817  1.00  0.00     0.010 A 
ATOM     34  C   UNL     1       8.980  -4.086  -4.560  1.00  0.00     0.010 A 
ATOM     35  C   UNL     1      10.055  -4.710  -3.909  1.00  0.00    -0.014 A 
BRANCH  35  36
ATOM     36  C   UNL     1      10.485  -6.066  -4.337  1.00  0.00     0.031 A 
ATOM     37  C   UNL     1      11.100  -6.283  -5.691  1.00  0.00     0.074 A 
ATOM     38  C   UNL     1      10.239  -7.118  -3.528  1.00  0.00     0.049 A 
ATOM     39  N   UNL     1      11.461  -7.406  -6.258  1.00  0.00    -0.248 NA
ATOM     40  C   UNL     1      11.319  -5.090  -6.525  1.00  0.00     0.031 C 
ATOM     41  C   UNL     1       9.603  -7.044  -2.209  1.00  0.00     0.029 A 
ATOM     42  N   UNL     1      10.479  -8.458  -3.703  1.00  0.00    -0.354 N 
ATOM     43  C   UNL     1      11.934  -7.060  -7.517  1.00  0.00     0.074 A 
ATOM     44  C   UNL     1      11.786  -5.626  -7.645  1.00  0.00     0.031 C 
ATOM     45  C   UNL     1       9.514  -8.280  -1.693  1.00  0.00     0.029 A 
ATOM     46  C   UNL     1      10.048  -9.238  -2.655  1.00  0.00     0.049 A 
ATOM     47  H   UNL     1      10.919  -8.827  -4.503  1.00  0.00     0.167 HD
ATOM     48  C   UNL     1      12.456  -7.864  -8.475  1.00  0.00     0.031 A 
ATOM     49  C   UNL     1      10.062 -10.575  -2.491  1.00  0.00     0.031 A 
ATOM     50  C   UNL     1      12.618  -9.287  -8.339  1.00  0.00     0.049 A 
ATOM     51  C   UNL     1      10.637 -11.442  -3.576  1.00  0.00     0.074 A 
ATOM     52  C   UNL     1      13.211 -10.171  -9.224  1.00  0.00     0.029 A 
ATOM     53  N   UNL     1      12.181 -10.037  -7.258  1.00  0.00    -0.354 N 
ATOM     54  N   UNL     1      11.160 -11.085  -4.724  1.00  0.00    -0.248 NA
ATOM     55  C   UNL     1      10.628 -12.893  -3.342  1.00  0.00     0.031 C 
ATOM     56  C   UNL     1      13.086 -11.463  -8.702  1.00  0.00     0.029 A 
ATOM     57  C   UNL     1      12.460 -11.377  -7.469  1.00  0.00     0.049 A 
ATOM     58  H   UNL     1      11.738  -9.671  -6.459  1.00  0.00     0.167 HD
ATOM     59  C   UNL     1      11.555 -12.266  -5.342  1.00  0.00     0.074 A 
ATOM     60  C   UNL     1      11.232 -13.345  -4.432  1.00  0.00     0.031 C 
ATOM     61  C   UNL     1      12.128 -12.441  -6.558  1.00  0.00     0.031 A 
BRANCH  48  62
ATOM     62  C   UNL     1      12.896  -7.227  -9.765  1.00  0.00    -0.014 A 
ATOM     63  C   UNL     1      14.071  -6.458  -9.827  1.00  0.00     0.010 A 
ATOM     64  C   UNL     1      12.173  -7.473 -10.947  1.00  0.00     0.010 A 
ATOM     65  C   UNL     1      14.505  -5.929 -11.046  1.00  0.00     0.020 A 
ATOM     66  C   UNL     1      12.616  -6.964 -12.171  1.00  0.00     0.020 A 
ATOM     67  C   UNL     1      13.775  -6.187 -12.210  1.00  0.00     0.054 A 
BRANCH  67  68
ATOM     68  S   UNL     1      14.394  -5.534 -13.786  1.00  0.00     0.124 S 
ATOM     69  O   UNL     1      14.089  -4.111 -13.662  1.00  0.00    -0.237 OA
ATOM     70  O   UNL     1      15.812  -5.879 -13.741  1.00  0.00    -0.237 OA
ATOM     71  O   UNL     1      13.613  -6.253 -14.790  1.00  0.00    -0.744 OA
ENDBRANCH  67  68
ENDBRANCH  48  62
BRANCH  49  72
ATOM     72  C   UNL     1       9.497 -11.184  -1.256  1.00  0.00    -0.014 A 
ATOM     73  C   UNL     1      10.340 -11.781  -0.303  1.00  0.00     0.010 A 
ATOM     74  C   UNL     1       8.108 -11.182  -1.036  1.00  0.00     0.010 A 
ATOM     75  C   UNL     1       9.803 -12.392   0.834  1.00  0.00     0.020 A 
ATOM     76  C   UNL     1       7.568 -11.768   0.113  1.00  0.00     0.020 A 
ATOM     77  C   UNL     1       8.419 -12.384   1.032  1.00  0.00     0.054 A 
BRANCH  77  78
ATOM     78  S   UNL     1       7.741 -13.156   2.528  1.00  0.00     0.124 S 
ATOM     79  O   UNL     1       7.812 -14.575   2.195  1.00  0.00    -0.237 OA
ATOM     80  O   UNL     1       8.664 -12.702   3.566  1.00  0.00    -0.237 OA
ATOM     81  O   UNL     1       6.394 -12.598   2.617  1.00  0.00    -0.744 OA
ENDBRANCH  77  78
ENDBRANCH  49  72
BRANCH  61  82
ATOM     82  C   UNL     1      12.457 -13.850  -6.969  1.00  0.00    -0.014 A 
ATOM     83  C   UNL     1      11.443 -14.743  -7.358  1.00  0.00     0.010 A 
ATOM     84  C   UNL     1      13.798 -14.269  -7.017  1.00  0.00     0.010 A 
ATOM     85  C   UNL     1      11.764 -16.042  -7.761  1.00  0.00     0.020 A 
ATOM     86  C   UNL     1      14.124 -15.559  -7.444  1.00  0.00     0.020 A 
ATOM     87  C   UNL     1      13.103 -16.441  -7.801  1.00  0.00     0.054 A 
BRANCH  87  88
ATOM     88  S   UNL     1      13.498 -18.117  -8.372  1.00  0.00     0.124 S 
ATOM     89  O   UNL     1      13.122 -18.928  -7.217  1.00  0.00    -0.237 OA
ATOM     90  O   UNL     1      12.645 -18.266  -9.549  1.00  0.00    -0.237 OA
ATOM     91  O   UNL     1      14.931 -18.058  -8.653  1.00  0.00    -0.744 OA
ENDBRANCH  87  88
ENDBRANCH  61  82
ENDBRANCH  35  36
ENDBRANCH  27  30
ENDBRANCH  25  26
ENDBRANCH  24  25
ENDBRANCH   1  24
TORSDOF 18
