REMARK SMILES C[C@@H](C(=O)NCCCCNC(=O)c1ccc(-c2c3nc(c(-c4ccc(S(=O)(=O)[O-])cc4)c4ccc([nH]4)c(-c4ccc(S(=O)(=O)[O-])cc4)c4nc(c(-c5ccc(S(=O)(=O)[O-])cc5)c5ccc2[nH]5)C=C4)C=C3)cc1)c1ccc(Cc2ccoc2)cc1F
REMARK SMILES IDX 7 1 6 2 5 3 3 4 4 5 2 7 1 8 73 9 74 10 84 11 75 12 83 13
REMARK SMILES IDX 85 14 76 15 77 16 78 17 79 18 82 19 80 20 81 21 8 22 9 23
REMARK SMILES IDX 10 24 11 25 12 27 13 28 14 29 72 30 15 31 71 32 16 33 17 34
REMARK SMILES IDX 18 35 65 36 19 37 70 38 64 39 66 40 20 41 69 42 63 43 62 44
REMARK SMILES IDX 21 46 51 47 32 48 50 49 33 50 36 51 49 52 67 53 34 54 35 55
REMARK SMILES IDX 48 57 68 58 37 59 22 60 23 61 31 62 24 63 30 64 25 65 26 66
REMARK SMILES IDX 27 67 28 68 29 69 52 70 53 71 61 72 54 73 60 74 55 75 56 76
REMARK SMILES IDX 57 77 58 78 59 79 38 80 39 81 47 82 40 83 46 84 41 85 42 86
REMARK SMILES IDX 43 87 44 88 45 89
REMARK H PARENT 5 6 10 26 66 45 36 56
REMARK Flexibility Score: inf
ROOT
ATOM      1  C   UNL     1       4.177  -0.085   1.127  1.00  0.00     0.023 C 
ENDROOT
BRANCH   1   2
ATOM      2  C   UNL     1       3.381  -1.390   1.205  1.00  0.00     0.116 C 
BRANCH   2   3
ATOM      3  N   UNL     1       2.306  -1.284   2.169  1.00  0.00    -0.356 N 
ATOM      4  C   UNL     1       0.979  -1.019   1.986  1.00  0.00     0.227 C 
ATOM      5  O   UNL     1       0.302  -0.850   3.002  1.00  0.00    -0.274 OA
ATOM      6  H   UNL     1       2.574  -1.425   3.106  1.00  0.00     0.163 HD
BRANCH   4   7
ATOM      7  C   UNL     1       0.381  -0.970   0.568  1.00  0.00     0.108 C 
ATOM      8  C   UNL     1       0.903   0.228  -0.236  1.00  0.00     0.023 C 
BRANCH   7   9
ATOM      9  C   UNL     1      -1.145  -0.992   0.620  1.00  0.00    -0.000 A 
ATOM     10  C   UNL     1      -1.914   0.177   0.556  1.00  0.00     0.008 A 
ATOM     11  C   UNL     1      -1.820  -2.206   0.784  1.00  0.00     0.127 A 
ATOM     12  C   UNL     1      -3.308   0.121   0.599  1.00  0.00     0.004 A 
ATOM     13  C   UNL     1      -3.214  -2.266   0.866  1.00  0.00     0.043 A 
ATOM     14  F   UNL     1      -1.124  -3.351   0.843  1.00  0.00    -0.207 F 
ATOM     15  C   UNL     1      -3.981  -1.097   0.771  1.00  0.00    -0.041 A 
BRANCH  15  16
ATOM     16  C   UNL     1      -5.490  -1.151   0.788  1.00  0.00     0.074 C 
BRANCH  16  17
ATOM     17  C   UNL     1      -5.976  -0.602   2.089  1.00  0.00    -0.005 A 
ATOM     18  C   UNL     1      -5.904   0.738   2.579  1.00  0.00     0.046 A 
ATOM     19  C   UNL     1      -6.683  -1.291   3.057  1.00  0.00     0.198 A 
ATOM     20  C   UNL     1      -6.542   0.754   3.796  1.00  0.00     0.195 A 
ATOM     21  O   UNL     1      -7.029  -0.477   4.087  1.00  0.00    -0.472 OA
ENDBRANCH  16  17
ENDBRANCH  15  16
ENDBRANCH   7   9
ENDBRANCH   4   7
ENDBRANCH   2   3
ENDBRANCH   1   2
BRANCH   1  22
ATOM     22  C   UNL     1       4.969   0.259   2.393  1.00  0.00     0.023 C 
BRANCH  22  23
ATOM     23  C   UNL     1       5.989  -0.788   2.826  1.00  0.00     0.116 C 
BRANCH  23  24
ATOM     24  N   UNL     1       6.980  -1.070   1.800  1.00  0.00    -0.352 N 
ATOM     25  C   UNL     1       8.331  -1.275   1.940  1.00  0.00     0.251 C 
ATOM     26  H   UNL     1       6.635  -1.122   0.879  1.00  0.00     0.163 HD
ATOM     27  O   UNL     1       9.042  -1.373   0.944  1.00  0.00    -0.269 OA
BRANCH  25  28
ATOM     28  C   UNL     1       8.926  -1.341   3.292  1.00  0.00     0.039 A 
ATOM     29  C   UNL     1      10.081  -0.600   3.556  1.00  0.00     0.014 A 
ATOM     30  C   UNL     1       8.339  -2.113   4.298  1.00  0.00     0.014 A 
ATOM     31  C   UNL     1      10.609  -0.582   4.849  1.00  0.00     0.010 A 
ATOM     32  C   UNL     1       8.827  -2.039   5.600  1.00  0.00     0.010 A 
ATOM     33  C   UNL     1       9.966  -1.272   5.889  1.00  0.00    -0.014 A 
BRANCH  33  34
ATOM     34  C   UNL     1      10.461  -1.195   7.287  1.00  0.00     0.031 A 
ATOM     35  C   UNL     1      10.970  -2.429   7.981  1.00  0.00     0.074 A 
ATOM     36  C   UNL     1      10.387  -0.026   7.955  1.00  0.00     0.049 A 
ATOM     37  N   UNL     1      11.384  -2.569   9.214  1.00  0.00    -0.248 NA
ATOM     38  C   UNL     1      10.993  -3.673   7.195  1.00  0.00     0.031 C 
ATOM     39  C   UNL     1       9.869   1.231   7.409  1.00  0.00     0.029 A 
ATOM     40  N   UNL     1      10.737   0.292   9.244  1.00  0.00    -0.354 N 
ATOM     41  C   UNL     1      11.696  -3.915   9.358  1.00  0.00     0.074 A 
ATOM     42  C   UNL     1      11.383  -4.558   8.101  1.00  0.00     0.031 C 
ATOM     43  C   UNL     1       9.957   2.187   8.348  1.00  0.00     0.029 A 
ATOM     44  C   UNL     1      10.499   1.606   9.572  1.00  0.00     0.049 A 
ATOM     45  H   UNL     1      11.123  -0.359   9.873  1.00  0.00     0.167 HD
ATOM     46  C   UNL     1      12.211  -4.556  10.434  1.00  0.00     0.031 A 
ATOM     47  C   UNL     1      10.687   2.269  10.730  1.00  0.00     0.031 A 
ATOM     48  C   UNL     1      12.536  -3.911  11.679  1.00  0.00     0.049 A 
ATOM     49  C   UNL     1      11.267   1.538  11.909  1.00  0.00     0.074 A 
ATOM     50  C   UNL     1      13.123  -4.462  12.805  1.00  0.00     0.029 A 
ATOM     51  N   UNL     1      12.299  -2.575  11.964  1.00  0.00    -0.354 N 
ATOM     52  N   UNL     1      11.623   0.279  12.002  1.00  0.00    -0.248 NA
ATOM     53  C   UNL     1      11.485   2.320  13.134  1.00  0.00     0.031 C 
ATOM     54  C   UNL     1      13.196  -3.470  13.788  1.00  0.00     0.029 A 
ATOM     55  C   UNL     1      12.707  -2.288  13.256  1.00  0.00     0.049 A 
ATOM     56  H   UNL     1      11.900  -1.926  11.340  1.00  0.00     0.167 HD
ATOM     57  C   UNL     1      12.128   0.123  13.288  1.00  0.00     0.074 A 
ATOM     58  C   UNL     1      12.046   1.420  13.930  1.00  0.00     0.031 C 
ATOM     59  C   UNL     1      12.618  -0.993  13.883  1.00  0.00     0.031 A 
BRANCH  46  60
ATOM     60  C   UNL     1      12.452  -6.038  10.313  1.00  0.00    -0.014 A 
ATOM     61  C   UNL     1      13.477  -6.544   9.493  1.00  0.00     0.010 A 
ATOM     62  C   UNL     1      11.670  -6.936  11.062  1.00  0.00     0.010 A 
ATOM     63  C   UNL     1      13.688  -7.921   9.391  1.00  0.00     0.020 A 
ATOM     64  C   UNL     1      11.896  -8.314  10.985  1.00  0.00     0.020 A 
ATOM     65  C   UNL     1      12.893  -8.798  10.136  1.00  0.00     0.054 A 
BRANCH  65  66
ATOM     66  S   UNL     1      13.204 -10.580  10.002  1.00  0.00     0.124 S 
ATOM     67  O   UNL     1      12.663 -10.880   8.678  1.00  0.00    -0.237 OA
ATOM     68  O   UNL     1      14.658 -10.662  10.118  1.00  0.00    -0.237 OA
ATOM     69  O   UNL     1      12.459 -11.148  11.122  1.00  0.00    -0.744 OA
ENDBRANCH  65  66
ENDBRANCH  46  60
BRANCH  47  70
ATOM     70  C   UNL     1      10.335   3.712  10.822  1.00  0.00    -0.014 A 
ATOM     71  C   UNL     1      11.344   4.689  10.890  1.00  0.00     0.010 A 
ATOM     72  C   UNL     1       8.989   4.119  10.817  1.00  0.00     0.010 A 
ATOM     73  C   UNL     1      11.013   6.045  10.965  1.00  0.00     0.020 A 
ATOM     74  C   UNL     1       8.654   5.475  10.865  1.00  0.00     0.020 A 
ATOM     75  C   UNL     1       9.670   6.430  10.949  1.00  0.00     0.054 A 
BRANCH  75  76
ATOM     76  S   UNL     1       9.265   8.199  10.985  1.00  0.00     0.124 S 
ATOM     77  O   UNL     1       9.537   8.544  12.376  1.00  0.00    -0.237 OA
ATOM     78  O   UNL     1      10.191   8.754  10.001  1.00  0.00    -0.237 OA
ATOM     79  O   UNL     1       7.858   8.235  10.593  1.00  0.00    -0.744 OA
ENDBRANCH  75  76
ENDBRANCH  47  70
BRANCH  59  80
ATOM     80  C   UNL     1      13.134  -0.859  15.290  1.00  0.00    -0.014 A 
ATOM     81  C   UNL     1      12.257  -0.697  16.377  1.00  0.00     0.010 A 
ATOM     82  C   UNL     1      14.517  -0.956  15.533  1.00  0.00     0.010 A 
ATOM     83  C   UNL     1      12.756  -0.604  17.679  1.00  0.00     0.020 A 
ATOM     84  C   UNL     1      15.017  -0.891  16.835  1.00  0.00     0.020 A 
ATOM     85  C   UNL     1      14.134  -0.702  17.900  1.00  0.00     0.054 A 
BRANCH  85  86
ATOM     86  S   UNL     1      14.753  -0.625  19.603  1.00  0.00     0.124 S 
ATOM     87  O   UNL     1      14.619   0.796  19.910  1.00  0.00    -0.237 OA
ATOM     88  O   UNL     1      13.839  -1.512  20.318  1.00  0.00    -0.237 OA
ATOM     89  O   UNL     1      16.127  -1.112  19.494  1.00  0.00    -0.744 OA
ENDBRANCH  85  86
ENDBRANCH  59  80
ENDBRANCH  33  34
ENDBRANCH  25  28
ENDBRANCH  23  24
ENDBRANCH  22  23
ENDBRANCH   1  22
TORSDOF 17
