REMARK SMILES Cc1nnc(SCC2=C(C(=O)NCCCCNC(=O)c3ccc(-c4c5nc(c(-c6ccc(S(=O)(=O)[O-])cc6)c6ccc([nH]6)c(-c6ccc(S(=O)(=O)[O-])cc6)c6nc(c(-c7ccc(S(=O)(=O)[O-])cc7)c7ccc4[nH]7)C=C6)C=C5)cc3)N3C(=O)[C@H](NC(=O)c4cn(C)nc4C)[C@@H]3SC2)s1
REMARK SMILES IDX 14 1 13 2 12 3 10 4 11 5 9 7 8 8 96 9 80 10 95 11 81 12
REMARK SMILES IDX 94 13 82 14 83 15 7 16 6 17 5 18 1 19 2 20 3 21 97 22 4 23
REMARK SMILES IDX 84 24 85 25 86 27 87 28 88 29 92 30 89 31 91 32 93 33 90 34
REMARK SMILES IDX 15 35 16 36 17 37 18 38 19 40 20 41 21 42 79 43 22 44 78 45
REMARK SMILES IDX 23 46 24 47 25 48 72 49 26 50 77 51 71 52 73 53 27 54 76 55
REMARK SMILES IDX 70 56 69 57 28 59 58 60 39 61 57 62 40 63 43 64 56 65 74 66
REMARK SMILES IDX 41 67 42 68 55 70 75 71 44 72 29 73 30 74 38 75 31 76 37 77
REMARK SMILES IDX 32 78 33 79 34 80 35 81 36 82 59 83 60 84 68 85 61 86 67 87
REMARK SMILES IDX 62 88 63 89 64 90 65 91 66 92 45 93 46 94 54 95 47 96 53 97
REMARK SMILES IDX 48 98 49 99 50 100 51 101 52 102
REMARK H PARENT 12 6 84 26 17 39 73 58 43 69
REMARK Flexibility Score: inf
ROOT
ATOM      1  C   UNL     1       7.253  -0.292  -1.754  1.00  0.00     0.023 C 
ENDROOT
BRANCH   1   2
ATOM      2  C   UNL     1       6.045  -0.711  -0.922  1.00  0.00     0.116 C 
BRANCH   2   3
ATOM      3  N   UNL     1       5.691  -2.111  -0.854  1.00  0.00    -0.351 N 
ATOM      4  C   UNL     1       4.815  -2.802  -0.051  1.00  0.00     0.268 C 
ATOM      5  O   UNL     1       4.506  -3.924  -0.457  1.00  0.00    -0.268 OA
ATOM      6  H   UNL     1       6.167  -2.675  -1.506  1.00  0.00     0.163 HD
BRANCH   4   7
ATOM      7  C   UNL     1       4.315  -2.317   1.326  1.00  0.00     0.111 C 
ATOM      8  C   UNL     1       3.766  -1.091   1.598  1.00  0.00    -0.020 C 
ATOM      9  C   UNL     1       3.335  -0.662   2.993  1.00  0.00     0.106 C 
ATOM     10  N   UNL     1       4.336  -3.271   2.326  1.00  0.00    -0.290 N 
ATOM     11  S   UNL     1       2.800  -1.988   4.081  1.00  0.00    -0.129 SA
ATOM     12  C   UNL     1       4.422  -4.622   2.453  1.00  0.00     0.253 C 
ATOM     13  C   UNL     1       4.249  -2.995   3.746  1.00  0.00     0.181 C 
ATOM     14  O   UNL     1       4.604  -5.554   1.710  1.00  0.00    -0.272 OA
ATOM     15  C   UNL     1       4.078  -4.525   3.974  1.00  0.00     0.206 C 
BRANCH   8  16
ATOM     16  C   UNL     1       3.535  -0.044   0.523  1.00  0.00     0.111 C 
BRANCH  16  17
ATOM     17  S   UNL     1       2.302   1.250   0.750  1.00  0.00    -0.089 SA
BRANCH  17  18
ATOM     18  C   UNL     1       0.825   0.413   0.386  1.00  0.00     0.174 A 
ATOM     19  C   UNL     1      -2.858  -0.427  -0.166  1.00  0.00     0.081 C 
ATOM     20  C   UNL     1      -1.392  -0.305   0.005  1.00  0.00     0.115 A 
ATOM     21  N   UNL     1      -0.534  -1.302  -0.045  1.00  0.00    -0.143 NA
ATOM     22  S   UNL     1      -0.679   1.225   0.310  1.00  0.00    -0.091 S 
ATOM     23  N   UNL     1       0.761  -0.881   0.179  1.00  0.00    -0.132 NA
ENDBRANCH  17  18
ENDBRANCH  16  17
ENDBRANCH   8  16
BRANCH  15  24
ATOM     24  N   UNL     1       2.717  -5.003   4.357  1.00  0.00    -0.337 N 
ATOM     25  C   UNL     1       2.281  -5.560   5.534  1.00  0.00     0.255 C 
ATOM     26  H   UNL     1       2.028  -4.904   3.660  1.00  0.00     0.164 HD
ATOM     27  O   UNL     1       1.111  -5.922   5.630  1.00  0.00    -0.269 OA
BRANCH  25  28
ATOM     28  C   UNL     1       3.227  -5.745   6.617  1.00  0.00     0.080 A 
ATOM     29  C   UNL     1       4.117  -4.829   7.147  1.00  0.00     0.122 A 
ATOM     30  C   UNL     1       3.401  -6.905   7.424  1.00  0.00     0.072 A 
ATOM     31  N   UNL     1       4.799  -5.484   8.129  1.00  0.00    -0.275 N 
ATOM     32  N   UNL     1       4.374  -6.740   8.331  1.00  0.00    -0.178 NA
ATOM     33  C   UNL     1       2.692  -8.208   7.341  1.00  0.00     0.069 C 
ATOM     34  C   UNL     1       5.907  -4.983   8.905  1.00  0.00     0.173 C 
ENDBRANCH  25  28
ENDBRANCH  15  24
ENDBRANCH   4   7
ENDBRANCH   2   3
ENDBRANCH   1   2
BRANCH   1  35
ATOM     35  C   UNL     1       7.262  -0.617  -3.249  1.00  0.00     0.023 C 
BRANCH  35  36
ATOM     36  C   UNL     1       5.958  -0.482  -4.034  1.00  0.00     0.116 C 
BRANCH  36  37
ATOM     37  N   UNL     1       5.404   0.866  -4.093  1.00  0.00    -0.352 N 
ATOM     38  C   UNL     1       5.275   1.747  -5.147  1.00  0.00     0.251 C 
ATOM     39  H   UNL     1       5.063   1.205  -3.234  1.00  0.00     0.163 HD
ATOM     40  O   UNL     1       4.780   2.854  -4.951  1.00  0.00    -0.269 OA
BRANCH  38  41
ATOM     41  C   UNL     1       5.784   1.397  -6.492  1.00  0.00     0.039 A 
ATOM     42  C   UNL     1       6.620   2.305  -7.151  1.00  0.00     0.014 A 
ATOM     43  C   UNL     1       5.487   0.171  -7.085  1.00  0.00     0.014 A 
ATOM     44  C   UNL     1       7.272   1.921  -8.327  1.00  0.00     0.010 A 
ATOM     45  C   UNL     1       6.205  -0.244  -8.204  1.00  0.00     0.010 A 
ATOM     46  C   UNL     1       7.131   0.613  -8.819  1.00  0.00    -0.014 A 
BRANCH  46  47
ATOM     47  C   UNL     1       7.987   0.095  -9.921  1.00  0.00     0.031 A 
ATOM     48  C   UNL     1       7.369  -0.419 -11.193  1.00  0.00     0.074 A 
ATOM     49  C   UNL     1       9.319  -0.017  -9.731  1.00  0.00     0.049 A 
ATOM     50  N   UNL     1       7.942  -1.020 -12.204  1.00  0.00    -0.248 NA
ATOM     51  C   UNL     1       5.912  -0.264 -11.333  1.00  0.00     0.031 C 
ATOM     52  C   UNL     1      10.044   0.393  -8.524  1.00  0.00     0.029 A 
ATOM     53  N   UNL     1      10.303  -0.526 -10.545  1.00  0.00    -0.354 N 
ATOM     54  C   UNL     1       6.917  -1.339 -13.086  1.00  0.00     0.074 A 
ATOM     55  C   UNL     1       5.681  -0.903 -12.471  1.00  0.00     0.031 C 
ATOM     56  C   UNL     1      11.353   0.142  -8.687  1.00  0.00     0.029 A 
ATOM     57  C   UNL     1      11.560  -0.490  -9.985  1.00  0.00     0.049 A 
ATOM     58  H   UNL     1      10.125  -0.883 -11.445  1.00  0.00     0.167 HD
ATOM     59  C   UNL     1       6.995  -1.925 -14.304  1.00  0.00     0.031 A 
ATOM     60  C   UNL     1      12.745  -0.929 -10.452  1.00  0.00     0.031 A 
ATOM     61  C   UNL     1       8.225  -2.340 -14.925  1.00  0.00     0.049 A 
ATOM     62  C   UNL     1      12.807  -1.581 -11.805  1.00  0.00     0.074 A 
ATOM     63  C   UNL     1       8.413  -2.876 -16.187  1.00  0.00     0.029 A 
ATOM     64  N   UNL     1       9.476  -2.267 -14.331  1.00  0.00    -0.354 N 
ATOM     65  N   UNL     1      11.833  -1.807 -12.653  1.00  0.00    -0.248 NA
ATOM     66  C   UNL     1      14.127  -2.034 -12.266  1.00  0.00     0.031 C 
ATOM     67  C   UNL     1       9.772  -3.171 -16.339  1.00  0.00     0.029 A 
ATOM     68  C   UNL     1      10.437  -2.771 -15.191  1.00  0.00     0.049 A 
ATOM     69  H   UNL     1       9.654  -1.909 -13.432  1.00  0.00     0.167 HD
ATOM     70  C   UNL     1      12.425  -2.413 -13.756  1.00  0.00     0.074 A 
ATOM     71  C   UNL     1      13.844  -2.502 -13.474  1.00  0.00     0.031 C 
ATOM     72  C   UNL     1      11.845  -2.855 -14.898  1.00  0.00     0.031 A 
BRANCH  59  73
ATOM     73  C   UNL     1       5.707  -2.153 -15.050  1.00  0.00    -0.014 A 
ATOM     74  C   UNL     1       4.986  -1.075 -15.593  1.00  0.00     0.010 A 
ATOM     75  C   UNL     1       5.230  -3.462 -15.242  1.00  0.00     0.010 A 
ATOM     76  C   UNL     1       3.788  -1.298 -16.276  1.00  0.00     0.020 A 
ATOM     77  C   UNL     1       4.046  -3.692 -15.949  1.00  0.00     0.020 A 
ATOM     78  C   UNL     1       3.322  -2.605 -16.445  1.00  0.00     0.054 A 
BRANCH  78  79
ATOM     79  S   UNL     1       1.773  -2.865 -17.351  1.00  0.00     0.124 S 
ATOM     80  O   UNL     1       0.778  -2.429 -16.375  1.00  0.00    -0.237 OA
ATOM     81  O   UNL     1       1.932  -1.997 -18.515  1.00  0.00    -0.237 OA
ATOM     82  O   UNL     1       1.776  -4.297 -17.640  1.00  0.00    -0.744 OA
ENDBRANCH  78  79
ENDBRANCH  59  73
BRANCH  60  83
ATOM     83  C   UNL     1      13.977  -0.761  -9.632  1.00  0.00    -0.014 A 
ATOM     84  C   UNL     1      14.955   0.178 -10.002  1.00  0.00     0.010 A 
ATOM     85  C   UNL     1      14.173  -1.530  -8.470  1.00  0.00     0.010 A 
ATOM     86  C   UNL     1      16.112   0.337  -9.234  1.00  0.00     0.020 A 
ATOM     87  C   UNL     1      15.318  -1.356  -7.686  1.00  0.00     0.020 A 
ATOM     88  C   UNL     1      16.285  -0.430  -8.079  1.00  0.00     0.054 A 
BRANCH  88  89
ATOM     89  S   UNL     1      17.767  -0.166  -7.065  1.00  0.00     0.124 S 
ATOM     90  O   UNL     1      18.799  -0.830  -7.856  1.00  0.00    -0.237 OA
ATOM     91  O   UNL     1      17.855   1.291  -7.005  1.00  0.00    -0.237 OA
ATOM     92  O   UNL     1      17.433  -0.813  -5.798  1.00  0.00    -0.744 OA
ENDBRANCH  88  89
ENDBRANCH  60  83
BRANCH  72  93
ATOM     93  C   UNL     1      12.741  -3.460 -15.944  1.00  0.00    -0.014 A 
ATOM     94  C   UNL     1      13.278  -4.748 -15.780  1.00  0.00     0.010 A 
ATOM     95  C   UNL     1      12.988  -2.758 -17.138  1.00  0.00     0.010 A 
ATOM     96  C   UNL     1      14.062  -5.319 -16.787  1.00  0.00     0.020 A 
ATOM     97  C   UNL     1      13.751  -3.335 -18.156  1.00  0.00     0.020 A 
ATOM     98  C   UNL     1      14.290  -4.609 -17.970  1.00  0.00     0.054 A 
BRANCH  98  99
ATOM     99  S   UNL     1      15.256  -5.398 -19.288  1.00  0.00     0.124 S 
ATOM    100  O   UNL     1      16.615  -5.313 -18.762  1.00  0.00    -0.237 OA
ATOM    101  O   UNL     1      14.686  -6.742 -19.344  1.00  0.00    -0.237 OA
ATOM    102  O   UNL     1      14.988  -4.566 -20.459  1.00  0.00    -0.744 OA
ENDBRANCH  98  99
ENDBRANCH  72  93
ENDBRANCH  46  47
ENDBRANCH  38  41
ENDBRANCH  36  37
ENDBRANCH  35  36
ENDBRANCH   1  35
TORSDOF 19
