REMARK SMILES CC[C@@](C)(NS(=O)(=O)c1ccc(F)c(Cl)c1)C(=O)NCCCCNC(=O)c1ccc(-c2c3nc(c(-c4ccc(S(=O)(=O)[O-])cc4)c4ccc([nH]4)c(-c4ccc(S(=O)(=O)[O-])cc4)c4nc(c(-c5ccc(S(=O)(=O)[O-])cc5)c5ccc2[nH]5)C=C4)C=C3)cc1
REMARK SMILES IDX 21 1 20 2 19 3 17 4 18 5 3 7 4 8 2 9 1 10 5 11 6 13 7 14
REMARK SMILES IDX 8 15 9 16 10 17 16 18 11 19 14 20 12 21 15 22 13 23 22 24
REMARK SMILES IDX 23 25 24 26 25 27 26 29 27 30 28 31 86 32 29 33 85 34 30 35
REMARK SMILES IDX 31 36 32 37 79 38 33 39 84 40 78 41 80 42 34 43 83 44 77 45
REMARK SMILES IDX 76 46 35 48 65 49 46 50 64 51 47 52 50 53 63 54 81 55 48 56
REMARK SMILES IDX 49 57 62 59 82 60 51 61 36 62 37 63 45 64 38 65 44 66 39 67
REMARK SMILES IDX 40 68 41 69 42 70 43 71 66 72 67 73 75 74 68 75 74 76 69 77
REMARK SMILES IDX 70 78 71 79 72 80 73 81 52 82 53 83 61 84 54 85 60 86 55 87
REMARK SMILES IDX 56 88 57 89 58 90 59 91
REMARK H PARENT 19 6 5 12 24 28 80 47 50 58
REMARK Flexibility Score: inf
ROOT
ATOM      1  C   UNL     1       2.034   5.399   4.215  1.00  0.00     0.023 C 
ENDROOT
BRANCH   1   2
ATOM      2  C   UNL     1       1.883   4.839   2.778  1.00  0.00     0.116 C 
BRANCH   2   3
ATOM      3  N   UNL     1       2.637   3.662   2.340  1.00  0.00    -0.354 N 
ATOM      4  C   UNL     1       2.348   2.392   1.911  1.00  0.00     0.241 C 
ATOM      5  O   UNL     1       3.310   1.801   1.398  1.00  0.00    -0.273 OA
ATOM      6  H   UNL     1       3.607   3.826   2.358  1.00  0.00     0.163 HD
BRANCH   4   7
ATOM      7  C   UNL     1       1.007   1.631   2.095  1.00  0.00     0.108 C 
ATOM      8  C   UNL     1      -0.191   2.442   1.585  1.00  0.00     0.040 C 
BRANCH   7   9
ATOM      9  C   UNL     1       1.000   0.259   1.297  1.00  0.00     0.030 C 
ATOM     10  C   UNL     1       1.195   0.262  -0.214  1.00  0.00     0.006 C 
ENDBRANCH   7   9
BRANCH   7  11
ATOM     11  N   UNL     1       0.718   1.153   3.469  1.00  0.00    -0.196 NA
ATOM     12  H   UNL     1       0.599   0.146   3.355  1.00  0.00     0.142 HD
BRANCH  11  13
ATOM     13  S   UNL     1       1.577   1.292   4.879  1.00  0.00     0.241 S 
ATOM     14  O   UNL     1       1.413   2.647   5.346  1.00  0.00    -0.207 OA
ATOM     15  O   UNL     1       1.091   0.199   5.693  1.00  0.00    -0.207 OA
BRANCH  13  16
ATOM     16  C   UNL     1       3.308   1.002   4.604  1.00  0.00     0.084 A 
ATOM     17  C   UNL     1       3.884  -0.251   4.779  1.00  0.00     0.025 A 
ATOM     18  C   UNL     1       4.146   2.104   4.421  1.00  0.00     0.045 A 
ATOM     19  C   UNL     1       5.280  -0.384   4.702  1.00  0.00     0.042 A 
ATOM     20  C   UNL     1       5.524   1.977   4.295  1.00  0.00     0.078 A 
ATOM     21  C   UNL     1       6.090   0.725   4.445  1.00  0.00     0.141 A 
ATOM     22  Cl  UNL     1       6.479   3.369   3.959  1.00  0.00    -0.081 Cl
ATOM     23  F   UNL     1       7.418   0.562   4.366  1.00  0.00    -0.205 F 
ENDBRANCH  13  16
ENDBRANCH  11  13
ENDBRANCH   7  11
ENDBRANCH   4   7
ENDBRANCH   2   3
ENDBRANCH   1   2
BRANCH   1  24
ATOM     24  C   UNL     1       3.393   5.661   4.871  1.00  0.00     0.023 C 
BRANCH  24  25
ATOM     25  C   UNL     1       4.331   6.549   4.082  1.00  0.00     0.116 C 
BRANCH  25  26
ATOM     26  N   UNL     1       4.069   7.944   4.392  1.00  0.00    -0.352 N 
ATOM     27  C   UNL     1       4.893   8.819   5.062  1.00  0.00     0.251 C 
ATOM     28  H   UNL     1       3.205   8.304   4.087  1.00  0.00     0.163 HD
ATOM     29  O   UNL     1       4.417   9.810   5.607  1.00  0.00    -0.269 OA
BRANCH  27  30
ATOM     30  C   UNL     1       6.352   8.560   5.112  1.00  0.00     0.039 A 
ATOM     31  C   UNL     1       7.071   8.884   6.265  1.00  0.00     0.014 A 
ATOM     32  C   UNL     1       7.016   8.035   3.999  1.00  0.00     0.014 A 
ATOM     33  C   UNL     1       8.453   8.682   6.295  1.00  0.00     0.010 A 
ATOM     34  C   UNL     1       8.373   7.739   4.069  1.00  0.00     0.010 A 
ATOM     35  C   UNL     1       9.116   8.108   5.197  1.00  0.00    -0.014 A 
BRANCH  35  36
ATOM     36  C   UNL     1      10.595   7.978   5.177  1.00  0.00     0.031 A 
ATOM     37  C   UNL     1      11.398   8.749   4.158  1.00  0.00     0.074 A 
ATOM     38  C   UNL     1      11.214   7.172   6.061  1.00  0.00     0.049 A 
ATOM     39  N   UNL     1      12.696   8.792   3.991  1.00  0.00    -0.248 NA
ATOM     40  C   UNL     1      10.648   9.561   3.184  1.00  0.00     0.031 C 
ATOM     41  C   UNL     1      10.545   6.347   7.070  1.00  0.00     0.029 A 
ATOM     42  N   UNL     1      12.549   6.923   6.262  1.00  0.00    -0.354 N 
ATOM     43  C   UNL     1      12.909   9.614   2.890  1.00  0.00     0.074 A 
ATOM     44  C   UNL     1      11.611  10.000   2.389  1.00  0.00     0.031 C 
ATOM     45  C   UNL     1      11.474   5.724   7.814  1.00  0.00     0.029 A 
ATOM     46  C   UNL     1      12.800   6.069   7.309  1.00  0.00     0.049 A 
ATOM     47  H   UNL     1      13.260   7.320   5.708  1.00  0.00     0.167 HD
ATOM     48  C   UNL     1      14.080  10.036   2.358  1.00  0.00     0.031 A 
ATOM     49  C   UNL     1      13.967   5.617   7.809  1.00  0.00     0.031 A 
ATOM     50  C   UNL     1      15.371   9.666   2.872  1.00  0.00     0.049 A 
ATOM     51  C   UNL     1      15.256   6.088   7.191  1.00  0.00     0.074 A 
ATOM     52  C   UNL     1      16.618  10.085   2.445  1.00  0.00     0.029 A 
ATOM     53  N   UNL     1      15.580   8.788   3.925  1.00  0.00    -0.354 N 
ATOM     54  N   UNL     1      15.438   6.927   6.198  1.00  0.00    -0.248 NA
ATOM     55  C   UNL     1      16.500   5.561   7.769  1.00  0.00     0.031 C 
ATOM     56  C   UNL     1      17.584   9.409   3.197  1.00  0.00     0.029 A 
ATOM     57  C   UNL     1      16.937   8.626   4.140  1.00  0.00     0.049 A 
ATOM     58  H   UNL     1      14.868   8.345   4.442  1.00  0.00     0.167 HD
ATOM     59  C   UNL     1      16.816   7.051   6.054  1.00  0.00     0.074 A 
ATOM     60  C   UNL     1      17.418   6.215   7.072  1.00  0.00     0.031 C 
ATOM     61  C   UNL     1      17.519   7.790   5.160  1.00  0.00     0.031 A 
BRANCH  48  62
ATOM     62  C   UNL     1      14.019  10.937   1.151  1.00  0.00    -0.014 A 
ATOM     63  C   UNL     1      13.536  12.255   1.245  1.00  0.00     0.010 A 
ATOM     64  C   UNL     1      14.494  10.472  -0.089  1.00  0.00     0.010 A 
ATOM     65  C   UNL     1      13.490  13.076   0.115  1.00  0.00     0.020 A 
ATOM     66  C   UNL     1      14.481  11.301  -1.215  1.00  0.00     0.020 A 
ATOM     67  C   UNL     1      13.964  12.593  -1.109  1.00  0.00     0.054 A 
BRANCH  67  68
ATOM     68  S   UNL     1      13.922  13.692  -2.551  1.00  0.00     0.124 S 
ATOM     69  O   UNL     1      12.491  13.763  -2.835  1.00  0.00    -0.237 OA
ATOM     70  O   UNL     1      14.522  14.920  -2.034  1.00  0.00    -0.237 OA
ATOM     71  O   UNL     1      14.720  12.985  -3.550  1.00  0.00    -0.744 OA
ENDBRANCH  67  68
ENDBRANCH  48  62
BRANCH  49  72
ATOM     72  C   UNL     1      13.971   4.680   8.967  1.00  0.00    -0.014 A 
ATOM     73  C   UNL     1      14.463   5.089  10.220  1.00  0.00     0.010 A 
ATOM     74  C   UNL     1      13.481   3.369   8.823  1.00  0.00     0.010 A 
ATOM     75  C   UNL     1      14.487   4.199  11.298  1.00  0.00     0.020 A 
ATOM     76  C   UNL     1      13.473   2.486   9.907  1.00  0.00     0.020 A 
ATOM     77  C   UNL     1      13.990   2.903  11.135  1.00  0.00     0.054 A 
BRANCH  77  78
ATOM     78  S   UNL     1      13.998   1.778  12.558  1.00  0.00     0.124 S 
ATOM     79  O   UNL     1      15.420   1.481  12.703  1.00  0.00    -0.237 OA
ATOM     80  O   UNL     1      13.412   2.601  13.613  1.00  0.00    -0.237 OA
ATOM     81  O   UNL     1      13.167   0.660  12.116  1.00  0.00    -0.744 OA
ENDBRANCH  77  78
ENDBRANCH  49  72
BRANCH  61  82
ATOM     82  C   UNL     1      19.022   7.762   5.264  1.00  0.00    -0.014 A 
ATOM     83  C   UNL     1      19.759   6.619   4.911  1.00  0.00     0.010 A 
ATOM     84  C   UNL     1      19.708   8.925   5.662  1.00  0.00     0.010 A 
ATOM     85  C   UNL     1      21.154   6.628   4.988  1.00  0.00     0.020 A 
ATOM     86  C   UNL     1      21.103   8.948   5.708  1.00  0.00     0.020 A 
ATOM     87  C   UNL     1      21.818   7.793   5.384  1.00  0.00     0.054 A 
BRANCH  87  88
ATOM     88  S   UNL     1      23.630   7.792   5.431  1.00  0.00     0.124 S 
ATOM     89  O   UNL     1      23.904   6.954   6.595  1.00  0.00    -0.237 OA
ATOM     90  O   UNL     1      23.983   7.208   4.139  1.00  0.00    -0.237 OA
ATOM     91  O   UNL     1      23.975   9.203   5.585  1.00  0.00    -0.744 OA
ENDBRANCH  87  88
ENDBRANCH  61  82
ENDBRANCH  35  36
ENDBRANCH  27  30
ENDBRANCH  25  26
ENDBRANCH  24  25
ENDBRANCH   1  24
TORSDOF 18
