REMARK SMILES Cc1cc(C(=O)N[C@@H]2C(=O)N3C(C(=O)NCCCCNC(=O)c4ccc(-c5c6nc(c(-c7ccc(S(=O)(=O)[O-])cc7)c7ccc([nH]7)c(-c7ccc(S(=O)(=O)[O-])cc7)c7nc(c(-c8ccc(S(=O)(=O)[O-])cc8)c8ccc5[nH]8)C=C7)C=C6)cc4)=C(CSc4nnc(C)s4)CS[C@H]23)n(C)n1
REMARK SMILES IDX 17 1 16 2 15 3 13 4 14 5 12 7 8 8 9 9 94 10 10 11 11 12
REMARK SMILES IDX 93 13 92 14 83 15 7 16 5 17 6 18 4 20 1 21 2 22 3 23 97 24
REMARK SMILES IDX 95 25 96 26 84 27 85 28 86 29 87 30 91 31 88 32 89 33 90 34
REMARK SMILES IDX 18 35 19 36 20 37 21 38 22 40 23 41 24 42 82 43 25 44 81 45
REMARK SMILES IDX 26 46 27 47 28 48 75 49 29 50 80 51 74 52 76 53 30 54 79 55
REMARK SMILES IDX 73 56 72 57 31 59 61 60 42 61 60 62 43 63 46 64 59 65 77 66
REMARK SMILES IDX 44 67 45 68 58 70 78 71 47 72 32 73 33 74 41 75 34 76 40 77
REMARK SMILES IDX 35 78 36 79 37 80 38 81 39 82 62 83 63 84 71 85 64 86 70 87
REMARK SMILES IDX 65 88 66 89 67 90 68 91 69 92 48 93 49 94 57 95 50 96 56 97
REMARK SMILES IDX 51 98 52 99 53 100 54 101 55 102
REMARK H PARENT 15 6 7 19 20 39 76 58 46 69
REMARK Flexibility Score: inf
ROOT
ATOM      1  C   UNL     1      -5.803  -0.560  -3.859  1.00  0.00     0.023 C 
ENDROOT
BRANCH   1   2
ATOM      2  C   UNL     1      -4.344  -0.629  -4.324  1.00  0.00     0.116 C 
BRANCH   2   3
ATOM      3  N   UNL     1      -3.442  -0.431  -3.210  1.00  0.00    -0.351 N 
ATOM      4  C   UNL     1      -2.660  -1.197  -2.413  1.00  0.00     0.268 C 
ATOM      5  O   UNL     1      -1.890  -0.523  -1.715  1.00  0.00    -0.268 OA
ATOM      6  H   UNL     1      -3.380   0.520  -2.964  1.00  0.00     0.163 HD
BRANCH   4   7
ATOM      7  C   UNL     1      -2.503  -2.729  -2.441  1.00  0.00     0.111 C 
ATOM      8  C   UNL     1      -0.091  -4.085  -0.384  1.00  0.00     0.206 C 
ATOM      9  C   UNL     1      -1.077  -2.884  -0.389  1.00  0.00     0.253 C 
ATOM     10  C   UNL     1      -0.876  -4.494  -1.661  1.00  0.00     0.181 C 
ATOM     11  O   UNL     1      -1.489  -2.130   0.470  1.00  0.00    -0.272 OA
ATOM     12  N   UNL     1      -1.403  -3.144  -1.696  1.00  0.00    -0.290 N 
ATOM     13  S   UNL     1      -2.248  -5.672  -1.442  1.00  0.00    -0.129 SA
ATOM     14  C   UNL     1      -2.925  -5.160  -3.021  1.00  0.00     0.106 C 
ATOM     15  C   UNL     1      -3.340  -3.703  -2.921  1.00  0.00    -0.020 C 
BRANCH   8  16
ATOM     16  N   UNL     1      -0.083  -4.971   0.813  1.00  0.00    -0.336 N 
ATOM     17  C   UNL     1       0.256  -6.307   0.923  1.00  0.00     0.270 C 
ATOM     18  O   UNL     1       0.218  -6.816   2.042  1.00  0.00    -0.268 OA
ATOM     19  H   UNL     1      -0.361  -4.541   1.653  1.00  0.00     0.164 HD
BRANCH  17  20
ATOM     20  C   UNL     1       0.559  -7.055  -0.278  1.00  0.00     0.126 A 
ATOM     21  C   UNL     1       0.676  -7.429  -3.894  1.00  0.00     0.069 C 
ATOM     22  C   UNL     1       0.721  -7.595  -2.421  1.00  0.00     0.060 A 
ATOM     23  C   UNL     1       1.187  -6.677  -1.455  1.00  0.00     0.059 A 
ATOM     24  N   UNL     1       0.175  -8.664  -1.840  1.00  0.00    -0.178 NA
ATOM     25  N   UNL     1       0.169  -8.354  -0.523  1.00  0.00    -0.263 N 
ATOM     26  C   UNL     1      -0.314  -9.358   0.395  1.00  0.00     0.174 C 
ENDBRANCH  17  20
ENDBRANCH   8  16
BRANCH  15  27
ATOM     27  C   UNL     1      -4.843  -3.597  -3.042  1.00  0.00     0.111 C 
BRANCH  27  28
ATOM     28  S   UNL     1      -5.432  -2.827  -1.532  1.00  0.00    -0.089 SA
BRANCH  28  29
ATOM     29  C   UNL     1      -6.912  -3.620  -1.158  1.00  0.00     0.174 A 
ATOM     30  N   UNL     1      -6.974  -4.889  -0.824  1.00  0.00    -0.132 NA
ATOM     31  S   UNL     1      -8.248  -2.689  -0.626  1.00  0.00    -0.091 S 
ATOM     32  N   UNL     1      -7.875  -5.067   0.215  1.00  0.00    -0.143 NA
ATOM     33  C   UNL     1      -8.443  -3.924   0.550  1.00  0.00     0.115 A 
ATOM     34  C   UNL     1      -9.050  -3.604   1.861  1.00  0.00     0.081 C 
ENDBRANCH  28  29
ENDBRANCH  27  28
ENDBRANCH  15  27
ENDBRANCH   4   7
ENDBRANCH   2   3
ENDBRANCH   1   2
BRANCH   1  35
ATOM     35  C   UNL     1      -6.582   0.690  -4.213  1.00  0.00     0.023 C 
BRANCH  35  36
ATOM     36  C   UNL     1      -6.737   0.931  -5.696  1.00  0.00     0.116 C 
BRANCH  36  37
ATOM     37  N   UNL     1      -7.423  -0.136  -6.417  1.00  0.00    -0.352 N 
ATOM     38  C   UNL     1      -8.311   0.008  -7.464  1.00  0.00     0.251 C 
ATOM     39  H   UNL     1      -7.232  -1.057  -6.125  1.00  0.00     0.163 HD
ATOM     40  O   UNL     1      -8.867  -0.963  -7.962  1.00  0.00    -0.269 OA
BRANCH  38  41
ATOM     41  C   UNL     1      -8.611   1.381  -7.918  1.00  0.00     0.039 A 
ATOM     42  C   UNL     1      -9.929   1.836  -7.875  1.00  0.00     0.014 A 
ATOM     43  C   UNL     1      -7.557   2.259  -8.180  1.00  0.00     0.014 A 
ATOM     44  C   UNL     1     -10.178   3.204  -7.997  1.00  0.00     0.010 A 
ATOM     45  C   UNL     1      -7.798   3.624  -8.170  1.00  0.00     0.010 A 
ATOM     46  C   UNL     1      -9.111   4.114  -8.085  1.00  0.00    -0.014 A 
BRANCH  46  47
ATOM     47  C   UNL     1      -9.336   5.583  -8.105  1.00  0.00     0.031 A 
ATOM     48  C   UNL     1      -8.845   6.391  -9.277  1.00  0.00     0.074 A 
ATOM     49  C   UNL     1      -9.908   6.197  -7.049  1.00  0.00     0.049 A 
ATOM     50  N   UNL     1      -8.877   7.686  -9.457  1.00  0.00    -0.248 NA
ATOM     51  C   UNL     1      -8.197   5.651 -10.374  1.00  0.00     0.031 C 
ATOM     52  C   UNL     1     -10.370   5.537  -5.824  1.00  0.00     0.029 A 
ATOM     53  N   UNL     1     -10.196   7.523  -6.833  1.00  0.00    -0.354 N 
ATOM     54  C   UNL     1      -8.234   7.912 -10.669  1.00  0.00     0.074 A 
ATOM     55  C   UNL     1      -7.759   6.634 -11.145  1.00  0.00     0.031 C 
ATOM     56  C   UNL     1     -10.921   6.452  -5.010  1.00  0.00     0.029 A 
ATOM     57  C   UNL     1     -10.813   7.769  -5.628  1.00  0.00     0.049 A 
ATOM     58  H   UNL     1      -9.981   8.232  -7.482  1.00  0.00     0.167 HD
ATOM     59  C   UNL     1      -8.080   9.074 -11.345  1.00  0.00     0.031 A 
ATOM     60  C   UNL     1     -11.244   8.924  -5.083  1.00  0.00     0.031 A 
ATOM     61  C   UNL     1      -8.581  10.339 -10.884  1.00  0.00     0.049 A 
ATOM     62  C   UNL     1     -11.072  10.204  -5.857  1.00  0.00     0.074 A 
ATOM     63  C   UNL     1      -8.538  11.565 -11.523  1.00  0.00     0.029 A 
ATOM     64  N   UNL     1      -9.222  10.539  -9.670  1.00  0.00    -0.354 N 
ATOM     65  N   UNL     1     -10.527  10.385  -7.037  1.00  0.00    -0.248 NA
ATOM     66  C   UNL     1     -11.586  11.431  -5.235  1.00  0.00     0.031 C 
ATOM     67  C   UNL     1      -9.106  12.518 -10.672  1.00  0.00     0.029 A 
ATOM     68  C   UNL     1      -9.560  11.873  -9.531  1.00  0.00     0.049 A 
ATOM     69  H   UNL     1      -9.408   9.837  -9.006  1.00  0.00     0.167 HD
ATOM     70  C   UNL     1     -10.660  11.742  -7.311  1.00  0.00     0.074 A 
ATOM     71  C   UNL     1     -11.350  12.331  -6.181  1.00  0.00     0.031 C 
ATOM     72  C   UNL     1     -10.252  12.438  -8.400  1.00  0.00     0.031 A 
BRANCH  59  73
ATOM     73  C   UNL     1      -7.345   9.021 -12.658  1.00  0.00    -0.014 A 
ATOM     74  C   UNL     1      -7.899   8.370 -13.776  1.00  0.00     0.010 A 
ATOM     75  C   UNL     1      -6.095   9.652 -12.785  1.00  0.00     0.010 A 
ATOM     76  C   UNL     1      -7.196   8.309 -14.981  1.00  0.00     0.020 A 
ATOM     77  C   UNL     1      -5.403   9.623 -13.999  1.00  0.00     0.020 A 
ATOM     78  C   UNL     1      -5.950   8.935 -15.084  1.00  0.00     0.054 A 
BRANCH  78  79
ATOM     79  S   UNL     1      -5.071   8.859 -16.668  1.00  0.00     0.124 S 
ATOM     80  O   UNL     1      -4.638   7.465 -16.704  1.00  0.00    -0.237 OA
ATOM     81  O   UNL     1      -6.112   9.218 -17.628  1.00  0.00    -0.237 OA
ATOM     82  O   UNL     1      -4.000   9.841 -16.518  1.00  0.00    -0.744 OA
ENDBRANCH  78  79
ENDBRANCH  59  73
BRANCH  60  83
ATOM     83  C   UNL     1     -11.903   8.922  -3.746  1.00  0.00    -0.014 A 
ATOM     84  C   UNL     1     -13.279   9.188  -3.627  1.00  0.00     0.010 A 
ATOM     85  C   UNL     1     -11.161   8.645  -2.584  1.00  0.00     0.010 A 
ATOM     86  C   UNL     1     -13.896   9.198  -2.372  1.00  0.00     0.020 A 
ATOM     87  C   UNL     1     -11.779   8.625  -1.330  1.00  0.00     0.020 A 
ATOM     88  C   UNL     1     -13.141   8.913  -1.231  1.00  0.00     0.054 A 
BRANCH  88  89
ATOM     89  S   UNL     1     -13.973   8.880   0.382  1.00  0.00     0.124 S 
ATOM     90  O   UNL     1     -14.216  10.298   0.628  1.00  0.00    -0.237 OA
ATOM     91  O   UNL     1     -15.159   8.072   0.108  1.00  0.00    -0.237 OA
ATOM     92  O   UNL     1     -12.990   8.250   1.260  1.00  0.00    -0.744 OA
ENDBRANCH  88  89
ENDBRANCH  60  83
BRANCH  72  93
ATOM     93  C   UNL     1     -10.575  13.908  -8.449  1.00  0.00    -0.014 A 
ATOM     94  C   UNL     1      -9.905  14.832  -7.628  1.00  0.00     0.010 A 
ATOM     95  C   UNL     1     -11.517  14.376  -9.383  1.00  0.00     0.010 A 
ATOM     96  C   UNL     1     -10.194  16.195  -7.721  1.00  0.00     0.020 A 
ATOM     97  C   UNL     1     -11.786  15.741  -9.501  1.00  0.00     0.020 A 
ATOM     98  C   UNL     1     -11.132  16.641  -8.659  1.00  0.00     0.054 A 
BRANCH  98  99
ATOM     99  S   UNL     1     -11.451  18.421  -8.794  1.00  0.00     0.124 S 
ATOM    100  O   UNL     1     -12.218  18.685  -7.580  1.00  0.00    -0.237 OA
ATOM    101  O   UNL     1     -10.104  18.986  -8.822  1.00  0.00    -0.237 OA
ATOM    102  O   UNL     1     -12.199  18.545 -10.043  1.00  0.00    -0.744 OA
ENDBRANCH  98  99
ENDBRANCH  72  93
ENDBRANCH  46  47
ENDBRANCH  38  41
ENDBRANCH  36  37
ENDBRANCH  35  36
ENDBRANCH   1  35
TORSDOF 19
