REMARK SMILES CC1(C)C(NC(=O)[C@@H]2CCC[C@@H](C(=O)NCCCCNC(=O)c3ccc(-c4c5nc(c(-c6ccc(S(=O)(=O)[O-])cc6)c6ccc([nH]6)c(-c6ccc(S(=O)(=O)[O-])cc6)c6nc(c(-c7ccc(S(=O)(=O)[O-])cc7)c7ccc4[nH]7)C=C6)C=C5)cc3)C2)C1(C)C
REMARK SMILES IDX 18 1 17 2 16 3 15 4 13 5 14 6 12 8 8 9 9 10 83 11 10 12
REMARK SMILES IDX 11 13 6 14 5 15 7 17 4 18 1 19 2 20 3 21 84 22 85 23 86 24
REMARK SMILES IDX 19 25 20 26 21 27 22 29 23 30 24 31 82 32 25 33 81 34 26 35
REMARK SMILES IDX 27 36 28 37 75 38 29 39 80 40 74 41 76 42 30 43 79 44 73 45
REMARK SMILES IDX 72 46 31 48 61 49 42 50 60 51 43 52 46 53 59 54 77 55 44 56
REMARK SMILES IDX 45 57 58 59 78 60 47 61 32 62 33 63 41 64 34 65 40 66 35 67
REMARK SMILES IDX 36 68 37 69 38 70 39 71 62 72 63 73 71 74 64 75 70 76 65 77
REMARK SMILES IDX 66 78 67 79 68 80 69 81 48 82 49 83 57 84 50 85 56 86 51 87
REMARK SMILES IDX 52 88 53 89 54 90 55 91
REMARK H PARENT 15 7 5 16 20 28 76 47 46 58
REMARK Flexibility Score: inf
ROOT
ATOM      1  C   UNL     1       6.471   9.202   1.526  1.00  0.00     0.023 C 
ENDROOT
BRANCH   1   2
ATOM      2  C   UNL     1       5.045   8.878   1.976  1.00  0.00     0.023 C 
BRANCH   2   3
ATOM      3  C   UNL     1       4.040   8.702   0.843  1.00  0.00     0.116 C 
BRANCH   3   4
ATOM      4  N   UNL     1       4.383   7.584  -0.014  1.00  0.00    -0.356 N 
ATOM      5  C   UNL     1       3.674   6.465  -0.325  1.00  0.00     0.223 C 
ATOM      6  O   UNL     1       4.185   5.654  -1.099  1.00  0.00    -0.275 OA
ATOM      7  H   UNL     1       5.269   7.644  -0.438  1.00  0.00     0.163 HD
BRANCH   5   8
ATOM      8  C   UNL     1       2.313   6.226   0.319  1.00  0.00     0.079 C 
ATOM      9  C   UNL     1       1.419   4.210  -1.032  1.00  0.00     0.079 C 
ATOM     10  C   UNL     1       1.426   3.420   0.281  1.00  0.00     0.013 C 
ATOM     11  C   UNL     1       1.298   5.708  -0.708  1.00  0.00     0.027 C 
ATOM     12  C   UNL     1       2.579   3.848   1.181  1.00  0.00     0.002 C 
ATOM     13  C   UNL     1       2.465   5.321   1.546  1.00  0.00     0.013 C 
BRANCH   9  14
ATOM     14  C   UNL     1       0.308   3.787  -2.006  1.00  0.00     0.223 C 
ATOM     15  N   UNL     1       0.339   2.525  -2.545  1.00  0.00    -0.352 N 
ATOM     16  H   UNL     1      -0.307   2.339  -3.264  1.00  0.00     0.163 HD
ATOM     17  O   UNL     1      -0.591   4.552  -2.360  1.00  0.00    -0.275 OA
BRANCH  15  18
ATOM     18  C   UNL     1       1.205   1.454  -2.179  1.00  0.00     0.094 C 
ATOM     19  C   UNL     1       1.259  -0.265  -0.246  1.00  0.00     0.014 C 
ATOM     20  C   UNL     1       0.606   0.213  -1.525  1.00  0.00    -0.007 C 
ATOM     21  C   UNL     1      -0.899   0.035  -1.473  1.00  0.00     0.014 C 
ATOM     22  C   UNL     1       1.336   0.123  -2.880  1.00  0.00    -0.007 C 
ATOM     23  C   UNL     1       2.741  -0.449  -2.935  1.00  0.00     0.014 C 
ATOM     24  C   UNL     1       0.589  -0.106  -4.172  1.00  0.00     0.014 C 
ENDBRANCH  15  18
ENDBRANCH   9  14
ENDBRANCH   5   8
ENDBRANCH   3   4
ENDBRANCH   2   3
ENDBRANCH   1   2
BRANCH   1  25
ATOM     25  C   UNL     1       6.603  10.377   0.562  1.00  0.00     0.116 C 
BRANCH  25  26
ATOM     26  N   UNL     1       6.030  11.605   1.086  1.00  0.00    -0.352 N 
ATOM     27  C   UNL     1       6.543  12.880   1.086  1.00  0.00     0.251 C 
ATOM     28  H   UNL     1       5.144  11.510   1.503  1.00  0.00     0.163 HD
ATOM     29  O   UNL     1       5.962  13.763   1.707  1.00  0.00    -0.269 OA
BRANCH  27  30
ATOM     30  C   UNL     1       7.804  13.179   0.371  1.00  0.00     0.039 A 
ATOM     31  C   UNL     1       8.746  13.997   0.998  1.00  0.00     0.014 A 
ATOM     32  C   UNL     1       8.062  12.670  -0.905  1.00  0.00     0.014 A 
ATOM     33  C   UNL     1       9.969  14.252   0.373  1.00  0.00     0.010 A 
ATOM     34  C   UNL     1       9.312  12.861  -1.493  1.00  0.00     0.010 A 
ATOM     35  C   UNL     1      10.279  13.655  -0.861  1.00  0.00    -0.014 A 
BRANCH  35  36
ATOM     36  C   UNL     1      11.623  13.842  -1.471  1.00  0.00     0.031 A 
ATOM     37  C   UNL     1      11.781  14.547  -2.792  1.00  0.00     0.074 A 
ATOM     38  C   UNL     1      12.707  13.351  -0.836  1.00  0.00     0.049 A 
ATOM     39  N   UNL     1      12.880  14.831  -3.446  1.00  0.00    -0.248 NA
ATOM     40  C   UNL     1      10.550  14.973  -3.479  1.00  0.00     0.031 C 
ATOM     41  C   UNL     1      12.682  12.599   0.423  1.00  0.00     0.029 A 
ATOM     42  N   UNL     1      14.040  13.420  -1.151  1.00  0.00    -0.354 N 
ATOM     43  C   UNL     1      12.475  15.465  -4.615  1.00  0.00     0.074 A 
ATOM     44  C   UNL     1      11.028  15.472  -4.610  1.00  0.00     0.031 C 
ATOM     45  C   UNL     1      13.941  12.320   0.794  1.00  0.00     0.029 A 
ATOM     46  C   UNL     1      14.861  12.835  -0.215  1.00  0.00     0.049 A 
ATOM     47  H   UNL     1      14.379  13.848  -1.971  1.00  0.00     0.167 HD
ATOM     48  C   UNL     1      13.236  16.014  -5.593  1.00  0.00     0.031 A 
ATOM     49  C   UNL     1      16.203  12.727  -0.168  1.00  0.00     0.031 A 
ATOM     50  C   UNL     1      14.677  16.006  -5.596  1.00  0.00     0.049 A 
ATOM     51  C   UNL     1      17.023  13.340  -1.270  1.00  0.00     0.074 A 
ATOM     52  C   UNL     1      15.538  16.575  -6.518  1.00  0.00     0.029 A 
ATOM     53  N   UNL     1      15.469  15.397  -4.635  1.00  0.00    -0.354 N 
ATOM     54  N   UNL     1      16.620  14.000  -2.330  1.00  0.00    -0.248 NA
ATOM     55  C   UNL     1      18.481  13.209  -1.157  1.00  0.00     0.031 C 
ATOM     56  C   UNL     1      16.850  16.263  -6.144  1.00  0.00     0.029 A 
ATOM     57  C   UNL     1      16.808  15.557  -4.954  1.00  0.00     0.049 A 
ATOM     58  H   UNL     1      15.131  14.922  -3.842  1.00  0.00     0.167 HD
ATOM     59  C   UNL     1      17.778  14.384  -2.997  1.00  0.00     0.074 A 
ATOM     60  C   UNL     1      18.894  13.910  -2.203  1.00  0.00     0.031 C 
ATOM     61  C   UNL     1      17.909  15.066  -4.163  1.00  0.00     0.031 A 
BRANCH  48  62
ATOM     62  C   UNL     1      12.525  16.677  -6.745  1.00  0.00    -0.014 A 
ATOM     63  C   UNL     1      11.823  17.883  -6.566  1.00  0.00     0.010 A 
ATOM     64  C   UNL     1      12.612  16.124  -8.037  1.00  0.00     0.010 A 
ATOM     65  C   UNL     1      11.197  18.508  -7.649  1.00  0.00     0.020 A 
ATOM     66  C   UNL     1      12.012  16.761  -9.127  1.00  0.00     0.020 A 
ATOM     67  C   UNL     1      11.297  17.943  -8.924  1.00  0.00     0.054 A 
BRANCH  67  68
ATOM     68  S   UNL     1      10.512  18.801 -10.316  1.00  0.00     0.124 S 
ATOM     69  O   UNL     1       9.094  18.581 -10.044  1.00  0.00    -0.237 OA
ATOM     70  O   UNL     1      10.977  20.175 -10.147  1.00  0.00    -0.237 OA
ATOM     71  O   UNL     1      11.035  18.108 -11.491  1.00  0.00    -0.744 OA
ENDBRANCH  67  68
ENDBRANCH  48  62
BRANCH  49  72
ATOM     72  C   UNL     1      16.860  12.026   0.970  1.00  0.00    -0.014 A 
ATOM     73  C   UNL     1      17.646  12.736   1.895  1.00  0.00     0.010 A 
ATOM     74  C   UNL     1      16.715  10.635   1.126  1.00  0.00     0.010 A 
ATOM     75  C   UNL     1      18.303  12.066   2.931  1.00  0.00     0.020 A 
ATOM     76  C   UNL     1      17.341   9.966   2.181  1.00  0.00     0.020 A 
ATOM     77  C   UNL     1      18.146  10.684   3.067  1.00  0.00     0.054 A 
BRANCH  77  78
ATOM     78  S   UNL     1      18.985   9.837   4.435  1.00  0.00     0.124 S 
ATOM     79  O   UNL     1      20.375   9.850   3.993  1.00  0.00    -0.237 OA
ATOM     80  O   UNL     1      18.674  10.696   5.575  1.00  0.00    -0.237 OA
ATOM     81  O   UNL     1      18.348   8.522   4.464  1.00  0.00    -0.744 OA
ENDBRANCH  77  78
ENDBRANCH  49  72
BRANCH  61  82
ATOM     82  C   UNL     1      19.312  15.361  -4.629  1.00  0.00    -0.014 A 
ATOM     83  C   UNL     1      20.170  14.335  -5.065  1.00  0.00     0.010 A 
ATOM     84  C   UNL     1      19.780  16.688  -4.627  1.00  0.00     0.010 A 
ATOM     85  C   UNL     1      21.489  14.621  -5.427  1.00  0.00     0.020 A 
ATOM     86  C   UNL     1      21.087  16.983  -5.023  1.00  0.00     0.020 A 
ATOM     87  C   UNL     1      21.941  15.944  -5.395  1.00  0.00     0.054 A 
BRANCH  87  88
ATOM     88  S   UNL     1      23.660  16.290  -5.858  1.00  0.00     0.124 S 
ATOM     89  O   UNL     1      24.392  15.798  -4.695  1.00  0.00    -0.237 OA
ATOM     90  O   UNL     1      23.826  15.509  -7.082  1.00  0.00    -0.237 OA
ATOM     91  O   UNL     1      23.684  17.739  -6.043  1.00  0.00    -0.744 OA
ENDBRANCH  87  88
ENDBRANCH  61  82
ENDBRANCH  35  36
ENDBRANCH  27  30
ENDBRANCH  25  26
ENDBRANCH   1  25
TORSDOF 16
