REMARK SMILES O=C(NCCCCNC(=O)[C@@H](Cc1ccccc1)/N=C1\C(=O)c2ccccc2C(=O)[C@H]1Cl)c1ccc(-c2c3nc(c(-c4ccc(S(=O)(=O)[O-])cc4)c4ccc([nH]4)c(-c4ccc(S(=O)(=O)[O-])cc4)c4nc(c(-c5ccc(S(=O)(=O)[O-])cc5)c5ccc2[nH]5)C=C4)C=C3)cc1
REMARK SMILES IDX 5 1 4 2 3 3 1 4 2 5 33 7 34 8 92 9 35 10 91 11 36 12 37 13
REMARK SMILES IDX 38 14 85 15 39 16 90 17 84 18 86 19 40 20 89 21 83 22 82 23
REMARK SMILES IDX 41 25 71 26 52 27 70 28 53 29 56 30 69 31 87 32 54 33 55 34
REMARK SMILES IDX 68 36 88 37 57 38 42 39 43 40 51 41 44 42 50 43 45 44 46 45
REMARK SMILES IDX 47 46 48 47 49 48 72 49 73 50 81 51 74 52 80 53 75 54 76 55
REMARK SMILES IDX 77 56 78 57 79 58 58 59 59 60 67 61 60 62 66 63 61 64 62 65
REMARK SMILES IDX 63 66 64 67 65 68 6 69 7 70 8 71 9 72 10 74 11 75 12 76
REMARK SMILES IDX 13 77 14 78 18 79 15 80 17 81 16 82 19 83 20 84 21 85 31 86
REMARK SMILES IDX 22 87 23 88 29 89 32 90 24 91 28 92 30 93 25 94 27 95 26 96
REMARK H PARENT 3 6 86 24 56 35 8 73
REMARK Flexibility Score: inf
ROOT
ATOM      1  C   UNL     1       6.369   0.759  -2.121  1.00  0.00     0.023 C 
ENDROOT
BRANCH   1   2
ATOM      2  C   UNL     1       5.389   0.367  -1.011  1.00  0.00     0.116 C 
BRANCH   2   3
ATOM      3  N   UNL     1       3.973   0.631  -1.243  1.00  0.00    -0.352 N 
ATOM      4  O   UNL     1       1.741   0.210  -1.052  1.00  0.00    -0.269 OA
ATOM      5  C   UNL     1       2.896  -0.150  -0.849  1.00  0.00     0.251 C 
ATOM      6  H   UNL     1       3.757   1.456  -1.734  1.00  0.00     0.163 HD
BRANCH   5   7
ATOM      7  C   UNL     1       3.164  -1.463  -0.214  1.00  0.00     0.039 A 
ATOM      8  C   UNL     1       4.050  -1.551   0.858  1.00  0.00     0.014 A 
ATOM      9  C   UNL     1       2.662  -2.624  -0.810  1.00  0.00     0.014 A 
ATOM     10  C   UNL     1       4.644  -2.775   1.144  1.00  0.00     0.010 A 
ATOM     11  C   UNL     1       3.183  -3.869  -0.441  1.00  0.00     0.010 A 
ATOM     12  C   UNL     1       4.249  -3.944   0.470  1.00  0.00    -0.014 A 
BRANCH  12  13
ATOM     13  C   UNL     1       5.018  -5.205   0.675  1.00  0.00     0.031 A 
ATOM     14  C   UNL     1       5.747  -5.863  -0.476  1.00  0.00     0.074 A 
ATOM     15  C   UNL     1       5.135  -5.718   1.917  1.00  0.00     0.049 A 
ATOM     16  N   UNL     1       6.453  -6.967  -0.484  1.00  0.00    -0.248 NA
ATOM     17  C   UNL     1       5.671  -5.202  -1.790  1.00  0.00     0.031 C 
ATOM     18  C   UNL     1       4.508  -5.163   3.119  1.00  0.00     0.029 A 
ATOM     19  N   UNL     1       5.843  -6.797   2.380  1.00  0.00    -0.354 N 
ATOM     20  C   UNL     1       6.864  -7.155  -1.801  1.00  0.00     0.074 A 
ATOM     21  C   UNL     1       6.323  -6.056  -2.569  1.00  0.00     0.031 C 
ATOM     22  C   UNL     1       4.908  -5.867   4.188  1.00  0.00     0.029 A 
ATOM     23  C   UNL     1       5.751  -6.970   3.741  1.00  0.00     0.049 A 
ATOM     24  H   UNL     1       6.367  -7.391   1.795  1.00  0.00     0.167 HD
ATOM     25  C   UNL     1       7.622  -8.150  -2.324  1.00  0.00     0.031 A 
ATOM     26  C   UNL     1       6.261  -7.923   4.544  1.00  0.00     0.031 A 
ATOM     27  C   UNL     1       8.188  -9.226  -1.551  1.00  0.00     0.049 A 
ATOM     28  C   UNL     1       7.087  -9.020   3.941  1.00  0.00     0.074 A 
ATOM     29  C   UNL     1       8.981 -10.274  -1.985  1.00  0.00     0.029 A 
ATOM     30  N   UNL     1       8.031  -9.385  -0.183  1.00  0.00    -0.354 N 
ATOM     31  N   UNL     1       7.434  -9.192   2.688  1.00  0.00    -0.248 NA
ATOM     32  C   UNL     1       7.580 -10.057   4.857  1.00  0.00     0.031 C 
ATOM     33  C   UNL     1       9.270 -11.089  -0.884  1.00  0.00     0.029 A 
ATOM     34  C   UNL     1       8.697 -10.522   0.242  1.00  0.00     0.049 A 
ATOM     35  H   UNL     1       7.520  -8.778   0.401  1.00  0.00     0.167 HD
ATOM     36  C   UNL     1       8.187 -10.359   2.664  1.00  0.00     0.074 A 
ATOM     37  C   UNL     1       8.268 -10.834   4.031  1.00  0.00     0.031 C 
ATOM     38  C   UNL     1       8.754 -10.985   1.604  1.00  0.00     0.031 A 
BRANCH  25  39
ATOM     39  C   UNL     1       7.857  -8.150  -3.814  1.00  0.00    -0.014 A 
ATOM     40  C   UNL     1       8.739  -7.238  -4.421  1.00  0.00     0.010 A 
ATOM     41  C   UNL     1       7.222  -9.119  -4.614  1.00  0.00     0.010 A 
ATOM     42  C   UNL     1       8.953  -7.272  -5.803  1.00  0.00     0.020 A 
ATOM     43  C   UNL     1       7.451  -9.171  -5.993  1.00  0.00     0.020 A 
ATOM     44  C   UNL     1       8.303  -8.235  -6.582  1.00  0.00     0.054 A 
BRANCH  44  45
ATOM     45  S   UNL     1       8.613  -8.271  -8.370  1.00  0.00     0.124 S 
ATOM     46  O   UNL     1       7.836  -7.123  -8.832  1.00  0.00    -0.237 OA
ATOM     47  O   UNL     1      10.063  -8.120  -8.449  1.00  0.00    -0.237 OA
ATOM     48  O   UNL     1       8.103  -9.576  -8.784  1.00  0.00    -0.744 OA
ENDBRANCH  44  45
ENDBRANCH  25  39
BRANCH  26  49
ATOM     49  C   UNL     1       5.962  -7.887   6.000  1.00  0.00    -0.014 A 
ATOM     50  C   UNL     1       6.958  -7.555   6.933  1.00  0.00     0.010 A 
ATOM     51  C   UNL     1       4.652  -8.133   6.453  1.00  0.00     0.010 A 
ATOM     52  C   UNL     1       6.647  -7.464   8.294  1.00  0.00     0.020 A 
ATOM     53  C   UNL     1       4.332  -8.015   7.807  1.00  0.00     0.020 A 
ATOM     54  C   UNL     1       5.335  -7.687   8.721  1.00  0.00     0.054 A 
BRANCH  54  55
ATOM     55  S   UNL     1       4.928  -7.474  10.476  1.00  0.00     0.124 S 
ATOM     56  O   UNL     1       5.418  -8.721  11.054  1.00  0.00    -0.237 OA
ATOM     57  O   UNL     1       5.678  -6.272  10.833  1.00  0.00    -0.237 OA
ATOM     58  O   UNL     1       3.476  -7.311  10.470  1.00  0.00    -0.744 OA
ENDBRANCH  54  55
ENDBRANCH  26  49
BRANCH  38  59
ATOM     59  C   UNL     1       9.520 -12.246   1.890  1.00  0.00    -0.014 A 
ATOM     60  C   UNL     1       8.850 -13.447   2.179  1.00  0.00     0.010 A 
ATOM     61  C   UNL     1      10.925 -12.234   1.841  1.00  0.00     0.010 A 
ATOM     62  C   UNL     1       9.574 -14.610   2.452  1.00  0.00     0.020 A 
ATOM     63  C   UNL     1      11.652 -13.400   2.091  1.00  0.00     0.020 A 
ATOM     64  C   UNL     1      10.972 -14.577   2.412  1.00  0.00     0.054 A 
BRANCH  64  65
ATOM     65  S   UNL     1      11.893 -16.103   2.747  1.00  0.00     0.124 S 
ATOM     66  O   UNL     1      11.807 -16.196   4.201  1.00  0.00    -0.237 OA
ATOM     67  O   UNL     1      11.134 -17.108   2.006  1.00  0.00    -0.237 OA
ATOM     68  O   UNL     1      13.226 -15.823   2.217  1.00  0.00    -0.744 OA
ENDBRANCH  64  65
ENDBRANCH  38  59
ENDBRANCH  12  13
ENDBRANCH   5   7
ENDBRANCH   2   3
ENDBRANCH   1   2
BRANCH   1  69
ATOM     69  C   UNL     1       6.392   2.210  -2.613  1.00  0.00     0.023 C 
BRANCH  69  70
ATOM     70  C   UNL     1       6.262   3.243  -1.506  1.00  0.00     0.116 C 
BRANCH  70  71
ATOM     71  N   UNL     1       7.307   4.228  -1.376  1.00  0.00    -0.354 N 
ATOM     72  C   UNL     1       7.138   5.410  -0.693  1.00  0.00     0.245 C 
ATOM     73  H   UNL     1       8.180   4.047  -1.794  1.00  0.00     0.163 HD
ATOM     74  O   UNL     1       8.051   5.739   0.077  1.00  0.00    -0.273 OA
BRANCH  72  75
ATOM     75  C   UNL     1       5.968   6.383  -0.979  1.00  0.00     0.199 C 
BRANCH  75  76
ATOM     76  C   UNL     1       5.409   6.536  -2.406  1.00  0.00     0.073 C 
BRANCH  76  77
ATOM     77  C   UNL     1       4.146   5.799  -2.772  1.00  0.00    -0.045 A 
ATOM     78  C   UNL     1       2.912   6.141  -2.206  1.00  0.00     0.004 A 
ATOM     79  C   UNL     1       4.187   4.770  -3.721  1.00  0.00     0.004 A 
ATOM     80  C   UNL     1       1.771   5.390  -2.487  1.00  0.00     0.000 A 
ATOM     81  C   UNL     1       3.050   4.013  -3.998  1.00  0.00     0.000 A 
ATOM     82  C   UNL     1       1.847   4.310  -3.364  1.00  0.00     0.000 A 
ENDBRANCH  76  77
ENDBRANCH  75  76
BRANCH  75  83
ATOM     83  N   UNL     1       5.031   6.753   0.098  1.00  0.00    -0.270 NA
ATOM     84  C   UNL     1       4.203   6.118   0.841  1.00  0.00     0.109 C 
ATOM     85  C   UNL     1       3.937   4.643   0.896  1.00  0.00     0.209 C 
ATOM     86  C   UNL     1       3.329   6.915   1.776  1.00  0.00     0.205 C 
ATOM     87  O   UNL     1       4.808   3.850   0.585  1.00  0.00    -0.287 OA
ATOM     88  C   UNL     1       2.645   4.140   1.390  1.00  0.00     0.035 A 
ATOM     89  C   UNL     1       1.884   6.472   1.771  1.00  0.00     0.187 C 
ATOM     90  Cl  UNL     1       3.967   6.745   3.432  1.00  0.00    -0.107 Cl
ATOM     91  C   UNL     1       2.446   2.756   1.487  1.00  0.00     0.013 A 
ATOM     92  C   UNL     1       1.623   5.015   1.742  1.00  0.00     0.031 A 
ATOM     93  O   UNL     1       0.944   7.260   1.835  1.00  0.00    -0.292 OA
ATOM     94  C   UNL     1       1.206   2.251   1.872  1.00  0.00     0.001 A 
ATOM     95  C   UNL     1       0.367   4.508   2.105  1.00  0.00     0.012 A 
ATOM     96  C   UNL     1       0.160   3.126   2.159  1.00  0.00     0.001 A 
ENDBRANCH  75  83
ENDBRANCH  72  75
ENDBRANCH  70  71
ENDBRANCH  69  70
ENDBRANCH   1  69
TORSDOF 17
