REMARK SMILES CC(C)(NC(=O)[C@]1(C)CCCO1)C(C)(C)C(=O)NCCCCNC(=O)c1ccc(-c2c3nc(c(-c4ccc(S(=O)(=O)[O-])cc4)c4ccc([nH]4)c(-c4ccc(S(=O)(=O)[O-])cc4)c4nc(c(-c5ccc(S(=O)(=O)[O-])cc5)c5ccc2[nH]5)C=C4)C=C3)cc1
REMARK SMILES IDX 20 1 19 2 18 3 16 4 17 5 13 7 14 8 15 9 2 10 1 11 3 12 4 13
REMARK SMILES IDX 5 14 6 16 7 17 9 18 12 19 8 20 10 21 11 22 21 23 22 24 23 25
REMARK SMILES IDX 24 26 25 28 26 29 27 30 85 31 28 32 84 33 29 34 30 35 31 36
REMARK SMILES IDX 78 37 32 38 83 39 77 40 79 41 33 42 82 43 76 44 75 45 34 47
REMARK SMILES IDX 64 48 45 49 63 50 46 51 49 52 62 53 80 54 47 55 48 56 61 58
REMARK SMILES IDX 81 59 50 60 35 61 36 62 44 63 37 64 43 65 38 66 39 67 40 68
REMARK SMILES IDX 41 69 42 70 65 71 66 72 74 73 67 74 73 75 68 76 69 77 70 78
REMARK SMILES IDX 71 79 72 80 51 81 52 82 60 83 53 84 59 85 54 86 55 87 56 88
REMARK SMILES IDX 57 89 58 90
REMARK H PARENT 18 6 4 15 23 27 79 46 49 57
REMARK Flexibility Score: inf
ROOT
ATOM      1  C   UNL     1      -4.064  -6.076   4.150  1.00  0.00     0.023 C 
ENDROOT
BRANCH   1   2
ATOM      2  C   UNL     1      -3.523  -4.951   3.210  1.00  0.00     0.116 C 
BRANCH   2   3
ATOM      3  N   UNL     1      -1.979  -4.370   3.562  1.00  0.00    -0.356 N 
ATOM      4  C   UNL     1      -0.186  -4.694   2.775  1.00  0.00     0.228 C 
ATOM      5  O   UNL     1       0.921  -4.515   3.320  1.00  0.00    -0.274 OA
ATOM      6  H   UNL     1      -1.964  -3.738   4.316  1.00  0.00     0.163 HD
BRANCH   4   7
ATOM      7  C   UNL     1      -0.031  -5.357   0.980  1.00  0.00     0.066 C 
ATOM      8  C   UNL     1      -0.975  -4.784  -0.254  1.00  0.00     0.024 C 
ATOM      9  C   UNL     1      -0.238  -6.895   0.801  1.00  0.00     0.024 C 
BRANCH   7  10
ATOM     10  C   UNL     1       1.382  -4.845   0.660  1.00  0.00     0.048 C 
ATOM     11  C   UNL     1       1.811  -5.148  -0.802  1.00  0.00     0.035 C 
ATOM     12  C   UNL     1       2.511  -5.538   1.486  1.00  0.00     0.035 C 
BRANCH  10  13
ATOM     13  N   UNL     1       1.287  -3.365   0.861  1.00  0.00    -0.348 N 
ATOM     14  C   UNL     1       0.266  -2.568   1.387  1.00  0.00     0.252 C 
ATOM     15  H   UNL     1       2.084  -2.865   0.573  1.00  0.00     0.164 HD
ATOM     16  O   UNL     1       0.455  -1.346   1.285  1.00  0.00    -0.272 OA
BRANCH  14  17
ATOM     17  C   UNL     1      -1.151  -3.123   2.236  1.00  0.00     0.143 C 
ATOM     18  C   UNL     1      -0.547  -3.072   4.132  1.00  0.00     0.048 C 
ATOM     19  O   UNL     1      -1.754  -4.939   1.898  1.00  0.00    -0.365 OA
ATOM     20  C   UNL     1      -2.278  -2.111   1.961  1.00  0.00     0.053 C 
ATOM     21  C   UNL     1      -0.605  -4.938   4.855  1.00  0.00     0.032 C 
ATOM     22  C   UNL     1      -1.247  -6.130   3.387  1.00  0.00     0.162 C 
ENDBRANCH  14  17
ENDBRANCH  10  13
ENDBRANCH   7  10
ENDBRANCH   4   7
ENDBRANCH   2   3
ENDBRANCH   1   2
BRANCH   1  23
ATOM     23  C   UNL     1      -4.290  -5.662   5.584  1.00  0.00     0.023 C 
BRANCH  23  24
ATOM     24  C   UNL     1      -5.290  -4.541   5.665  1.00  0.00     0.116 C 
BRANCH  24  25
ATOM     25  N   UNL     1      -6.501  -4.869   4.912  1.00  0.00    -0.352 N 
ATOM     26  C   UNL     1      -7.776  -4.992   5.387  1.00  0.00     0.251 C 
ATOM     27  H   UNL     1      -6.382  -5.020   3.947  1.00  0.00     0.163 HD
ATOM     28  O   UNL     1      -8.635  -5.592   4.755  1.00  0.00    -0.269 OA
BRANCH  26  29
ATOM     29  C   UNL     1      -8.058  -4.367   6.684  1.00  0.00     0.039 A 
ATOM     30  C   UNL     1      -8.803  -5.055   7.634  1.00  0.00     0.014 A 
ATOM     31  C   UNL     1      -7.476  -3.126   6.966  1.00  0.00     0.014 A 
ATOM     32  C   UNL     1      -8.938  -4.494   8.896  1.00  0.00     0.010 A 
ATOM     33  C   UNL     1      -7.473  -2.661   8.262  1.00  0.00     0.010 A 
ATOM     34  C   UNL     1      -8.251  -3.310   9.224  1.00  0.00    -0.014 A 
BRANCH  34  35
ATOM     35  C   UNL     1      -8.385  -2.697  10.559  1.00  0.00     0.031 A 
ATOM     36  C   UNL     1      -8.949  -1.307  10.678  1.00  0.00     0.074 A 
ATOM     37  C   UNL     1      -7.981  -3.384  11.644  1.00  0.00     0.049 A 
ATOM     38  N   UNL     1      -9.166  -0.604  11.758  1.00  0.00    -0.248 NA
ATOM     39  C   UNL     1      -9.287  -0.600   9.429  1.00  0.00     0.031 C 
ATOM     40  C   UNL     1      -7.369  -4.716  11.628  1.00  0.00     0.029 A 
ATOM     41  N   UNL     1      -8.038  -3.060  12.972  1.00  0.00    -0.354 N 
ATOM     42  C   UNL     1      -9.649   0.621  11.316  1.00  0.00     0.074 A 
ATOM     43  C   UNL     1      -9.627   0.599   9.873  1.00  0.00     0.031 C 
ATOM     44  C   UNL     1      -7.160  -5.117  12.891  1.00  0.00     0.029 A 
ATOM     45  C   UNL     1      -7.567  -4.051  13.799  1.00  0.00     0.049 A 
ATOM     46  H   UNL     1      -8.383  -2.200  13.303  1.00  0.00     0.167 HD
ATOM     47  C   UNL     1     -10.099   1.663  12.049  1.00  0.00     0.031 A 
ATOM     48  C   UNL     1      -7.470  -4.089  15.141  1.00  0.00     0.031 A 
ATOM     49  C   UNL     1     -10.122   1.668  13.486  1.00  0.00     0.049 A 
ATOM     50  C   UNL     1      -7.963  -2.908  15.931  1.00  0.00     0.074 A 
ATOM     51  C   UNL     1     -10.611   2.647  14.330  1.00  0.00     0.029 A 
ATOM     52  N   UNL     1      -9.629   0.651  14.290  1.00  0.00    -0.354 N 
ATOM     53  N   UNL     1      -8.494  -1.788  15.498  1.00  0.00    -0.248 NA
ATOM     54  C   UNL     1      -7.862  -3.006  17.391  1.00  0.00     0.031 C 
ATOM     55  C   UNL     1     -10.334   2.262  15.644  1.00  0.00     0.029 A 
ATOM     56  C   UNL     1      -9.765   0.998  15.622  1.00  0.00     0.049 A 
ATOM     57  H   UNL     1      -9.239  -0.191  13.961  1.00  0.00     0.167 HD
ATOM     58  C   UNL     1      -8.824  -1.063  16.638  1.00  0.00     0.074 A 
ATOM     59  C   UNL     1      -8.454  -1.884  17.773  1.00  0.00     0.031 C 
ATOM     60  C   UNL     1      -9.385   0.169  16.739  1.00  0.00     0.031 A 
BRANCH  47  61
ATOM     61  C   UNL     1     -10.581   2.885  11.315  1.00  0.00    -0.014 A 
ATOM     62  C   UNL     1     -11.747   2.861  10.527  1.00  0.00     0.010 A 
ATOM     63  C   UNL     1      -9.884   4.098  11.465  1.00  0.00     0.010 A 
ATOM     64  C   UNL     1     -12.193   4.019   9.886  1.00  0.00     0.020 A 
ATOM     65  C   UNL     1     -10.346   5.266  10.856  1.00  0.00     0.020 A 
ATOM     66  C   UNL     1     -11.494   5.217  10.063  1.00  0.00     0.054 A 
BRANCH  66  67
ATOM     67  S   UNL     1     -12.133   6.718   9.273  1.00  0.00     0.124 S 
ATOM     68  O   UNL     1     -11.914   6.432   7.857  1.00  0.00    -0.237 OA
ATOM     69  O   UNL     1     -13.528   6.732   9.703  1.00  0.00    -0.237 OA
ATOM     70  O   UNL     1     -11.302   7.784   9.827  1.00  0.00    -0.744 OA
ENDBRANCH  66  67
ENDBRANCH  47  61
BRANCH  48  71
ATOM     71  C   UNL     1      -6.879  -5.278  15.814  1.00  0.00    -0.014 A 
ATOM     72  C   UNL     1      -7.652  -6.097  16.656  1.00  0.00     0.010 A 
ATOM     73  C   UNL     1      -5.520  -5.590  15.620  1.00  0.00     0.010 A 
ATOM     74  C   UNL     1      -7.069  -7.181  17.320  1.00  0.00     0.020 A 
ATOM     75  C   UNL     1      -4.944  -6.696  16.248  1.00  0.00     0.020 A 
ATOM     76  C   UNL     1      -5.719  -7.475  17.108  1.00  0.00     0.054 A 
BRANCH  76  77
ATOM     77  S   UNL     1      -4.991  -8.903  17.955  1.00  0.00     0.124 S 
ATOM     78  O   UNL     1      -4.986  -8.462  19.346  1.00  0.00    -0.237 OA
ATOM     79  O   UNL     1      -5.934  -9.971  17.631  1.00  0.00    -0.237 OA
ATOM     80  O   UNL     1      -3.675  -9.035  17.335  1.00  0.00    -0.744 OA
ENDBRANCH  76  77
ENDBRANCH  48  71
BRANCH  60  81
ATOM     81  C   UNL     1      -9.687   0.677  18.125  1.00  0.00    -0.014 A 
ATOM     82  C   UNL     1      -8.667   0.982  19.044  1.00  0.00     0.010 A 
ATOM     83  C   UNL     1     -11.029   0.875  18.503  1.00  0.00     0.010 A 
ATOM     84  C   UNL     1      -8.986   1.411  20.334  1.00  0.00     0.020 A 
ATOM     85  C   UNL     1     -11.350   1.348  19.776  1.00  0.00     0.020 A 
ATOM     86  C   UNL     1     -10.326   1.589  20.692  1.00  0.00     0.054 A 
BRANCH  86  87
ATOM     87  S   UNL     1     -10.712   2.152  22.370  1.00  0.00     0.124 S 
ATOM     88  O   UNL     1     -10.352   0.986  23.172  1.00  0.00    -0.237 OA
ATOM     89  O   UNL     1      -9.840   3.314  22.524  1.00  0.00    -0.237 OA
ATOM     90  O   UNL     1     -12.141   2.453  22.317  1.00  0.00    -0.744 OA
ENDBRANCH  86  87
ENDBRANCH  60  81
ENDBRANCH  34  35
ENDBRANCH  26  29
ENDBRANCH  24  25
ENDBRANCH  23  24
ENDBRANCH   1  23
TORSDOF 17
