REMARK SMILES O=C(NCCCCNC(=O)[C@H]1CC[N@@H+]1CCc1ccccc1)c1ccc(-c2c3nc(c(-c4ccc(S(=O)(=O)[O-])cc4)c4ccc([nH]4)c(-c4ccc(S(=O)(=O)[O-])cc4)c4nc(c(-c5ccc(S(=O)(=O)[O-])cc5)c5ccc2[nH]5)C=C4)C=C3)cc1
REMARK SMILES IDX 5 1 4 2 3 3 1 4 2 5 23 7 24 8 82 9 25 10 81 11 26 12 27 13
REMARK SMILES IDX 28 14 75 15 29 16 80 17 74 18 76 19 30 20 79 21 73 22 72 23
REMARK SMILES IDX 31 25 61 26 42 27 60 28 43 29 46 30 59 31 77 32 44 33 45 34
REMARK SMILES IDX 58 36 78 37 47 38 32 39 33 40 41 41 34 42 40 43 35 44 36 45
REMARK SMILES IDX 37 46 38 47 39 48 62 49 63 50 71 51 64 52 70 53 65 54 66 55
REMARK SMILES IDX 67 56 68 57 69 58 48 59 49 60 57 61 50 62 56 63 51 64 52 65
REMARK SMILES IDX 53 66 54 67 55 68 6 69 7 70 8 71 9 72 10 74 11 75 12 76
REMARK SMILES IDX 14 77 13 78 15 80 16 81 17 82 18 83 22 84 19 85 21 86 20 87
REMARK H PARENT 3 6 76 24 46 35 8 73 14 79
REMARK Flexibility Score: inf
ROOT
ATOM      1  C   UNL     1       2.351  -7.219   4.386  1.00  0.00     0.023 C 
ENDROOT
BRANCH   1   2
ATOM      2  C   UNL     1       1.663  -7.410   3.042  1.00  0.00     0.116 C 
BRANCH   2   3
ATOM      3  N   UNL     1       2.119  -8.598   2.339  1.00  0.00    -0.352 N 
ATOM      4  O   UNL     1       1.893 -10.495   1.140  1.00  0.00    -0.269 OA
ATOM      5  C   UNL     1       1.385  -9.472   1.575  1.00  0.00     0.251 C 
ATOM      6  H   UNL     1       3.078  -8.802   2.420  1.00  0.00     0.163 HD
BRANCH   5   7
ATOM      7  C   UNL     1      -0.037  -9.169   1.321  1.00  0.00     0.039 A 
ATOM      8  C   UNL     1      -0.422  -7.912   0.845  1.00  0.00     0.014 A 
ATOM      9  C   UNL     1      -0.990 -10.152   1.593  1.00  0.00     0.014 A 
ATOM     10  C   UNL     1      -1.773  -7.601   0.738  1.00  0.00     0.010 A 
ATOM     11  C   UNL     1      -2.342  -9.858   1.426  1.00  0.00     0.010 A 
ATOM     12  C   UNL     1      -2.743  -8.575   1.019  1.00  0.00    -0.014 A 
BRANCH  12  13
ATOM     13  C   UNL     1      -4.181  -8.274   0.831  1.00  0.00     0.031 A 
ATOM     14  C   UNL     1      -5.115  -8.238   2.004  1.00  0.00     0.074 A 
ATOM     15  C   UNL     1      -4.643  -8.082  -0.418  1.00  0.00     0.049 A 
ATOM     16  N   UNL     1      -6.415  -8.095   2.015  1.00  0.00    -0.248 NA
ATOM     17  C   UNL     1      -4.513  -8.392   3.338  1.00  0.00     0.031 C 
ATOM     18  C   UNL     1      -3.821  -8.094  -1.631  1.00  0.00     0.029 A 
ATOM     19  N   UNL     1      -5.915  -7.860  -0.877  1.00  0.00    -0.354 N 
ATOM     20  C   UNL     1      -6.794  -8.173   3.350  1.00  0.00     0.074 A 
ATOM     21  C   UNL     1      -5.585  -8.388   4.118  1.00  0.00     0.031 C 
ATOM     22  C   UNL     1      -4.609  -7.888  -2.695  1.00  0.00     0.029 A 
ATOM     23  C   UNL     1      -5.994  -7.791  -2.247  1.00  0.00     0.049 A 
ATOM     24  H   UNL     1      -6.694  -7.759  -0.284  1.00  0.00     0.167 HD
ATOM     25  C   UNL     1      -8.037  -8.079   3.881  1.00  0.00     0.031 A 
ATOM     26  C   UNL     1      -7.064  -7.702  -3.059  1.00  0.00     0.031 A 
ATOM     27  C   UNL     1      -9.230  -7.878   3.102  1.00  0.00     0.049 A 
ATOM     28  C   UNL     1      -8.434  -7.632  -2.455  1.00  0.00     0.074 A 
ATOM     29  C   UNL     1     -10.534  -7.735   3.544  1.00  0.00     0.029 A 
ATOM     30  N   UNL     1      -9.267  -7.804   1.716  1.00  0.00    -0.354 N 
ATOM     31  N   UNL     1      -8.773  -7.670  -1.189  1.00  0.00    -0.248 NA
ATOM     32  C   UNL     1      -9.565  -7.503  -3.382  1.00  0.00     0.031 C 
ATOM     33  C   UNL     1     -11.364  -7.626   2.423  1.00  0.00     0.029 A 
ATOM     34  C   UNL     1     -10.573  -7.643   1.284  1.00  0.00     0.049 A 
ATOM     35  H   UNL     1      -8.480  -7.859   1.127  1.00  0.00     0.167 HD
ATOM     36  C   UNL     1     -10.156  -7.548  -1.163  1.00  0.00     0.074 A 
ATOM     37  C   UNL     1     -10.590  -7.431  -2.542  1.00  0.00     0.031 C 
ATOM     38  C   UNL     1     -10.987  -7.527  -0.093  1.00  0.00     0.031 A 
BRANCH  25  39
ATOM     39  C   UNL     1      -8.166  -8.247   5.373  1.00  0.00    -0.014 A 
ATOM     40  C   UNL     1      -7.695  -7.267   6.265  1.00  0.00     0.010 A 
ATOM     41  C   UNL     1      -8.769  -9.408   5.889  1.00  0.00     0.010 A 
ATOM     42  C   UNL     1      -7.768  -7.475   7.646  1.00  0.00     0.020 A 
ATOM     43  C   UNL     1      -8.868  -9.608   7.269  1.00  0.00     0.020 A 
ATOM     44  C   UNL     1      -8.341  -8.651   8.139  1.00  0.00     0.054 A 
BRANCH  44  45
ATOM     45  S   UNL     1      -8.395  -8.913   9.933  1.00  0.00     0.124 S 
ATOM     46  O   UNL     1      -7.007  -9.267  10.225  1.00  0.00    -0.237 OA
ATOM     47  O   UNL     1      -8.829  -7.613  10.438  1.00  0.00    -0.237 OA
ATOM     48  O   UNL     1      -9.361  -9.996  10.097  1.00  0.00    -0.744 OA
ENDBRANCH  44  45
ENDBRANCH  25  39
BRANCH  26  49
ATOM     49  C   UNL     1      -6.846  -7.695  -4.529  1.00  0.00    -0.014 A 
ATOM     50  C   UNL     1      -6.956  -6.502  -5.262  1.00  0.00     0.010 A 
ATOM     51  C   UNL     1      -6.418  -8.867  -5.183  1.00  0.00     0.010 A 
ATOM     52  C   UNL     1      -6.627  -6.477  -6.620  1.00  0.00     0.020 A 
ATOM     53  C   UNL     1      -6.066  -8.840  -6.534  1.00  0.00     0.020 A 
ATOM     54  C   UNL     1      -6.173  -7.644  -7.245  1.00  0.00     0.054 A 
BRANCH  54  55
ATOM     55  S   UNL     1      -5.644  -7.559  -8.978  1.00  0.00     0.124 S 
ATOM     56  O   UNL     1      -6.920  -7.480  -9.682  1.00  0.00    -0.237 OA
ATOM     57  O   UNL     1      -4.832  -6.344  -9.002  1.00  0.00    -0.237 OA
ATOM     58  O   UNL     1      -4.897  -8.800  -9.168  1.00  0.00    -0.744 OA
ENDBRANCH  54  55
ENDBRANCH  26  49
BRANCH  38  59
ATOM     59  C   UNL     1     -12.455  -7.335  -0.356  1.00  0.00    -0.014 A 
ATOM     60  C   UNL     1     -13.253  -8.388  -0.834  1.00  0.00     0.010 A 
ATOM     61  C   UNL     1     -13.058  -6.108  -0.023  1.00  0.00     0.010 A 
ATOM     62  C   UNL     1     -14.633  -8.215  -0.977  1.00  0.00     0.020 A 
ATOM     63  C   UNL     1     -14.439  -5.939  -0.144  1.00  0.00     0.020 A 
ATOM     64  C   UNL     1     -15.218  -6.994  -0.624  1.00  0.00     0.054 A 
BRANCH  64  65
ATOM     65  S   UNL     1     -17.021  -6.825  -0.732  1.00  0.00     0.124 S 
ATOM     66  O   UNL     1     -17.230  -6.705  -2.172  1.00  0.00    -0.237 OA
ATOM     67  O   UNL     1     -17.497  -8.068  -0.128  1.00  0.00    -0.237 OA
ATOM     68  O   UNL     1     -17.302  -5.617   0.042  1.00  0.00    -0.744 OA
ENDBRANCH  64  65
ENDBRANCH  38  59
ENDBRANCH  12  13
ENDBRANCH   5   7
ENDBRANCH   2   3
ENDBRANCH   1   2
BRANCH   1  69
ATOM     69  C   UNL     1       3.880  -7.215   4.335  1.00  0.00     0.023 C 
BRANCH  69  70
ATOM     70  C   UNL     1       4.485  -6.227   3.338  1.00  0.00     0.116 C 
BRANCH  70  71
ATOM     71  N   UNL     1       4.243  -4.851   3.711  1.00  0.00    -0.351 N 
ATOM     72  C   UNL     1       5.018  -3.977   4.438  1.00  0.00     0.278 C 
ATOM     73  H   UNL     1       3.387  -4.481   3.395  1.00  0.00     0.163 HD
ATOM     74  O   UNL     1       4.555  -2.830   4.558  1.00  0.00    -0.268 OA
BRANCH  72  75
ATOM     75  C   UNL     1       6.399  -4.369   5.070  1.00  0.00     0.279 C 
ATOM     76  C   UNL     1       6.426  -4.278   6.618  1.00  0.00     0.137 C 
ATOM     77  N   UNL     1       6.744  -5.804   5.183  1.00  0.00    -0.324 N 
ATOM     78  C   UNL     1       6.507  -5.805   6.625  1.00  0.00     0.269 C 
ATOM     79  H   UNL     1       6.251  -6.487   4.607  1.00  0.00     0.348 HD
BRANCH  77  80
ATOM     80  C   UNL     1       8.115  -6.138   4.762  1.00  0.00     0.267 C 
BRANCH  80  81
ATOM     81  C   UNL     1       9.381  -5.374   5.232  1.00  0.00     0.097 C 
BRANCH  81  82
ATOM     82  C   UNL     1       9.710  -5.478   6.701  1.00  0.00    -0.042 A 
ATOM     83  C   UNL     1       9.824  -6.725   7.332  1.00  0.00     0.004 A 
ATOM     84  C   UNL     1       9.834  -4.315   7.473  1.00  0.00     0.004 A 
ATOM     85  C   UNL     1       9.931  -6.804   8.721  1.00  0.00     0.000 A 
ATOM     86  C   UNL     1       9.942  -4.395   8.860  1.00  0.00     0.000 A 
ATOM     87  C   UNL     1       9.966  -5.640   9.486  1.00  0.00     0.000 A 
ENDBRANCH  81  82
ENDBRANCH  80  81
ENDBRANCH  77  80
ENDBRANCH  72  75
ENDBRANCH  70  71
ENDBRANCH  69  70
ENDBRANCH   1  69
TORSDOF 17
