REMARK SMILES C[C@H](C(=O)NCCCCNC(=O)c1ccc(-c2c3nc(c(-c4ccc(S(=O)(=O)[O-])cc4)c4ccc([nH]4)c(-c4ccc(S(=O)(=O)[O-])cc4)c4nc(c(-c5ccc(S(=O)(=O)[O-])cc5)c5ccc2[nH]5)C=C4)C=C3)cc1)N1C(=O)C[C@@H](N2C(=O)/C(=C/c3ccccc3)SC2=S)C1=O
REMARK SMILES IDX 7 1 6 2 5 3 3 4 4 5 2 7 1 8 73 9 74 10 92 11 75 12 76 13
REMARK SMILES IDX 77 14 93 15 78 16 79 17 90 18 80 19 81 20 89 21 91 22 82 23
REMARK SMILES IDX 83 24 84 25 88 26 85 27 87 28 86 29 8 30 9 31 10 32 11 33
REMARK SMILES IDX 12 35 13 36 14 37 72 38 15 39 71 40 16 41 17 42 18 43 65 44
REMARK SMILES IDX 19 45 70 46 64 47 66 48 20 49 69 50 63 51 62 52 21 54 51 55
REMARK SMILES IDX 32 56 50 57 33 58 36 59 49 60 67 61 34 62 35 63 48 65 68 66
REMARK SMILES IDX 37 67 22 68 23 69 31 70 24 71 30 72 25 73 26 74 27 75 28 76
REMARK SMILES IDX 29 77 52 78 53 79 61 80 54 81 60 82 55 83 56 84 57 85 58 86
REMARK SMILES IDX 59 87 38 88 39 89 47 90 40 91 46 92 41 93 42 94 43 95 44 96
REMARK SMILES IDX 45 97
REMARK H PARENT 5 6 10 34 66 53 36 64
REMARK Flexibility Score: inf
ROOT
ATOM      1  C   UNL     1      -1.752  -1.644   0.897  1.00  0.00     0.023 C 
ENDROOT
BRANCH   1   2
ATOM      2  C   UNL     1      -1.052  -0.372   1.380  1.00  0.00     0.116 C 
BRANCH   2   3
ATOM      3  N   UNL     1       0.350  -0.372   1.024  1.00  0.00    -0.354 N 
ATOM      4  C   UNL     1       1.037   0.077  -0.059  1.00  0.00     0.243 C 
ATOM      5  O   UNL     1       2.254  -0.153  -0.042  1.00  0.00    -0.273 OA
ATOM      6  H   UNL     1       0.927  -0.783   1.709  1.00  0.00     0.163 HD
BRANCH   4   7
ATOM      7  C   UNL     1       0.446   0.965  -1.184  1.00  0.00     0.179 C 
ATOM      8  C   UNL     1       1.133   0.629  -2.515  1.00  0.00     0.042 C 
BRANCH   7   9
ATOM      9  N   UNL     1      -1.001   1.039  -1.344  1.00  0.00    -0.268 N 
ATOM     10  C   UNL     1      -1.720   2.184  -1.131  1.00  0.00     0.232 C 
ATOM     11  C   UNL     1      -1.775   0.036  -1.848  1.00  0.00     0.253 C 
ATOM     12  O   UNL     1      -1.291   3.248  -0.710  1.00  0.00    -0.274 OA
ATOM     13  C   UNL     1      -3.156   1.964  -1.514  1.00  0.00     0.136 C 
ATOM     14  C   UNL     1      -3.225   0.464  -1.732  1.00  0.00     0.191 C 
ATOM     15  O   UNL     1      -1.401  -1.043  -2.282  1.00  0.00    -0.272 OA
BRANCH  14  16
ATOM     16  N   UNL     1      -3.959  -0.016  -2.896  1.00  0.00    -0.280 N 
ATOM     17  C   UNL     1      -3.544   0.398  -4.149  1.00  0.00     0.266 C 
ATOM     18  C   UNL     1      -4.963  -0.962  -2.861  1.00  0.00     0.149 C 
ATOM     19  O   UNL     1      -2.672   1.228  -4.367  1.00  0.00    -0.268 OA
ATOM     20  C   UNL     1      -4.291  -0.321  -5.204  1.00  0.00     0.081 C 
ATOM     21  S   UNL     1      -5.468  -1.351  -4.500  1.00  0.00    -0.054 SA
ATOM     22  S   UNL     1      -5.679  -1.653  -1.524  1.00  0.00    -0.052 S 
ATOM     23  C   UNL     1      -3.991  -0.149  -6.496  1.00  0.00     0.029 C 
BRANCH  23  24
ATOM     24  C   UNL     1      -4.677  -0.776  -7.626  1.00  0.00    -0.024 A 
ATOM     25  C   UNL     1      -3.965  -1.602  -8.500  1.00  0.00     0.008 A 
ATOM     26  C   UNL     1      -6.030  -0.513  -7.872  1.00  0.00     0.008 A 
ATOM     27  C   UNL     1      -4.605  -2.168  -9.604  1.00  0.00     0.001 A 
ATOM     28  C   UNL     1      -6.667  -1.081  -8.974  1.00  0.00     0.001 A 
ATOM     29  C   UNL     1      -5.954  -1.907  -9.840  1.00  0.00     0.000 A 
ENDBRANCH  23  24
ENDBRANCH  14  16
ENDBRANCH   7   9
ENDBRANCH   4   7
ENDBRANCH   2   3
ENDBRANCH   1   2
BRANCH   1  30
ATOM     30  C   UNL     1      -1.638  -2.847   1.827  1.00  0.00     0.023 C 
BRANCH  30  31
ATOM     31  C   UNL     1      -2.271  -2.662   3.198  1.00  0.00     0.116 C 
BRANCH  31  32
ATOM     32  N   UNL     1      -3.683  -2.302   3.159  1.00  0.00    -0.352 N 
ATOM     33  C   UNL     1      -4.663  -2.643   4.066  1.00  0.00     0.251 C 
ATOM     34  H   UNL     1      -3.971  -1.751   2.396  1.00  0.00     0.163 HD
ATOM     35  O   UNL     1      -5.828  -2.310   3.889  1.00  0.00    -0.269 OA
BRANCH  33  36
ATOM     36  C   UNL     1      -4.279  -3.470   5.227  1.00  0.00     0.039 A 
ATOM     37  C   UNL     1      -4.899  -4.708   5.406  1.00  0.00     0.014 A 
ATOM     38  C   UNL     1      -3.213  -3.078   6.040  1.00  0.00     0.014 A 
ATOM     39  C   UNL     1      -4.382  -5.602   6.344  1.00  0.00     0.010 A 
ATOM     40  C   UNL     1      -2.655  -3.998   6.918  1.00  0.00     0.010 A 
ATOM     41  C   UNL     1      -3.221  -5.275   7.065  1.00  0.00    -0.014 A 
BRANCH  41  42
ATOM     42  C   UNL     1      -2.550  -6.258   7.952  1.00  0.00     0.031 A 
ATOM     43  C   UNL     1      -2.415  -5.967   9.420  1.00  0.00     0.074 A 
ATOM     44  C   UNL     1      -1.963  -7.348   7.417  1.00  0.00     0.049 A 
ATOM     45  N   UNL     1      -1.747  -6.625  10.331  1.00  0.00    -0.248 NA
ATOM     46  C   UNL     1      -3.090  -4.759   9.925  1.00  0.00     0.031 C 
ATOM     47  C   UNL     1      -1.975  -7.711   5.996  1.00  0.00     0.029 A 
ATOM     48  N   UNL     1      -1.217  -8.341   8.002  1.00  0.00    -0.354 N 
ATOM     49  C   UNL     1      -1.890  -5.895  11.504  1.00  0.00     0.074 A 
ATOM     50  C   UNL     1      -2.682  -4.727  11.185  1.00  0.00     0.031 C 
ATOM     51  C   UNL     1      -1.278  -8.847   5.824  1.00  0.00     0.029 A 
ATOM     52  C   UNL     1      -0.735  -9.271   7.110  1.00  0.00     0.049 A 
ATOM     53  H   UNL     1      -1.044  -8.384   8.970  1.00  0.00     0.167 HD
ATOM     54  C   UNL     1      -1.415  -6.179  12.739  1.00  0.00     0.031 A 
ATOM     55  C   UNL     1       0.073 -10.333   7.300  1.00  0.00     0.031 A 
ATOM     56  C   UNL     1      -0.663  -7.361  13.059  1.00  0.00     0.049 A 
ATOM     57  C   UNL     1       0.574 -10.634   8.686  1.00  0.00     0.074 A 
ATOM     58  C   UNL     1      -0.228  -7.790  14.300  1.00  0.00     0.029 A 
ATOM     59  N   UNL     1      -0.230  -8.298  12.134  1.00  0.00    -0.354 N 
ATOM     60  N   UNL     1       0.344  -9.984   9.802  1.00  0.00    -0.248 NA
ATOM     61  C   UNL     1       1.441 -11.811   8.841  1.00  0.00     0.031 C 
ATOM     62  C   UNL     1       0.513  -8.962  14.120  1.00  0.00     0.029 A 
ATOM     63  C   UNL     1       0.498  -9.287  12.773  1.00  0.00     0.049 A 
ATOM     64  H   UNL     1      -0.412  -8.265  11.168  1.00  0.00     0.167 HD
ATOM     65  C   UNL     1       1.024 -10.683  10.793  1.00  0.00     0.074 A 
ATOM     66  C   UNL     1       1.658 -11.815  10.150  1.00  0.00     0.031 C 
ATOM     67  C   UNL     1       1.118 -10.409  12.117  1.00  0.00     0.031 A 
BRANCH  54  68
ATOM     68  C   UNL     1      -1.692  -5.194  13.841  1.00  0.00    -0.014 A 
ATOM     69  C   UNL     1      -2.981  -5.055  14.385  1.00  0.00     0.010 A 
ATOM     70  C   UNL     1      -0.633  -4.441  14.382  1.00  0.00     0.010 A 
ATOM     71  C   UNL     1      -3.212  -4.158  15.431  1.00  0.00     0.020 A 
ATOM     72  C   UNL     1      -0.856  -3.561  15.444  1.00  0.00     0.020 A 
ATOM     73  C   UNL     1      -2.148  -3.416  15.953  1.00  0.00     0.054 A 
BRANCH  73  74
ATOM     74  S   UNL     1      -2.470  -2.291  17.338  1.00  0.00     0.124 S 
ATOM     75  O   UNL     1      -3.169  -1.192  16.676  1.00  0.00    -0.237 OA
ATOM     76  O   UNL     1      -3.289  -3.107  18.231  1.00  0.00    -0.237 OA
ATOM     77  O   UNL     1      -1.137  -1.968  17.841  1.00  0.00    -0.744 OA
ENDBRANCH  73  74
ENDBRANCH  54  68
BRANCH  55  78
ATOM     78  C   UNL     1       0.475 -11.184   6.147  1.00  0.00    -0.014 A 
ATOM     79  C   UNL     1      -0.028 -12.490   6.013  1.00  0.00     0.010 A 
ATOM     80  C   UNL     1       1.372 -10.695   5.179  1.00  0.00     0.010 A 
ATOM     81  C   UNL     1       0.378 -13.301   4.948  1.00  0.00     0.020 A 
ATOM     82  C   UNL     1       1.760 -11.493   4.099  1.00  0.00     0.020 A 
ATOM     83  C   UNL     1       1.272 -12.797   3.999  1.00  0.00     0.054 A 
BRANCH  83  84
ATOM     84  S   UNL     1       1.760 -13.853   2.606  1.00  0.00     0.124 S 
ATOM     85  O   UNL     1       2.716 -14.760   3.234  1.00  0.00    -0.237 OA
ATOM     86  O   UNL     1       0.491 -14.452   2.201  1.00  0.00    -0.237 OA
ATOM     87  O   UNL     1       2.328 -12.909   1.646  1.00  0.00    -0.744 OA
ENDBRANCH  83  84
ENDBRANCH  55  78
BRANCH  67  88
ATOM     88  C   UNL     1       1.917 -11.355  12.969  1.00  0.00    -0.014 A 
ATOM     89  C   UNL     1       3.322 -11.344  12.935  1.00  0.00     0.010 A 
ATOM     90  C   UNL     1       1.256 -12.203  13.876  1.00  0.00     0.010 A 
ATOM     91  C   UNL     1       4.054 -12.174  13.787  1.00  0.00     0.020 A 
ATOM     92  C   UNL     1       1.985 -13.018  14.745  1.00  0.00     0.020 A 
ATOM     93  C   UNL     1       3.380 -13.003  14.690  1.00  0.00     0.054 A 
BRANCH  93  94
ATOM     94  S   UNL     1       4.353 -14.017  15.837  1.00  0.00     0.124 S 
ATOM     95  O   UNL     1       4.844 -15.079  14.963  1.00  0.00    -0.237 OA
ATOM     96  O   UNL     1       5.366 -13.079  16.316  1.00  0.00    -0.237 OA
ATOM     97  O   UNL     1       3.378 -14.437  16.841  1.00  0.00    -0.744 OA
ENDBRANCH  93  94
ENDBRANCH  67  88
ENDBRANCH  41  42
ENDBRANCH  33  36
ENDBRANCH  31  32
ENDBRANCH  30  31
ENDBRANCH   1  30
TORSDOF 17
