REMARK SMILES CC(C)c1noc(C[N@@H+]2[C@@H](C(=O)NCCCCNC(=O)c3ccc(-c4c5nc(c(-c6ccc(S(=O)(=O)[O-])cc6)c6ccc([nH]6)c(-c6ccc(S(=O)(=O)[O-])cc6)c6nc(c(-c7ccc(S(=O)(=O)[O-])cc7)c7ccc4[nH]7)C=C6)C=C5)cc3)C[C@H]3CCCC[C@@H]32)n1
REMARK SMILES IDX 15 1 14 2 13 3 11 4 12 5 10 7 9 8 87 9 81 11 82 12 86 13
REMARK SMILES IDX 83 14 85 15 84 16 8 17 7 18 4 19 5 20 88 21 6 22 2 23 1 24
REMARK SMILES IDX 3 25 16 26 17 27 18 28 19 29 20 31 21 32 22 33 80 34 23 35
REMARK SMILES IDX 79 36 24 37 25 38 26 39 73 40 27 41 78 42 72 43 74 44 28 45
REMARK SMILES IDX 77 46 71 47 70 48 29 50 59 51 40 52 58 53 41 54 44 55 57 56
REMARK SMILES IDX 75 57 42 58 43 59 56 61 76 62 45 63 30 64 31 65 39 66 32 67
REMARK SMILES IDX 38 68 33 69 34 70 35 71 36 72 37 73 60 74 61 75 69 76 62 77
REMARK SMILES IDX 68 78 63 79 64 80 65 81 66 82 67 83 46 84 47 85 55 86 48 87
REMARK SMILES IDX 54 88 49 89 50 90 51 91 52 92 53 93
REMARK H PARENT 13 6 9 10 18 30 74 49 44 60
REMARK Flexibility Score: inf
ROOT
ATOM      1  C   UNL     1      -7.909   3.357  -1.612  1.00  0.00     0.023 C 
ENDROOT
BRANCH   1   2
ATOM      2  C   UNL     1      -7.077   3.087  -0.361  1.00  0.00     0.116 C 
BRANCH   2   3
ATOM      3  N   UNL     1      -7.481   1.856   0.292  1.00  0.00    -0.351 N 
ATOM      4  C   UNL     1      -6.751   0.714   0.500  1.00  0.00     0.278 C 
ATOM      5  O   UNL     1      -7.302  -0.233   1.061  1.00  0.00    -0.268 OA
ATOM      6  H   UNL     1      -8.405   1.838   0.631  1.00  0.00     0.163 HD
BRANCH   4   7
ATOM      7  C   UNL     1      -5.272   0.720   0.065  1.00  0.00     0.275 C 
ATOM      8  N   UNL     1      -4.710  -0.661   0.034  1.00  0.00    -0.314 N 
ATOM      9  C   UNL     1      -3.925  -0.796   1.268  1.00  0.00     0.188 C 
ATOM     10  H   UNL     1      -5.428  -1.386   0.044  1.00  0.00     0.349 HD
ATOM     11  C   UNL     1      -4.454   1.517   1.099  1.00  0.00     0.085 C 
ATOM     12  C   UNL     1      -3.317   0.587   1.470  1.00  0.00     0.054 C 
ATOM     13  C   UNL     1      -2.869  -1.892   1.424  1.00  0.00     0.065 C 
ATOM     14  C   UNL     1      -2.734   0.728   2.865  1.00  0.00     0.010 C 
ATOM     15  C   UNL     1      -2.134  -1.749   2.766  1.00  0.00     0.006 C 
ATOM     16  C   UNL     1      -1.637  -0.325   3.045  1.00  0.00     0.001 C 
BRANCH   8  17
ATOM     17  C   UNL     1      -4.063  -1.003  -1.246  1.00  0.00     0.364 C 
BRANCH  17  18
ATOM     18  C   UNL     1      -2.804  -0.274  -1.589  1.00  0.00     0.281 A 
ATOM     19  C   UNL     1      -0.861   0.488  -1.708  1.00  0.00     0.174 A 
ATOM     20  N   UNL     1      -1.615   1.535  -2.067  1.00  0.00    -0.062 NA
ATOM     21  N   UNL     1      -1.556  -0.663  -1.452  1.00  0.00    -0.191 NA
ATOM     22  O   UNL     1      -2.917   1.026  -1.999  1.00  0.00    -0.333 OA
BRANCH  19  23
ATOM     23  C   UNL     1       0.620   0.567  -1.550  1.00  0.00     0.055 C 
ATOM     24  C   UNL     1       1.056   0.102  -0.156  1.00  0.00     0.016 C 
ATOM     25  C   UNL     1       1.325  -0.254  -2.628  1.00  0.00     0.016 C 
ENDBRANCH  19  23
ENDBRANCH  17  18
ENDBRANCH   8  17
ENDBRANCH   4   7
ENDBRANCH   2   3
ENDBRANCH   1   2
BRANCH   1  26
ATOM     26  C   UNL     1      -9.377   3.686  -1.334  1.00  0.00     0.023 C 
BRANCH  26  27
ATOM     27  C   UNL     1      -9.610   4.871  -0.402  1.00  0.00     0.116 C 
BRANCH  27  28
ATOM     28  N   UNL     1      -9.034   6.109  -0.906  1.00  0.00    -0.352 N 
ATOM     29  C   UNL     1      -9.610   7.354  -1.000  1.00  0.00     0.251 C 
ATOM     30  H   UNL     1      -8.104   6.047  -1.223  1.00  0.00     0.163 HD
ATOM     31  O   UNL     1      -9.022   8.259  -1.586  1.00  0.00    -0.269 OA
BRANCH  29  32
ATOM     32  C   UNL     1     -10.951   7.587  -0.423  1.00  0.00     0.039 A 
ATOM     33  C   UNL     1     -11.916   8.237  -1.196  1.00  0.00     0.014 A 
ATOM     34  C   UNL     1     -11.263   7.143   0.865  1.00  0.00     0.014 A 
ATOM     35  C   UNL     1     -13.216   8.376  -0.705  1.00  0.00     0.010 A 
ATOM     36  C   UNL     1     -12.575   7.218   1.323  1.00  0.00     0.010 A 
ATOM     37  C   UNL     1     -13.567   7.832   0.542  1.00  0.00    -0.014 A 
BRANCH  37  38
ATOM     38  C   UNL     1     -14.967   7.874   1.037  1.00  0.00     0.031 A 
ATOM     39  C   UNL     1     -15.305   8.628   2.294  1.00  0.00     0.074 A 
ATOM     40  C   UNL     1     -15.920   7.165   0.400  1.00  0.00     0.049 A 
ATOM     41  N   UNL     1     -16.451   8.719   2.918  1.00  0.00    -0.248 NA
ATOM     42  C   UNL     1     -14.205   9.354   2.951  1.00  0.00     0.031 C 
ATOM     43  C   UNL     1     -15.711   6.352  -0.800  1.00  0.00     0.029 A 
ATOM     44  N   UNL     1     -17.254   7.002   0.682  1.00  0.00    -0.354 N 
ATOM     45  C   UNL     1     -16.207   9.488   4.050  1.00  0.00     0.074 A 
ATOM     46  C   UNL     1     -14.795   9.803   4.049  1.00  0.00     0.031 C 
ATOM     47  C   UNL     1     -16.876   5.789  -1.159  1.00  0.00     0.029 A 
ATOM     48  C   UNL     1     -17.905   6.165  -0.194  1.00  0.00     0.049 A 
ATOM     49  H   UNL     1     -17.702   7.442   1.440  1.00  0.00     0.167 HD
ATOM     50  C   UNL     1     -17.082   9.906   4.996  1.00  0.00     0.031 A 
ATOM     51  C   UNL     1     -19.181   5.733  -0.213  1.00  0.00     0.031 A 
ATOM     52  C   UNL     1     -18.488   9.598   4.988  1.00  0.00     0.049 A 
ATOM     53  C   UNL     1     -20.135   6.210   0.847  1.00  0.00     0.074 A 
ATOM     54  C   UNL     1     -19.468  10.039   5.859  1.00  0.00     0.029 A 
ATOM     55  N   UNL     1     -19.112   8.766   4.071  1.00  0.00    -0.354 N 
ATOM     56  N   UNL     1     -19.904   7.011   1.860  1.00  0.00    -0.248 NA
ATOM     57  C   UNL     1     -21.522   5.735   0.757  1.00  0.00     0.031 C 
ATOM     58  C   UNL     1     -20.674   9.426   5.505  1.00  0.00     0.029 A 
ATOM     59  C   UNL     1     -20.458   8.652   4.376  1.00  0.00     0.049 A 
ATOM     60  H   UNL     1     -18.664   8.322   3.315  1.00  0.00     0.167 HD
ATOM     61  C   UNL     1     -21.121   7.149   2.519  1.00  0.00     0.074 A 
ATOM     62  C   UNL     1     -22.088   6.365   1.777  1.00  0.00     0.031 C 
ATOM     63  C   UNL     1     -21.410   7.860   3.636  1.00  0.00     0.031 A 
BRANCH  50  64
ATOM     64  C   UNL     1     -16.535  10.729   6.133  1.00  0.00    -0.014 A 
ATOM     65  C   UNL     1     -16.070  12.041   5.928  1.00  0.00     0.010 A 
ATOM     66  C   UNL     1     -16.514  10.193   7.434  1.00  0.00     0.010 A 
ATOM     67  C   UNL     1     -15.548  12.782   6.992  1.00  0.00     0.020 A 
ATOM     68  C   UNL     1     -16.021  10.942   8.507  1.00  0.00     0.020 A 
ATOM     69  C   UNL     1     -15.522  12.225   8.274  1.00  0.00     0.054 A 
BRANCH  69  70
ATOM     70  S   UNL     1     -14.846  13.213   9.637  1.00  0.00     0.124 S 
ATOM     71  O   UNL     1     -13.414  13.179   9.351  1.00  0.00    -0.237 OA
ATOM     72  O   UNL     1     -15.493  14.508   9.446  1.00  0.00    -0.237 OA
ATOM     73  O   UNL     1     -15.260  12.483  10.833  1.00  0.00    -0.744 OA
ENDBRANCH  69  70
ENDBRANCH  50  64
BRANCH  51  74
ATOM     74  C   UNL     1     -19.625   4.795  -1.280  1.00  0.00    -0.014 A 
ATOM     75  C   UNL     1     -20.483   5.229  -2.306  1.00  0.00     0.010 A 
ATOM     76  C   UNL     1     -19.164   3.465  -1.292  1.00  0.00     0.010 A 
ATOM     77  C   UNL     1     -20.876   4.350  -3.319  1.00  0.00     0.020 A 
ATOM     78  C   UNL     1     -19.533   2.592  -2.318  1.00  0.00     0.020 A 
ATOM     79  C   UNL     1     -20.394   3.038  -3.322  1.00  0.00     0.054 A 
BRANCH  79  80
ATOM     80  S   UNL     1     -20.861   1.936  -4.686  1.00  0.00     0.124 S 
ATOM     81  O   UNL     1     -22.254   1.637  -4.372  1.00  0.00    -0.237 OA
ATOM     82  O   UNL     1     -20.642   2.779  -5.860  1.00  0.00    -0.237 OA
ATOM     83  O   UNL     1     -19.933   0.815  -4.553  1.00  0.00    -0.744 OA
ENDBRANCH  79  80
ENDBRANCH  51  74
BRANCH  63  84
ATOM     84  C   UNL     1     -22.834   7.841   4.123  1.00  0.00    -0.014 A 
ATOM     85  C   UNL     1     -23.381   6.697   4.731  1.00  0.00     0.010 A 
ATOM     86  C   UNL     1     -23.617   9.007   4.029  1.00  0.00     0.010 A 
ATOM     87  C   UNL     1     -24.692   6.711   5.213  1.00  0.00     0.020 A 
ATOM     88  C   UNL     1     -24.919   9.034   4.535  1.00  0.00     0.020 A 
ATOM     89  C   UNL     1     -25.453   7.881   5.114  1.00  0.00     0.054 A 
BRANCH  89  90
ATOM     90  S   UNL     1     -27.134   7.889   5.794  1.00  0.00     0.124 S 
ATOM     91  O   UNL     1     -27.862   7.083   4.818  1.00  0.00    -0.237 OA
ATOM     92  O   UNL     1     -26.952   7.274   7.107  1.00  0.00    -0.237 OA
ATOM     93  O   UNL     1     -27.490   9.306   5.822  1.00  0.00    -0.744 OA
ENDBRANCH  89  90
ENDBRANCH  63  84
ENDBRANCH  37  38
ENDBRANCH  29  32
ENDBRANCH  27  28
ENDBRANCH  26  27
ENDBRANCH   1  26
TORSDOF 17
