REMARK SMILES C[C@@H](C(=O)NCCCCNC(=O)c1ccc(-c2c3nc(c(-c4ccc(S(=O)(=O)[O-])cc4)c4ccc([nH]4)c(-c4ccc(S(=O)(=O)[O-])cc4)c4nc(c(-c5ccc(S(=O)(=O)[O-])cc5)c5ccc2[nH]5)C=C4)C=C3)cc1)[NH+]1CCN(C(=O)c2ccc(C[NH3+])o2)CC1
REMARK SMILES IDX 7 1 6 2 5 3 3 4 4 5 2 7 1 8 73 9 74 10 87 11 75 13 86 14
REMARK SMILES IDX 76 15 77 16 78 17 79 18 80 19 85 20 81 21 82 22 83 23 84 24
REMARK SMILES IDX 8 28 9 29 10 30 11 31 12 33 13 34 14 35 72 36 15 37 71 38
REMARK SMILES IDX 16 39 17 40 18 41 65 42 19 43 70 44 64 45 66 46 20 47 69 48
REMARK SMILES IDX 63 49 62 50 21 52 51 53 32 54 50 55 33 56 36 57 49 58 67 59
REMARK SMILES IDX 34 60 35 61 48 63 68 64 37 65 22 66 23 67 31 68 24 69 30 70
REMARK SMILES IDX 25 71 26 72 27 73 28 74 29 75 52 76 53 77 61 78 54 79 60 80
REMARK SMILES IDX 55 81 56 82 57 83 58 84 59 85 38 86 39 87 47 88 40 89 46 90
REMARK SMILES IDX 41 91 42 92 43 93 44 94 45 95
REMARK H PARENT 5 6 73 12 84 25 84 26 84 27 10 32 66 51 36 62
REMARK Flexibility Score: inf
ROOT
ATOM      1  C   UNL     1       4.372   0.904  -0.952  1.00  0.00     0.023 C 
ENDROOT
BRANCH   1   2
ATOM      2  C   UNL     1       3.516   1.959  -0.247  1.00  0.00     0.116 C 
BRANCH   2   3
ATOM      3  N   UNL     1       2.382   2.341  -1.066  1.00  0.00    -0.351 N 
ATOM      4  C   UNL     1       1.084   1.904  -1.018  1.00  0.00     0.278 C 
ATOM      5  O   UNL     1       0.334   2.264  -1.929  1.00  0.00    -0.268 OA
ATOM      6  H   UNL     1       2.572   3.015  -1.758  1.00  0.00     0.163 HD
BRANCH   4   7
ATOM      7  C   UNL     1       0.621   1.016   0.173  1.00  0.00     0.271 C 
ATOM      8  C   UNL     1       1.159  -0.407   0.023  1.00  0.00     0.086 C 
BRANCH   7   9
ATOM      9  N   UNL     1      -0.848   1.157   0.328  1.00  0.00    -0.322 N 
ATOM     10  C   UNL     1      -1.691   0.060  -0.171  1.00  0.00     0.284 C 
ATOM     11  C   UNL     1      -1.269   1.554   1.674  1.00  0.00     0.284 C 
ATOM     12  H   UNL     1      -1.023   1.929  -0.316  1.00  0.00     0.348 HD
ATOM     13  C   UNL     1      -1.879  -1.137   0.791  1.00  0.00     0.181 C 
ATOM     14  C   UNL     1      -1.254   0.384   2.663  1.00  0.00     0.181 C 
ATOM     15  N   UNL     1      -2.064  -0.746   2.192  1.00  0.00    -0.325 N 
ATOM     16  C   UNL     1      -2.623  -1.688   3.064  1.00  0.00     0.289 C 
ATOM     17  O   UNL     1      -2.772  -2.860   2.717  1.00  0.00    -0.265 OA
BRANCH  16  18
ATOM     18  C   UNL     1      -3.054  -1.207   4.363  1.00  0.00     0.192 A 
ATOM     19  C   UNL     1      -3.756  -0.075   4.739  1.00  0.00     0.057 A 
ATOM     20  O   UNL     1      -2.798  -1.971   5.470  1.00  0.00    -0.450 OA
ATOM     21  C   UNL     1      -3.911  -0.136   6.142  1.00  0.00     0.052 A 
ATOM     22  C   UNL     1      -3.309  -1.308   6.548  1.00  0.00     0.159 A 
BRANCH  22  23
ATOM     23  C   UNL     1      -3.134  -1.955   7.873  1.00  0.00     0.335 C 
BRANCH  23  24
ATOM     24  N   UNL     1      -2.503  -1.039   8.820  1.00  0.00    -0.351 N 
ATOM     25  H   UNL     1      -1.583  -0.770   8.472  1.00  0.00     0.344 HD
ATOM     26  H   UNL     1      -2.403  -1.500   9.725  1.00  0.00     0.344 HD
ATOM     27  H   UNL     1      -3.083  -0.206   8.926  1.00  0.00     0.344 HD
ENDBRANCH  23  24
ENDBRANCH  22  23
ENDBRANCH  16  18
ENDBRANCH   7   9
ENDBRANCH   4   7
ENDBRANCH   2   3
ENDBRANCH   1   2
BRANCH   1  28
ATOM     28  C   UNL     1       5.194   1.432  -2.125  1.00  0.00     0.023 C 
BRANCH  28  29
ATOM     29  C   UNL     1       6.230   2.482  -1.755  1.00  0.00     0.116 C 
BRANCH  29  30
ATOM     30  N   UNL     1       7.213   2.004  -0.791  1.00  0.00    -0.352 N 
ATOM     31  C   UNL     1       8.557   2.297  -0.746  1.00  0.00     0.251 C 
ATOM     32  H   UNL     1       6.876   1.401  -0.090  1.00  0.00     0.163 HD
ATOM     33  O   UNL     1       9.295   1.748   0.062  1.00  0.00    -0.269 OA
BRANCH  31  34
ATOM     34  C   UNL     1       9.091   3.259  -1.729  1.00  0.00     0.039 A 
ATOM     35  C   UNL     1      10.119   2.858  -2.584  1.00  0.00     0.014 A 
ATOM     36  C   UNL     1       8.488   4.511  -1.869  1.00  0.00     0.014 A 
ATOM     37  C   UNL     1      10.489   3.688  -3.644  1.00  0.00     0.010 A 
ATOM     38  C   UNL     1       8.810   5.302  -2.963  1.00  0.00     0.010 A 
ATOM     39  C   UNL     1       9.806   4.894  -3.866  1.00  0.00    -0.014 A 
BRANCH  39  40
ATOM     40  C   UNL     1      10.092   5.757  -5.037  1.00  0.00     0.031 A 
ATOM     41  C   UNL     1      10.603   7.152  -4.818  1.00  0.00     0.074 A 
ATOM     42  C   UNL     1       9.763   5.341  -6.275  1.00  0.00     0.049 A 
ATOM     43  N   UNL     1      10.735   8.128  -5.677  1.00  0.00    -0.248 NA
ATOM     44  C   UNL     1      10.973   7.506  -3.438  1.00  0.00     0.031 C 
ATOM     45  C   UNL     1       9.209   4.027  -6.611  1.00  0.00     0.029 A 
ATOM     46  N   UNL     1       9.816   5.998  -7.479  1.00  0.00    -0.354 N 
ATOM     47  C   UNL     1      11.154   9.225  -4.936  1.00  0.00     0.074 A 
ATOM     48  C   UNL     1      11.227   8.800  -3.554  1.00  0.00     0.031 C 
ATOM     49  C   UNL     1       8.973   3.976  -7.932  1.00  0.00     0.029 A 
ATOM     50  C   UNL     1       9.319   5.263  -8.528  1.00  0.00     0.049 A 
ATOM     51  H   UNL     1      10.176   6.908  -7.581  1.00  0.00     0.167 HD
ATOM     52  C   UNL     1      11.455  10.473  -5.366  1.00  0.00     0.031 A 
ATOM     53  C   UNL     1       9.140   5.592  -9.822  1.00  0.00     0.031 A 
ATOM     54  C   UNL     1      11.408  10.881  -6.743  1.00  0.00     0.049 A 
ATOM     55  C   UNL     1       9.532   6.964 -10.293  1.00  0.00     0.074 A 
ATOM     56  C   UNL     1      11.768  12.098  -7.294  1.00  0.00     0.029 A 
ATOM     57  N   UNL     1      10.975  10.079  -7.789  1.00  0.00    -0.354 N 
ATOM     58  N   UNL     1       9.989   7.972  -9.589  1.00  0.00    -0.248 NA
ATOM     59  C   UNL     1       9.394   7.241 -11.729  1.00  0.00     0.031 C 
ATOM     60  C   UNL     1      11.523  12.041  -8.671  1.00  0.00     0.029 A 
ATOM     61  C   UNL     1      11.047  10.776  -8.981  1.00  0.00     0.049 A 
ATOM     62  H   UNL     1      10.661   9.150  -7.696  1.00  0.00     0.167 HD
ATOM     63  C   UNL     1      10.214   8.998 -10.500  1.00  0.00     0.074 A 
ATOM     64  C   UNL     1       9.848   8.486 -11.806  1.00  0.00     0.031 C 
ATOM     65  C   UNL     1      10.685  10.248 -10.273  1.00  0.00     0.031 A 
BRANCH  52  66
ATOM     66  C   UNL     1      11.836  11.482  -4.318  1.00  0.00    -0.014 A 
ATOM     67  C   UNL     1      13.061  11.392  -3.632  1.00  0.00     0.010 A 
ATOM     68  C   UNL     1      10.943  12.518  -3.994  1.00  0.00     0.010 A 
ATOM     69  C   UNL     1      13.354  12.277  -2.591  1.00  0.00     0.020 A 
ATOM     70  C   UNL     1      11.245  13.423  -2.973  1.00  0.00     0.020 A 
ATOM     71  C   UNL     1      12.436  13.277  -2.257  1.00  0.00     0.054 A 
BRANCH  71  72
ATOM     72  S   UNL     1      12.817  14.393  -0.880  1.00  0.00     0.124 S 
ATOM     73  O   UNL     1      12.471  13.569   0.276  1.00  0.00    -0.237 OA
ATOM     74  O   UNL     1      14.243  14.654  -1.058  1.00  0.00    -0.237 OA
ATOM     75  O   UNL     1      11.944  15.540  -1.114  1.00  0.00    -0.744 OA
ENDBRANCH  71  72
ENDBRANCH  52  66
BRANCH  53  76
ATOM     76  C   UNL     1       8.574   4.584 -10.757  1.00  0.00    -0.014 A 
ATOM     77  C   UNL     1       9.415   3.885 -11.639  1.00  0.00     0.010 A 
ATOM     78  C   UNL     1       7.205   4.264 -10.713  1.00  0.00     0.010 A 
ATOM     79  C   UNL     1       8.898   2.876 -12.457  1.00  0.00     0.020 A 
ATOM     80  C   UNL     1       6.689   3.242 -11.516  1.00  0.00     0.020 A 
ATOM     81  C   UNL     1       7.540   2.555 -12.384  1.00  0.00     0.054 A 
BRANCH  81  82
ATOM     82  S   UNL     1       6.912   1.170 -13.376  1.00  0.00     0.124 S 
ATOM     83  O   UNL     1       6.818   1.765 -14.704  1.00  0.00    -0.237 OA
ATOM     84  O   UNL     1       7.955   0.160 -13.206  1.00  0.00    -0.237 OA
ATOM     85  O   UNL     1       5.637   0.847 -12.739  1.00  0.00    -0.744 OA
ENDBRANCH  81  82
ENDBRANCH  53  76
BRANCH  65  86
ATOM     86  C   UNL     1      10.866  11.150 -11.461  1.00  0.00    -0.014 A 
ATOM     87  C   UNL     1       9.768  11.793 -12.058  1.00  0.00     0.010 A 
ATOM     88  C   UNL     1      12.165  11.428 -11.925  1.00  0.00     0.010 A 
ATOM     89  C   UNL     1       9.966  12.694 -13.107  1.00  0.00     0.020 A 
ATOM     90  C   UNL     1      12.367  12.343 -12.961  1.00  0.00     0.020 A 
ATOM     91  C   UNL     1      11.265  12.966 -13.550  1.00  0.00     0.054 A 
BRANCH  91  92
ATOM     92  S   UNL     1      11.505  14.199 -14.860  1.00  0.00     0.124 S 
ATOM     93  O   UNL     1      11.127  13.450 -16.054  1.00  0.00    -0.237 OA
ATOM     94  O   UNL     1      10.587  15.267 -14.470  1.00  0.00    -0.237 OA
ATOM     95  O   UNL     1      12.923  14.538 -14.758  1.00  0.00    -0.744 OA
ENDBRANCH  91  92
ENDBRANCH  65  86
ENDBRANCH  39  40
ENDBRANCH  31  34
ENDBRANCH  29  30
ENDBRANCH  28  29
ENDBRANCH   1  28
TORSDOF 18
