REMARK SMILES O=C(NCCCCNC(=O)c1ccc(-c2c3nc(c(-c4ccc(S(=O)(=O)[O-])cc4)c4ccc([nH]4)c(-c4ccc(S(=O)(=O)[O-])cc4)c4nc(c(-c5ccc(S(=O)(=O)[O-])cc5)c5ccc2[nH]5)C=C4)C=C3)cc1)C1=Cc2c(ccc(Cl)c2Sc2ccccc2)O[C@H]1C(F)(F)F
REMARK SMILES IDX 6 1 5 2 4 3 3 4 1 5 2 6 71 8 72 9 88 10 73 11 87 12 74 13
REMARK SMILES IDX 79 14 75 15 77 16 76 17 78 18 89 19 90 20 91 21 92 22 80 23
REMARK SMILES IDX 81 24 82 25 86 26 83 27 85 28 84 29 7 30 8 31 9 32 10 34
REMARK SMILES IDX 11 35 12 36 70 37 13 38 69 39 14 40 15 41 16 42 63 43 17 44
REMARK SMILES IDX 68 45 62 46 64 47 18 48 67 49 61 50 60 51 19 53 49 54 30 55
REMARK SMILES IDX 48 56 31 57 34 58 47 59 65 60 32 61 33 62 46 64 66 65 35 66
REMARK SMILES IDX 20 67 21 68 29 69 22 70 28 71 23 72 24 73 25 74 26 75 27 76
REMARK SMILES IDX 50 77 51 78 59 79 52 80 58 81 53 82 54 83 55 84 56 85 57 86
REMARK SMILES IDX 36 87 37 88 45 89 38 90 44 91 39 92 40 93 41 94 42 95 43 96
REMARK H PARENT 3 7 8 33 64 52 34 63
REMARK Flexibility Score: inf
ROOT
ATOM      1  C   UNL     1       4.048   3.792   1.940  1.00  0.00     0.023 C 
ENDROOT
BRANCH   1   2
ATOM      2  C   UNL     1       4.421   3.219   0.571  1.00  0.00     0.023 C 
BRANCH   2   3
ATOM      3  C   UNL     1       3.961   1.782   0.321  1.00  0.00     0.116 C 
BRANCH   3   4
ATOM      4  N   UNL     1       3.037   1.664  -0.798  1.00  0.00    -0.352 N 
ATOM      5  O   UNL     1       2.139   0.844  -2.689  1.00  0.00    -0.270 OA
ATOM      6  C   UNL     1       2.930   0.703  -1.761  1.00  0.00     0.251 C 
ATOM      7  H   UNL     1       2.384   2.397  -0.872  1.00  0.00     0.163 HD
BRANCH   6   8
ATOM      8  C   UNL     1       3.771  -0.510  -1.719  1.00  0.00     0.067 C 
ATOM      9  C   UNL     1       3.578  -1.427  -0.764  1.00  0.00     0.026 C 
ATOM     10  C   UNL     1       5.053  -0.533  -2.482  1.00  0.00     0.314 C 
ATOM     11  C   UNL     1       4.670  -1.399   0.234  1.00  0.00     0.033 A 
ATOM     12  O   UNL     1       6.197  -0.751  -1.597  1.00  0.00    -0.475 OA
ATOM     13  C   UNL     1       5.942  -1.017  -0.267  1.00  0.00     0.129 A 
ATOM     14  C   UNL     1       4.445  -1.593   1.620  1.00  0.00     0.042 A 
ATOM     15  C   UNL     1       6.995  -0.776   0.603  1.00  0.00     0.049 A 
ATOM     16  C   UNL     1       5.530  -1.283   2.477  1.00  0.00     0.055 A 
ATOM     17  C   UNL     1       6.778  -0.876   1.973  1.00  0.00     0.025 A 
ATOM     18  Cl  UNL     1       5.402  -1.310   4.210  1.00  0.00    -0.083 Cl
BRANCH  10  19
ATOM     19  C   UNL     1       5.031  -1.597  -3.592  1.00  0.00     0.429 C 
ATOM     20  F   UNL     1       4.963  -2.857  -3.094  1.00  0.00    -0.167 F 
ATOM     21  F   UNL     1       3.979  -1.442  -4.428  1.00  0.00    -0.167 F 
ATOM     22  F   UNL     1       6.150  -1.533  -4.354  1.00  0.00    -0.167 F 
ENDBRANCH  10  19
BRANCH  14  23
ATOM     23  S   UNL     1       2.896  -2.168   2.384  1.00  0.00    -0.088 SA
BRANCH  23  24
ATOM     24  C   UNL     1       1.655  -2.301   1.120  1.00  0.00     0.012 A 
ATOM     25  C   UNL     1       0.807  -1.218   0.855  1.00  0.00     0.015 A 
ATOM     26  C   UNL     1       1.547  -3.461   0.340  1.00  0.00     0.015 A 
ATOM     27  C   UNL     1      -0.062  -1.256  -0.238  1.00  0.00     0.001 A 
ATOM     28  C   UNL     1       0.689  -3.490  -0.763  1.00  0.00     0.001 A 
ATOM     29  C   UNL     1      -0.102  -2.381  -1.060  1.00  0.00     0.000 A 
ENDBRANCH  23  24
ENDBRANCH  14  23
ENDBRANCH   6   8
ENDBRANCH   3   4
ENDBRANCH   2   3
ENDBRANCH   1   2
BRANCH   1  30
ATOM     30  C   UNL     1       4.543   3.035   3.175  1.00  0.00     0.116 C 
BRANCH  30  31
ATOM     31  N   UNL     1       5.984   2.848   3.231  1.00  0.00    -0.352 N 
ATOM     32  C   UNL     1       6.869   3.073   4.263  1.00  0.00     0.251 C 
ATOM     33  H   UNL     1       6.391   2.508   2.402  1.00  0.00     0.163 HD
ATOM     34  O   UNL     1       8.066   2.860   4.080  1.00  0.00    -0.269 OA
BRANCH  32  35
ATOM     35  C   UNL     1       6.406   3.620   5.563  1.00  0.00     0.039 A 
ATOM     36  C   UNL     1       7.119   4.682   6.131  1.00  0.00     0.014 A 
ATOM     37  C   UNL     1       5.276   3.121   6.216  1.00  0.00     0.014 A 
ATOM     38  C   UNL     1       6.641   5.305   7.289  1.00  0.00     0.010 A 
ATOM     39  C   UNL     1       4.762   3.789   7.331  1.00  0.00     0.010 A 
ATOM     40  C   UNL     1       5.426   4.901   7.869  1.00  0.00    -0.014 A 
BRANCH  40  41
ATOM     41  C   UNL     1       4.822   5.681   8.985  1.00  0.00     0.031 A 
ATOM     42  C   UNL     1       4.632   5.078  10.351  1.00  0.00     0.074 A 
ATOM     43  C   UNL     1       4.390   6.938   8.750  1.00  0.00     0.049 A 
ATOM     44  N   UNL     1       4.161   5.635  11.439  1.00  0.00    -0.248 NA
ATOM     45  C   UNL     1       4.994   3.662  10.511  1.00  0.00     0.031 C 
ATOM     46  C   UNL     1       4.452   7.627   7.458  1.00  0.00     0.029 A 
ATOM     47  N   UNL     1       3.821   7.865   9.590  1.00  0.00    -0.354 N 
ATOM     48  C   UNL     1       4.156   4.638  12.408  1.00  0.00     0.074 A 
ATOM     49  C   UNL     1       4.629   3.430  11.765  1.00  0.00     0.031 C 
ATOM     50  C   UNL     1       3.989   8.879   7.603  1.00  0.00     0.029 A 
ATOM     51  C   UNL     1       3.569   9.075   8.986  1.00  0.00     0.049 A 
ATOM     52  H   UNL     1       3.614   7.681  10.534  1.00  0.00     0.167 HD
ATOM     53  C   UNL     1       3.806   4.720  13.716  1.00  0.00     0.031 A 
ATOM     54  C   UNL     1       3.073  10.223   9.489  1.00  0.00     0.031 A 
ATOM     55  C   UNL     1       3.340   5.921  14.360  1.00  0.00     0.049 A 
ATOM     56  C   UNL     1       2.715  10.297  10.946  1.00  0.00     0.074 A 
ATOM     57  C   UNL     1       3.034   6.120  15.696  1.00  0.00     0.029 A 
ATOM     58  N   UNL     1       3.103   7.126  13.715  1.00  0.00    -0.354 N 
ATOM     59  N   UNL     1       2.806   9.367  11.866  1.00  0.00    -0.248 NA
ATOM     60  C   UNL     1       2.203  11.585  11.435  1.00  0.00     0.031 C 
ATOM     61  C   UNL     1       2.567   7.431  15.850  1.00  0.00     0.029 A 
ATOM     62  C   UNL     1       2.632   8.065  14.620  1.00  0.00     0.049 A 
ATOM     63  H   UNL     1       3.249   7.290  12.756  1.00  0.00     0.167 HD
ATOM     64  C   UNL     1       2.389   9.966  13.050  1.00  0.00     0.074 A 
ATOM     65  C   UNL     1       2.061  11.341  12.730  1.00  0.00     0.031 C 
ATOM     66  C   UNL     1       2.292   9.426  14.290  1.00  0.00     0.031 A 
BRANCH  53  67
ATOM     67  C   UNL     1       3.905   3.459  14.536  1.00  0.00    -0.014 A 
ATOM     68  C   UNL     1       5.155   2.906  14.872  1.00  0.00     0.010 A 
ATOM     69  C   UNL     1       2.734   2.828  14.993  1.00  0.00     0.010 A 
ATOM     70  C   UNL     1       5.230   1.714  15.599  1.00  0.00     0.020 A 
ATOM     71  C   UNL     1       2.805   1.651  15.743  1.00  0.00     0.020 A 
ATOM     72  C   UNL     1       4.053   1.089  16.021  1.00  0.00     0.054 A 
BRANCH  72  73
ATOM     73  S   UNL     1       4.177  -0.461  16.957  1.00  0.00     0.124 S 
ATOM     74  O   UNL     1       4.508  -1.420  15.906  1.00  0.00    -0.237 OA
ATOM     75  O   UNL     1       5.248  -0.178  17.909  1.00  0.00    -0.237 OA
ATOM     76  O   UNL     1       2.849  -0.616  17.546  1.00  0.00    -0.744 OA
ENDBRANCH  72  73
ENDBRANCH  53  67
BRANCH  54  77
ATOM     77  C   UNL     1       2.941  11.419   8.613  1.00  0.00    -0.014 A 
ATOM     78  C   UNL     1       3.827  12.501   8.759  1.00  0.00     0.010 A 
ATOM     79  C   UNL     1       1.946  11.477   7.621  1.00  0.00     0.010 A 
ATOM     80  C   UNL     1       3.714  13.626   7.937  1.00  0.00     0.020 A 
ATOM     81  C   UNL     1       1.846  12.590   6.781  1.00  0.00     0.020 A 
ATOM     82  C   UNL     1       2.725  13.662   6.950  1.00  0.00     0.054 A 
BRANCH  82  83
ATOM     83  S   UNL     1       2.639  15.103   5.851  1.00  0.00     0.124 S 
ATOM     84  O   UNL     1       2.035  16.110   6.717  1.00  0.00    -0.237 OA
ATOM     85  O   UNL     1       4.041  15.322   5.505  1.00  0.00    -0.237 OA
ATOM     86  O   UNL     1       1.800  14.639   4.748  1.00  0.00    -0.744 OA
ENDBRANCH  82  83
ENDBRANCH  54  77
BRANCH  66  87
ATOM     87  C   UNL     1       1.834  10.338  15.398  1.00  0.00    -0.014 A 
ATOM     88  C   UNL     1       0.501  10.781  15.476  1.00  0.00     0.010 A 
ATOM     89  C   UNL     1       2.754  10.757  16.376  1.00  0.00     0.010 A 
ATOM     90  C   UNL     1       0.110  11.670  16.482  1.00  0.00     0.020 A 
ATOM     91  C   UNL     1       2.360  11.624  17.399  1.00  0.00     0.020 A 
ATOM     92  C   UNL     1       1.045  12.094  17.431  1.00  0.00     0.054 A 
BRANCH  92  93
ATOM     93  S   UNL     1       0.518  13.248  18.728  1.00  0.00     0.124 S 
ATOM     94  O   UNL     1       0.495  14.519  18.010  1.00  0.00    -0.237 OA
ATOM     95  O   UNL     1      -0.788  12.723  19.118  1.00  0.00    -0.237 OA
ATOM     96  O   UNL     1       1.561  13.124  19.744  1.00  0.00    -0.744 OA
ENDBRANCH  92  93
ENDBRANCH  66  87
ENDBRANCH  40  41
ENDBRANCH  32  35
ENDBRANCH  30  31
ENDBRANCH   1  30
TORSDOF 17
