REMARK SMILES Cc1ccc(OC2(C(=O)NCCCCNC(=O)c3ccc(-c4c5nc(c(-c6ccc(S(=O)(=O)[O-])cc6)c6ccc([nH]6)c(-c6ccc(S(=O)(=O)[O-])cc6)c6nc(c(-c7ccc(S(=O)(=O)[O-])cc7)c7ccc4[nH]7)C=C6)C=C5)cc3)CC[NH+](C[C@@H]3CC=CCC3)CC2)cn1
REMARK SMILES IDX 13 1 12 2 11 3 10 4 8 5 9 6 7 8 78 9 89 10 79 11 88 12 80 13
REMARK SMILES IDX 6 15 5 16 1 17 2 18 3 19 91 20 4 21 90 22 81 23 82 24 83 25
REMARK SMILES IDX 87 26 84 27 86 28 85 29 14 30 15 31 16 32 17 34 18 35 19 36
REMARK SMILES IDX 77 37 20 38 76 39 21 40 22 41 23 42 70 43 24 44 75 45 69 46
REMARK SMILES IDX 71 47 25 48 74 49 68 50 67 51 26 53 56 54 37 55 55 56 38 57
REMARK SMILES IDX 41 58 54 59 72 60 39 61 40 62 53 64 73 65 42 66 27 67 28 68
REMARK SMILES IDX 36 69 29 70 35 71 30 72 31 73 32 74 33 75 34 76 57 77 58 78
REMARK SMILES IDX 66 79 59 80 65 81 60 82 61 83 62 84 63 85 64 86 43 87 44 88
REMARK SMILES IDX 52 89 45 90 51 91 46 92 47 93 48 94 49 95 50 96
REMARK H PARENT 10 7 80 14 15 33 71 52 41 63
REMARK Flexibility Score: inf
ROOT
ATOM      1  C   UNL     1       0.692  -4.496  -8.409  1.00  0.00     0.023 C 
ENDROOT
BRANCH   1   2
ATOM      2  C   UNL     1       0.511  -5.128  -7.047  1.00  0.00     0.023 C 
BRANCH   2   3
ATOM      3  C   UNL     1       1.636  -6.023  -6.483  1.00  0.00     0.116 C 
BRANCH   3   4
ATOM      4  N   UNL     1       2.699  -5.340  -5.740  1.00  0.00    -0.353 N 
ATOM      5  C   UNL     1       2.867  -4.989  -4.420  1.00  0.00     0.264 C 
ATOM      6  O   UNL     1       4.032  -4.727  -4.090  1.00  0.00    -0.270 OA
ATOM      7  H   UNL     1       3.458  -5.076  -6.309  1.00  0.00     0.163 HD
BRANCH   5   8
ATOM      8  C   UNL     1       1.703  -4.893  -3.363  1.00  0.00     0.197 C 
ATOM      9  C   UNL     1       0.436  -4.490  -4.061  1.00  0.00     0.120 C 
ATOM     10  C   UNL     1       1.427  -6.274  -2.712  1.00  0.00     0.120 C 
ATOM     11  C   UNL     1      -0.815  -4.497  -3.245  1.00  0.00     0.267 C 
ATOM     12  C   UNL     1       0.079  -6.302  -1.934  1.00  0.00     0.267 C 
ATOM     13  N   UNL     1      -1.040  -5.847  -2.771  1.00  0.00    -0.334 N 
ATOM     14  H   UNL     1      -1.029  -6.489  -3.564  1.00  0.00     0.348 HD
BRANCH   8  15
ATOM     15  O   UNL     1       2.109  -4.050  -2.260  1.00  0.00    -0.475 OA
BRANCH  15  16
ATOM     16  C   UNL     1       2.072  -2.692  -2.199  1.00  0.00     0.139 A 
ATOM     17  C   UNL     1       1.984   1.420  -1.007  1.00  0.00     0.066 C 
ATOM     18  C   UNL     1       2.035  -0.005  -1.466  1.00  0.00     0.038 A 
ATOM     19  C   UNL     1       1.045  -0.499  -2.297  1.00  0.00     0.027 A 
ATOM     20  N   UNL     1       3.059  -0.776  -1.039  1.00  0.00    -0.258 NA
ATOM     21  C   UNL     1       1.074  -1.846  -2.661  1.00  0.00     0.050 A 
ATOM     22  C   UNL     1       3.049  -2.087  -1.412  1.00  0.00     0.157 A 
ENDBRANCH  15  16
ENDBRANCH   8  15
BRANCH  13  23
ATOM     23  C   UNL     1      -2.401  -6.059  -2.258  1.00  0.00     0.266 C 
BRANCH  23  24
ATOM     24  C   UNL     1      -3.198  -4.928  -1.532  1.00  0.00     0.048 C 
ATOM     25  C   UNL     1      -3.694  -3.770  -2.449  1.00  0.00     0.036 C 
ATOM     26  C   UNL     1      -2.487  -4.471  -0.246  1.00  0.00     0.014 C 
ATOM     27  C   UNL     1      -3.315  -2.382  -2.015  1.00  0.00    -0.031 C 
ATOM     28  C   UNL     1      -3.025  -3.158   0.311  1.00  0.00     0.027 C 
ATOM     29  C   UNL     1      -3.024  -2.094  -0.740  1.00  0.00    -0.031 C 
ENDBRANCH  23  24
ENDBRANCH  13  23
ENDBRANCH   5   8
ENDBRANCH   3   4
ENDBRANCH   2   3
ENDBRANCH   1   2
BRANCH   1  30
ATOM     30  C   UNL     1       0.884  -5.474  -9.538  1.00  0.00     0.116 C 
BRANCH  30  31
ATOM     31  N   UNL     1      -0.131  -6.516  -9.620  1.00  0.00    -0.352 N 
ATOM     32  C   UNL     1      -0.539  -7.185 -10.752  1.00  0.00     0.251 C 
ATOM     33  H   UNL     1      -0.571  -6.769  -8.777  1.00  0.00     0.163 HD
ATOM     34  O   UNL     1      -1.446  -8.008 -10.707  1.00  0.00    -0.269 OA
BRANCH  32  35
ATOM     35  C   UNL     1       0.107  -6.829 -12.031  1.00  0.00     0.039 A 
ATOM     36  C   UNL     1      -0.691  -6.444 -13.108  1.00  0.00     0.014 A 
ATOM     37  C   UNL     1       1.499  -6.731 -12.100  1.00  0.00     0.014 A 
ATOM     38  C   UNL     1      -0.087  -5.884 -14.233  1.00  0.00     0.010 A 
ATOM     39  C   UNL     1       2.082  -6.059 -13.161  1.00  0.00     0.010 A 
ATOM     40  C   UNL     1       1.298  -5.646 -14.248  1.00  0.00    -0.014 A 
BRANCH  40  41
ATOM     41  C   UNL     1       1.961  -5.004 -15.406  1.00  0.00     0.031 A 
ATOM     42  C   UNL     1       3.013  -5.765 -16.168  1.00  0.00     0.074 A 
ATOM     43  C   UNL     1       1.668  -3.729 -15.728  1.00  0.00     0.049 A 
ATOM     44  N   UNL     1       3.745  -5.372 -17.177  1.00  0.00    -0.248 NA
ATOM     45  C   UNL     1       3.310  -7.134 -15.710  1.00  0.00     0.031 C 
ATOM     46  C   UNL     1       0.715  -2.868 -15.020  1.00  0.00     0.029 A 
ATOM     47  N   UNL     1       2.145  -2.932 -16.737  1.00  0.00    -0.354 N 
ATOM     48  C   UNL     1       4.600  -6.432 -17.454  1.00  0.00     0.074 A 
ATOM     49  C   UNL     1       4.346  -7.456 -16.468  1.00  0.00     0.031 C 
ATOM     50  C   UNL     1       0.649  -1.679 -15.642  1.00  0.00     0.029 A 
ATOM     51  C   UNL     1       1.576  -1.680 -16.769  1.00  0.00     0.049 A 
ATOM     52  H   UNL     1       2.831  -3.228 -17.378  1.00  0.00     0.167 HD
ATOM     53  C   UNL     1       5.494  -6.558 -18.461  1.00  0.00     0.031 A 
ATOM     54  C   UNL     1       1.775  -0.654 -17.618  1.00  0.00     0.031 A 
ATOM     55  C   UNL     1       5.716  -5.550 -19.460  1.00  0.00     0.049 A 
ATOM     56  C   UNL     1       2.748  -0.829 -18.751  1.00  0.00     0.074 A 
ATOM     57  C   UNL     1       6.547  -5.600 -20.564  1.00  0.00     0.029 A 
ATOM     58  N   UNL     1       5.094  -4.310 -19.478  1.00  0.00    -0.354 N 
ATOM     59  N   UNL     1       3.494  -1.868 -19.043  1.00  0.00    -0.248 NA
ATOM     60  C   UNL     1       2.894   0.300 -19.680  1.00  0.00     0.031 C 
ATOM     61  C   UNL     1       6.457  -4.372 -21.229  1.00  0.00     0.029 A 
ATOM     62  C   UNL     1       5.533  -3.579 -20.567  1.00  0.00     0.049 A 
ATOM     63  H   UNL     1       4.438  -3.997 -18.814  1.00  0.00     0.167 HD
ATOM     64  C   UNL     1       4.180  -1.528 -20.204  1.00  0.00     0.074 A 
ATOM     65  C   UNL     1       3.746  -0.194 -20.568  1.00  0.00     0.031 C 
ATOM     66  C   UNL     1       5.085  -2.252 -20.906  1.00  0.00     0.031 A 
BRANCH  53  67
ATOM     67  C   UNL     1       6.285  -7.837 -18.528  1.00  0.00    -0.014 A 
ATOM     68  C   UNL     1       5.664  -9.056 -18.859  1.00  0.00     0.010 A 
ATOM     69  C   UNL     1       7.667  -7.820 -18.270  1.00  0.00     0.010 A 
ATOM     70  C   UNL     1       6.401 -10.242 -18.883  1.00  0.00     0.020 A 
ATOM     71  C   UNL     1       8.414  -9.001 -18.324  1.00  0.00     0.020 A 
ATOM     72  C   UNL     1       7.771 -10.207 -18.611  1.00  0.00     0.054 A 
BRANCH  72  73
ATOM     73  S   UNL     1       8.708 -11.759 -18.668  1.00  0.00     0.124 S 
ATOM     74  O   UNL     1       8.284 -12.411 -17.432  1.00  0.00    -0.237 OA
ATOM     75  O   UNL     1       8.228 -12.379 -19.901  1.00  0.00    -0.237 OA
ATOM     76  O   UNL     1      10.101 -11.322 -18.696  1.00  0.00    -0.744 OA
ENDBRANCH  72  73
ENDBRANCH  53  67
BRANCH  54  77
ATOM     77  C   UNL     1       1.009   0.611 -17.451  1.00  0.00    -0.014 A 
ATOM     78  C   UNL     1      -0.013   0.950 -18.355  1.00  0.00     0.010 A 
ATOM     79  C   UNL     1       1.286   1.477 -16.377  1.00  0.00     0.010 A 
ATOM     80  C   UNL     1      -0.731   2.140 -18.201  1.00  0.00     0.020 A 
ATOM     81  C   UNL     1       0.552   2.655 -16.205  1.00  0.00     0.020 A 
ATOM     82  C   UNL     1      -0.445   2.984 -17.125  1.00  0.00     0.054 A 
BRANCH  82  83
ATOM     83  S   UNL     1      -1.425   4.497 -16.914  1.00  0.00     0.124 S 
ATOM     84  O   UNL     1      -0.884   5.358 -17.960  1.00  0.00    -0.237 OA
ATOM     85  O   UNL     1      -2.790   4.022 -17.128  1.00  0.00    -0.237 OA
ATOM     86  O   UNL     1      -1.126   4.908 -15.544  1.00  0.00    -0.744 OA
ENDBRANCH  82  83
ENDBRANCH  54  77
BRANCH  66  87
ATOM     87  C   UNL     1       5.644  -1.630 -22.156  1.00  0.00    -0.014 A 
ATOM     88  C   UNL     1       6.573  -0.577 -22.091  1.00  0.00     0.010 A 
ATOM     89  C   UNL     1       5.272  -2.145 -23.411  1.00  0.00     0.010 A 
ATOM     90  C   UNL     1       7.095  -0.026 -23.264  1.00  0.00     0.020 A 
ATOM     91  C   UNL     1       5.813  -1.615 -24.584  1.00  0.00     0.020 A 
ATOM     92  C   UNL     1       6.709  -0.548 -24.503  1.00  0.00     0.054 A 
BRANCH  92  93
ATOM     93  S   UNL     1       7.429   0.159 -26.010  1.00  0.00     0.124 S 
ATOM     94  O   UNL     1       6.704   1.421 -26.129  1.00  0.00    -0.237 OA
ATOM     95  O   UNL     1       8.844   0.277 -25.666  1.00  0.00    -0.237 OA
ATOM     96  O   UNL     1       7.125  -0.835 -27.037  1.00  0.00    -0.744 OA
ENDBRANCH  92  93
ENDBRANCH  66  87
ENDBRANCH  40  41
ENDBRANCH  32  35
ENDBRANCH  30  31
ENDBRANCH   1  30
TORSDOF 18
