REMARK SMILES NS(=O)(=O)c1ccc(-n2nc(C(=O)NCCCCNC(=O)c3ccc(-c4c5nc(c(-c6ccc(S(=O)(=O)[O-])cc6)c6ccc([nH]6)c(-c6ccc(S(=O)(=O)[O-])cc6)c6nc(c(-c7ccc(S(=O)(=O)[O-])cc7)c7ccc4[nH]7)C=C6)C=C5)cc3)cc2-c2ccc(Cl)s2)cc1
REMARK SMILES IDX 16 1 15 2 14 3 12 4 13 5 11 7 9 8 10 9 83 10 82 11 8 12 5 13
REMARK SMILES IDX 6 14 91 15 7 16 90 17 2 18 3 19 4 20 1 21 84 24 85 25 89 26
REMARK SMILES IDX 86 27 87 28 88 29 17 30 18 31 19 32 20 33 21 35 22 36 23 37
REMARK SMILES IDX 81 38 24 39 80 40 25 41 26 42 27 43 74 44 28 45 79 46 73 47
REMARK SMILES IDX 75 48 29 49 78 50 72 51 71 52 30 54 60 55 41 56 59 57 42 58
REMARK SMILES IDX 45 59 58 60 76 61 43 62 44 63 57 65 77 66 46 67 31 68 32 69
REMARK SMILES IDX 40 70 33 71 39 72 34 73 35 74 36 75 37 76 38 77 61 78 62 79
REMARK SMILES IDX 70 80 63 81 69 82 64 83 65 84 66 85 67 86 68 87 47 88 48 89
REMARK SMILES IDX 56 90 49 91 55 92 50 93 51 94 52 95 53 96 54 97
REMARK H PARENT 14 6 1 22 1 23 19 34 75 53 45 64
REMARK Flexibility Score: inf
ROOT
ATOM      1  C   UNL     1       3.222  -1.659 -11.809  1.00  0.00     0.023 C 
ENDROOT
BRANCH   1   2
ATOM      2  C   UNL     1       4.149  -2.525 -10.949  1.00  0.00     0.116 C 
BRANCH   2   3
ATOM      3  N   UNL     1       4.924  -1.734 -10.015  1.00  0.00    -0.351 N 
ATOM      4  C   UNL     1       4.731  -1.331  -8.710  1.00  0.00     0.271 C 
ATOM      5  O   UNL     1       5.627  -0.619  -8.247  1.00  0.00    -0.267 OA
ATOM      6  H   UNL     1       5.774  -1.414 -10.394  1.00  0.00     0.163 HD
BRANCH   4   7
ATOM      7  C   UNL     1       3.549  -1.724  -7.904  1.00  0.00     0.151 A 
ATOM      8  N   UNL     1       2.373  -1.954  -6.107  1.00  0.00    -0.231 N 
ATOM      9  N   UNL     1       3.440  -1.303  -6.623  1.00  0.00    -0.162 NA
ATOM     10  C   UNL     1       1.653  -2.605  -7.091  1.00  0.00     0.085 A 
ATOM     11  C   UNL     1       2.400  -2.482  -8.242  1.00  0.00     0.066 A 
BRANCH   8  12
ATOM     12  C   UNL     1       2.061  -1.868  -4.725  1.00  0.00     0.065 A 
ATOM     13  C   UNL     1       1.150  -1.623  -2.107  1.00  0.00     0.082 A 
ATOM     14  C   UNL     1       1.158  -2.879  -2.719  1.00  0.00     0.024 A 
ATOM     15  C   UNL     1       1.653  -0.499  -2.774  1.00  0.00     0.024 A 
ATOM     16  C   UNL     1       1.599  -2.999  -4.036  1.00  0.00     0.030 A 
ATOM     17  C   UNL     1       2.140  -0.628  -4.079  1.00  0.00     0.030 A 
BRANCH  13  18
ATOM     18  S   UNL     1       0.494  -1.496  -0.471  1.00  0.00     0.238 S 
ATOM     19  O   UNL     1       0.971  -2.609   0.314  1.00  0.00    -0.207 OA
ATOM     20  O   UNL     1      -0.908  -1.157  -0.567  1.00  0.00    -0.207 OA
BRANCH  18  21
ATOM     21  N   UNL     1       1.248  -0.144   0.181  1.00  0.00    -0.225 NA
ATOM     22  H   UNL     1       0.920   0.000   1.136  1.00  0.00     0.137 HD
ATOM     23  H   UNL     1       1.023   0.675  -0.383  1.00  0.00     0.137 HD
ENDBRANCH  18  21
ENDBRANCH  13  18
ENDBRANCH   8  12
BRANCH  10  24
ATOM     24  C   UNL     1       0.348  -3.180  -6.959  1.00  0.00     0.054 A 
ATOM     25  C   UNL     1      -0.026  -4.474  -7.267  1.00  0.00     0.024 A 
ATOM     26  S   UNL     1      -0.998  -2.236  -6.460  1.00  0.00    -0.122 S 
ATOM     27  C   UNL     1      -1.423  -4.692  -7.069  1.00  0.00     0.033 A 
ATOM     28  C   UNL     1      -2.045  -3.550  -6.635  1.00  0.00     0.094 A 
ATOM     29  Cl  UNL     1      -3.716  -3.358  -6.289  1.00  0.00    -0.072 Cl
ENDBRANCH  10  24
ENDBRANCH   4   7
ENDBRANCH   2   3
ENDBRANCH   1   2
BRANCH   1  30
ATOM     30  C   UNL     1       3.916  -0.954 -12.989  1.00  0.00     0.023 C 
BRANCH  30  31
ATOM     31  C   UNL     1       4.407  -1.881 -14.102  1.00  0.00     0.116 C 
BRANCH  31  32
ATOM     32  N   UNL     1       3.325  -2.626 -14.743  1.00  0.00    -0.352 N 
ATOM     33  C   UNL     1       3.412  -3.778 -15.500  1.00  0.00     0.251 C 
ATOM     34  H   UNL     1       2.419  -2.260 -14.619  1.00  0.00     0.163 HD
ATOM     35  O   UNL     1       2.515  -4.087 -16.276  1.00  0.00    -0.269 OA
BRANCH  33  36
ATOM     36  C   UNL     1       4.602  -4.634 -15.353  1.00  0.00     0.039 A 
ATOM     37  C   UNL     1       5.288  -5.116 -16.470  1.00  0.00     0.014 A 
ATOM     38  C   UNL     1       5.054  -4.908 -14.065  1.00  0.00     0.014 A 
ATOM     39  C   UNL     1       6.494  -5.792 -16.283  1.00  0.00     0.010 A 
ATOM     40  C   UNL     1       6.296  -5.477 -13.887  1.00  0.00     0.010 A 
ATOM     41  C   UNL     1       7.012  -5.947 -14.988  1.00  0.00    -0.014 A 
BRANCH  41  42
ATOM     42  C   UNL     1       8.355  -6.499 -14.789  1.00  0.00     0.031 A 
ATOM     43  C   UNL     1       9.466  -5.795 -15.498  1.00  0.00     0.074 A 
ATOM     44  C   UNL     1       8.644  -7.410 -13.835  1.00  0.00     0.049 A 
ATOM     45  N   UNL     1      10.255  -6.259 -16.410  1.00  0.00    -0.248 NA
ATOM     46  C   UNL     1       9.671  -4.366 -15.208  1.00  0.00     0.031 C 
ATOM     47  C   UNL     1       7.744  -7.957 -12.812  1.00  0.00     0.029 A 
ATOM     48  N   UNL     1       9.852  -7.933 -13.485  1.00  0.00    -0.354 N 
ATOM     49  C   UNL     1      11.183  -5.251 -16.676  1.00  0.00     0.074 A 
ATOM     50  C   UNL     1      10.681  -4.066 -16.027  1.00  0.00     0.031 C 
ATOM     51  C   UNL     1       8.474  -8.510 -11.820  1.00  0.00     0.029 A 
ATOM     52  C   UNL     1       9.867  -8.525 -12.228  1.00  0.00     0.049 A 
ATOM     53  H   UNL     1      10.644  -7.895 -14.069  1.00  0.00     0.167 HD
ATOM     54  C   UNL     1      12.405  -5.511 -17.224  1.00  0.00     0.031 A 
ATOM     55  C   UNL     1      10.944  -8.976 -11.544  1.00  0.00     0.031 A 
ATOM     56  C   UNL     1      12.484  -6.851 -17.744  1.00  0.00     0.049 A 
ATOM     57  C   UNL     1      12.034  -9.189 -12.523  1.00  0.00     0.074 A 
ATOM     58  C   UNL     1      11.821  -7.567 -18.717  1.00  0.00     0.029 A 
ATOM     59  N   UNL     1      13.139  -7.775 -16.964  1.00  0.00    -0.354 N 
ATOM     60  N   UNL     1      11.986 -10.085 -13.469  1.00  0.00    -0.248 NA
ATOM     61  C   UNL     1      13.018  -8.136 -12.715  1.00  0.00     0.031 C 
ATOM     62  C   UNL     1      11.733  -8.893 -18.201  1.00  0.00     0.029 A 
ATOM     63  C   UNL     1      12.395  -8.924 -16.971  1.00  0.00     0.049 A 
ATOM     64  H   UNL     1      13.989  -7.635 -16.487  1.00  0.00     0.167 HD
ATOM     65  C   UNL     1      12.613  -9.492 -14.555  1.00  0.00     0.074 A 
ATOM     66  C   UNL     1      13.334  -8.353 -13.994  1.00  0.00     0.031 C 
ATOM     67  C   UNL     1      12.264  -9.816 -15.835  1.00  0.00     0.031 A 
BRANCH  54  68
ATOM     68  C   UNL     1      13.659  -4.709 -16.948  1.00  0.00    -0.014 A 
ATOM     69  C   UNL     1      14.852  -5.054 -17.621  1.00  0.00     0.010 A 
ATOM     70  C   UNL     1      13.779  -3.830 -15.854  1.00  0.00     0.010 A 
ATOM     71  C   UNL     1      16.103  -4.614 -17.166  1.00  0.00     0.020 A 
ATOM     72  C   UNL     1      15.017  -3.348 -15.420  1.00  0.00     0.020 A 
ATOM     73  C   UNL     1      16.175  -3.777 -16.053  1.00  0.00     0.054 A 
BRANCH  73  74
ATOM     74  S   UNL     1      17.796  -3.321 -15.386  1.00  0.00     0.124 S 
ATOM     75  O   UNL     1      18.279  -4.601 -14.876  1.00  0.00    -0.237 OA
ATOM     76  O   UNL     1      18.485  -2.807 -16.566  1.00  0.00    -0.237 OA
ATOM     77  O   UNL     1      17.477  -2.321 -14.370  1.00  0.00    -0.744 OA
ENDBRANCH  73  74
ENDBRANCH  54  68
BRANCH  55  78
ATOM     78  C   UNL     1      11.145  -8.986 -10.077  1.00  0.00    -0.014 A 
ATOM     79  C   UNL     1      12.107  -9.814  -9.473  1.00  0.00     0.010 A 
ATOM     80  C   UNL     1      10.550  -7.981  -9.285  1.00  0.00     0.010 A 
ATOM     81  C   UNL     1      12.492  -9.614  -8.136  1.00  0.00     0.020 A 
ATOM     82  C   UNL     1      10.924  -7.779  -7.952  1.00  0.00     0.020 A 
ATOM     83  C   UNL     1      11.909  -8.586  -7.389  1.00  0.00     0.054 A 
BRANCH  83  84
ATOM     84  S   UNL     1      12.527  -8.236  -5.716  1.00  0.00     0.124 S 
ATOM     85  O   UNL     1      12.060  -9.398  -4.965  1.00  0.00    -0.237 OA
ATOM     86  O   UNL     1      13.970  -8.154  -5.922  1.00  0.00    -0.237 OA
ATOM     87  O   UNL     1      11.881  -6.972  -5.367  1.00  0.00    -0.744 OA
ENDBRANCH  83  84
ENDBRANCH  55  78
BRANCH  67  88
ATOM     88  C   UNL     1      11.457 -11.071 -16.071  1.00  0.00    -0.014 A 
ATOM     89  C   UNL     1      10.155 -11.270 -15.573  1.00  0.00     0.010 A 
ATOM     90  C   UNL     1      11.979 -12.009 -16.979  1.00  0.00     0.010 A 
ATOM     91  C   UNL     1       9.402 -12.387 -15.967  1.00  0.00     0.020 A 
ATOM     92  C   UNL     1      11.229 -13.113 -17.389  1.00  0.00     0.020 A 
ATOM     93  C   UNL     1       9.945 -13.300 -16.877  1.00  0.00     0.054 A 
BRANCH  93  94
ATOM     94  S   UNL     1       8.941 -14.703 -17.443  1.00  0.00     0.124 S 
ATOM     95  O   UNL     1       8.880 -15.549 -16.255  1.00  0.00    -0.237 OA
ATOM     96  O   UNL     1       7.682 -14.068 -17.828  1.00  0.00    -0.237 OA
ATOM     97  O   UNL     1       9.711 -15.255 -18.557  1.00  0.00    -0.744 OA
ENDBRANCH  93  94
ENDBRANCH  67  88
ENDBRANCH  41  42
ENDBRANCH  33  36
ENDBRANCH  31  32
ENDBRANCH  30  31
ENDBRANCH   1  30
TORSDOF 18
