REMARK SMILES O=C(NCCCCNC(=O)c1cccc(OS(=O)(=O)c2cccc([N+](=O)[O-])c2)c1)c1ccc(-c2c3nc(c(-c4ccc(S(=O)(=O)[O-])cc4)c4ccc([nH]4)c(-c4ccc(S(=O)(=O)[O-])cc4)c4nc(c(-c5ccc(S(=O)(=O)[O-])cc5)c5ccc2[nH]5)C=C4)C=C3)cc1
REMARK SMILES IDX 6 1 5 2 4 3 3 4 1 5 2 6 30 8 31 9 89 10 32 11 88 12 33 13
REMARK SMILES IDX 34 14 35 15 82 16 36 17 87 18 81 19 83 20 37 21 86 22 80 23
REMARK SMILES IDX 79 24 38 26 68 27 49 28 67 29 50 30 53 31 66 32 84 33 51 34
REMARK SMILES IDX 52 35 65 37 85 38 54 39 39 40 40 41 48 42 41 43 47 44 42 45
REMARK SMILES IDX 43 46 44 47 45 48 46 49 69 50 70 51 78 52 71 53 77 54 72 55
REMARK SMILES IDX 73 56 74 57 75 58 76 59 55 60 56 61 64 62 57 63 63 64 58 65
REMARK SMILES IDX 59 66 60 67 61 68 62 69 7 70 8 71 9 72 10 74 11 75 12 76
REMARK SMILES IDX 29 77 13 78 15 79 14 80 16 81 17 82 18 83 19 84 20 85 21 86
REMARK SMILES IDX 28 87 22 88 24 89 23 90 25 91 26 92 27 93
REMARK H PARENT 3 7 83 25 53 36 8 73
REMARK Flexibility Score: inf
ROOT
ATOM      1  C   UNL     1       4.523   3.849   0.295  1.00  0.00     0.023 C 
ENDROOT
BRANCH   1   2
ATOM      2  C   UNL     1       4.984   2.600  -0.453  1.00  0.00     0.023 C 
BRANCH   2   3
ATOM      3  C   UNL     1       4.649   1.280   0.227  1.00  0.00     0.116 C 
BRANCH   3   4
ATOM      4  N   UNL     1       3.217   1.042   0.316  1.00  0.00    -0.352 N 
ATOM      5  O   UNL     1       1.262   0.014  -0.142  1.00  0.00    -0.269 OA
ATOM      6  C   UNL     1       2.489  -0.026  -0.153  1.00  0.00     0.251 C 
ATOM      7  H   UNL     1       2.698   1.742   0.774  1.00  0.00     0.163 HD
BRANCH   6   8
ATOM      8  C   UNL     1       3.191  -1.214  -0.691  1.00  0.00     0.039 A 
ATOM      9  C   UNL     1       4.279  -1.764  -0.008  1.00  0.00     0.014 A 
ATOM     10  C   UNL     1       2.748  -1.790  -1.885  1.00  0.00     0.014 A 
ATOM     11  C   UNL     1       5.000  -2.805  -0.581  1.00  0.00     0.010 A 
ATOM     12  C   UNL     1       3.425  -2.891  -2.418  1.00  0.00     0.010 A 
ATOM     13  C   UNL     1       4.568  -3.396  -1.779  1.00  0.00    -0.014 A 
BRANCH  13  14
ATOM     14  C   UNL     1       5.264  -4.608  -2.279  1.00  0.00     0.031 A 
ATOM     15  C   UNL     1       6.028  -4.602  -3.574  1.00  0.00     0.074 A 
ATOM     16  C   UNL     1       5.208  -5.726  -1.527  1.00  0.00     0.049 A 
ATOM     17  N   UNL     1       6.701  -5.577  -4.130  1.00  0.00    -0.248 NA
ATOM     18  C   UNL     1       6.036  -3.351  -4.349  1.00  0.00     0.031 C 
ATOM     19  C   UNL     1       4.480  -5.854  -0.260  1.00  0.00     0.029 A 
ATOM     20  N   UNL     1       5.779  -6.960  -1.704  1.00  0.00    -0.354 N 
ATOM     21  C   UNL     1       7.195  -5.070  -5.326  1.00  0.00     0.074 A 
ATOM     22  C   UNL     1       6.735  -3.701  -5.423  1.00  0.00     0.031 C 
ATOM     23  C   UNL     1       4.679  -7.080   0.243  1.00  0.00     0.029 A 
ATOM     24  C   UNL     1       5.495  -7.846  -0.691  1.00  0.00     0.049 A 
ATOM     25  H   UNL     1       6.338  -7.189  -2.481  1.00  0.00     0.167 HD
ATOM     26  C   UNL     1       7.961  -5.692  -6.254  1.00  0.00     0.031 A 
ATOM     27  C   UNL     1       5.829  -9.140  -0.538  1.00  0.00     0.031 A 
ATOM     28  C   UNL     1       8.424  -7.053  -6.142  1.00  0.00     0.049 A 
ATOM     29  C   UNL     1       6.661  -9.805  -1.595  1.00  0.00     0.074 A 
ATOM     30  C   UNL     1       9.255  -7.750  -7.004  1.00  0.00     0.029 A 
ATOM     31  N   UNL     1       8.092  -7.925  -5.117  1.00  0.00    -0.354 N 
ATOM     32  N   UNL     1       7.167  -9.287  -2.688  1.00  0.00    -0.248 NA
ATOM     33  C   UNL     1       6.964 -11.229  -1.400  1.00  0.00     0.031 C 
ATOM     34  C   UNL     1       9.380  -9.059  -6.528  1.00  0.00     0.029 A 
ATOM     35  C   UNL     1       8.671  -9.163  -5.343  1.00  0.00     0.049 A 
ATOM     36  H   UNL     1       7.529  -7.697  -4.342  1.00  0.00     0.167 HD
ATOM     37  C   UNL     1       7.852 -10.322  -3.311  1.00  0.00     0.074 A 
ATOM     38  C   UNL     1       7.722 -11.485  -2.457  1.00  0.00     0.031 C 
ATOM     39  C   UNL     1       8.521 -10.312  -4.489  1.00  0.00     0.031 A 
BRANCH  26  40
ATOM     40  C   UNL     1       8.344  -4.928  -7.494  1.00  0.00    -0.014 A 
ATOM     41  C   UNL     1       9.346  -3.943  -7.462  1.00  0.00     0.010 A 
ATOM     42  C   UNL     1       7.769  -5.281  -8.729  1.00  0.00     0.010 A 
ATOM     43  C   UNL     1       9.759  -3.317  -8.643  1.00  0.00     0.020 A 
ATOM     44  C   UNL     1       8.193  -4.671  -9.914  1.00  0.00     0.020 A 
ATOM     45  C   UNL     1       9.182  -3.688  -9.862  1.00  0.00     0.054 A 
BRANCH  45  46
ATOM     46  S   UNL     1       9.785  -2.907 -11.386  1.00  0.00     0.124 S 
ATOM     47  O   UNL     1       9.216  -1.565 -11.283  1.00  0.00    -0.237 OA
ATOM     48  O   UNL     1      11.236  -2.986 -11.234  1.00  0.00    -0.237 OA
ATOM     49  O   UNL     1       9.227  -3.740 -12.448  1.00  0.00    -0.744 OA
ENDBRANCH  45  46
ENDBRANCH  26  40
BRANCH  27  50
ATOM     50  C   UNL     1       5.334  -9.900   0.640  1.00  0.00    -0.014 A 
ATOM     51  C   UNL     1       6.217 -10.333   1.642  1.00  0.00     0.010 A 
ATOM     52  C   UNL     1       3.962 -10.192   0.761  1.00  0.00     0.010 A 
ATOM     53  C   UNL     1       5.742 -11.070   2.731  1.00  0.00     0.020 A 
ATOM     54  C   UNL     1       3.479 -10.902   1.862  1.00  0.00     0.020 A 
ATOM     55  C   UNL     1       4.376 -11.353   2.832  1.00  0.00     0.054 A 
BRANCH  55  56
ATOM     56  S   UNL     1       3.772 -12.287   4.264  1.00  0.00     0.124 S 
ATOM     57  O   UNL     1       4.136 -13.654   3.906  1.00  0.00    -0.237 OA
ATOM     58  O   UNL     1       4.525 -11.700   5.369  1.00  0.00    -0.237 OA
ATOM     59  O   UNL     1       2.339 -12.002   4.275  1.00  0.00    -0.744 OA
ENDBRANCH  55  56
ENDBRANCH  27  50
BRANCH  39  60
ATOM     60  C   UNL     1       9.168 -11.600  -4.915  1.00  0.00    -0.014 A 
ATOM     61  C   UNL     1       8.394 -12.673  -5.391  1.00  0.00     0.010 A 
ATOM     62  C   UNL     1      10.568 -11.728  -4.870  1.00  0.00     0.010 A 
ATOM     63  C   UNL     1       9.007 -13.866  -5.783  1.00  0.00     0.020 A 
ATOM     64  C   UNL     1      11.186 -12.910  -5.285  1.00  0.00     0.020 A 
ATOM     65  C   UNL     1      10.399 -13.977  -5.724  1.00  0.00     0.054 A 
BRANCH  65  66
ATOM     66  S   UNL     1      11.175 -15.522  -6.271  1.00  0.00     0.124 S 
ATOM     67  O   UNL     1      10.903 -16.413  -5.147  1.00  0.00    -0.237 OA
ATOM     68  O   UNL     1      10.453 -15.828  -7.504  1.00  0.00    -0.237 OA
ATOM     69  O   UNL     1      12.579 -15.159  -6.453  1.00  0.00    -0.744 OA
ENDBRANCH  65  66
ENDBRANCH  39  60
ENDBRANCH  13  14
ENDBRANCH   6   8
ENDBRANCH   3   4
ENDBRANCH   2   3
ENDBRANCH   1   2
BRANCH   1  70
ATOM     70  C   UNL     1       5.020   3.964   1.733  1.00  0.00     0.116 C 
BRANCH  70  71
ATOM     71  N   UNL     1       6.474   4.013   1.823  1.00  0.00    -0.352 N 
ATOM     72  C   UNL     1       7.270   4.928   2.471  1.00  0.00     0.251 C 
ATOM     73  H   UNL     1       6.952   3.292   1.355  1.00  0.00     0.163 HD
ATOM     74  O   UNL     1       8.487   4.921   2.327  1.00  0.00    -0.269 OA
BRANCH  72  75
ATOM     75  C   UNL     1       6.643   5.938   3.345  1.00  0.00     0.043 A 
ATOM     76  C   UNL     1       6.953   7.287   3.176  1.00  0.00     0.014 A 
ATOM     77  C   UNL     1       5.739   5.535   4.332  1.00  0.00     0.062 A 
ATOM     78  C   UNL     1       6.300   8.240   3.956  1.00  0.00     0.005 A 
ATOM     79  C   UNL     1       5.043   6.487   5.073  1.00  0.00     0.143 A 
ATOM     80  C   UNL     1       5.337   7.842   4.892  1.00  0.00     0.048 A 
BRANCH  79  81
ATOM     81  O   UNL     1       4.061   6.179   5.986  1.00  0.00    -0.379 OA
BRANCH  81  82
ATOM     82  S   UNL     1       3.280   4.742   5.905  1.00  0.00     0.339 S 
ATOM     83  O   UNL     1       2.602   4.642   4.633  1.00  0.00    -0.181 OA
ATOM     84  O   UNL     1       4.193   3.705   6.362  1.00  0.00    -0.181 OA
BRANCH  82  85
ATOM     85  C   UNL     1       2.002   4.819   7.137  1.00  0.00     0.112 A 
ATOM     86  C   UNL     1       1.523   6.046   7.600  1.00  0.00     0.024 A 
ATOM     87  C   UNL     1       1.519   3.609   7.652  1.00  0.00     0.109 A 
ATOM     88  C   UNL     1       0.541   6.065   8.593  1.00  0.00     0.009 A 
ATOM     89  C   UNL     1       0.538   3.642   8.647  1.00  0.00     0.270 A 
ATOM     90  C   UNL     1       0.047   4.867   9.121  1.00  0.00     0.086 A 
BRANCH  89  91
ATOM     91  N   UNL     1       0.026   2.384   9.206  1.00  0.00     0.062 N 
ATOM     92  O   UNL     1      -0.800   2.460  10.127  1.00  0.00    -0.258 OA
ATOM     93  O   UNL     1       0.454   1.326   8.727  1.00  0.00    -0.258 OA
ENDBRANCH  89  91
ENDBRANCH  82  85
ENDBRANCH  81  82
ENDBRANCH  79  81
ENDBRANCH  72  75
ENDBRANCH  70  71
ENDBRANCH   1  70
TORSDOF 18
