REMARK SMILES CCOC(=O)c1c(NC(=O)[C@@H]2[C@@H](C(=O)NCCCCNC(=O)c3ccc(-c4c5nc(c(-c6ccc(S(=O)(=O)[O-])cc6)c6ccc([nH]6)c(-c6ccc(S(=O)(=O)[O-])cc6)c6nc(c(-c7ccc(S(=O)(=O)[O-])cc7)c7ccc4[nH]7)C=C6)C=C5)cc3)[C@@H]3C=C[C@H]2CC3)sc2c1CCC2
REMARK SMILES IDX 16 1 15 2 13 3 14 4 12 6 11 7 86 8 83 9 85 10 87 11 84 12
REMARK SMILES IDX 88 13 9 14 8 15 10 17 7 18 6 19 91 20 89 21 90 22 92 23
REMARK SMILES IDX 94 24 93 25 4 26 5 27 3 28 2 29 1 30 17 31 18 32 19 33 20 34
REMARK SMILES IDX 21 35 22 37 23 38 24 39 82 40 25 41 81 42 26 43 27 44 28 45
REMARK SMILES IDX 75 46 29 47 80 48 74 49 76 50 30 51 79 52 73 53 72 54 31 56
REMARK SMILES IDX 61 57 42 58 60 59 43 60 46 61 59 62 77 63 44 64 45 65 58 67
REMARK SMILES IDX 78 68 47 69 32 70 33 71 41 72 34 73 40 74 35 75 36 76 37 77
REMARK SMILES IDX 38 78 39 79 62 80 63 81 71 82 64 83 70 84 65 85 66 86 67 87
REMARK SMILES IDX 68 88 69 89 48 90 49 91 57 92 50 93 56 94 51 95 52 96 53 97
REMARK SMILES IDX 54 98 55 99
REMARK H PARENT 15 5 8 16 20 36 76 55 46 66
REMARK Flexibility Score: inf
ROOT
ATOM      1  C   UNL     1       8.773  -4.351   5.561  1.00  0.00     0.116 C 
ENDROOT
BRANCH   1   2
ATOM      2  N   UNL     1       9.005  -4.971   4.266  1.00  0.00    -0.356 N 
ATOM      3  C   UNL     1       8.255  -5.248   3.167  1.00  0.00     0.224 C 
ATOM      4  O   UNL     1       8.908  -5.658   2.195  1.00  0.00    -0.275 OA
ATOM      5  H   UNL     1       9.939  -5.264   4.159  1.00  0.00     0.163 HD
BRANCH   3   6
ATOM      6  C   UNL     1       6.717  -5.233   3.038  1.00  0.00     0.098 C 
ATOM      7  C   UNL     1       5.938  -4.055   3.639  1.00  0.00     0.099 C 
ATOM      8  C   UNL     1       4.891  -4.583   4.666  1.00  0.00     0.025 C 
ATOM      9  C   UNL     1       6.112  -6.588   3.543  1.00  0.00     0.025 C 
ATOM     10  C   UNL     1       3.964  -5.559   3.991  1.00  0.00    -0.027 C 
ATOM     11  C   UNL     1       5.580  -5.500   5.740  1.00  0.00     0.009 C 
ATOM     12  C   UNL     1       4.599  -6.615   3.454  1.00  0.00    -0.027 C 
ATOM     13  C   UNL     1       6.297  -6.702   5.053  1.00  0.00     0.009 C 
BRANCH   7  14
ATOM     14  C   UNL     1       5.475  -2.939   2.665  1.00  0.00     0.229 C 
ATOM     15  N   UNL     1       4.589  -2.946   1.636  1.00  0.00    -0.317 N 
ATOM     16  H   UNL     1       4.540  -2.079   1.173  1.00  0.00     0.170 HD
ATOM     17  O   UNL     1       5.922  -1.800   2.910  1.00  0.00    -0.274 OA
BRANCH  15  18
ATOM     18  C   UNL     1       3.744  -3.886   1.093  1.00  0.00     0.110 A 
ATOM     19  C   UNL     1       2.476  -3.683   0.533  1.00  0.00     0.098 A 
ATOM     20  C   UNL     1       1.799  -4.939   0.546  1.00  0.00    -0.017 A 
ATOM     21  S   UNL     1       4.265  -5.463   0.704  1.00  0.00    -0.122 S 
ATOM     22  C   UNL     1       2.675  -5.970   0.756  1.00  0.00     0.011 A 
ATOM     23  C   UNL     1       0.427  -5.473   0.359  1.00  0.00     0.038 C 
ATOM     24  C   UNL     1       2.061  -7.305   0.890  1.00  0.00     0.047 C 
ATOM     25  C   UNL     1       0.552  -6.923   0.940  1.00  0.00     0.010 C 
BRANCH  19  26
ATOM     26  C   UNL     1       2.002  -2.371   0.129  1.00  0.00     0.341 C 
ATOM     27  O   UNL     1       2.785  -1.467  -0.156  1.00  0.00    -0.246 OA
BRANCH  26  28
ATOM     28  O   UNL     1       0.648  -2.270   0.036  1.00  0.00    -0.462 OA
BRANCH  28  29
ATOM     29  C   UNL     1       0.158  -1.095  -0.635  1.00  0.00     0.230 C 
ATOM     30  C   UNL     1       0.418   0.206   0.109  1.00  0.00     0.049 C 
ENDBRANCH  28  29
ENDBRANCH  26  28
ENDBRANCH  19  26
ENDBRANCH  15  18
ENDBRANCH   7  14
ENDBRANCH   3   6
ENDBRANCH   1   2
BRANCH   1  31
ATOM     31  C   UNL     1       8.955  -5.279   6.771  1.00  0.00     0.023 C 
BRANCH  31  32
ATOM     32  C   UNL     1      10.388  -5.571   7.202  1.00  0.00     0.023 C 
BRANCH  32  33
ATOM     33  C   UNL     1      11.149  -4.336   7.647  1.00  0.00     0.116 C 
BRANCH  33  34
ATOM     34  N   UNL     1      10.453  -3.603   8.702  1.00  0.00    -0.352 N 
ATOM     35  C   UNL     1      10.723  -2.326   9.158  1.00  0.00     0.251 C 
ATOM     36  H   UNL     1       9.706  -4.073   9.138  1.00  0.00     0.163 HD
ATOM     37  O   UNL     1      10.292  -1.923  10.216  1.00  0.00    -0.269 OA
BRANCH  35  38
ATOM     38  C   UNL     1      11.573  -1.483   8.300  1.00  0.00     0.039 A 
ATOM     39  C   UNL     1      12.785  -0.991   8.780  1.00  0.00     0.014 A 
ATOM     40  C   UNL     1      11.202  -1.335   6.964  1.00  0.00     0.014 A 
ATOM     41  C   UNL     1      13.677  -0.431   7.872  1.00  0.00     0.010 A 
ATOM     42  C   UNL     1      12.132  -0.887   6.053  1.00  0.00     0.010 A 
ATOM     43  C   UNL     1      13.366  -0.416   6.501  1.00  0.00    -0.014 A 
BRANCH  43  44
ATOM     44  C   UNL     1      14.382  -0.012   5.532  1.00  0.00     0.031 A 
ATOM     45  C   UNL     1      15.702  -0.697   5.649  1.00  0.00     0.074 A 
ATOM     46  C   UNL     1      14.143   0.793   4.477  1.00  0.00     0.049 A 
ATOM     47  N   UNL     1      16.809  -0.199   6.091  1.00  0.00    -0.248 NA
ATOM     48  C   UNL     1      15.778  -2.133   5.345  1.00  0.00     0.031 C 
ATOM     49  C   UNL     1      12.863   1.324   3.997  1.00  0.00     0.029 A 
ATOM     50  N   UNL     1      15.023   1.232   3.538  1.00  0.00    -0.354 N 
ATOM     51  C   UNL     1      17.778  -1.186   5.929  1.00  0.00     0.074 A 
ATOM     52  C   UNL     1      17.058  -2.398   5.621  1.00  0.00     0.031 C 
ATOM     53  C   UNL     1      13.017   1.810   2.745  1.00  0.00     0.029 A 
ATOM     54  C   UNL     1      14.431   1.802   2.421  1.00  0.00     0.049 A 
ATOM     55  H   UNL     1      15.999   1.151   3.642  1.00  0.00     0.167 HD
ATOM     56  C   UNL     1      19.107  -0.883   5.854  1.00  0.00     0.031 A 
ATOM     57  C   UNL     1      15.058   2.238   1.303  1.00  0.00     0.031 A 
ATOM     58  C   UNL     1      19.360   0.483   6.236  1.00  0.00     0.049 A 
ATOM     59  C   UNL     1      16.466   2.509   1.674  1.00  0.00     0.074 A 
ATOM     60  C   UNL     1      19.166   1.232   7.379  1.00  0.00     0.029 A 
ATOM     61  N   UNL     1      19.541   1.389   5.215  1.00  0.00    -0.354 N 
ATOM     62  N   UNL     1      16.819   3.451   2.504  1.00  0.00    -0.248 NA
ATOM     63  C   UNL     1      17.457   1.468   1.460  1.00  0.00     0.031 C 
ATOM     64  C   UNL     1      18.756   2.516   6.909  1.00  0.00     0.029 A 
ATOM     65  C   UNL     1      18.790   2.496   5.512  1.00  0.00     0.049 A 
ATOM     66  H   UNL     1      20.106   1.264   4.419  1.00  0.00     0.167 HD
ATOM     67  C   UNL     1      17.864   2.910   3.236  1.00  0.00     0.074 A 
ATOM     68  C   UNL     1      18.287   1.738   2.473  1.00  0.00     0.031 C 
ATOM     69  C   UNL     1      18.109   3.306   4.521  1.00  0.00     0.031 A 
BRANCH  56  70
ATOM     70  C   UNL     1      20.131  -1.679   5.074  1.00  0.00    -0.014 A 
ATOM     71  C   UNL     1      21.478  -1.253   5.095  1.00  0.00     0.010 A 
ATOM     72  C   UNL     1      19.785  -2.645   4.110  1.00  0.00     0.010 A 
ATOM     73  C   UNL     1      22.402  -1.700   4.140  1.00  0.00     0.020 A 
ATOM     74  C   UNL     1      20.710  -3.132   3.181  1.00  0.00     0.020 A 
ATOM     75  C   UNL     1      22.003  -2.624   3.176  1.00  0.00     0.054 A 
BRANCH  75  76
ATOM     76  S   UNL     1      23.163  -3.099   1.870  1.00  0.00     0.124 S 
ATOM     77  O   UNL     1      23.300  -1.852   1.124  1.00  0.00    -0.237 OA
ATOM     78  O   UNL     1      24.336  -3.515   2.633  1.00  0.00    -0.237 OA
ATOM     79  O   UNL     1      22.466  -4.176   1.170  1.00  0.00    -0.744 OA
ENDBRANCH  75  76
ENDBRANCH  56  70
BRANCH  57  80
ATOM     80  C   UNL     1      14.583   2.169  -0.098  1.00  0.00    -0.014 A 
ATOM     81  C   UNL     1      15.221   2.903  -1.113  1.00  0.00     0.010 A 
ATOM     82  C   UNL     1      13.683   1.153  -0.484  1.00  0.00     0.010 A 
ATOM     83  C   UNL     1      15.024   2.583  -2.466  1.00  0.00     0.020 A 
ATOM     84  C   UNL     1      13.477   0.833  -1.831  1.00  0.00     0.020 A 
ATOM     85  C   UNL     1      14.171   1.532  -2.815  1.00  0.00     0.054 A 
BRANCH  85  86
ATOM     86  S   UNL     1      14.083   0.997  -4.550  1.00  0.00     0.124 S 
ATOM     87  O   UNL     1      13.355   2.096  -5.177  1.00  0.00    -0.237 OA
ATOM     88  O   UNL     1      15.492   0.881  -4.918  1.00  0.00    -0.237 OA
ATOM     89  O   UNL     1      13.358  -0.271  -4.484  1.00  0.00    -0.744 OA
ENDBRANCH  85  86
ENDBRANCH  57  80
BRANCH  69  90
ATOM     90  C   UNL     1      17.431   4.558   5.034  1.00  0.00    -0.014 A 
ATOM     91  C   UNL     1      16.034   4.715   5.122  1.00  0.00     0.010 A 
ATOM     92  C   UNL     1      18.251   5.556   5.590  1.00  0.00     0.010 A 
ATOM     93  C   UNL     1      15.476   5.853   5.728  1.00  0.00     0.020 A 
ATOM     94  C   UNL     1      17.703   6.680   6.212  1.00  0.00     0.020 A 
ATOM     95  C   UNL     1      16.317   6.829   6.270  1.00  0.00     0.054 A 
BRANCH  95  96
ATOM     96  S   UNL     1      15.596   8.275   7.097  1.00  0.00     0.124 S 
ATOM     97  O   UNL     1      15.007   9.017   5.985  1.00  0.00    -0.237 OA
ATOM     98  O   UNL     1      14.644   7.677   8.029  1.00  0.00    -0.237 OA
ATOM     99  O   UNL     1      16.744   8.923   7.731  1.00  0.00    -0.744 OA
ENDBRANCH  95  96
ENDBRANCH  69  90
ENDBRANCH  43  44
ENDBRANCH  35  38
ENDBRANCH  33  34
ENDBRANCH  32  33
ENDBRANCH  31  32
ENDBRANCH   1  31
TORSDOF 19
