REMARK SMILES COC(=O)[C@@H]1C[C@@H](C(=O)NCCCCNC(=O)c2ccc(-c3c4nc(c(-c5ccc(S(=O)(=O)[O-])cc5)c5ccc([nH]5)c(-c5ccc(S(=O)(=O)[O-])cc5)c5nc(c(-c6ccc(S(=O)(=O)[O-])cc6)c6ccc3[nH]6)C=C5)C=C4)cc2)[C@@H](c2cccc(F)c2F)[N@H+]1C
REMARK SMILES IDX 13 1 12 2 11 3 10 4 8 5 9 6 7 8 5 9 6 10 87 11 78 12 88 13
REMARK SMILES IDX 3 15 4 16 2 17 1 18 79 19 80 20 85 21 81 22 83 23 86 24
REMARK SMILES IDX 82 25 84 26 14 27 15 28 16 29 17 31 18 32 19 33 77 34 20 35
REMARK SMILES IDX 76 36 21 37 22 38 23 39 70 40 24 41 75 42 69 43 71 44 25 45
REMARK SMILES IDX 74 46 68 47 67 48 26 50 56 51 37 52 55 53 38 54 41 55 54 56
REMARK SMILES IDX 72 57 39 58 40 59 53 61 73 62 42 63 27 64 28 65 36 66 29 67
REMARK SMILES IDX 35 68 30 69 31 70 32 71 33 72 34 73 57 74 58 75 66 76 59 77
REMARK SMILES IDX 65 78 60 79 61 80 62 81 63 82 64 83 43 84 44 85 52 86 45 87
REMARK SMILES IDX 51 88 46 89 47 90 48 91 49 92 50 93
REMARK H PARENT 10 7 87 14 15 30 71 49 41 60
REMARK Flexibility Score: inf
ROOT
ATOM      1  C   UNL     1       4.302  -2.898  -0.987  1.00  0.00     0.023 C 
ENDROOT
BRANCH   1   2
ATOM      2  C   UNL     1       3.009  -2.626  -0.223  1.00  0.00     0.023 C 
BRANCH   2   3
ATOM      3  C   UNL     1       2.065  -3.818  -0.184  1.00  0.00     0.116 C 
BRANCH   3   4
ATOM      4  N   UNL     1       2.599  -4.948   0.553  1.00  0.00    -0.356 N 
ATOM      5  C   UNL     1       2.497  -5.367   1.839  1.00  0.00     0.229 C 
ATOM      6  O   UNL     1       3.057  -6.439   2.102  1.00  0.00    -0.275 OA
ATOM      7  H   UNL     1       3.156  -5.541  -0.001  1.00  0.00     0.163 HD
BRANCH   5   8
ATOM      8  C   UNL     1       1.763  -4.627   2.952  1.00  0.00     0.148 C 
ATOM      9  C   UNL     1       0.245  -2.802   2.643  1.00  0.00     0.296 C 
ATOM     10  C   UNL     1       0.326  -4.307   2.542  1.00  0.00     0.097 C 
ATOM     11  N   UNL     1       1.085  -2.558   3.823  1.00  0.00    -0.319 N 
ATOM     12  C   UNL     1       2.341  -3.360   3.702  1.00  0.00     0.231 C 
ATOM     13  C   UNL     1       1.069  -1.190   4.275  1.00  0.00     0.333 C 
ATOM     14  H   UNL     1       0.694  -2.934   4.687  1.00  0.00     0.349 HD
BRANCH   9  15
ATOM     15  C   UNL     1      -1.212  -2.361   2.754  1.00  0.00     0.364 C 
ATOM     16  O   UNL     1      -1.782  -1.723   1.873  1.00  0.00    -0.245 OA
BRANCH  15  17
ATOM     17  O   UNL     1      -1.812  -2.804   3.893  1.00  0.00    -0.465 OA
ATOM     18  C   UNL     1      -3.202  -2.490   3.973  1.00  0.00     0.282 C 
ENDBRANCH  15  17
ENDBRANCH   9  15
BRANCH  12  19
ATOM     19  C   UNL     1       3.683  -2.771   3.228  1.00  0.00     0.049 A 
ATOM     20  C   UNL     1       4.698  -3.632   2.744  1.00  0.00     0.013 A 
ATOM     21  C   UNL     1       4.096  -1.432   3.337  1.00  0.00     0.167 A 
ATOM     22  C   UNL     1       5.893  -3.167   2.164  1.00  0.00     0.004 A 
ATOM     23  C   UNL     1       5.283  -0.958   2.762  1.00  0.00     0.159 A 
ATOM     24  F   UNL     1       3.427  -0.536   4.066  1.00  0.00    -0.203 F 
ATOM     25  C   UNL     1       6.165  -1.811   2.129  1.00  0.00     0.042 A 
ATOM     26  F   UNL     1       5.579   0.348   2.840  1.00  0.00    -0.204 F 
ENDBRANCH  12  19
ENDBRANCH   5   8
ENDBRANCH   3   4
ENDBRANCH   2   3
ENDBRANCH   1   2
BRANCH   1  27
ATOM     27  C   UNL     1       4.086  -3.015  -2.486  1.00  0.00     0.116 C 
BRANCH  27  28
ATOM     28  N   UNL     1       3.603  -1.763  -3.055  1.00  0.00    -0.352 N 
ATOM     29  C   UNL     1       4.100  -1.061  -4.122  1.00  0.00     0.251 C 
ATOM     30  H   UNL     1       2.814  -1.370  -2.616  1.00  0.00     0.163 HD
ATOM     31  O   UNL     1       3.734   0.092  -4.331  1.00  0.00    -0.269 OA
BRANCH  29  32
ATOM     32  C   UNL     1       5.092  -1.709  -4.998  1.00  0.00     0.039 A 
ATOM     33  C   UNL     1       6.223  -0.996  -5.395  1.00  0.00     0.014 A 
ATOM     34  C   UNL     1       4.917  -3.042  -5.380  1.00  0.00     0.014 A 
ATOM     35  C   UNL     1       7.213  -1.646  -6.130  1.00  0.00     0.010 A 
ATOM     36  C   UNL     1       5.949  -3.713  -6.016  1.00  0.00     0.010 A 
ATOM     37  C   UNL     1       7.101  -3.019  -6.410  1.00  0.00    -0.014 A 
BRANCH  37  38
ATOM     38  C   UNL     1       8.171  -3.753  -7.125  1.00  0.00     0.031 A 
ATOM     39  C   UNL     1       7.869  -4.414  -8.442  1.00  0.00     0.074 A 
ATOM     40  C   UNL     1       9.383  -3.882  -6.551  1.00  0.00     0.049 A 
ATOM     41  N   UNL     1       8.644  -5.160  -9.184  1.00  0.00    -0.248 NA
ATOM     42  C   UNL     1       6.508  -4.243  -8.981  1.00  0.00     0.031 C 
ATOM     43  C   UNL     1       9.771  -3.326  -5.251  1.00  0.00     0.029 A 
ATOM     44  N   UNL     1      10.514  -4.526  -6.984  1.00  0.00    -0.354 N 
ATOM     45  C   UNL     1       7.861  -5.561 -10.261  1.00  0.00     0.074 A 
ATOM     46  C   UNL     1       6.535  -5.029 -10.046  1.00  0.00     0.031 C 
ATOM     47  C   UNL     1      11.058  -3.623  -5.011  1.00  0.00     0.029 A 
ATOM     48  C   UNL     1      11.572  -4.431  -6.111  1.00  0.00     0.049 A 
ATOM     49  H   UNL     1      10.563  -5.012  -7.839  1.00  0.00     0.167 HD
ATOM     50  C   UNL     1       8.223  -6.287 -11.344  1.00  0.00     0.031 A 
ATOM     51  C   UNL     1      12.815  -4.945  -6.185  1.00  0.00     0.031 A 
ATOM     52  C   UNL     1       9.551  -6.795 -11.555  1.00  0.00     0.049 A 
ATOM     53  C   UNL     1      13.188  -5.758  -7.395  1.00  0.00     0.074 A 
ATOM     54  C   UNL     1      10.043  -7.485 -12.647  1.00  0.00     0.029 A 
ATOM     55  N   UNL     1      10.597  -6.669 -10.653  1.00  0.00    -0.354 N 
ATOM     56  N   UNL     1      12.457  -6.059  -8.442  1.00  0.00    -0.248 NA
ATOM     57  C   UNL     1      14.555  -6.294  -7.437  1.00  0.00     0.031 C 
ATOM     58  C   UNL     1      11.370  -7.833 -12.378  1.00  0.00     0.029 A 
ATOM     59  C   UNL     1      11.725  -7.299 -11.148  1.00  0.00     0.049 A 
ATOM     60  H   UNL     1      10.545  -6.200  -9.788  1.00  0.00     0.167 HD
ATOM     61  C   UNL     1      13.282  -6.802  -9.278  1.00  0.00     0.074 A 
ATOM     62  C   UNL     1      14.573  -6.884  -8.625  1.00  0.00     0.031 C 
ATOM     63  C   UNL     1      12.998  -7.370 -10.477  1.00  0.00     0.031 A 
BRANCH  50  64
ATOM     64  C   UNL     1       7.168  -6.574 -12.380  1.00  0.00    -0.014 A 
ATOM     65  C   UNL     1       6.634  -5.547 -13.182  1.00  0.00     0.010 A 
ATOM     66  C   UNL     1       6.735  -7.896 -12.588  1.00  0.00     0.010 A 
ATOM     67  C   UNL     1       5.664  -5.832 -14.145  1.00  0.00     0.020 A 
ATOM     68  C   UNL     1       5.788  -8.190 -13.573  1.00  0.00     0.020 A 
ATOM     69  C   UNL     1       5.248  -7.153 -14.336  1.00  0.00     0.054 A 
BRANCH  69  70
ATOM     70  S   UNL     1       4.015  -7.496 -15.621  1.00  0.00     0.124 S 
ATOM     71  O   UNL     1       2.806  -6.917 -15.041  1.00  0.00    -0.237 OA
ATOM     72  O   UNL     1       4.557  -6.789 -16.779  1.00  0.00    -0.237 OA
ATOM     73  O   UNL     1       4.018  -8.953 -15.726  1.00  0.00    -0.744 OA
ENDBRANCH  69  70
ENDBRANCH  50  64
BRANCH  51  74
ATOM     74  C   UNL     1      13.790  -4.705  -5.087  1.00  0.00    -0.014 A 
ATOM     75  C   UNL     1      14.922  -3.897  -5.297  1.00  0.00     0.010 A 
ATOM     76  C   UNL     1      13.587  -5.276  -3.817  1.00  0.00     0.010 A 
ATOM     77  C   UNL     1      15.844  -3.685  -4.267  1.00  0.00     0.020 A 
ATOM     78  C   UNL     1      14.489  -5.040  -2.775  1.00  0.00     0.020 A 
ATOM     79  C   UNL     1      15.619  -4.257  -3.011  1.00  0.00     0.054 A 
BRANCH  79  80
ATOM     80  S   UNL     1      16.807  -3.934  -1.678  1.00  0.00     0.124 S 
ATOM     81  O   UNL     1      17.959  -4.724  -2.100  1.00  0.00    -0.237 OA
ATOM     82  O   UNL     1      16.972  -2.484  -1.749  1.00  0.00    -0.237 OA
ATOM     83  O   UNL     1      16.119  -4.417  -0.483  1.00  0.00    -0.744 OA
ENDBRANCH  79  80
ENDBRANCH  51  74
BRANCH  63  84
ATOM     84  C   UNL     1      14.109  -8.111 -11.171  1.00  0.00    -0.014 A 
ATOM     85  C   UNL     1      14.566  -9.350 -10.690  1.00  0.00     0.010 A 
ATOM     86  C   UNL     1      14.654  -7.590 -12.359  1.00  0.00     0.010 A 
ATOM     87  C   UNL     1      15.569 -10.043 -11.371  1.00  0.00     0.020 A 
ATOM     88  C   UNL     1      15.633  -8.296 -13.060  1.00  0.00     0.020 A 
ATOM     89  C   UNL     1      16.093  -9.513 -12.555  1.00  0.00     0.054 A 
BRANCH  89  90
ATOM     90  S   UNL     1      17.354 -10.462 -13.449  1.00  0.00     0.124 S 
ATOM     91  O   UNL     1      18.517 -10.318 -12.578  1.00  0.00    -0.237 OA
ATOM     92  O   UNL     1      16.769 -11.800 -13.500  1.00  0.00    -0.237 OA
ATOM     93  O   UNL     1      17.452  -9.781 -14.738  1.00  0.00    -0.744 OA
ENDBRANCH  89  90
ENDBRANCH  63  84
ENDBRANCH  37  38
ENDBRANCH  29  32
ENDBRANCH  27  28
ENDBRANCH   1  27
TORSDOF 17
