REMARK SMILES CN1CC(=O)N(CC(=O)N2CCCC[C@H]2C(=O)NCCCCNC(=O)c2ccc(-c3c4nc(c(-c5ccc(S(=O)(=O)[O-])cc5)c5ccc([nH]5)c(-c5ccc(S(=O)(=O)[O-])cc5)c5nc(c(-c6ccc(S(=O)(=O)[O-])cc6)c6ccc3[nH]6)C=C5)C=C4)cc2)C1=O
REMARK SMILES IDX 20 1 19 2 18 3 16 4 17 5 15 7 10 8 11 9 12 10 14 11 13 12
REMARK SMILES IDX 8 13 9 14 7 15 6 16 1 17 2 18 3 19 86 20 4 21 87 22 5 23
REMARK SMILES IDX 21 24 22 25 23 26 24 27 25 29 26 30 27 31 85 32 28 33 84 34
REMARK SMILES IDX 29 35 30 36 31 37 78 38 32 39 83 40 77 41 79 42 33 43 82 44
REMARK SMILES IDX 76 45 75 46 34 48 64 49 45 50 63 51 46 52 49 53 62 54 80 55
REMARK SMILES IDX 47 56 48 57 61 59 81 60 50 61 35 62 36 63 44 64 37 65 43 66
REMARK SMILES IDX 38 67 39 68 40 69 41 70 42 71 65 72 66 73 74 74 67 75 73 76
REMARK SMILES IDX 68 77 69 78 70 79 71 80 72 81 51 82 52 83 60 84 53 85 59 86
REMARK SMILES IDX 54 87 55 88 56 89 57 90 58 91
REMARK H PARENT 18 6 23 28 79 47 49 58
REMARK Flexibility Score: inf
ROOT
ATOM      1  C   UNL     1      -1.778   1.577   1.700  1.00  0.00     0.023 C 
ENDROOT
BRANCH   1   2
ATOM      2  C   UNL     1      -2.864   0.645   2.239  1.00  0.00     0.116 C 
BRANCH   2   3
ATOM      3  N   UNL     1      -3.793   0.299   1.189  1.00  0.00    -0.354 N 
ATOM      4  C   UNL     1      -3.893  -0.877   0.506  1.00  0.00     0.242 C 
ATOM      5  O   UNL     1      -4.596  -0.883  -0.505  1.00  0.00    -0.273 OA
ATOM      6  H   UNL     1      -4.435   1.000   0.934  1.00  0.00     0.163 HD
BRANCH   4   7
ATOM      7  C   UNL     1      -3.133  -2.141   1.018  1.00  0.00     0.174 C 
ATOM      8  N   UNL     1      -3.667  -2.661   2.298  1.00  0.00    -0.329 N 
ATOM      9  C   UNL     1      -5.082  -3.047   2.202  1.00  0.00     0.120 C 
ATOM     10  C   UNL     1      -5.226  -4.220   1.236  1.00  0.00     0.022 C 
ATOM     11  C   UNL     1      -3.216  -3.281  -0.022  1.00  0.00     0.035 C 
ATOM     12  C   UNL     1      -4.622  -3.896  -0.131  1.00  0.00     0.004 C 
BRANCH   8  13
ATOM     13  C   UNL     1      -2.961  -3.151   3.393  1.00  0.00     0.243 C 
ATOM     14  O   UNL     1      -3.565  -3.804   4.261  1.00  0.00    -0.273 OA
BRANCH  13  15
ATOM     15  C   UNL     1      -1.514  -2.760   3.751  1.00  0.00     0.230 C 
BRANCH  15  16
ATOM     16  N   UNL     1      -0.509  -2.522   2.748  1.00  0.00    -0.253 N 
ATOM     17  C   UNL     1       1.723  -0.374   0.896  1.00  0.00     0.149 C 
ATOM     18  N   UNL     1       1.002  -1.458   1.520  1.00  0.00    -0.318 N 
ATOM     19  C   UNL     1       1.138  -2.832   1.105  1.00  0.00     0.221 C 
ATOM     20  C   UNL     1       0.143  -1.335   2.591  1.00  0.00     0.327 C 
ATOM     21  C   UNL     1       0.087  -3.487   1.990  1.00  0.00     0.250 C 
ATOM     22  O   UNL     1      -0.001  -0.341   3.280  1.00  0.00    -0.248 OA
ATOM     23  O   UNL     1      -0.167  -4.682   2.008  1.00  0.00    -0.272 OA
ENDBRANCH  15  16
ENDBRANCH  13  15
ENDBRANCH   8  13
ENDBRANCH   4   7
ENDBRANCH   2   3
ENDBRANCH   1   2
BRANCH   1  24
ATOM     24  C   UNL     1      -2.201   3.036   1.587  1.00  0.00     0.023 C 
BRANCH  24  25
ATOM     25  C   UNL     1      -2.709   3.653   2.885  1.00  0.00     0.116 C 
BRANCH  25  26
ATOM     26  N   UNL     1      -1.830   3.452   4.034  1.00  0.00    -0.352 N 
ATOM     27  C   UNL     1      -1.547   4.331   5.055  1.00  0.00     0.251 C 
ATOM     28  H   UNL     1      -1.382   2.576   4.084  1.00  0.00     0.163 HD
ATOM     29  O   UNL     1      -0.745   4.042   5.935  1.00  0.00    -0.269 OA
BRANCH  27  30
ATOM     30  C   UNL     1      -2.188   5.660   5.034  1.00  0.00     0.039 A 
ATOM     31  C   UNL     1      -1.381   6.798   5.072  1.00  0.00     0.014 A 
ATOM     32  C   UNL     1      -3.567   5.769   4.843  1.00  0.00     0.014 A 
ATOM     33  C   UNL     1      -1.947   8.046   4.813  1.00  0.00     0.010 A 
ATOM     34  C   UNL     1      -4.109   6.998   4.493  1.00  0.00     0.010 A 
ATOM     35  C   UNL     1      -3.303   8.147   4.461  1.00  0.00    -0.014 A 
BRANCH  35  36
ATOM     36  C   UNL     1      -3.902   9.437   4.034  1.00  0.00     0.031 A 
ATOM     37  C   UNL     1      -5.049  10.022   4.811  1.00  0.00     0.074 A 
ATOM     38  C   UNL     1      -3.481  10.028   2.897  1.00  0.00     0.049 A 
ATOM     39  N   UNL     1      -5.781  11.070   4.536  1.00  0.00    -0.248 NA
ATOM     40  C   UNL     1      -5.452   9.311   6.036  1.00  0.00     0.031 C 
ATOM     41  C   UNL     1      -2.418   9.529   2.019  1.00  0.00     0.029 A 
ATOM     42  N   UNL     1      -3.906  11.177   2.278  1.00  0.00    -0.354 N 
ATOM     43  C   UNL     1      -6.750  11.123   5.531  1.00  0.00     0.074 A 
ATOM     44  C   UNL     1      -6.542   9.976   6.387  1.00  0.00     0.031 C 
ATOM     45  C   UNL     1      -2.254  10.383   0.996  1.00  0.00     0.029 A 
ATOM     46  C   UNL     1      -3.222  11.467   1.120  1.00  0.00     0.049 A 
ATOM     47  H   UNL     1      -4.632  11.741   2.630  1.00  0.00     0.167 HD
ATOM     48  C   UNL     1      -7.712  12.054   5.729  1.00  0.00     0.031 A 
ATOM     49  C   UNL     1      -3.361  12.490   0.254  1.00  0.00     0.031 A 
ATOM     50  C   UNL     1      -7.890  13.215   4.901  1.00  0.00     0.049 A 
ATOM     51  C   UNL     1      -4.407  13.536   0.519  1.00  0.00     0.074 A 
ATOM     52  C   UNL     1      -8.790  14.254   5.057  1.00  0.00     0.029 A 
ATOM     53  N   UNL     1      -7.145  13.496   3.766  1.00  0.00    -0.354 N 
ATOM     54  N   UNL     1      -5.277  13.600   1.499  1.00  0.00    -0.248 NA
ATOM     55  C   UNL     1      -4.484  14.654  -0.431  1.00  0.00     0.031 C 
ATOM     56  C   UNL     1      -8.609  15.151   3.998  1.00  0.00     0.029 A 
ATOM     57  C   UNL     1      -7.569  14.689   3.207  1.00  0.00     0.049 A 
ATOM     58  H   UNL     1      -6.422  12.931   3.410  1.00  0.00     0.167 HD
ATOM     59  C   UNL     1      -5.989  14.776   1.296  1.00  0.00     0.074 A 
ATOM     60  C   UNL     1      -5.440  15.399   0.109  1.00  0.00     0.031 C 
ATOM     61  C   UNL     1      -7.005  15.294   2.028  1.00  0.00     0.031 A 
BRANCH  48  62
ATOM     62  C   UNL     1      -8.639  11.849   6.896  1.00  0.00    -0.014 A 
ATOM     63  C   UNL     1      -8.183  12.000   8.218  1.00  0.00     0.010 A 
ATOM     64  C   UNL     1      -9.985  11.511   6.669  1.00  0.00     0.010 A 
ATOM     65  C   UNL     1      -9.042  11.766   9.294  1.00  0.00     0.020 A 
ATOM     66  C   UNL     1     -10.856  11.303   7.743  1.00  0.00     0.020 A 
ATOM     67  C   UNL     1     -10.372  11.412   9.049  1.00  0.00     0.054 A 
BRANCH  67  68
ATOM     68  S   UNL     1     -11.470  11.121  10.463  1.00  0.00     0.124 S 
ATOM     69  O   UNL     1     -11.046   9.794  10.903  1.00  0.00    -0.237 OA
ATOM     70  O   UNL     1     -11.132  12.219  11.366  1.00  0.00    -0.237 OA
ATOM     71  O   UNL     1     -12.808  11.187   9.881  1.00  0.00    -0.744 OA
ENDBRANCH  67  68
ENDBRANCH  48  62
BRANCH  49  72
ATOM     72  C   UNL     1      -2.464  12.590  -0.929  1.00  0.00    -0.014 A 
ATOM     73  C   UNL     1      -1.439  13.552  -0.961  1.00  0.00     0.010 A 
ATOM     74  C   UNL     1      -2.618  11.717  -2.021  1.00  0.00     0.010 A 
ATOM     75  C   UNL     1      -0.594  13.651  -2.069  1.00  0.00     0.020 A 
ATOM     76  C   UNL     1      -1.760  11.798  -3.121  1.00  0.00     0.020 A 
ATOM     77  C   UNL     1      -0.759  12.772  -3.143  1.00  0.00     0.054 A 
BRANCH  77  78
ATOM     78  S   UNL     1       0.386  12.878  -4.548  1.00  0.00     0.124 S 
ATOM     79  O   UNL     1      -0.118  14.047  -5.262  1.00  0.00    -0.237 OA
ATOM     80  O   UNL     1       1.680  13.046  -3.892  1.00  0.00    -0.237 OA
ATOM     81  O   UNL     1       0.205  11.599  -5.230  1.00  0.00    -0.744 OA
ENDBRANCH  77  78
ENDBRANCH  49  72
BRANCH  61  82
ATOM     82  C   UNL     1      -7.569  16.616   1.586  1.00  0.00    -0.014 A 
ATOM     83  C   UNL     1      -8.413  16.706   0.466  1.00  0.00     0.010 A 
ATOM     84  C   UNL     1      -7.298  17.772   2.340  1.00  0.00     0.010 A 
ATOM     85  C   UNL     1      -8.957  17.938   0.092  1.00  0.00     0.020 A 
ATOM     86  C   UNL     1      -7.857  19.000   1.983  1.00  0.00     0.020 A 
ATOM     87  C   UNL     1      -8.674  19.077   0.853  1.00  0.00     0.054 A 
BRANCH  87  88
ATOM     88  S   UNL     1      -9.432  20.656   0.379  1.00  0.00     0.124 S 
ATOM     89  O   UNL     1      -8.612  21.055  -0.761  1.00  0.00    -0.237 OA
ATOM     90  O   UNL     1     -10.806  20.273   0.062  1.00  0.00    -0.237 OA
ATOM     91  O   UNL     1      -9.283  21.482   1.575  1.00  0.00    -0.744 OA
ENDBRANCH  87  88
ENDBRANCH  61  82
ENDBRANCH  35  36
ENDBRANCH  27  30
ENDBRANCH  25  26
ENDBRANCH  24  25
ENDBRANCH   1  24
TORSDOF 17
