REMARK SMILES Cc1occc1C(=O)NN1C(=O)/C(=C\c2ccc(O[C@H](C)C(=O)NCCCCNC(=O)c3ccc(-c4c5nc(c(-c6ccc(S(=O)(=O)[O-])cc6)c6ccc([nH]6)c(-c6ccc(S(=O)(=O)[O-])cc6)c6nc(c(-c7ccc(S(=O)(=O)[O-])cc7)c7ccc4[nH]7)C=C6)C=C5)cc3)cc2)SC1=S
REMARK SMILES IDX 25 1 24 2 22 3 23 4 20 6 21 7 19 8 18 9 15 10 16 11 93 12
REMARK SMILES IDX 17 13 92 14 14 15 10 16 11 17 95 18 12 19 13 20 94 21 96 22
REMARK SMILES IDX 9 23 7 24 8 25 6 27 1 28 2 29 3 30 4 31 5 32 26 33 27 34
REMARK SMILES IDX 28 35 29 36 30 37 31 39 32 40 33 41 91 42 34 43 90 44 35 45
REMARK SMILES IDX 36 46 37 47 84 48 38 49 89 50 83 51 85 52 39 53 88 54 82 55
REMARK SMILES IDX 81 56 40 58 70 59 51 60 69 61 52 62 55 63 68 64 86 65 53 66
REMARK SMILES IDX 54 67 67 69 87 70 56 71 41 72 42 73 50 74 43 75 49 76 44 77
REMARK SMILES IDX 45 78 46 79 47 80 48 81 71 82 72 83 80 84 73 85 79 86 74 87
REMARK SMILES IDX 75 88 76 89 77 90 78 91 57 92 58 93 66 94 59 95 65 96 60 97
REMARK SMILES IDX 61 98 62 99 63 100 64 101
REMARK H PARENT 24 5 9 26 29 38 85 57 55 68
REMARK Flexibility Score: inf
ROOT
ATOM      1  C   UNL     1       4.916  -2.326  -5.674  1.00  0.00     0.116 C 
ENDROOT
BRANCH   1   2
ATOM      2  N   UNL     1       5.485  -2.770  -6.924  1.00  0.00    -0.353 N 
ATOM      3  C   UNL     1       5.934  -3.991  -7.319  1.00  0.00     0.260 C 
ATOM      4  O   UNL     1       6.224  -4.101  -8.519  1.00  0.00    -0.271 OA
ATOM      5  H   UNL     1       5.561  -2.067  -7.609  1.00  0.00     0.163 HD
BRANCH   3   6
ATOM      6  C   UNL     1       6.209  -5.181  -6.355  1.00  0.00     0.258 C 
ATOM      7  C   UNL     1       7.637  -5.085  -5.823  1.00  0.00     0.064 C 
BRANCH   6   8
ATOM      8  O   UNL     1       5.199  -5.701  -5.500  1.00  0.00    -0.481 OA
BRANCH   8   9
ATOM      9  C   UNL     1       4.949  -5.303  -4.227  1.00  0.00     0.120 A 
ATOM     10  C   UNL     1       4.110  -4.452  -1.676  1.00  0.00    -0.024 A 
ATOM     11  C   UNL     1       5.452  -4.373  -2.053  1.00  0.00     0.012 A 
ATOM     12  C   UNL     1       3.180  -4.973  -2.575  1.00  0.00     0.012 A 
ATOM     13  C   UNL     1       5.869  -4.809  -3.312  1.00  0.00     0.047 A 
ATOM     14  C   UNL     1       3.607  -5.410  -3.836  1.00  0.00     0.047 A 
BRANCH  10  15
ATOM     15  C   UNL     1       3.785  -4.060  -0.303  1.00  0.00     0.029 C 
ATOM     16  N   UNL     1       3.196  -6.954   1.814  1.00  0.00    -0.198 N 
ATOM     17  C   UNL     1       3.483  -6.418   0.569  1.00  0.00     0.285 C 
ATOM     18  C   UNL     1       3.321  -6.141   2.920  1.00  0.00     0.168 C 
ATOM     19  O   UNL     1       3.635  -7.074  -0.447  1.00  0.00    -0.266 OA
ATOM     20  C   UNL     1       3.602  -4.936   0.693  1.00  0.00     0.082 C 
ATOM     21  S   UNL     1       3.523  -4.477   2.363  1.00  0.00    -0.052 SA
ATOM     22  S   UNL     1       3.317  -6.580   4.527  1.00  0.00    -0.050 S 
BRANCH  16  23
ATOM     23  N   UNL     1       3.038  -8.332   1.871  1.00  0.00    -0.254 N 
ATOM     24  C   UNL     1       1.857  -9.028   1.988  1.00  0.00     0.273 C 
ATOM     25  O   UNL     1       1.908 -10.242   1.772  1.00  0.00    -0.267 OA
ATOM     26  H   UNL     1       3.861  -8.870   1.823  1.00  0.00     0.192 HD
BRANCH  24  27
ATOM     27  C   UNL     1       0.620  -8.428   2.475  1.00  0.00     0.082 A 
ATOM     28  C   UNL     1       0.208  -6.013   1.413  1.00  0.00     0.088 C 
ATOM     29  C   UNL     1      -0.011  -7.211   2.247  1.00  0.00     0.113 A 
ATOM     30  O   UNL     1      -1.176  -7.143   2.959  1.00  0.00    -0.469 OA
ATOM     31  C   UNL     1      -1.346  -8.323   3.591  1.00  0.00     0.196 A 
ATOM     32  C   UNL     1      -0.296  -9.154   3.313  1.00  0.00     0.056 A 
ENDBRANCH  24  27
ENDBRANCH  16  23
ENDBRANCH  10  15
ENDBRANCH   8   9
ENDBRANCH   6   8
ENDBRANCH   3   6
ENDBRANCH   1   2
BRANCH   1  33
ATOM     33  C   UNL     1       5.909  -1.567  -4.799  1.00  0.00     0.023 C 
BRANCH  33  34
ATOM     34  C   UNL     1       5.935  -0.056  -5.043  1.00  0.00     0.023 C 
BRANCH  34  35
ATOM     35  C   UNL     1       4.604   0.666  -4.833  1.00  0.00     0.116 C 
BRANCH  35  36
ATOM     36  N   UNL     1       4.013   0.452  -3.520  1.00  0.00    -0.352 N 
ATOM     37  C   UNL     1       3.186   1.297  -2.815  1.00  0.00     0.251 C 
ATOM     38  H   UNL     1       4.232  -0.402  -3.082  1.00  0.00     0.163 HD
ATOM     39  O   UNL     1       2.837   1.011  -1.674  1.00  0.00    -0.269 OA
BRANCH  37  40
ATOM     40  C   UNL     1       2.766   2.574  -3.434  1.00  0.00     0.039 A 
ATOM     41  C   UNL     1       2.967   3.764  -2.731  1.00  0.00     0.014 A 
ATOM     42  C   UNL     1       2.239   2.598  -4.728  1.00  0.00     0.014 A 
ATOM     43  C   UNL     1       2.717   4.985  -3.361  1.00  0.00     0.010 A 
ATOM     44  C   UNL     1       2.056   3.817  -5.376  1.00  0.00     0.010 A 
ATOM     45  C   UNL     1       2.304   5.023  -4.704  1.00  0.00    -0.014 A 
BRANCH  45  46
ATOM     46  C   UNL     1       2.171   6.314  -5.428  1.00  0.00     0.031 A 
ATOM     47  C   UNL     1       0.832   6.770  -5.940  1.00  0.00     0.074 A 
ATOM     48  C   UNL     1       3.274   7.046  -5.682  1.00  0.00     0.049 A 
ATOM     49  N   UNL     1       0.533   7.857  -6.605  1.00  0.00    -0.248 NA
ATOM     50  C   UNL     1      -0.314   5.880  -5.697  1.00  0.00     0.031 C 
ATOM     51  C   UNL     1       4.640   6.683  -5.296  1.00  0.00     0.029 A 
ATOM     52  N   UNL     1       3.422   8.248  -6.328  1.00  0.00    -0.354 N 
ATOM     53  C   UNL     1      -0.829   7.777  -6.870  1.00  0.00     0.074 A 
ATOM     54  C   UNL     1      -1.287   6.512  -6.338  1.00  0.00     0.031 C 
ATOM     55  C   UNL     1       5.481   7.657  -5.683  1.00  0.00     0.029 A 
ATOM     56  C   UNL     1       4.722   8.696  -6.371  1.00  0.00     0.049 A 
ATOM     57  H   UNL     1       2.669   8.744  -6.723  1.00  0.00     0.167 HD
ATOM     58  C   UNL     1      -1.631   8.683  -7.480  1.00  0.00     0.031 A 
ATOM     59  C   UNL     1       5.247   9.818  -6.901  1.00  0.00     0.031 A 
ATOM     60  C   UNL     1      -1.176   9.946  -7.999  1.00  0.00     0.049 A 
ATOM     61  C   UNL     1       4.335  10.815  -7.560  1.00  0.00     0.074 A 
ATOM     62  C   UNL     1      -1.923  10.958  -8.575  1.00  0.00     0.029 A 
ATOM     63  N   UNL     1       0.144  10.369  -8.008  1.00  0.00    -0.354 N 
ATOM     64  N   UNL     1       3.035  10.756  -7.728  1.00  0.00    -0.248 NA
ATOM     65  C   UNL     1       4.960  12.035  -8.089  1.00  0.00     0.031 C 
ATOM     66  C   UNL     1      -1.048  11.975  -8.974  1.00  0.00     0.029 A 
ATOM     67  C   UNL     1       0.237  11.618  -8.600  1.00  0.00     0.049 A 
ATOM     68  H   UNL     1       0.904   9.857  -7.647  1.00  0.00     0.167 HD
ATOM     69  C   UNL     1       2.684  11.941  -8.364  1.00  0.00     0.074 A 
ATOM     70  C   UNL     1       3.904  12.704  -8.533  1.00  0.00     0.031 C 
ATOM     71  C   UNL     1       1.460  12.360  -8.771  1.00  0.00     0.031 A 
BRANCH  58  72
ATOM     72  C   UNL     1      -3.089   8.335  -7.616  1.00  0.00    -0.014 A 
ATOM     73  C   UNL     1      -3.934   8.307  -6.491  1.00  0.00     0.010 A 
ATOM     74  C   UNL     1      -3.631   8.064  -8.886  1.00  0.00     0.010 A 
ATOM     75  C   UNL     1      -5.284   7.971  -6.627  1.00  0.00     0.020 A 
ATOM     76  C   UNL     1      -4.987   7.754  -9.029  1.00  0.00     0.020 A 
ATOM     77  C   UNL     1      -5.800   7.691  -7.896  1.00  0.00     0.054 A 
BRANCH  77  78
ATOM     78  S   UNL     1      -7.558   7.271  -8.045  1.00  0.00     0.124 S 
ATOM     79  O   UNL     1      -7.585   5.906  -7.526  1.00  0.00    -0.237 OA
ATOM     80  O   UNL     1      -8.202   8.276  -7.203  1.00  0.00    -0.237 OA
ATOM     81  O   UNL     1      -7.824   7.398  -9.476  1.00  0.00    -0.744 OA
ENDBRANCH  77  78
ENDBRANCH  58  72
BRANCH  59  82
ATOM     82  C   UNL     1       6.709  10.071  -6.801  1.00  0.00    -0.014 A 
ATOM     83  C   UNL     1       7.203  11.053  -5.924  1.00  0.00     0.010 A 
ATOM     84  C   UNL     1       7.617   9.318  -7.567  1.00  0.00     0.010 A 
ATOM     85  C   UNL     1       8.577  11.289  -5.826  1.00  0.00     0.020 A 
ATOM     86  C   UNL     1       8.994   9.533  -7.452  1.00  0.00     0.020 A 
ATOM     87  C   UNL     1       9.465  10.525  -6.589  1.00  0.00     0.054 A 
BRANCH  87  88
ATOM     88  S   UNL     1      11.248  10.803  -6.400  1.00  0.00     0.124 S 
ATOM     89  O   UNL     1      11.441  12.045  -7.141  1.00  0.00    -0.237 OA
ATOM     90  O   UNL     1      11.402  10.899  -4.950  1.00  0.00    -0.237 OA
ATOM     91  O   UNL     1      11.844   9.613  -7.003  1.00  0.00    -0.744 OA
ENDBRANCH  87  88
ENDBRANCH  59  82
BRANCH  71  92
ATOM     92  C   UNL     1       1.378  13.714  -9.424  1.00  0.00    -0.014 A 
ATOM     93  C   UNL     1       1.863  13.922 -10.727  1.00  0.00     0.010 A 
ATOM     94  C   UNL     1       0.773  14.782  -8.737  1.00  0.00     0.010 A 
ATOM     95  C   UNL     1       1.777  15.185 -11.318  1.00  0.00     0.020 A 
ATOM     96  C   UNL     1       0.662  16.040  -9.335  1.00  0.00     0.020 A 
ATOM     97  C   UNL     1       1.181  16.237 -10.616  1.00  0.00     0.054 A 
BRANCH  97  98
ATOM     98  S   UNL     1       1.053  17.860 -11.415  1.00  0.00     0.124 S 
ATOM     99  O   UNL     1       2.420  18.360 -11.307  1.00  0.00    -0.237 OA
ATOM    100  O   UNL     1       0.612  17.521 -12.767  1.00  0.00    -0.237 OA
ATOM    101  O   UNL     1       0.064  18.568 -10.604  1.00  0.00    -0.744 OA
ENDBRANCH  97  98
ENDBRANCH  71  92
ENDBRANCH  45  46
ENDBRANCH  37  40
ENDBRANCH  35  36
ENDBRANCH  34  35
ENDBRANCH  33  34
ENDBRANCH   1  33
TORSDOF 19
