REMARK SMILES CC[C@H](C)N(CC)c1cc(C)c(N)c(C(=O)NCCCCNC(=O)c2ccc(-c3c4nc(c(-c5ccc(S(=O)(=O)[O-])cc5)c5ccc([nH]5)c(-c5ccc(S(=O)(=O)[O-])cc5)c5nc(c(-c6ccc(S(=O)(=O)[O-])cc6)c6ccc3[nH]6)C=C5)C=C4)cc2)c1
REMARK SMILES IDX 19 1 18 2 17 3 15 4 16 5 14 7 8 8 9 9 85 10 10 11 11 12
REMARK SMILES IDX 12 13 5 14 3 15 4 16 2 17 1 18 6 19 7 20 13 21 20 24 21 25
REMARK SMILES IDX 22 26 23 27 24 29 25 30 26 31 84 32 27 33 83 34 28 35 29 36
REMARK SMILES IDX 30 37 77 38 31 39 82 40 76 41 78 42 32 43 81 44 75 45 74 46
REMARK SMILES IDX 33 48 63 49 44 50 62 51 45 52 48 53 61 54 79 55 46 56 47 57
REMARK SMILES IDX 60 59 80 60 49 61 34 62 35 63 43 64 36 65 42 66 37 67 38 68
REMARK SMILES IDX 39 69 40 70 41 71 64 72 65 73 73 74 66 75 72 76 67 77 68 78
REMARK SMILES IDX 69 79 70 80 71 81 50 82 51 83 59 84 52 85 58 86 53 87 54 88
REMARK SMILES IDX 55 89 56 90 57 91
REMARK H PARENT 17 6 13 22 13 23 22 28 78 47 48 58
REMARK Flexibility Score: inf
ROOT
ATOM      1  C   UNL     1      -0.720   5.500   5.888  1.00  0.00     0.023 C 
ENDROOT
BRANCH   1   2
ATOM      2  C   UNL     1      -1.328   4.367   6.720  1.00  0.00     0.116 C 
BRANCH   2   3
ATOM      3  N   UNL     1      -2.739   4.240   6.436  1.00  0.00    -0.352 N 
ATOM      4  C   UNL     1      -3.451   3.454   5.563  1.00  0.00     0.253 C 
ATOM      5  O   UNL     1      -4.672   3.640   5.559  1.00  0.00    -0.269 OA
ATOM      6  H   UNL     1      -3.305   4.837   6.977  1.00  0.00     0.163 HD
BRANCH   4   7
ATOM      7  C   UNL     1      -2.853   2.396   4.672  1.00  0.00     0.065 A 
ATOM      8  C   UNL     1      -0.923   1.396   3.505  1.00  0.00     0.038 A 
ATOM      9  C   UNL     1      -1.770   0.395   3.034  1.00  0.00     0.031 A 
ATOM     10  C   UNL     1      -1.506   2.412   4.274  1.00  0.00     0.042 A 
ATOM     11  C   UNL     1      -3.146   0.384   3.323  1.00  0.00    -0.025 A 
ATOM     12  C   UNL     1      -4.002  -0.700   2.724  1.00  0.00     0.046 C 
ATOM     13  C   UNL     1      -3.698   1.379   4.156  1.00  0.00     0.047 A 
BRANCH   8  14
ATOM     14  N   UNL     1       0.441   1.414   3.244  1.00  0.00    -0.369 N 
BRANCH  14  15
ATOM     15  C   UNL     1       1.001   1.383   1.877  1.00  0.00     0.078 C 
ATOM     16  C   UNL     1       0.932  -0.017   1.262  1.00  0.00     0.031 C 
BRANCH  15  17
ATOM     17  C   UNL     1       0.440   2.539   1.021  1.00  0.00     0.021 C 
ATOM     18  C   UNL     1       0.428   2.298  -0.480  1.00  0.00     0.006 C 
ENDBRANCH  15  17
ENDBRANCH  14  15
BRANCH  14  19
ATOM     19  C   UNL     1       1.357   1.129   4.360  1.00  0.00     0.113 C 
ATOM     20  C   UNL     1       1.726   2.383   5.138  1.00  0.00     0.027 C 
ENDBRANCH  14  19
ENDBRANCH   8  14
BRANCH  13  21
ATOM     21  N   UNL     1      -5.029   1.252   4.576  1.00  0.00    -0.398 N 
ATOM     22  H   UNL     1      -5.597   0.539   4.204  1.00  0.00     0.156 HD
ATOM     23  H   UNL     1      -5.396   1.877   5.243  1.00  0.00     0.156 HD
ENDBRANCH  13  21
ENDBRANCH   4   7
ENDBRANCH   2   3
ENDBRANCH   1   2
BRANCH   1  24
ATOM     24  C   UNL     1      -0.879   6.884   6.526  1.00  0.00     0.023 C 
BRANCH  24  25
ATOM     25  C   UNL     1      -0.166   7.050   7.864  1.00  0.00     0.116 C 
BRANCH  25  26
ATOM     26  N   UNL     1       1.259   6.772   7.791  1.00  0.00    -0.352 N 
ATOM     27  C   UNL     1       2.278   7.308   8.543  1.00  0.00     0.251 C 
ATOM     28  H   UNL     1       1.531   6.112   7.113  1.00  0.00     0.163 HD
ATOM     29  O   UNL     1       3.440   7.050   8.273  1.00  0.00    -0.269 OA
BRANCH  27  30
ATOM     30  C   UNL     1       1.948   8.230   9.652  1.00  0.00     0.039 A 
ATOM     31  C   UNL     1       2.660   9.426   9.758  1.00  0.00     0.014 A 
ATOM     32  C   UNL     1       0.931   7.931  10.562  1.00  0.00     0.014 A 
ATOM     33  C   UNL     1       2.313  10.345  10.749  1.00  0.00     0.010 A 
ATOM     34  C   UNL     1       0.531   8.885  11.493  1.00  0.00     0.010 A 
ATOM     35  C   UNL     1       1.226  10.097  11.605  1.00  0.00    -0.014 A 
BRANCH  35  36
ATOM     36  C   UNL     1       0.813  11.109  12.609  1.00  0.00     0.031 A 
ATOM     37  C   UNL     1       0.909  10.813  14.080  1.00  0.00     0.074 A 
ATOM     38  C   UNL     1       0.331  12.295  12.188  1.00  0.00     0.049 A 
ATOM     39  N   UNL     1       0.688  11.610  15.095  1.00  0.00    -0.248 NA
ATOM     40  C   UNL     1       1.276   9.442  14.464  1.00  0.00     0.031 C 
ATOM     41  C   UNL     1       0.132  12.677  10.788  1.00  0.00     0.029 A 
ATOM     42  N   UNL     1      -0.057  13.405  12.894  1.00  0.00    -0.354 N 
ATOM     43  C   UNL     1       0.881  10.836  16.233  1.00  0.00     0.074 A 
ATOM     44  C   UNL     1       1.172   9.492  15.784  1.00  0.00     0.031 C 
ATOM     45  C   UNL     1      -0.275  13.955  10.735  1.00  0.00     0.029 A 
ATOM     46  C   UNL     1      -0.398  14.471  12.095  1.00  0.00     0.049 A 
ATOM     47  H   UNL     1      -0.089  13.436  13.877  1.00  0.00     0.167 HD
ATOM     48  C   UNL     1       0.845  11.212  17.535  1.00  0.00     0.031 A 
ATOM     49  C   UNL     1      -0.743  15.732  12.418  1.00  0.00     0.031 A 
ATOM     50  C   UNL     1       0.545  12.549  17.975  1.00  0.00     0.049 A 
ATOM     51  C   UNL     1      -0.772  16.133  13.867  1.00  0.00     0.074 A 
ATOM     52  C   UNL     1       0.538  13.052  19.264  1.00  0.00     0.029 A 
ATOM     53  N   UNL     1       0.188  13.595  17.137  1.00  0.00    -0.354 N 
ATOM     54  N   UNL     1      -0.499  15.411  14.928  1.00  0.00    -0.248 NA
ATOM     55  C   UNL     1      -1.135  17.525  14.157  1.00  0.00     0.031 C 
ATOM     56  C   UNL     1       0.119  14.387  19.210  1.00  0.00     0.029 A 
ATOM     57  C   UNL     1      -0.069  14.735  17.881  1.00  0.00     0.049 A 
ATOM     58  H   UNL     1       0.125  13.537  16.156  1.00  0.00     0.167 HD
ATOM     59  C   UNL     1      -0.625  16.272  16.013  1.00  0.00     0.074 A 
ATOM     60  C   UNL     1      -0.988  17.568  15.474  1.00  0.00     0.031 C 
ATOM     61  C   UNL     1      -0.447  16.015  17.333  1.00  0.00     0.031 A 
BRANCH  48  62
ATOM     62  C   UNL     1       1.114  10.145  18.567  1.00  0.00    -0.014 A 
ATOM     63  C   UNL     1       2.382   9.542  18.682  1.00  0.00     0.010 A 
ATOM     64  C   UNL     1       0.083   9.729  19.428  1.00  0.00     0.010 A 
ATOM     65  C   UNL     1       2.591   8.495  19.585  1.00  0.00     0.020 A 
ATOM     66  C   UNL     1       0.298   8.706  20.357  1.00  0.00     0.020 A 
ATOM     67  C   UNL     1       1.543   8.076  20.409  1.00  0.00     0.054 A 
BRANCH  67  68
ATOM     68  S   UNL     1       1.831   6.698  21.552  1.00  0.00     0.124 S 
ATOM     69  O   UNL     1       1.855   5.555  20.643  1.00  0.00    -0.237 OA
ATOM     70  O   UNL     1       3.115   7.045  22.157  1.00  0.00    -0.237 OA
ATOM     71  O   UNL     1       0.686   6.752  22.457  1.00  0.00    -0.744 OA
ENDBRANCH  67  68
ENDBRANCH  48  62
BRANCH  49  72
ATOM     72  C   UNL     1      -1.011  16.720  11.338  1.00  0.00    -0.014 A 
ATOM     73  C   UNL     1      -0.084  17.743  11.070  1.00  0.00     0.010 A 
ATOM     74  C   UNL     1      -2.165  16.616  10.541  1.00  0.00     0.010 A 
ATOM     75  C   UNL     1      -0.305  18.645  10.025  1.00  0.00     0.020 A 
ATOM     76  C   UNL     1      -2.377  17.500   9.478  1.00  0.00     0.020 A 
ATOM     77  C   UNL     1      -1.447  18.512   9.230  1.00  0.00     0.054 A 
BRANCH  77  78
ATOM     78  S   UNL     1      -1.670  19.643   7.829  1.00  0.00     0.124 S 
ATOM     79  O   UNL     1      -1.996  20.898   8.499  1.00  0.00    -0.237 OA
ATOM     80  O   UNL     1      -0.364  19.595   7.176  1.00  0.00    -0.237 OA
ATOM     81  O   UNL     1      -2.760  19.036   7.070  1.00  0.00    -0.744 OA
ENDBRANCH  77  78
ENDBRANCH  49  72
BRANCH  61  82
ATOM     82  C   UNL     1      -0.610  17.171  18.286  1.00  0.00    -0.014 A 
ATOM     83  C   UNL     1      -1.868  17.746  18.538  1.00  0.00     0.010 A 
ATOM     84  C   UNL     1       0.520  17.676  18.956  1.00  0.00     0.010 A 
ATOM     85  C   UNL     1      -1.985  18.839  19.401  1.00  0.00     0.020 A 
ATOM     86  C   UNL     1       0.402  18.746  19.846  1.00  0.00     0.020 A 
ATOM     87  C   UNL     1      -0.847  19.336  20.045  1.00  0.00     0.054 A 
BRANCH  87  88
ATOM     88  S   UNL     1      -1.025  20.748  21.169  1.00  0.00     0.124 S 
ATOM     89  O   UNL     1      -1.219  21.855  20.237  1.00  0.00    -0.237 OA
ATOM     90  O   UNL     1      -2.195  20.382  21.963  1.00  0.00    -0.237 OA
ATOM     91  O   UNL     1       0.238  20.766  21.905  1.00  0.00    -0.744 OA
ENDBRANCH  87  88
ENDBRANCH  61  82
ENDBRANCH  35  36
ENDBRANCH  27  30
ENDBRANCH  25  26
ENDBRANCH  24  25
ENDBRANCH   1  24
TORSDOF 19
