REMARK SMILES NC(=O)c1cc(NC(=O)/C=C\C(=O)NCCCCNC(=O)c2ccc(-c3c4nc(c(-c5ccc(S(=O)(=O)[O-])cc5)c5ccc([nH]5)c(-c5ccc(S(=O)(=O)[O-])cc5)c5nc(c(-c6ccc(S(=O)(=O)[O-])cc6)c6ccc3[nH]6)C=C5)C=C4)cc2)ccc1N1CCOCC1
REMARK SMILES IDX 16 1 15 2 14 3 12 4 13 5 11 7 10 8 8 9 7 10 9 12 6 13 4 14
REMARK SMILES IDX 5 15 84 16 83 17 82 18 2 19 1 20 3 23 85 24 86 25 90 26
REMARK SMILES IDX 87 27 89 28 88 29 17 30 18 31 19 32 20 33 21 35 22 36 23 37
REMARK SMILES IDX 81 38 24 39 80 40 25 41 26 42 27 43 74 44 28 45 79 46 73 47
REMARK SMILES IDX 75 48 29 49 78 50 72 51 71 52 30 54 60 55 41 56 59 57 42 58
REMARK SMILES IDX 45 59 58 60 76 61 43 62 44 63 57 65 77 66 46 67 31 68 32 69
REMARK SMILES IDX 40 70 33 71 39 72 34 73 35 74 36 75 37 76 38 77 61 78 62 79
REMARK SMILES IDX 70 80 63 81 69 82 64 83 65 84 66 85 67 86 68 87 47 88 48 89
REMARK SMILES IDX 56 90 49 91 55 92 50 93 51 94 52 95 53 96 54 97
REMARK H PARENT 14 6 7 11 1 21 1 22 19 34 75 53 45 64
REMARK Flexibility Score: inf
ROOT
ATOM      1  C   UNL     1       0.243  -2.911   7.268  1.00  0.00     0.023 C 
ENDROOT
BRANCH   1   2
ATOM      2  C   UNL     1      -0.757  -1.846   6.837  1.00  0.00     0.116 C 
BRANCH   2   3
ATOM      3  N   UNL     1      -0.414  -1.118   5.637  1.00  0.00    -0.353 N 
ATOM      4  C   UNL     1      -1.018  -1.227   4.428  1.00  0.00     0.244 C 
ATOM      5  O   UNL     1      -1.205  -0.230   3.738  1.00  0.00    -0.270 OA
ATOM      6  H   UNL     1       0.333  -0.480   5.704  1.00  0.00     0.163 HD
BRANCH   4   7
ATOM      7  C   UNL     1      -1.501  -2.530   3.938  1.00  0.00     0.077 C 
ATOM      8  C   UNL     1      -0.798  -3.651   3.717  1.00  0.00     0.077 C 
BRANCH   8   9
ATOM      9  C   UNL     1       0.601  -4.030   4.031  1.00  0.00     0.248 C 
ATOM     10  N   UNL     1       1.654  -3.177   4.003  1.00  0.00    -0.322 N 
ATOM     11  H   UNL     1       2.427  -3.487   4.529  1.00  0.00     0.170 HD
ATOM     12  O   UNL     1       0.792  -5.194   4.398  1.00  0.00    -0.270 OA
BRANCH  10  13
ATOM     13  C   UNL     1       1.864  -1.945   3.376  1.00  0.00     0.042 A 
ATOM     14  C   UNL     1       1.390  -0.254   1.695  1.00  0.00     0.064 A 
ATOM     15  C   UNL     1       1.153  -1.522   2.262  1.00  0.00     0.042 A 
ATOM     16  C   UNL     1       2.399   0.591   2.190  1.00  0.00     0.050 A 
ATOM     17  C   UNL     1       3.103   0.128   3.319  1.00  0.00     0.029 A 
ATOM     18  C   UNL     1       2.862  -1.123   3.889  1.00  0.00     0.028 A 
BRANCH  14  19
ATOM     19  C   UNL     1       0.545   0.053   0.523  1.00  0.00     0.250 C 
ATOM     20  N   UNL     1       0.762  -0.740  -0.572  1.00  0.00    -0.366 N 
ATOM     21  H   UNL     1       0.239  -0.599  -1.394  1.00  0.00     0.159 HD
ATOM     22  H   UNL     1       1.442  -1.452  -0.537  1.00  0.00     0.159 HD
ATOM     23  O   UNL     1      -0.314   0.920   0.515  1.00  0.00    -0.269 OA
ENDBRANCH  14  19
BRANCH  16  24
ATOM     24  N   UNL     1       2.855   1.771   1.627  1.00  0.00    -0.366 N 
ATOM     25  C   UNL     1       1.997   2.818   1.053  1.00  0.00     0.145 C 
ATOM     26  C   UNL     1       4.207   1.734   1.041  1.00  0.00     0.145 C 
ATOM     27  C   UNL     1       2.035   2.805  -0.489  1.00  0.00     0.181 C 
ATOM     28  C   UNL     1       4.073   1.597  -0.480  1.00  0.00     0.181 C 
ATOM     29  O   UNL     1       3.373   2.729  -1.023  1.00  0.00    -0.378 OA
ENDBRANCH  16  24
ENDBRANCH  10  13
ENDBRANCH   8   9
ENDBRANCH   4   7
ENDBRANCH   2   3
ENDBRANCH   1   2
BRANCH   1  30
ATOM     30  C   UNL     1       1.685  -2.442   7.468  1.00  0.00     0.023 C 
BRANCH  30  31
ATOM     31  C   UNL     1       1.864  -1.261   8.412  1.00  0.00     0.116 C 
BRANCH  31  32
ATOM     32  N   UNL     1       1.308  -1.541   9.723  1.00  0.00    -0.352 N 
ATOM     33  C   UNL     1       1.905  -1.464  10.954  1.00  0.00     0.251 C 
ATOM     34  H   UNL     1       0.366  -1.828   9.729  1.00  0.00     0.163 HD
ATOM     35  O   UNL     1       1.370  -2.003  11.919  1.00  0.00    -0.269 OA
BRANCH  33  36
ATOM     36  C   UNL     1       3.177  -0.730  11.122  1.00  0.00     0.039 A 
ATOM     37  C   UNL     1       4.140  -1.239  11.997  1.00  0.00     0.014 A 
ATOM     38  C   UNL     1       3.392   0.490  10.473  1.00  0.00     0.014 A 
ATOM     39  C   UNL     1       5.326  -0.534  12.207  1.00  0.00     0.010 A 
ATOM     40  C   UNL     1       4.603   1.156  10.629  1.00  0.00     0.010 A 
ATOM     41  C   UNL     1       5.571   0.664  11.517  1.00  0.00    -0.014 A 
BRANCH  41  42
ATOM     42  C   UNL     1       6.814   1.441  11.740  1.00  0.00     0.031 A 
ATOM     43  C   UNL     1       6.740   2.812  12.358  1.00  0.00     0.074 A 
ATOM     44  C   UNL     1       7.996   0.936  11.339  1.00  0.00     0.049 A 
ATOM     45  N   UNL     1       7.701   3.671  12.578  1.00  0.00    -0.248 NA
ATOM     46  C   UNL     1       5.405   3.292  12.756  1.00  0.00     0.031 C 
ATOM     47  C   UNL     1       8.186  -0.368  10.697  1.00  0.00     0.029 A 
ATOM     48  N   UNL     1       9.262   1.461  11.404  1.00  0.00    -0.354 N 
ATOM     49  C   UNL     1       7.087   4.796  13.120  1.00  0.00     0.074 A 
ATOM     50  C   UNL     1       5.666   4.531  13.147  1.00  0.00     0.031 C 
ATOM     51  C   UNL     1       9.493  -0.550  10.451  1.00  0.00     0.029 A 
ATOM     52  C   UNL     1      10.228   0.636  10.879  1.00  0.00     0.049 A 
ATOM     53  H   UNL     1       9.459   2.345  11.790  1.00  0.00     0.167 HD
ATOM     54  C   UNL     1       7.657   5.938  13.572  1.00  0.00     0.031 A 
ATOM     55  C   UNL     1      11.556   0.818  10.751  1.00  0.00     0.031 A 
ATOM     56  C   UNL     1       9.075   6.186  13.553  1.00  0.00     0.049 A 
ATOM     57  C   UNL     1      12.167   2.097  11.256  1.00  0.00     0.074 A 
ATOM     58  C   UNL     1       9.763   7.286  14.034  1.00  0.00     0.029 A 
ATOM     59  N   UNL     1      10.021   5.320  13.024  1.00  0.00    -0.354 N 
ATOM     60  N   UNL     1      11.577   3.124  11.820  1.00  0.00    -0.248 NA
ATOM     61  C   UNL     1      13.623   2.235  11.120  1.00  0.00     0.031 C 
ATOM     62  C   UNL     1      11.121   7.107  13.750  1.00  0.00     0.029 A 
ATOM     63  C   UNL     1      11.285   5.870  13.148  1.00  0.00     0.049 A 
ATOM     64  H   UNL     1       9.822   4.444  12.621  1.00  0.00     0.167 HD
ATOM     65  C   UNL     1      12.594   4.020  12.131  1.00  0.00     0.074 A 
ATOM     66  C   UNL     1      13.835   3.406  11.707  1.00  0.00     0.031 C 
ATOM     67  C   UNL     1      12.508   5.240  12.717  1.00  0.00     0.031 A 
BRANCH  54  68
ATOM     68  C   UNL     1       6.745   7.007  14.118  1.00  0.00    -0.014 A 
ATOM     69  C   UNL     1       6.050   6.822  15.328  1.00  0.00     0.010 A 
ATOM     70  C   UNL     1       6.606   8.227  13.432  1.00  0.00     0.010 A 
ATOM     71  C   UNL     1       5.199   7.817  15.817  1.00  0.00     0.020 A 
ATOM     72  C   UNL     1       5.779   9.238  13.934  1.00  0.00     0.020 A 
ATOM     73  C   UNL     1       5.067   9.018  15.115  1.00  0.00     0.054 A 
BRANCH  73  74
ATOM     74  S   UNL     1       3.971  10.299  15.784  1.00  0.00     0.124 S 
ATOM     75  O   UNL     1       2.651   9.732  15.523  1.00  0.00    -0.237 OA
ATOM     76  O   UNL     1       4.364  10.354  17.190  1.00  0.00    -0.237 OA
ATOM     77  O   UNL     1       4.305  11.486  15.001  1.00  0.00    -0.744 OA
ENDBRANCH  73  74
ENDBRANCH  54  68
BRANCH  55  78
ATOM     78  C   UNL     1      12.396  -0.245  10.135  1.00  0.00    -0.014 A 
ATOM     79  C   UNL     1      13.290  -0.994  10.919  1.00  0.00     0.010 A 
ATOM     80  C   UNL     1      12.290  -0.530   8.761  1.00  0.00     0.010 A 
ATOM     81  C   UNL     1      14.076  -1.994  10.339  1.00  0.00     0.020 A 
ATOM     82  C   UNL     1      13.053  -1.548   8.183  1.00  0.00     0.020 A 
ATOM     83  C   UNL     1      13.950  -2.267   8.974  1.00  0.00     0.054 A 
BRANCH  83  84
ATOM     84  S   UNL     1      14.943  -3.604   8.253  1.00  0.00     0.124 S 
ATOM     85  O   UNL     1      16.276  -3.011   8.226  1.00  0.00    -0.237 OA
ATOM     86  O   UNL     1      14.751  -4.690   9.211  1.00  0.00    -0.237 OA
ATOM     87  O   UNL     1      14.325  -3.820   6.947  1.00  0.00    -0.744 OA
ENDBRANCH  83  84
ENDBRANCH  55  78
BRANCH  67  88
ATOM     88  C   UNL     1      13.796   5.979  12.965  1.00  0.00    -0.014 A 
ATOM     89  C   UNL     1      14.523   6.553  11.907  1.00  0.00     0.010 A 
ATOM     90  C   UNL     1      14.253   6.149  14.285  1.00  0.00     0.010 A 
ATOM     91  C   UNL     1      15.702   7.258  12.164  1.00  0.00     0.020 A 
ATOM     92  C   UNL     1      15.414   6.878  14.547  1.00  0.00     0.020 A 
ATOM     93  C   UNL     1      16.139   7.417  13.483  1.00  0.00     0.054 A 
BRANCH  93  94
ATOM     94  S   UNL     1      17.647   8.376  13.792  1.00  0.00     0.124 S 
ATOM     95  O   UNL     1      18.689   7.458  13.339  1.00  0.00    -0.237 OA
ATOM     96  O   UNL     1      17.449   9.561  12.961  1.00  0.00    -0.237 OA
ATOM     97  O   UNL     1      17.614   8.619  15.232  1.00  0.00    -0.744 OA
ENDBRANCH  93  94
ENDBRANCH  67  88
ENDBRANCH  41  42
ENDBRANCH  33  36
ENDBRANCH  31  32
ENDBRANCH  30  31
ENDBRANCH   1  30
TORSDOF 18
