REMARK SMILES CN(CCS(C)(=O)=O)S(=O)(=O)c1cc(C(=O)NCCCCNC(=O)c2ccc(-c3c4nc(c(-c5ccc(S(=O)(=O)[O-])cc5)c5ccc([nH]5)c(-c5ccc(S(=O)(=O)[O-])cc5)c5nc(c(-c6ccc(S(=O)(=O)[O-])cc6)c6ccc3[nH]6)C=C5)C=C4)cc2)ccc1F
REMARK SMILES IDX 18 1 17 2 15 3 16 4 14 6 12 7 13 8 87 9 86 10 88 11 85 12
REMARK SMILES IDX 9 13 10 14 11 15 2 16 1 17 3 18 4 19 5 20 6 21 7 22 8 23
REMARK SMILES IDX 19 24 20 25 21 26 22 27 23 28 24 30 25 31 26 32 84 33 27 34
REMARK SMILES IDX 83 35 28 36 29 37 30 38 77 39 31 40 82 41 76 42 78 43 32 44
REMARK SMILES IDX 81 45 75 46 74 47 33 49 63 50 44 51 62 52 45 53 48 54 61 55
REMARK SMILES IDX 79 56 46 57 47 58 60 60 80 61 49 62 34 63 35 64 43 65 36 66
REMARK SMILES IDX 42 67 37 68 38 69 39 70 40 71 41 72 64 73 65 74 73 75 66 76
REMARK SMILES IDX 72 77 67 78 68 79 69 80 70 81 71 82 50 83 51 84 59 85 52 86
REMARK SMILES IDX 58 87 53 88 54 89 55 90 56 91 57 92
REMARK H PARENT 17 5 22 29 78 48 48 59
REMARK Flexibility Score: inf
ROOT
ATOM      1  C   UNL     1      -0.252  -5.040   7.720  1.00  0.00     0.116 C 
ENDROOT
BRANCH   1   2
ATOM      2  N   UNL     1      -0.042  -5.653   6.421  1.00  0.00    -0.352 N 
ATOM      3  C   UNL     1       0.179  -5.136   5.172  1.00  0.00     0.251 C 
ATOM      4  O   UNL     1       0.344  -5.929   4.246  1.00  0.00    -0.269 OA
ATOM      5  H   UNL     1      -0.063  -6.637   6.442  1.00  0.00     0.163 HD
BRANCH   3   6
ATOM      6  C   UNL     1       0.251  -3.676   4.878  1.00  0.00     0.041 A 
ATOM      7  C   UNL     1       1.054  -1.923   3.394  1.00  0.00     0.119 A 
ATOM      8  C   UNL     1       0.979  -3.278   3.740  1.00  0.00     0.038 A 
ATOM      9  C   UNL     1       0.463  -0.960   4.199  1.00  0.00     0.143 A 
ATOM     10  C   UNL     1      -0.300  -1.343   5.294  1.00  0.00     0.041 A 
ATOM     11  F   UNL     1       0.519   0.342   3.891  1.00  0.00    -0.206 F 
ATOM     12  C   UNL     1      -0.438  -2.698   5.607  1.00  0.00     0.017 A 
BRANCH   7  13
ATOM     13  S   UNL     1       1.782  -1.415   1.874  1.00  0.00     0.245 S 
ATOM     14  O   UNL     1       2.020  -2.573   1.047  1.00  0.00    -0.207 OA
ATOM     15  O   UNL     1       2.874  -0.520   2.201  1.00  0.00    -0.207 OA
BRANCH  13  16
ATOM     16  N   UNL     1       0.572  -0.505   1.095  1.00  0.00    -0.200 NA
ATOM     17  C   UNL     1       1.021   0.238  -0.098  1.00  0.00     0.124 C 
BRANCH  16  18
ATOM     18  C   UNL     1      -0.860  -0.903   1.103  1.00  0.00     0.118 C 
BRANCH  18  19
ATOM     19  C   UNL     1      -1.355  -1.841   0.022  1.00  0.00     0.153 C 
BRANCH  19  20
ATOM     20  S   UNL     1      -1.592  -3.551   0.475  1.00  0.00     0.148 S 
ATOM     21  C   UNL     1      -2.423  -3.585   2.048  1.00  0.00     0.158 C 
ATOM     22  O   UNL     1      -2.524  -4.103  -0.493  1.00  0.00    -0.229 OA
ATOM     23  O   UNL     1      -0.295  -4.159   0.666  1.00  0.00    -0.229 OA
ENDBRANCH  19  20
ENDBRANCH  18  19
ENDBRANCH  16  18
ENDBRANCH  13  16
ENDBRANCH   7  13
ENDBRANCH   3   6
ENDBRANCH   1   2
BRANCH   1  24
ATOM     24  C   UNL     1      -1.737  -5.074   8.094  1.00  0.00     0.023 C 
BRANCH  24  25
ATOM     25  C   UNL     1      -2.194  -6.400   8.711  1.00  0.00     0.023 C 
BRANCH  25  26
ATOM     26  C   UNL     1      -1.543  -6.746  10.048  1.00  0.00     0.116 C 
BRANCH  26  27
ATOM     27  N   UNL     1      -1.752  -5.731  11.070  1.00  0.00    -0.352 N 
ATOM     28  C   UNL     1      -1.885  -5.899  12.428  1.00  0.00     0.251 C 
ATOM     29  H   UNL     1      -1.804  -4.803  10.746  1.00  0.00     0.163 HD
ATOM     30  O   UNL     1      -2.165  -4.939  13.139  1.00  0.00    -0.269 OA
BRANCH  28  31
ATOM     31  C   UNL     1      -1.733  -7.248  13.012  1.00  0.00     0.039 A 
ATOM     32  C   UNL     1      -2.707  -7.710  13.900  1.00  0.00     0.014 A 
ATOM     33  C   UNL     1      -0.656  -8.065  12.659  1.00  0.00     0.014 A 
ATOM     34  C   UNL     1      -2.636  -9.020  14.379  1.00  0.00     0.010 A 
ATOM     35  C   UNL     1      -0.628  -9.392  13.078  1.00  0.00     0.010 A 
ATOM     36  C   UNL     1      -1.618  -9.884  13.941  1.00  0.00    -0.014 A 
BRANCH  36  37
ATOM     37  C   UNL     1      -1.584 -11.306  14.368  1.00  0.00     0.031 A 
ATOM     38  C   UNL     1      -0.435 -11.827  15.189  1.00  0.00     0.074 A 
ATOM     39  C   UNL     1      -2.561 -12.144  13.966  1.00  0.00     0.049 A 
ATOM     40  N   UNL     1      -0.224 -13.039  15.633  1.00  0.00    -0.248 NA
ATOM     41  C   UNL     1       0.627 -10.868  15.535  1.00  0.00     0.031 C 
ATOM     42  C   UNL     1      -3.700 -11.775  13.122  1.00  0.00     0.029 A 
ATOM     43  N   UNL     1      -2.752 -13.481  14.210  1.00  0.00    -0.354 N 
ATOM     44  C   UNL     1       0.997 -12.992  16.295  1.00  0.00     0.074 A 
ATOM     45  C   UNL     1       1.506 -11.646  16.149  1.00  0.00     0.031 C 
ATOM     46  C   UNL     1      -4.487 -12.849  12.948  1.00  0.00     0.029 A 
ATOM     47  C   UNL     1      -3.892 -13.992  13.634  1.00  0.00     0.049 A 
ATOM     48  H   UNL     1      -2.131 -14.024  14.748  1.00  0.00     0.167 HD
ATOM     49  C   UNL     1       1.629 -13.974  16.983  1.00  0.00     0.031 A 
ATOM     50  C   UNL     1      -4.403 -15.238  13.655  1.00  0.00     0.031 A 
ATOM     51  C   UNL     1       1.115 -15.309  17.136  1.00  0.00     0.049 A 
ATOM     52  C   UNL     1      -3.687 -16.311  14.429  1.00  0.00     0.074 A 
ATOM     53  C   UNL     1       1.649 -16.358  17.863  1.00  0.00     0.029 A 
ATOM     54  N   UNL     1      -0.050 -15.781  16.550  1.00  0.00    -0.354 N 
ATOM     55  N   UNL     1      -2.571 -16.226  15.115  1.00  0.00    -0.248 NA
ATOM     56  C   UNL     1      -4.307 -17.642  14.447  1.00  0.00     0.031 C 
ATOM     57  C   UNL     1       0.834 -17.479  17.675  1.00  0.00     0.029 A 
ATOM     58  C   UNL     1      -0.241 -17.112  16.882  1.00  0.00     0.049 A 
ATOM     59  H   UNL     1      -0.653 -15.248  15.983  1.00  0.00     0.167 HD
ATOM     60  C   UNL     1      -2.372 -17.485  15.670  1.00  0.00     0.074 A 
ATOM     61  C   UNL     1      -3.488 -18.308  15.251  1.00  0.00     0.031 C 
ATOM     62  C   UNL     1      -1.358 -17.919  16.459  1.00  0.00     0.031 A 
BRANCH  49  63
ATOM     63  C   UNL     1       2.950 -13.636  17.622  1.00  0.00    -0.014 A 
ATOM     64  C   UNL     1       3.023 -12.758  18.720  1.00  0.00     0.010 A 
ATOM     65  C   UNL     1       4.133 -14.230  17.144  1.00  0.00     0.010 A 
ATOM     66  C   UNL     1       4.256 -12.444  19.296  1.00  0.00     0.020 A 
ATOM     67  C   UNL     1       5.365 -13.942  17.737  1.00  0.00     0.020 A 
ATOM     68  C   UNL     1       5.421 -13.035  18.798  1.00  0.00     0.054 A 
BRANCH  68  69
ATOM     69  S   UNL     1       7.006 -12.621  19.576  1.00  0.00     0.124 S 
ATOM     70  O   UNL     1       7.227 -11.258  19.101  1.00  0.00    -0.237 OA
ATOM     71  O   UNL     1       6.706 -12.749  21.000  1.00  0.00    -0.237 OA
ATOM     72  O   UNL     1       7.926 -13.623  19.044  1.00  0.00    -0.744 OA
ENDBRANCH  68  69
ENDBRANCH  49  63
BRANCH  50  73
ATOM     73  C   UNL     1      -5.676 -15.530  12.941  1.00  0.00    -0.014 A 
ATOM     74  C   UNL     1      -6.856 -15.787  13.662  1.00  0.00     0.010 A 
ATOM     75  C   UNL     1      -5.721 -15.535  11.535  1.00  0.00     0.010 A 
ATOM     76  C   UNL     1      -8.052 -16.061  12.991  1.00  0.00     0.020 A 
ATOM     77  C   UNL     1      -6.920 -15.780  10.861  1.00  0.00     0.020 A 
ATOM     78  C   UNL     1      -8.077 -16.052  11.594  1.00  0.00     0.054 A 
BRANCH  78  79
ATOM     79  S   UNL     1      -9.652 -16.355  10.745  1.00  0.00     0.124 S 
ATOM     80  O   UNL     1      -9.833 -17.789  10.943  1.00  0.00    -0.237 OA
ATOM     81  O   UNL     1     -10.575 -15.492  11.479  1.00  0.00    -0.237 OA
ATOM     82  O   UNL     1      -9.384 -15.939   9.370  1.00  0.00    -0.744 OA
ENDBRANCH  78  79
ENDBRANCH  50  73
BRANCH  62  83
ATOM     83  C   UNL     1      -1.424 -19.338  16.957  1.00  0.00    -0.014 A 
ATOM     84  C   UNL     1      -1.200 -20.427  16.098  1.00  0.00     0.010 A 
ATOM     85  C   UNL     1      -1.656 -19.579  18.324  1.00  0.00     0.010 A 
ATOM     86  C   UNL     1      -1.239 -21.735  16.591  1.00  0.00     0.020 A 
ATOM     87  C   UNL     1      -1.666 -20.882  18.826  1.00  0.00     0.020 A 
ATOM     88  C   UNL     1      -1.472 -21.953  17.952  1.00  0.00     0.054 A 
BRANCH  88  89
ATOM     89  S   UNL     1      -1.471 -23.657  18.576  1.00  0.00     0.124 S 
ATOM     90  O   UNL     1      -2.744 -24.165  18.072  1.00  0.00    -0.237 OA
ATOM     91  O   UNL     1      -0.277 -24.225  17.955  1.00  0.00    -0.237 OA
ATOM     92  O   UNL     1      -1.395 -23.495  20.026  1.00  0.00    -0.744 OA
ENDBRANCH  88  89
ENDBRANCH  62  83
ENDBRANCH  36  37
ENDBRANCH  28  31
ENDBRANCH  26  27
ENDBRANCH  25  26
ENDBRANCH  24  25
ENDBRANCH   1  24
TORSDOF 19
