REMARK SMILES Cc1cccc(-c2cc(C(=O)NCCCCNC(=O)c3ccc(-c4c5nc(c(-c6ccc(S(=O)(=O)[O-])cc6)c6ccc([nH]6)c(-c6ccc(S(=O)(=O)[O-])cc6)c6nc(c(-c7ccc(S(=O)(=O)[O-])cc7)c7ccc4[nH]7)C=C6)C=C5)cc3)ccn2)c1
REMARK SMILES IDX 15 1 14 2 13 3 12 4 10 5 11 6 9 8 7 9 8 10 82 11 81 12 80 13
REMARK SMILES IDX 6 14 1 15 2 16 3 17 83 18 4 19 5 20 16 21 17 22 18 23 19 25
REMARK SMILES IDX 20 26 21 27 79 28 22 29 78 30 23 31 24 32 25 33 72 34 26 35
REMARK SMILES IDX 77 36 71 37 73 38 27 39 76 40 70 41 69 42 28 44 58 45 39 46
REMARK SMILES IDX 57 47 40 48 43 49 56 50 74 51 41 52 42 53 55 55 75 56 44 57
REMARK SMILES IDX 29 58 30 59 38 60 31 61 37 62 32 63 33 64 34 65 35 66 36 67
REMARK SMILES IDX 59 68 60 69 68 70 61 71 67 72 62 73 63 74 64 75 65 76 66 77
REMARK SMILES IDX 45 78 46 79 54 80 47 81 53 82 48 83 49 84 50 85 51 86 52 87
REMARK H PARENT 12 7 17 24 73 43 43 54
REMARK Flexibility Score: inf
ROOT
ATOM      1  C   UNL     1      -1.413   4.107  -5.759  1.00  0.00     0.023 C 
ENDROOT
BRANCH   1   2
ATOM      2  C   UNL     1      -1.042   3.481  -4.404  1.00  0.00     0.023 C 
BRANCH   2   3
ATOM      3  C   UNL     1      -0.372   4.444  -3.417  1.00  0.00     0.116 C 
BRANCH   3   4
ATOM      4  N   UNL     1      -1.319   5.454  -2.966  1.00  0.00    -0.352 N 
ATOM      5  C   UNL     1      -2.252   5.504  -1.965  1.00  0.00     0.251 C 
ATOM      6  O   UNL     1      -2.973   6.505  -1.922  1.00  0.00    -0.269 OA
ATOM      7  H   UNL     1      -1.280   6.282  -3.498  1.00  0.00     0.163 HD
BRANCH   5   8
ATOM      8  C   UNL     1      -2.427   4.468  -0.906  1.00  0.00     0.043 A 
ATOM      9  C   UNL     1      -2.030   2.354   0.171  1.00  0.00     0.071 A 
ATOM     10  C   UNL     1      -1.900   3.185  -0.941  1.00  0.00     0.042 A 
ATOM     11  N   UNL     1      -2.749   2.697   1.263  1.00  0.00    -0.256 NA
ATOM     12  C   UNL     1      -3.305   3.926   1.260  1.00  0.00     0.112 A 
ATOM     13  C   UNL     1      -3.163   4.835   0.225  1.00  0.00     0.034 A 
BRANCH   9  14
ATOM     14  C   UNL     1      -1.288   1.091   0.222  1.00  0.00     0.000 A 
ATOM     15  C   UNL     1       2.364  -0.028   0.027  1.00  0.00     0.044 C 
ATOM     16  C   UNL     1       0.867  -0.072   0.111  1.00  0.00    -0.050 A 
ATOM     17  C   UNL     1       0.191  -1.295   0.104  1.00  0.00     0.003 A 
ATOM     18  C   UNL     1       0.120   1.110   0.175  1.00  0.00     0.013 A 
ATOM     19  C   UNL     1      -1.203  -1.334   0.175  1.00  0.00     0.001 A 
ATOM     20  C   UNL     1      -1.939  -0.148   0.242  1.00  0.00     0.010 A 
ENDBRANCH   9  14
ENDBRANCH   5   8
ENDBRANCH   3   4
ENDBRANCH   2   3
ENDBRANCH   1   2
BRANCH   1  21
ATOM     21  C   UNL     1      -0.222   4.601  -6.567  1.00  0.00     0.116 C 
BRANCH  21  22
ATOM     22  N   UNL     1       0.698   3.536  -6.884  1.00  0.00    -0.352 N 
ATOM     23  C   UNL     1       2.014   3.666  -7.222  1.00  0.00     0.251 C 
ATOM     24  H   UNL     1       0.339   2.620  -6.854  1.00  0.00     0.163 HD
ATOM     25  O   UNL     1       2.813   2.980  -6.588  1.00  0.00    -0.269 OA
BRANCH  23  26
ATOM     26  C   UNL     1       2.536   4.723  -8.172  1.00  0.00     0.039 A 
ATOM     27  C   UNL     1       3.914   4.492  -8.340  1.00  0.00     0.014 A 
ATOM     28  C   UNL     1       2.151   5.998  -7.775  1.00  0.00     0.014 A 
ATOM     29  C   UNL     1       4.763   5.092  -7.423  1.00  0.00     0.010 A 
ATOM     30  C   UNL     1       2.934   6.579  -6.811  1.00  0.00     0.010 A 
ATOM     31  C   UNL     1       4.194   6.025  -6.564  1.00  0.00    -0.014 A 
BRANCH  31  32
ATOM     32  C   UNL     1       4.861   6.534  -5.395  1.00  0.00     0.031 A 
ATOM     33  C   UNL     1       5.684   7.726  -5.607  1.00  0.00     0.074 A 
ATOM     34  C   UNL     1       4.601   5.965  -4.199  1.00  0.00     0.049 A 
ATOM     35  N   UNL     1       6.568   8.166  -4.790  1.00  0.00    -0.248 NA
ATOM     36  C   UNL     1       5.628   8.480  -6.865  1.00  0.00     0.031 C 
ATOM     37  C   UNL     1       4.922   6.485  -2.874  1.00  0.00     0.029 A 
ATOM     38  N   UNL     1       4.188   4.647  -3.957  1.00  0.00    -0.354 N 
ATOM     39  C   UNL     1       6.913   9.420  -5.237  1.00  0.00     0.074 A 
ATOM     40  C   UNL     1       6.459   9.486  -6.598  1.00  0.00     0.031 C 
ATOM     41  C   UNL     1       5.006   5.447  -2.022  1.00  0.00     0.029 A 
ATOM     42  C   UNL     1       4.901   4.233  -2.821  1.00  0.00     0.049 A 
ATOM     43  H   UNL     1       3.535   4.122  -4.475  1.00  0.00     0.167 HD
ATOM     44  C   UNL     1       7.350  10.325  -4.322  1.00  0.00     0.031 A 
ATOM     45  C   UNL     1       5.866   3.268  -2.885  1.00  0.00     0.031 A 
ATOM     46  C   UNL     1       7.718   9.637  -3.082  1.00  0.00     0.049 A 
ATOM     47  C   UNL     1       7.241   3.842  -2.546  1.00  0.00     0.074 A 
ATOM     48  C   UNL     1       7.101   9.495  -1.852  1.00  0.00     0.029 A 
ATOM     49  N   UNL     1       8.671   8.620  -3.159  1.00  0.00    -0.354 N 
ATOM     50  N   UNL     1       7.554   5.113  -2.622  1.00  0.00    -0.248 NA
ATOM     51  C   UNL     1       8.347   3.038  -2.034  1.00  0.00     0.031 C 
ATOM     52  C   UNL     1       7.583   8.282  -1.267  1.00  0.00     0.029 A 
ATOM     53  C   UNL     1       8.525   7.723  -2.117  1.00  0.00     0.049 A 
ATOM     54  H   UNL     1       9.357   8.551  -3.863  1.00  0.00     0.167 HD
ATOM     55  C   UNL     1       8.823   5.318  -2.140  1.00  0.00     0.074 A 
ATOM     56  C   UNL     1       9.278   3.979  -1.794  1.00  0.00     0.031 C 
ATOM     57  C   UNL     1       9.405   6.556  -2.037  1.00  0.00     0.031 A 
BRANCH  44  58
ATOM     58  C   UNL     1       7.149  11.818  -4.483  1.00  0.00    -0.014 A 
ATOM     59  C   UNL     1       7.410  12.678  -3.400  1.00  0.00     0.010 A 
ATOM     60  C   UNL     1       6.588  12.430  -5.627  1.00  0.00     0.010 A 
ATOM     61  C   UNL     1       7.111  14.054  -3.454  1.00  0.00     0.020 A 
ATOM     62  C   UNL     1       6.301  13.799  -5.703  1.00  0.00     0.020 A 
ATOM     63  C   UNL     1       6.556  14.606  -4.608  1.00  0.00     0.054 A 
BRANCH  63  64
ATOM     64  S   UNL     1       6.158  16.371  -4.669  1.00  0.00     0.124 S 
ATOM     65  O   UNL     1       5.129  16.496  -3.640  1.00  0.00    -0.237 OA
ATOM     66  O   UNL     1       7.441  16.994  -4.362  1.00  0.00    -0.237 OA
ATOM     67  O   UNL     1       5.686  16.575  -6.039  1.00  0.00    -0.744 OA
ENDBRANCH  63  64
ENDBRANCH  44  58
BRANCH  45  68
ATOM     68  C   UNL     1       5.544   2.123  -3.798  1.00  0.00    -0.014 A 
ATOM     69  C   UNL     1       4.426   1.323  -3.450  1.00  0.00     0.010 A 
ATOM     70  C   UNL     1       6.021   2.038  -5.118  1.00  0.00     0.010 A 
ATOM     71  C   UNL     1       3.726   0.577  -4.409  1.00  0.00     0.020 A 
ATOM     72  C   UNL     1       5.323   1.278  -6.086  1.00  0.00     0.020 A 
ATOM     73  C   UNL     1       4.154   0.589  -5.735  1.00  0.00     0.054 A 
BRANCH  73  74
ATOM     74  S   UNL     1       3.021  -0.083  -7.016  1.00  0.00     0.124 S 
ATOM     75  O   UNL     1       3.271  -1.519  -6.915  1.00  0.00    -0.237 OA
ATOM     76  O   UNL     1       1.690   0.334  -6.564  1.00  0.00    -0.237 OA
ATOM     77  O   UNL     1       3.478   0.532  -8.263  1.00  0.00    -0.744 OA
ENDBRANCH  73  74
ENDBRANCH  45  68
BRANCH  57  78
ATOM     78  C   UNL     1      10.884   6.825  -1.805  1.00  0.00    -0.014 A 
ATOM     79  C   UNL     1      11.903   5.881  -1.992  1.00  0.00     0.010 A 
ATOM     80  C   UNL     1      11.300   8.155  -1.531  1.00  0.00     0.010 A 
ATOM     81  C   UNL     1      13.257   6.230  -1.865  1.00  0.00     0.020 A 
ATOM     82  C   UNL     1      12.644   8.529  -1.467  1.00  0.00     0.020 A 
ATOM     83  C   UNL     1      13.619   7.553  -1.609  1.00  0.00     0.054 A 
BRANCH  83  84
ATOM     84  S   UNL     1      15.370   8.001  -1.530  1.00  0.00     0.124 S 
ATOM     85  O   UNL     1      15.704   7.664  -0.151  1.00  0.00    -0.237 OA
ATOM     86  O   UNL     1      15.971   7.148  -2.550  1.00  0.00    -0.237 OA
ATOM     87  O   UNL     1      15.373   9.431  -1.845  1.00  0.00    -0.744 OA
ENDBRANCH  83  84
ENDBRANCH  57  78
ENDBRANCH  31  32
ENDBRANCH  23  26
ENDBRANCH  21  22
ENDBRANCH   1  21
TORSDOF 15
