REMARK SMILES Cc1ccc(O[C@H](C)C(=O)NNC(=O)[C@@H]2[C@@H](C(=O)NCCCCNC(=O)c3ccc(-c4c5nc(c(-c6ccc(S(=O)(=O)[O-])cc6)c6ccc([nH]6)c(-c6ccc(S(=O)(=O)[O-])cc6)c6nc(c(-c7ccc(S(=O)(=O)[O-])cc7)c7ccc4[nH]7)C=C6)C=C5)cc3)[C@@H]3C=C[C@H]2C3)cc1C
REMARK SMILES IDX 20 1 19 2 17 3 18 4 16 6 15 7 90 8 87 9 89 10 91 11 88 12
REMARK SMILES IDX 13 13 12 14 14 16 11 17 9 18 10 19 7 21 8 22 6 23 5 24 1 25
REMARK SMILES IDX 2 26 3 27 93 28 4 29 92 30 94 31 21 32 22 33 23 34 24 35
REMARK SMILES IDX 25 36 26 38 27 39 28 40 86 41 29 42 85 43 30 44 31 45 32 46
REMARK SMILES IDX 79 47 33 48 84 49 78 50 80 51 34 52 83 53 77 54 76 55 35 57
REMARK SMILES IDX 65 58 46 59 64 60 47 61 50 62 63 63 81 64 48 65 49 66 62 68
REMARK SMILES IDX 82 69 51 70 36 71 37 72 45 73 38 74 44 75 39 76 40 77 41 78
REMARK SMILES IDX 42 79 43 80 66 81 67 82 75 83 68 84 74 85 69 86 70 87 71 88
REMARK SMILES IDX 72 89 73 90 52 91 53 92 61 93 54 94 60 95 55 96 56 97 57 98
REMARK SMILES IDX 58 99 59 100
REMARK H PARENT 19 5 12 15 11 20 24 37 80 56 50 67
REMARK Flexibility Score: inf
ROOT
ATOM      1  C   UNL     1       0.694   4.735   0.044  1.00  0.00     0.116 C 
ENDROOT
BRANCH   1   2
ATOM      2  N   UNL     1       0.474   5.482  -1.175  1.00  0.00    -0.356 N 
ATOM      3  C   UNL     1      -0.663   5.619  -1.909  1.00  0.00     0.224 C 
ATOM      4  O   UNL     1      -0.602   6.336  -2.909  1.00  0.00    -0.275 OA
ATOM      5  H   UNL     1       1.261   5.960  -1.524  1.00  0.00     0.163 HD
BRANCH   3   6
ATOM      6  C   UNL     1      -1.955   4.919  -1.483  1.00  0.00     0.098 C 
ATOM      7  C   UNL     1      -2.021   3.387  -1.883  1.00  0.00     0.100 C 
ATOM      8  C   UNL     1      -3.228   3.365  -2.860  1.00  0.00     0.025 C 
ATOM      9  C   UNL     1      -3.156   5.513  -2.272  1.00  0.00     0.025 C 
ATOM     10  C   UNL     1      -4.489   3.645  -2.083  1.00  0.00    -0.027 C 
ATOM     11  C   UNL     1      -3.095   4.711  -3.572  1.00  0.00     0.017 C 
ATOM     12  C   UNL     1      -4.436   4.931  -1.708  1.00  0.00    -0.027 C 
BRANCH   7  13
ATOM     13  C   UNL     1      -2.115   2.495  -0.632  1.00  0.00     0.242 C 
ATOM     14  N   UNL     1      -2.488   1.181  -0.676  1.00  0.00    -0.267 N 
ATOM     15  H   UNL     1      -2.203   0.614   0.077  1.00  0.00     0.191 HD
ATOM     16  O   UNL     1      -1.738   2.898   0.473  1.00  0.00    -0.273 OA
BRANCH  14  17
ATOM     17  N   UNL     1      -3.225   0.569  -1.671  1.00  0.00    -0.264 N 
ATOM     18  C   UNL     1      -4.174  -0.396  -1.424  1.00  0.00     0.279 C 
ATOM     19  O   UNL     1      -4.967  -0.692  -2.322  1.00  0.00    -0.269 OA
ATOM     20  H   UNL     1      -3.063   0.837  -2.604  1.00  0.00     0.191 HD
BRANCH  18  21
ATOM     21  C   UNL     1      -4.144  -1.177  -0.094  1.00  0.00     0.260 C 
ATOM     22  C   UNL     1      -2.851  -2.005  -0.063  1.00  0.00     0.064 C 
BRANCH  21  23
ATOM     23  O   UNL     1      -4.243  -0.320   1.046  1.00  0.00    -0.481 OA
BRANCH  23  24
ATOM     24  C   UNL     1      -4.517  -0.892   2.264  1.00  0.00     0.120 A 
ATOM     25  C   UNL     1      -5.128  -2.424   6.274  1.00  0.00     0.044 C 
ATOM     26  C   UNL     1      -4.938  -1.849   4.897  1.00  0.00    -0.048 A 
ATOM     27  C   UNL     1      -4.990  -2.711   3.794  1.00  0.00     0.007 A 
ATOM     28  C   UNL     1      -4.705  -0.479   4.676  1.00  0.00    -0.045 A 
ATOM     29  C   UNL     1      -4.792  -2.237   2.493  1.00  0.00     0.047 A 
ATOM     30  C   UNL     1      -4.493  -0.020   3.358  1.00  0.00     0.050 A 
ATOM     31  C   UNL     1      -4.671   0.532   5.791  1.00  0.00     0.045 C 
ENDBRANCH  23  24
ENDBRANCH  21  23
ENDBRANCH  18  21
ENDBRANCH  14  17
ENDBRANCH   7  13
ENDBRANCH   3   6
ENDBRANCH   1   2
BRANCH   1  32
ATOM     32  C   UNL     1       1.286   3.359  -0.256  1.00  0.00     0.023 C 
BRANCH  32  33
ATOM     33  C   UNL     1       2.788   3.375  -0.550  1.00  0.00     0.023 C 
BRANCH  33  34
ATOM     34  C   UNL     1       3.658   3.895   0.589  1.00  0.00     0.116 C 
BRANCH  34  35
ATOM     35  N   UNL     1       3.450   3.188   1.844  1.00  0.00    -0.352 N 
ATOM     36  C   UNL     1       4.365   2.947   2.844  1.00  0.00     0.251 C 
ATOM     37  H   UNL     1       2.543   2.838   1.997  1.00  0.00     0.163 HD
ATOM     38  O   UNL     1       4.075   2.244   3.800  1.00  0.00    -0.269 OA
BRANCH  36  39
ATOM     39  C   UNL     1       5.720   3.521   2.713  1.00  0.00     0.039 A 
ATOM     40  C   UNL     1       6.824   2.675   2.828  1.00  0.00     0.014 A 
ATOM     41  C   UNL     1       5.886   4.876   2.414  1.00  0.00     0.014 A 
ATOM     42  C   UNL     1       8.100   3.178   2.571  1.00  0.00     0.010 A 
ATOM     43  C   UNL     1       7.149   5.355   2.088  1.00  0.00     0.010 A 
ATOM     44  C   UNL     1       8.268   4.511   2.162  1.00  0.00    -0.014 A 
BRANCH  44  45
ATOM     45  C   UNL     1       9.605   5.044   1.804  1.00  0.00     0.031 A 
ATOM     46  C   UNL     1      10.214   6.152   2.619  1.00  0.00     0.074 A 
ATOM     47  C   UNL     1      10.235   4.582   0.706  1.00  0.00     0.049 A 
ATOM     48  N   UNL     1      11.338   6.792   2.428  1.00  0.00    -0.248 NA
ATOM     49  C   UNL     1       9.445   6.621   3.784  1.00  0.00     0.031 C 
ATOM     50  C   UNL     1       9.721   3.546  -0.195  1.00  0.00     0.029 A 
ATOM     51  N   UNL     1      11.442   4.930   0.155  1.00  0.00    -0.354 N 
ATOM     52  C   UNL     1      11.400   7.751   3.432  1.00  0.00     0.074 A 
ATOM     53  C   UNL     1      10.179   7.642   4.199  1.00  0.00     0.031 C 
ATOM     54  C   UNL     1      10.620   3.324  -1.168  1.00  0.00     0.029 A 
ATOM     55  C   UNL     1      11.753   4.225  -0.984  1.00  0.00     0.049 A 
ATOM     56  H   UNL     1      12.030   5.620   0.538  1.00  0.00     0.167 HD
ATOM     57  C   UNL     1      12.394   8.630   3.704  1.00  0.00     0.031 A 
ATOM     58  C   UNL     1      12.830   4.296  -1.790  1.00  0.00     0.031 A 
ATOM     59  C   UNL     1      13.616   8.721   2.950  1.00  0.00     0.049 A 
ATOM     60  C   UNL     1      13.929   5.268  -1.458  1.00  0.00     0.074 A 
ATOM     61  C   UNL     1      14.710   9.535   3.180  1.00  0.00     0.029 A 
ATOM     62  N   UNL     1      13.905   7.969   1.821  1.00  0.00    -0.354 N 
ATOM     63  N   UNL     1      13.999   6.122  -0.465  1.00  0.00    -0.248 NA
ATOM     64  C   UNL     1      15.099   5.275  -2.346  1.00  0.00     0.031 C 
ATOM     65  C   UNL     1      15.646   9.305   2.166  1.00  0.00     0.029 A 
ATOM     66  C   UNL     1      15.155   8.311   1.334  1.00  0.00     0.049 A 
ATOM     67  H   UNL     1      13.310   7.292   1.425  1.00  0.00     0.167 HD
ATOM     68  C   UNL     1      15.233   6.749  -0.593  1.00  0.00     0.074 A 
ATOM     69  C   UNL     1      15.880   6.167  -1.752  1.00  0.00     0.031 C 
ATOM     70  C   UNL     1      15.783   7.718   0.180  1.00  0.00     0.031 A 
BRANCH  57  71
ATOM     71  C   UNL     1      12.195   9.562   4.869  1.00  0.00    -0.014 A 
ATOM     72  C   UNL     1      12.213   9.083   6.192  1.00  0.00     0.010 A 
ATOM     73  C   UNL     1      12.013  10.938   4.643  1.00  0.00     0.010 A 
ATOM     74  C   UNL     1      12.005   9.954   7.264  1.00  0.00     0.020 A 
ATOM     75  C   UNL     1      11.833  11.818   5.714  1.00  0.00     0.020 A 
ATOM     76  C   UNL     1      11.812  11.317   7.017  1.00  0.00     0.054 A 
BRANCH  76  77
ATOM     77  S   UNL     1      11.561  12.428   8.428  1.00  0.00     0.124 S 
ATOM     78  O   UNL     1      10.190  12.111   8.820  1.00  0.00    -0.237 OA
ATOM     79  O   UNL     1      12.596  11.999   9.364  1.00  0.00    -0.237 OA
ATOM     80  O   UNL     1      11.754  13.760   7.859  1.00  0.00    -0.744 OA
ENDBRANCH  76  77
ENDBRANCH  57  71
BRANCH  58  81
ATOM     81  C   UNL     1      12.932   3.401  -2.974  1.00  0.00    -0.014 A 
ATOM     82  C   UNL     1      13.843   2.329  -2.980  1.00  0.00     0.010 A 
ATOM     83  C   UNL     1      12.108   3.603  -4.096  1.00  0.00     0.010 A 
ATOM     84  C   UNL     1      13.940   1.488  -4.092  1.00  0.00     0.020 A 
ATOM     85  C   UNL     1      12.184   2.748  -5.199  1.00  0.00     0.020 A 
ATOM     86  C   UNL     1      13.109   1.702  -5.194  1.00  0.00     0.054 A 
BRANCH  86  87
ATOM     87  S   UNL     1      13.213   0.564  -6.604  1.00  0.00     0.124 S 
ATOM     88  O   UNL     1      14.453   0.989  -7.246  1.00  0.00    -0.237 OA
ATOM     89  O   UNL     1      13.252  -0.743  -5.954  1.00  0.00    -0.237 OA
ATOM     90  O   UNL     1      11.991   0.840  -7.356  1.00  0.00    -0.744 OA
ENDBRANCH  86  87
ENDBRANCH  58  81
BRANCH  70  91
ATOM     91  C   UNL     1      17.166   8.187  -0.179  1.00  0.00    -0.014 A 
ATOM     92  C   UNL     1      17.391   9.003  -1.301  1.00  0.00     0.010 A 
ATOM     93  C   UNL     1      18.248   7.849   0.655  1.00  0.00     0.010 A 
ATOM     94  C   UNL     1      18.681   9.449  -1.600  1.00  0.00     0.020 A 
ATOM     95  C   UNL     1      19.535   8.315   0.373  1.00  0.00     0.020 A 
ATOM     96  C   UNL     1      19.745   9.101  -0.761  1.00  0.00     0.054 A 
BRANCH  96  97
ATOM     97  S   UNL     1      21.403   9.729  -1.145  1.00  0.00     0.124 S 
ATOM     98  O   UNL     1      21.796   8.881  -2.268  1.00  0.00    -0.237 OA
ATOM     99  O   UNL     1      21.149  11.129  -1.473  1.00  0.00    -0.237 OA
ATOM    100  O   UNL     1      22.150   9.511   0.092  1.00  0.00    -0.744 OA
ENDBRANCH  96  97
ENDBRANCH  70  91
ENDBRANCH  44  45
ENDBRANCH  36  39
ENDBRANCH  34  35
ENDBRANCH  33  34
ENDBRANCH  32  33
ENDBRANCH   1  32
TORSDOF 19
