REMARK SMILES COc1ccccc1N1CC[NH+]([C@@H](C(=O)NCCCCNC(=O)c2ccc(-c3c4nc(c(-c5ccc(S(=O)(=O)[O-])cc5)c5ccc([nH]5)c(-c5ccc(S(=O)(=O)[O-])cc5)c5nc(c(-c6ccc(S(=O)(=O)[O-])cc6)c6ccc3[nH]6)C=C5)C=C4)cc2)c2c[nH]c3ccc(OCC#N)cc23)CC1
REMARK SMILES IDX 18 1 17 2 16 3 14 4 15 5 13 7 12 8 9 9 10 10 98 11 11 12
REMARK SMILES IDX 97 13 8 15 3 16 4 17 5 18 7 19 6 20 2 21 1 22 84 23 85 24
REMARK SMILES IDX 96 25 86 26 87 27 95 28 88 30 90 31 89 32 91 33 92 34 93 35
REMARK SMILES IDX 94 36 19 37 20 38 21 39 22 40 23 42 24 43 25 44 83 45 26 46
REMARK SMILES IDX 82 47 27 48 28 49 29 50 76 51 30 52 81 53 75 54 77 55 31 56
REMARK SMILES IDX 80 57 74 58 73 59 32 61 62 62 43 63 61 64 44 65 47 66 60 67
REMARK SMILES IDX 78 68 45 69 46 70 59 72 79 73 48 74 33 75 34 76 42 77 35 78
REMARK SMILES IDX 41 79 36 80 37 81 38 82 39 83 40 84 63 85 64 86 72 87 65 88
REMARK SMILES IDX 71 89 66 90 67 91 68 92 69 93 70 94 49 95 50 96 58 97 51 98
REMARK SMILES IDX 57 99 52 100 53 101 54 102 55 103 56 104
REMARK H PARENT 16 6 12 14 86 29 21 41 77 60 47 71
REMARK Flexibility Score: inf
ROOT
ATOM      1  C   UNL     1       4.263   0.141  -2.259  1.00  0.00     0.023 C 
ENDROOT
BRANCH   1   2
ATOM      2  C   UNL     1       5.569   0.077  -1.396  1.00  0.00     0.116 C 
BRANCH   2   3
ATOM      3  N   UNL     1       5.744   1.066  -0.310  1.00  0.00    -0.351 N 
ATOM      4  C   UNL     1       5.747   1.118   1.076  1.00  0.00     0.283 C 
ATOM      5  O   UNL     1       6.117   2.213   1.526  1.00  0.00    -0.268 OA
ATOM      6  H   UNL     1       5.908   1.961  -0.686  1.00  0.00     0.163 HD
BRANCH   4   7
ATOM      7  C   UNL     1       5.382  -0.068   2.042  1.00  0.00     0.307 C 
BRANCH   7   8
ATOM      8  N   UNL     1       3.962  -0.620   2.033  1.00  0.00    -0.318 N 
ATOM      9  N   UNL     1       1.884   1.439   1.608  1.00  0.00    -0.357 N 
ATOM     10  C   UNL     1       2.481   1.253   2.937  1.00  0.00     0.178 C 
ATOM     11  C   UNL     1       2.729   0.977   0.506  1.00  0.00     0.178 C 
ATOM     12  C   UNL     1       2.957  -0.205   3.038  1.00  0.00     0.284 C 
ATOM     13  C   UNL     1       3.255  -0.460   0.766  1.00  0.00     0.284 C 
ATOM     14  H   UNL     1       4.253  -1.570   2.264  1.00  0.00     0.349 HD
BRANCH   9  15
ATOM     15  C   UNL     1       1.242   2.650   1.327  1.00  0.00     0.080 A 
ATOM     16  C   UNL     1       0.016   2.720   0.634  1.00  0.00     0.142 A 
ATOM     17  C   UNL     1      -0.540   3.979   0.347  1.00  0.00     0.048 A 
ATOM     18  C   UNL     1       0.098   5.162   0.715  1.00  0.00     0.004 A 
ATOM     19  C   UNL     1       1.879   3.865   1.671  1.00  0.00     0.030 A 
ATOM     20  C   UNL     1       1.317   5.106   1.372  1.00  0.00     0.002 A 
BRANCH  16  21
ATOM     21  O   UNL     1      -0.781   1.706   0.167  1.00  0.00    -0.495 OA
ATOM     22  C   UNL     1      -0.430   0.350   0.374  1.00  0.00     0.278 C 
ENDBRANCH  16  21
ENDBRANCH   9  15
ENDBRANCH   7   8
BRANCH   7  23
ATOM     23  C   UNL     1       5.889   0.078   3.523  1.00  0.00     0.044 A 
ATOM     24  C   UNL     1       6.298  -0.997   4.306  1.00  0.00     0.094 A 
ATOM     25  C   UNL     1       5.490   0.996   4.569  1.00  0.00     0.013 A 
ATOM     26  N   UNL     1       5.328  -1.103   5.265  1.00  0.00    -0.361 N 
ATOM     27  C   UNL     1       4.870   0.169   5.517  1.00  0.00     0.046 A 
ATOM     28  C   UNL     1       5.481   2.382   4.833  1.00  0.00     0.057 A 
ATOM     29  H   UNL     1       5.018  -1.933   5.694  1.00  0.00     0.166 HD
ATOM     30  C   UNL     1       3.930   0.633   6.437  1.00  0.00     0.030 A 
ATOM     31  C   UNL     1       4.778   2.832   5.966  1.00  0.00     0.121 A 
ATOM     32  C   UNL     1       3.867   2.008   6.619  1.00  0.00     0.048 A 
BRANCH  31  33
ATOM     33  O   UNL     1       5.000   4.104   6.411  1.00  0.00    -0.479 OA
BRANCH  33  34
ATOM     34  C   UNL     1       5.449   4.238   7.795  1.00  0.00     0.349 C 
BRANCH  34  35
ATOM     35  C   UNL     1       5.709   3.035   8.604  1.00  0.00     0.104 C 
ATOM     36  N   UNL     1       5.890   2.102   9.304  1.00  0.00    -0.195 NA
ENDBRANCH  34  35
ENDBRANCH  33  34
ENDBRANCH  31  33
ENDBRANCH   7  23
ENDBRANCH   4   7
ENDBRANCH   2   3
ENDBRANCH   1   2
BRANCH   1  37
ATOM     37  C   UNL     1       3.638   1.518  -2.510  1.00  0.00     0.023 C 
BRANCH  37  38
ATOM     38  C   UNL     1       3.774   2.013  -3.933  1.00  0.00     0.116 C 
BRANCH  38  39
ATOM     39  N   UNL     1       2.893   1.313  -4.862  1.00  0.00    -0.352 N 
ATOM     40  C   UNL     1       2.209   1.832  -5.941  1.00  0.00     0.251 C 
ATOM     41  H   UNL     1       2.772   0.349  -4.698  1.00  0.00     0.163 HD
ATOM     42  O   UNL     1       1.396   1.142  -6.548  1.00  0.00    -0.269 OA
BRANCH  40  43
ATOM     43  C   UNL     1       2.444   3.240  -6.338  1.00  0.00     0.039 A 
ATOM     44  C   UNL     1       1.364   4.047  -6.709  1.00  0.00     0.014 A 
ATOM     45  C   UNL     1       3.733   3.773  -6.305  1.00  0.00     0.014 A 
ATOM     46  C   UNL     1       1.576   5.401  -6.987  1.00  0.00     0.010 A 
ATOM     47  C   UNL     1       3.924   5.137  -6.460  1.00  0.00     0.010 A 
ATOM     48  C   UNL     1       2.854   5.961  -6.835  1.00  0.00    -0.014 A 
BRANCH  48  49
ATOM     49  C   UNL     1       3.142   7.386  -7.130  1.00  0.00     0.031 A 
ATOM     50  C   UNL     1       4.145   7.716  -8.206  1.00  0.00     0.074 A 
ATOM     51  C   UNL     1       2.588   8.361  -6.383  1.00  0.00     0.049 A 
ATOM     52  N   UNL     1       4.665   8.872  -8.525  1.00  0.00    -0.248 NA
ATOM     53  C   UNL     1       4.665   6.587  -9.000  1.00  0.00     0.031 C 
ATOM     54  C   UNL     1       1.634   8.159  -5.290  1.00  0.00     0.029 A 
ATOM     55  N   UNL     1       2.759   9.721  -6.425  1.00  0.00    -0.354 N 
ATOM     56  C   UNL     1       5.592   8.602  -9.527  1.00  0.00     0.074 A 
ATOM     57  C   UNL     1       5.612   7.170  -9.717  1.00  0.00     0.031 C 
ATOM     58  C   UNL     1       1.284   9.354  -4.785  1.00  0.00     0.029 A 
ATOM     59  C   UNL     1       2.022  10.401  -5.483  1.00  0.00     0.049 A 
ATOM     60  H   UNL     1       3.353  10.170  -7.070  1.00  0.00     0.167 HD
ATOM     61  C   UNL     1       6.339   9.471 -10.246  1.00  0.00     0.031 A 
ATOM     62  C   UNL     1       1.960  11.718  -5.209  1.00  0.00     0.031 A 
ATOM     63  C   UNL     1       6.282  10.896 -10.075  1.00  0.00     0.049 A 
ATOM     64  C   UNL     1       2.797  12.668  -6.027  1.00  0.00     0.074 A 
ATOM     65  C   UNL     1       6.952  11.876 -10.784  1.00  0.00     0.029 A 
ATOM     66  N   UNL     1       5.495  11.545  -9.134  1.00  0.00    -0.354 N 
ATOM     67  N   UNL     1       3.634  12.398  -7.001  1.00  0.00    -0.248 NA
ATOM     68  C   UNL     1       2.670  14.098  -5.719  1.00  0.00     0.031 C 
ATOM     69  C   UNL     1       6.604  13.117 -10.242  1.00  0.00     0.029 A 
ATOM     70  C   UNL     1       5.670  12.912  -9.238  1.00  0.00     0.049 A 
ATOM     71  H   UNL     1       4.901  11.098  -8.489  1.00  0.00     0.167 HD
ATOM     72  C   UNL     1       4.103  13.629  -7.448  1.00  0.00     0.074 A 
ATOM     73  C   UNL     1       3.450  14.641  -6.644  1.00  0.00     0.031 C 
ATOM     74  C   UNL     1       4.991  13.899  -8.437  1.00  0.00     0.031 A 
BRANCH  61  75
ATOM     75  C   UNL     1       7.268   8.903 -11.288  1.00  0.00    -0.014 A 
ATOM     76  C   UNL     1       6.766   8.285 -12.448  1.00  0.00     0.010 A 
ATOM     77  C   UNL     1       8.660   9.022 -11.126  1.00  0.00     0.010 A 
ATOM     78  C   UNL     1       7.637   7.761 -13.406  1.00  0.00     0.020 A 
ATOM     79  C   UNL     1       9.535   8.528 -12.098  1.00  0.00     0.020 A 
ATOM     80  C   UNL     1       9.017   7.887 -13.225  1.00  0.00     0.054 A 
BRANCH  80  81
ATOM     81  S   UNL     1      10.123   7.230 -14.504  1.00  0.00     0.124 S 
ATOM     82  O   UNL     1       9.982   5.788 -14.312  1.00  0.00    -0.237 OA
ATOM     83  O   UNL     1       9.538   7.759 -15.733  1.00  0.00    -0.237 OA
ATOM     84  O   UNL     1      11.429   7.780 -14.151  1.00  0.00    -0.744 OA
ENDBRANCH  80  81
ENDBRANCH  61  75
BRANCH  62  85
ATOM     85  C   UNL     1       1.064  12.222  -4.131  1.00  0.00    -0.014 A 
ATOM     86  C   UNL     1      -0.074  12.986  -4.448  1.00  0.00     0.010 A 
ATOM     87  C   UNL     1       1.343  11.945  -2.780  1.00  0.00     0.010 A 
ATOM     88  C   UNL     1      -0.896  13.489  -3.435  1.00  0.00     0.020 A 
ATOM     89  C   UNL     1       0.505  12.420  -1.766  1.00  0.00     0.020 A 
ATOM     90  C   UNL     1      -0.600  13.205  -2.100  1.00  0.00     0.054 A 
BRANCH  90  91
ATOM     91  S   UNL     1      -1.696  13.848  -0.804  1.00  0.00     0.124 S 
ATOM     92  O   UNL     1      -1.368  15.269  -0.807  1.00  0.00    -0.237 OA
ATOM     93  O   UNL     1      -3.022  13.502  -1.313  1.00  0.00    -0.237 OA
ATOM     94  O   UNL     1      -1.284  13.111   0.389  1.00  0.00    -0.744 OA
ENDBRANCH  90  91
ENDBRANCH  62  85
BRANCH  74  95
ATOM     95  C   UNL     1       5.263  15.345  -8.752  1.00  0.00    -0.014 A 
ATOM     96  C   UNL     1       6.027  16.151  -7.892  1.00  0.00     0.010 A 
ATOM     97  C   UNL     1       4.809  15.876  -9.974  1.00  0.00     0.010 A 
ATOM     98  C   UNL     1       6.311  17.474  -8.238  1.00  0.00     0.020 A 
ATOM     99  C   UNL     1       5.118  17.188 -10.336  1.00  0.00     0.020 A 
ATOM    100  C   UNL     1       5.858  17.983  -9.459  1.00  0.00     0.054 A 
BRANCH 100 101
ATOM    101  S   UNL     1       6.294  19.684  -9.911  1.00  0.00     0.124 S 
ATOM    102  O   UNL     1       5.439  20.463  -9.021  1.00  0.00    -0.237 OA
ATOM    103  O   UNL     1       7.724  19.736  -9.616  1.00  0.00    -0.237 OA
ATOM    104  O   UNL     1       5.954  19.764 -11.330  1.00  0.00    -0.744 OA
ENDBRANCH 100 101
ENDBRANCH  74  95
ENDBRANCH  48  49
ENDBRANCH  40  43
ENDBRANCH  38  39
ENDBRANCH  37  38
ENDBRANCH   1  37
TORSDOF 21
