REMARK SMILES Cc1cccc(NC(=O)C[C@H]([NH2+]C(C)C)C(=O)NCCCCNC(=O)c2ccc(-c3c4nc(c(-c5ccc(S(=O)(=O)[O-])cc5)c5ccc([nH]5)c(-c5ccc(S(=O)(=O)[O-])cc5)c5nc(c(-c6ccc(S(=O)(=O)[O-])cc6)c6ccc3[nH]6)C=C5)C=C4)cc2)c1
REMARK SMILES IDX 20 1 19 2 18 3 16 4 17 5 11 7 10 8 8 9 7 10 9 12 6 13 1 14
REMARK SMILES IDX 2 15 3 16 86 17 4 18 5 19 12 20 13 23 14 24 15 25 21 26
REMARK SMILES IDX 22 27 23 28 24 29 25 31 26 32 27 33 85 34 28 35 84 36 29 37
REMARK SMILES IDX 30 38 31 39 78 40 32 41 83 42 77 43 79 44 33 45 82 46 76 47
REMARK SMILES IDX 75 48 34 50 64 51 45 52 63 53 46 54 49 55 62 56 80 57 47 58
REMARK SMILES IDX 48 59 61 61 81 62 50 63 35 64 36 65 44 66 37 67 43 68 38 69
REMARK SMILES IDX 39 70 40 71 41 72 42 73 65 74 66 75 74 76 67 77 73 78 68 79
REMARK SMILES IDX 69 80 70 81 71 82 72 83 51 84 52 85 60 86 53 87 59 88 54 89
REMARK SMILES IDX 55 90 56 91 57 92 58 93
REMARK H PARENT 18 6 7 11 12 21 12 22 23 30 79 49 49 60
REMARK Flexibility Score: inf
ROOT
ATOM      1  C   UNL     1      -3.587  -1.993   3.441  1.00  0.00     0.023 C 
ENDROOT
BRANCH   1   2
ATOM      2  C   UNL     1      -3.289  -2.272   1.729  1.00  0.00     0.116 C 
BRANCH   2   3
ATOM      3  N   UNL     1      -4.346  -1.644   0.036  1.00  0.00    -0.351 N 
ATOM      4  C   UNL     1      -4.593  -0.906  -1.111  1.00  0.00     0.278 C 
ATOM      5  O   UNL     1      -5.489  -1.414  -1.819  1.00  0.00    -0.268 OA
ATOM      6  H   UNL     1      -5.149  -2.212   0.082  1.00  0.00     0.163 HD
BRANCH   4   7
ATOM      7  C   UNL     1      -4.020   0.434  -1.593  1.00  0.00     0.282 C 
BRANCH   7   8
ATOM      8  C   UNL     1      -2.512   0.459  -1.959  1.00  0.00     0.175 C 
BRANCH   8   9
ATOM      9  C   UNL     1      -1.813  -0.865  -2.329  1.00  0.00     0.230 C 
ATOM     10  N   UNL     1      -1.736  -1.941  -1.481  1.00  0.00    -0.326 N 
ATOM     11  H   UNL     1      -1.171  -2.697  -1.762  1.00  0.00     0.169 HD
ATOM     12  O   UNL     1      -1.279  -0.970  -3.440  1.00  0.00    -0.274 OA
BRANCH  10  13
ATOM     13  C   UNL     1      -2.394  -2.057  -0.248  1.00  0.00     0.041 A 
ATOM     14  C   UNL     1      -6.008  -4.458   0.983  1.00  0.00     0.044 C 
ATOM     15  C   UNL     1      -4.968  -3.385   0.989  1.00  0.00    -0.049 A 
ATOM     16  C   UNL     1      -5.379  -1.794   1.762  1.00  0.00     0.003 A 
ATOM     17  C   UNL     1      -3.488  -3.496  -0.071  1.00  0.00     0.029 A 
ATOM     18  C   UNL     1      -4.233  -0.387   1.634  1.00  0.00     0.002 A 
ATOM     19  C   UNL     1      -2.731  -0.523   0.663  1.00  0.00     0.026 A 
ENDBRANCH  10  13
ENDBRANCH   8   9
ENDBRANCH   7   8
BRANCH   7  20
ATOM     20  N   UNL     1      -4.545   1.608  -0.791  1.00  0.00    -0.334 N 
ATOM     21  H   UNL     1      -4.627   2.407  -1.420  1.00  0.00     0.347 HD
ATOM     22  H   UNL     1      -3.878   1.749  -0.032  1.00  0.00     0.347 HD
BRANCH  20  23
ATOM     23  C   UNL     1      -5.864   1.400  -0.140  1.00  0.00     0.176 C 
ATOM     24  C   UNL     1      -6.027   2.351   1.056  1.00  0.00     0.075 C 
ATOM     25  C   UNL     1      -7.104   1.419  -1.024  1.00  0.00     0.075 C 
ENDBRANCH  20  23
ENDBRANCH   7  20
ENDBRANCH   4   7
ENDBRANCH   2   3
ENDBRANCH   1   2
BRANCH   1  26
ATOM     26  C   UNL     1      -4.513  -2.944   4.220  1.00  0.00     0.023 C 
BRANCH  26  27
ATOM     27  C   UNL     1      -4.083  -4.379   4.085  1.00  0.00     0.116 C 
BRANCH  27  28
ATOM     28  N   UNL     1      -4.020  -5.092   5.338  1.00  0.00    -0.352 N 
ATOM     29  C   UNL     1      -4.000  -6.468   5.450  1.00  0.00     0.251 C 
ATOM     30  H   UNL     1      -3.989  -4.562   6.168  1.00  0.00     0.163 HD
ATOM     31  O   UNL     1      -4.497  -7.098   6.372  1.00  0.00    -0.269 OA
BRANCH  29  32
ATOM     32  C   UNL     1      -3.202  -7.154   4.418  1.00  0.00     0.039 A 
ATOM     33  C   UNL     1      -1.907  -7.537   4.791  1.00  0.00     0.014 A 
ATOM     34  C   UNL     1      -3.576  -6.992   3.085  1.00  0.00     0.014 A 
ATOM     35  C   UNL     1      -0.930  -7.595   3.816  1.00  0.00     0.010 A 
ATOM     36  C   UNL     1      -2.579  -6.854   2.160  1.00  0.00     0.010 A 
ATOM     37  C   UNL     1      -1.271  -7.158   2.536  1.00  0.00    -0.014 A 
BRANCH  37  38
ATOM     38  C   UNL     1      -0.377  -7.253   1.409  1.00  0.00     0.031 A 
ATOM     39  C   UNL     1      -0.377  -8.603   0.821  1.00  0.00     0.074 A 
ATOM     40  C   UNL     1       0.258  -6.136   1.003  1.00  0.00     0.049 A 
ATOM     41  N   UNL     1       0.657  -9.226   0.401  1.00  0.00    -0.248 NA
ATOM     42  C   UNL     1      -1.579  -9.457   0.818  1.00  0.00     0.031 C 
ATOM     43  C   UNL     1       1.112  -5.897  -0.151  1.00  0.00     0.029 A 
ATOM     44  N   UNL     1       0.420  -4.986   1.782  1.00  0.00    -0.354 N 
ATOM     45  C   UNL     1       0.175 -10.305  -0.314  1.00  0.00     0.074 A 
ATOM     46  C   UNL     1      -1.150 -10.544   0.175  1.00  0.00     0.031 C 
ATOM     47  C   UNL     1       1.953  -4.883   0.146  1.00  0.00     0.029 A 
ATOM     48  C   UNL     1       1.717  -4.512   1.539  1.00  0.00     0.049 A 
ATOM     49  H   UNL     1      -0.248  -4.587   2.386  1.00  0.00     0.167 HD
ATOM     50  C   UNL     1       0.843 -10.679  -1.437  1.00  0.00     0.031 A 
ATOM     51  C   UNL     1       2.635  -4.623   2.545  1.00  0.00     0.031 A 
ATOM     52  C   UNL     1       2.018  -9.824  -1.593  1.00  0.00     0.049 A 
ATOM     53  C   UNL     1       3.667  -5.688   2.222  1.00  0.00     0.074 A 
ATOM     54  C   UNL     1       2.232  -8.675  -2.337  1.00  0.00     0.029 A 
ATOM     55  N   UNL     1       2.973  -9.828  -0.587  1.00  0.00    -0.354 N 
ATOM     56  N   UNL     1       3.454  -6.718   1.444  1.00  0.00    -0.248 NA
ATOM     57  C   UNL     1       5.052  -5.601   2.671  1.00  0.00     0.031 C 
ATOM     58  C   UNL     1       3.287  -7.949  -1.712  1.00  0.00     0.029 A 
ATOM     59  C   UNL     1       3.706  -8.658  -0.598  1.00  0.00     0.049 A 
ATOM     60  H   UNL     1       3.109 -10.566   0.050  1.00  0.00     0.167 HD
ATOM     61  C   UNL     1       4.637  -7.382   1.226  1.00  0.00     0.074 A 
ATOM     62  C   UNL     1       5.603  -6.639   2.019  1.00  0.00     0.031 C 
ATOM     63  C   UNL     1       4.757  -8.464   0.395  1.00  0.00     0.031 A 
BRANCH  50  64
ATOM     64  C   UNL     1       0.287 -11.546  -2.538  1.00  0.00    -0.014 A 
ATOM     65  C   UNL     1       0.924 -11.502  -3.795  1.00  0.00     0.010 A 
ATOM     66  C   UNL     1      -0.829 -12.401  -2.435  1.00  0.00     0.010 A 
ATOM     67  C   UNL     1       0.469 -12.244  -4.890  1.00  0.00     0.020 A 
ATOM     68  C   UNL     1      -1.306 -13.143  -3.530  1.00  0.00     0.020 A 
ATOM     69  C   UNL     1      -0.647 -13.063  -4.752  1.00  0.00     0.054 A 
BRANCH  69  70
ATOM     70  S   UNL     1      -1.182 -14.040  -6.178  1.00  0.00     0.124 S 
ATOM     71  O   UNL     1      -1.481 -13.010  -7.169  1.00  0.00    -0.237 OA
ATOM     72  O   UNL     1      -0.004 -14.858  -6.455  1.00  0.00    -0.237 OA
ATOM     73  O   UNL     1      -2.343 -14.775  -5.681  1.00  0.00    -0.744 OA
ENDBRANCH  69  70
ENDBRANCH  50  64
BRANCH  51  74
ATOM     74  C   UNL     1       2.049  -4.317   3.894  1.00  0.00    -0.014 A 
ATOM     75  C   UNL     1       1.563  -3.003   4.114  1.00  0.00     0.010 A 
ATOM     76  C   UNL     1       1.627  -5.328   4.771  1.00  0.00     0.010 A 
ATOM     77  C   UNL     1       0.608  -2.732   5.103  1.00  0.00     0.020 A 
ATOM     78  C   UNL     1       0.674  -5.057   5.774  1.00  0.00     0.020 A 
ATOM     79  C   UNL     1       0.156  -3.767   5.920  1.00  0.00     0.054 A 
BRANCH  79  80
ATOM     80  S   UNL     1      -1.170  -3.418   7.111  1.00  0.00     0.124 S 
ATOM     81  O   UNL     1      -0.484  -2.613   8.114  1.00  0.00    -0.237 OA
ATOM     82  O   UNL     1      -2.153  -2.703   6.301  1.00  0.00    -0.237 OA
ATOM     83  O   UNL     1      -1.611  -4.740   7.542  1.00  0.00    -0.744 OA
ENDBRANCH  79  80
ENDBRANCH  51  74
BRANCH  63  84
ATOM     84  C   UNL     1       5.911  -9.452   0.382  1.00  0.00    -0.014 A 
ATOM     85  C   UNL     1       6.957  -9.460   1.311  1.00  0.00     0.010 A 
ATOM     86  C   UNL     1       5.896 -10.527  -0.549  1.00  0.00     0.010 A 
ATOM     87  C   UNL     1       7.967 -10.427   1.269  1.00  0.00     0.020 A 
ATOM     88  C   UNL     1       6.847 -11.546  -0.547  1.00  0.00     0.020 A 
ATOM     89  C   UNL     1       7.903 -11.466   0.343  1.00  0.00     0.054 A 
BRANCH  89  90
ATOM     90  S   UNL     1       9.205 -12.712   0.341  1.00  0.00     0.124 S 
ATOM     91  O   UNL     1      10.328 -11.966  -0.222  1.00  0.00    -0.237 OA
ATOM     92  O   UNL     1       9.322 -13.049   1.758  1.00  0.00    -0.237 OA
ATOM     93  O   UNL     1       8.671 -13.775  -0.506  1.00  0.00    -0.744 OA
ENDBRANCH  89  90
ENDBRANCH  63  84
ENDBRANCH  37  38
ENDBRANCH  29  32
ENDBRANCH  27  28
ENDBRANCH  26  27
ENDBRANCH   1  26
TORSDOF 19
