REMARK SMILES Cc1cc(C(=O)NCCCCNC(=O)c2ccc(-c3c4nc(c(-c5ccc(S(=O)(=O)[O-])cc5)c5ccc([nH]5)c(-c5ccc(S(=O)(=O)[O-])cc5)c5nc(c(-c6ccc(S(=O)(=O)[O-])cc6)c6ccc3[nH]6)C=C5)C=C4)cc2)ccc1NC(=O)N1C[C@@H](C)[C@H](C)C1
REMARK SMILES IDX 10 1 9 2 8 3 7 4 5 5 6 6 4 8 1 9 2 10 3 11 77 12 76 13 75 14
REMARK SMILES IDX 78 15 79 16 80 18 81 19 82 20 87 21 83 22 85 23 84 24 86 25
REMARK SMILES IDX 11 26 12 27 13 28 14 30 15 31 16 32 74 33 17 34 73 35 18 36
REMARK SMILES IDX 19 37 20 38 67 39 21 40 72 41 66 42 68 43 22 44 71 45 65 46
REMARK SMILES IDX 64 47 23 49 53 50 34 51 52 52 35 53 38 54 51 55 69 56 36 57
REMARK SMILES IDX 37 58 50 60 70 61 39 62 24 63 25 64 33 65 26 66 32 67 27 68
REMARK SMILES IDX 28 69 29 70 30 71 31 72 54 73 55 74 63 75 56 76 62 77 57 78
REMARK SMILES IDX 58 79 59 80 60 81 61 82 40 83 41 84 49 85 42 86 48 87 43 88
REMARK SMILES IDX 44 89 45 90 46 91 47 92
REMARK H PARENT 7 7 78 17 12 29 68 48 38 59
REMARK Flexibility Score: inf
ROOT
ATOM      1  C   UNL     1      -5.708  -2.052  -2.014  1.00  0.00     0.023 C 
ENDROOT
BRANCH   1   2
ATOM      2  C   UNL     1      -4.893  -0.963  -1.322  1.00  0.00     0.023 C 
BRANCH   2   3
ATOM      3  C   UNL     1      -4.106  -1.420  -0.080  1.00  0.00     0.116 C 
BRANCH   3   4
ATOM      4  N   UNL     1      -3.125  -2.472  -0.354  1.00  0.00    -0.352 N 
ATOM      5  C   UNL     1      -1.751  -2.440  -0.447  1.00  0.00     0.251 C 
ATOM      6  O   UNL     1      -1.122  -3.497  -0.475  1.00  0.00    -0.269 OA
ATOM      7  H   UNL     1      -3.518  -3.363  -0.497  1.00  0.00     0.163 HD
BRANCH   5   8
ATOM      8  C   UNL     1      -1.002  -1.159  -0.489  1.00  0.00     0.040 A 
ATOM      9  C   UNL     1       2.380   0.145   0.647  1.00  0.00     0.046 C 
ATOM     10  C   UNL     1       0.965   0.167   0.138  1.00  0.00    -0.027 A 
ATOM     11  C   UNL     1       0.269  -1.064   0.093  1.00  0.00     0.019 A 
ATOM     12  C   UNL     1       0.324   1.320  -0.348  1.00  0.00     0.045 A 
ATOM     13  C   UNL     1      -0.858   1.169  -1.079  1.00  0.00     0.027 A 
ATOM     14  C   UNL     1      -1.494  -0.060  -1.170  1.00  0.00     0.016 A 
BRANCH  12  15
ATOM     15  N   UNL     1       0.863   2.609  -0.159  1.00  0.00    -0.308 N 
ATOM     16  C   UNL     1       0.244   3.817  -0.349  1.00  0.00     0.321 C 
ATOM     17  H   UNL     1       1.798   2.646   0.147  1.00  0.00     0.171 HD
ATOM     18  O   UNL     1       0.904   4.767  -0.771  1.00  0.00    -0.248 OA
ATOM     19  N   UNL     1      -1.089   3.928  -0.040  1.00  0.00    -0.324 N 
ATOM     20  C   UNL     1      -1.947   4.898  -0.695  1.00  0.00     0.125 C 
ATOM     21  C   UNL     1      -1.724   3.388   1.161  1.00  0.00     0.125 C 
ATOM     22  C   UNL     1      -3.112   5.128   0.267  1.00  0.00     0.010 C 
ATOM     23  C   UNL     1      -3.192   3.804   1.050  1.00  0.00     0.010 C 
ATOM     24  C   UNL     1      -4.408   5.482  -0.446  1.00  0.00     0.010 C 
ATOM     25  C   UNL     1      -3.884   3.950   2.402  1.00  0.00     0.010 C 
ENDBRANCH  12  15
ENDBRANCH   5   8
ENDBRANCH   3   4
ENDBRANCH   2   3
ENDBRANCH   1   2
BRANCH   1  26
ATOM     26  C   UNL     1      -6.965  -2.420  -1.242  1.00  0.00     0.116 C 
BRANCH  26  27
ATOM     27  N   UNL     1      -8.199  -2.078  -1.935  1.00  0.00    -0.352 N 
ATOM     28  C   UNL     1      -9.504  -2.390  -1.565  1.00  0.00     0.251 C 
ATOM     29  H   UNL     1      -8.098  -1.564  -2.769  1.00  0.00     0.163 HD
ATOM     30  O   UNL     1     -10.440  -2.249  -2.308  1.00  0.00    -0.269 OA
BRANCH  28  31
ATOM     31  C   UNL     1      -9.701  -2.801  -0.153  1.00  0.00     0.039 A 
ATOM     32  C   UNL     1     -10.384  -1.906   0.678  1.00  0.00     0.014 A 
ATOM     33  C   UNL     1      -8.964  -3.855   0.373  1.00  0.00     0.014 A 
ATOM     34  C   UNL     1     -10.159  -1.947   2.051  1.00  0.00     0.010 A 
ATOM     35  C   UNL     1      -8.651  -3.821   1.716  1.00  0.00     0.010 A 
ATOM     36  C   UNL     1      -9.207  -2.836   2.547  1.00  0.00    -0.014 A 
BRANCH  36  37
ATOM     37  C   UNL     1      -8.651  -2.765   3.894  1.00  0.00     0.031 A 
ATOM     38  C   UNL     1      -8.964  -3.829   4.877  1.00  0.00     0.074 A 
ATOM     39  C   UNL     1      -7.741  -1.812   4.201  1.00  0.00     0.049 A 
ATOM     40  N   UNL     1      -8.798  -3.726   6.154  1.00  0.00    -0.248 NA
ATOM     41  C   UNL     1      -9.570  -5.098   4.482  1.00  0.00     0.031 C 
ATOM     42  C   UNL     1      -6.819  -1.821   5.333  1.00  0.00     0.029 A 
ATOM     43  N   UNL     1      -7.606  -0.526   3.671  1.00  0.00    -0.354 N 
ATOM     44  C   UNL     1      -8.939  -4.989   6.688  1.00  0.00     0.074 A 
ATOM     45  C   UNL     1      -9.538  -5.771   5.634  1.00  0.00     0.031 C 
ATOM     46  C   UNL     1      -6.457  -0.557   5.602  1.00  0.00     0.029 A 
ATOM     47  C   UNL     1      -7.256   0.306   4.748  1.00  0.00     0.049 A 
ATOM     48  H   UNL     1      -7.730  -0.257   2.732  1.00  0.00     0.167 HD
ATOM     49  C   UNL     1      -8.379  -5.274   7.899  1.00  0.00     0.031 A 
ATOM     50  C   UNL     1      -8.008   1.360   5.183  1.00  0.00     0.031 A 
ATOM     51  C   UNL     1      -7.882  -4.064   8.558  1.00  0.00     0.049 A 
ATOM     52  C   UNL     1      -8.415   1.240   6.636  1.00  0.00     0.074 A 
ATOM     53  C   UNL     1      -6.615  -3.535   8.741  1.00  0.00     0.029 A 
ATOM     54  N   UNL     1      -8.781  -3.060   8.902  1.00  0.00    -0.354 N 
ATOM     55  N   UNL     1      -8.318   0.138   7.325  1.00  0.00    -0.248 NA
ATOM     56  C   UNL     1      -9.007   2.326   7.414  1.00  0.00     0.031 C 
ATOM     57  C   UNL     1      -6.760  -2.168   9.100  1.00  0.00     0.029 A 
ATOM     58  C   UNL     1      -8.112  -1.881   9.170  1.00  0.00     0.049 A 
ATOM     59  H   UNL     1      -9.758  -3.173   8.948  1.00  0.00     0.167 HD
ATOM     60  C   UNL     1      -8.816   0.331   8.585  1.00  0.00     0.074 A 
ATOM     61  C   UNL     1      -9.226   1.724   8.597  1.00  0.00     0.031 C 
ATOM     62  C   UNL     1      -8.858  -0.675   9.506  1.00  0.00     0.031 A 
BRANCH  49  63
ATOM     63  C   UNL     1      -8.005  -6.680   8.340  1.00  0.00    -0.014 A 
ATOM     64  C   UNL     1      -7.001  -6.861   9.316  1.00  0.00     0.010 A 
ATOM     65  C   UNL     1      -8.520  -7.862   7.775  1.00  0.00     0.010 A 
ATOM     66  C   UNL     1      -6.473  -8.127   9.624  1.00  0.00     0.020 A 
ATOM     67  C   UNL     1      -7.990  -9.131   8.053  1.00  0.00     0.020 A 
ATOM     68  C   UNL     1      -6.953  -9.255   8.965  1.00  0.00     0.054 A 
BRANCH  68  69
ATOM     69  S   UNL     1      -6.207 -10.872   9.295  1.00  0.00     0.124 S 
ATOM     70  O   UNL     1      -4.807 -10.651   8.941  1.00  0.00    -0.237 OA
ATOM     71  O   UNL     1      -6.476 -11.058  10.718  1.00  0.00    -0.237 OA
ATOM     72  O   UNL     1      -6.931 -11.777   8.404  1.00  0.00    -0.744 OA
ENDBRANCH  68  69
ENDBRANCH  49  63
BRANCH  50  73
ATOM     73  C   UNL     1      -8.807   2.027   4.120  1.00  0.00    -0.014 A 
ATOM     74  C   UNL     1      -8.094   2.783   3.167  1.00  0.00     0.010 A 
ATOM     75  C   UNL     1     -10.093   1.559   3.800  1.00  0.00     0.010 A 
ATOM     76  C   UNL     1      -8.566   2.898   1.859  1.00  0.00     0.020 A 
ATOM     77  C   UNL     1     -10.572   1.680   2.487  1.00  0.00     0.020 A 
ATOM     78  C   UNL     1      -9.768   2.281   1.514  1.00  0.00     0.054 A 
BRANCH  78  79
ATOM     79  S   UNL     1     -10.141   2.085  -0.255  1.00  0.00     0.124 S 
ATOM     80  O   UNL     1     -10.138   3.464  -0.731  1.00  0.00    -0.237 OA
ATOM     81  O   UNL     1      -9.017   1.261  -0.701  1.00  0.00    -0.237 OA
ATOM     82  O   UNL     1     -11.440   1.421  -0.251  1.00  0.00    -0.744 OA
ENDBRANCH  78  79
ENDBRANCH  50  73
BRANCH  62  83
ATOM     83  C   UNL     1      -9.544  -0.611  10.848  1.00  0.00    -0.014 A 
ATOM     84  C   UNL     1     -10.645   0.212  11.130  1.00  0.00     0.010 A 
ATOM     85  C   UNL     1      -9.150  -1.527  11.853  1.00  0.00     0.010 A 
ATOM     86  C   UNL     1     -11.286   0.165  12.377  1.00  0.00     0.020 A 
ATOM     87  C   UNL     1      -9.808  -1.612  13.082  1.00  0.00     0.020 A 
ATOM     88  C   UNL     1     -10.861  -0.745  13.346  1.00  0.00     0.054 A 
BRANCH  88  89
ATOM     89  S   UNL     1     -11.736  -0.851  14.929  1.00  0.00     0.124 S 
ATOM     90  O   UNL     1     -11.015   0.129  15.736  1.00  0.00    -0.237 OA
ATOM     91  O   UNL     1     -13.105  -0.484  14.574  1.00  0.00    -0.237 OA
ATOM     92  O   UNL     1     -11.556  -2.246  15.323  1.00  0.00    -0.744 OA
ENDBRANCH  88  89
ENDBRANCH  62  83
ENDBRANCH  36  37
ENDBRANCH  28  31
ENDBRANCH  26  27
ENDBRANCH   1  26
TORSDOF 15
