REMARK SMILES O=C(NCCCCNC(=O)c1ccc(-c2ccn(C(F)F)c(=O)c2)cc1O)c1ccc(-c2c3nc(c(-c4ccc(S(=O)(=O)[O-])cc4)c4ccc([nH]4)c(-c4ccc(S(=O)(=O)[O-])cc4)c4nc(c(-c5ccc(S(=O)(=O)[O-])cc5)c5ccc2[nH]5)C=C4)C=C3)cc1
REMARK SMILES IDX 5 1 4 2 3 3 1 4 2 5 28 7 29 8 87 9 30 10 86 11 31 12 32 13
REMARK SMILES IDX 33 14 80 15 34 16 85 17 79 18 81 19 35 20 84 21 78 22 77 23
REMARK SMILES IDX 36 25 66 26 47 27 65 28 48 29 51 30 64 31 82 32 49 33 50 34
REMARK SMILES IDX 63 36 83 37 52 38 37 39 38 40 46 41 39 42 45 43 40 44 41 45
REMARK SMILES IDX 42 46 43 47 44 48 67 49 68 50 76 51 69 52 75 53 70 54 71 55
REMARK SMILES IDX 72 56 73 57 74 58 53 59 54 60 62 61 55 62 61 63 56 64 57 65
REMARK SMILES IDX 58 66 59 67 60 68 6 69 7 70 8 71 9 72 10 74 11 75 12 76
REMARK SMILES IDX 26 77 13 78 25 79 14 80 27 81 15 83 16 84 24 85 17 86 22 87
REMARK SMILES IDX 18 88 23 89 19 90 20 91 21 92
REMARK H PARENT 3 6 81 24 51 35 8 73 27 82
REMARK Flexibility Score: inf
ROOT
ATOM      1  C   UNL     1       5.106  -0.857   2.324  1.00  0.00     0.023 C 
ENDROOT
BRANCH   1   2
ATOM      2  C   UNL     1       4.730  -0.879   0.845  1.00  0.00     0.116 C 
BRANCH   2   3
ATOM      3  N   UNL     1       3.291  -0.913   0.643  1.00  0.00    -0.352 N 
ATOM      4  O   UNL     1       1.250  -0.131   0.132  1.00  0.00    -0.269 OA
ATOM      5  C   UNL     1       2.468  -0.014   0.014  1.00  0.00     0.251 C 
ATOM      6  H   UNL     1       2.837  -1.704   1.015  1.00  0.00     0.163 HD
BRANCH   5   7
ATOM      7  C   UNL     1       3.026   1.087  -0.804  1.00  0.00     0.039 A 
ATOM      8  C   UNL     1       2.412   2.344  -0.752  1.00  0.00     0.014 A 
ATOM      9  C   UNL     1       4.090   0.869  -1.682  1.00  0.00     0.014 A 
ATOM     10  C   UNL     1       2.874   3.383  -1.566  1.00  0.00     0.010 A 
ATOM     11  C   UNL     1       4.591   1.922  -2.445  1.00  0.00     0.010 A 
ATOM     12  C   UNL     1       3.968   3.179  -2.419  1.00  0.00    -0.014 A 
BRANCH  12  13
ATOM     13  C   UNL     1       4.416   4.219  -3.380  1.00  0.00     0.031 A 
ATOM     14  C   UNL     1       4.259   3.960  -4.856  1.00  0.00     0.074 A 
ATOM     15  C   UNL     1       5.001   5.354  -2.951  1.00  0.00     0.049 A 
ATOM     16  N   UNL     1       4.728   4.643  -5.866  1.00  0.00    -0.248 NA
ATOM     17  C   UNL     1       3.490   2.764  -5.246  1.00  0.00     0.031 C 
ATOM     18  C   UNL     1       5.196   5.728  -1.550  1.00  0.00     0.029 A 
ATOM     19  N   UNL     1       5.555   6.398  -3.653  1.00  0.00    -0.354 N 
ATOM     20  C   UNL     1       4.333   3.950  -7.004  1.00  0.00     0.074 A 
ATOM     21  C   UNL     1       3.620   2.773  -6.566  1.00  0.00     0.031 C 
ATOM     22  C   UNL     1       5.821   6.916  -1.496  1.00  0.00     0.029 A 
ATOM     23  C   UNL     1       6.119   7.366  -2.854  1.00  0.00     0.049 A 
ATOM     24  H   UNL     1       5.548   6.449  -4.637  1.00  0.00     0.167 HD
ATOM     25  C   UNL     1       4.531   4.279  -8.300  1.00  0.00     0.031 A 
ATOM     26  C   UNL     1       6.819   8.475  -3.174  1.00  0.00     0.031 A 
ATOM     27  C   UNL     1       5.197   5.478  -8.729  1.00  0.00     0.049 A 
ATOM     28  C   UNL     1       7.050   8.808  -4.625  1.00  0.00     0.074 A 
ATOM     29  C   UNL     1       5.405   5.917 -10.025  1.00  0.00     0.029 A 
ATOM     30  N   UNL     1       5.740   6.434  -7.886  1.00  0.00    -0.354 N 
ATOM     31  N   UNL     1       6.654   8.150  -5.689  1.00  0.00    -0.248 NA
ATOM     32  C   UNL     1       7.816  10.027  -4.927  1.00  0.00     0.031 C 
ATOM     33  C   UNL     1       6.125   7.108  -9.967  1.00  0.00     0.029 A 
ATOM     34  C   UNL     1       6.303   7.450  -8.636  1.00  0.00     0.049 A 
ATOM     35  H   UNL     1       5.728   6.395  -6.903  1.00  0.00     0.167 HD
ATOM     36  C   UNL     1       7.102   8.886  -6.781  1.00  0.00     0.074 A 
ATOM     37  C   UNL     1       7.790  10.045  -6.255  1.00  0.00     0.031 C 
ATOM     38  C   UNL     1       6.959   8.617  -8.101  1.00  0.00     0.031 A 
BRANCH  25  39
ATOM     39  C   UNL     1       4.000   3.366  -9.372  1.00  0.00    -0.014 A 
ATOM     40  C   UNL     1       4.899   2.692 -10.219  1.00  0.00     0.010 A 
ATOM     41  C   UNL     1       2.624   3.318  -9.652  1.00  0.00     0.010 A 
ATOM     42  C   UNL     1       4.437   2.032 -11.360  1.00  0.00     0.020 A 
ATOM     43  C   UNL     1       2.155   2.636 -10.777  1.00  0.00     0.020 A 
ATOM     44  C   UNL     1       3.068   2.025 -11.641  1.00  0.00     0.054 A 
BRANCH  44  45
ATOM     45  S   UNL     1       2.495   1.237 -13.171  1.00  0.00     0.124 S 
ATOM     46  O   UNL     1       2.926   2.191 -14.188  1.00  0.00    -0.237 OA
ATOM     47  O   UNL     1       3.207  -0.038 -13.157  1.00  0.00    -0.237 OA
ATOM     48  O   UNL     1       1.050   1.134 -12.982  1.00  0.00    -0.744 OA
ENDBRANCH  44  45
ENDBRANCH  25  39
BRANCH  26  49
ATOM     49  C   UNL     1       7.351   9.345  -2.087  1.00  0.00    -0.014 A 
ATOM     50  C   UNL     1       8.364   8.873  -1.230  1.00  0.00     0.010 A 
ATOM     51  C   UNL     1       6.814  10.625  -1.863  1.00  0.00     0.010 A 
ATOM     52  C   UNL     1       8.796   9.640  -0.145  1.00  0.00     0.020 A 
ATOM     53  C   UNL     1       7.266  11.410  -0.796  1.00  0.00     0.020 A 
ATOM     54  C   UNL     1       8.235  10.901   0.072  1.00  0.00     0.054 A 
BRANCH  54  55
ATOM     55  S   UNL     1       8.787  11.867   1.505  1.00  0.00     0.124 S 
ATOM     56  O   UNL     1       8.075  11.211   2.599  1.00  0.00    -0.237 OA
ATOM     57  O   UNL     1      10.234  11.669   1.488  1.00  0.00    -0.237 OA
ATOM     58  O   UNL     1       8.344  13.223   1.193  1.00  0.00    -0.744 OA
ENDBRANCH  54  55
ENDBRANCH  26  49
BRANCH  38  59
ATOM     59  C   UNL     1       7.527   9.577  -9.112  1.00  0.00    -0.014 A 
ATOM     60  C   UNL     1       6.650  10.301  -9.944  1.00  0.00     0.010 A 
ATOM     61  C   UNL     1       8.903   9.583  -9.392  1.00  0.00     0.010 A 
ATOM     62  C   UNL     1       7.132  10.954 -11.080  1.00  0.00     0.020 A 
ATOM     63  C   UNL     1       9.392  10.259 -10.514  1.00  0.00     0.020 A 
ATOM     64  C   UNL     1       8.498  10.908 -11.370  1.00  0.00     0.054 A 
BRANCH  64  65
ATOM     65  S   UNL     1       9.088  11.665 -12.910  1.00  0.00     0.124 S 
ATOM     66  O   UNL     1       8.626  10.714 -13.917  1.00  0.00    -0.237 OA
ATOM     67  O   UNL     1       8.413  12.960 -12.910  1.00  0.00    -0.237 OA
ATOM     68  O   UNL     1      10.537  11.726 -12.729  1.00  0.00    -0.744 OA
ENDBRANCH  64  65
ENDBRANCH  38  59
ENDBRANCH  12  13
ENDBRANCH   5   7
ENDBRANCH   2   3
ENDBRANCH   1   2
BRANCH   1  69
ATOM     69  C   UNL     1       4.619  -2.055   3.140  1.00  0.00     0.023 C 
BRANCH  69  70
ATOM     70  C   UNL     1       5.017  -3.422   2.593  1.00  0.00     0.116 C 
BRANCH  70  71
ATOM     71  N   UNL     1       6.456  -3.610   2.549  1.00  0.00    -0.352 N 
ATOM     72  C   UNL     1       7.182  -4.710   2.932  1.00  0.00     0.255 C 
ATOM     73  H   UNL     1       6.978  -2.852   2.199  1.00  0.00     0.163 HD
ATOM     74  O   UNL     1       8.410  -4.693   2.893  1.00  0.00    -0.269 OA
BRANCH  72  75
ATOM     75  C   UNL     1       6.494  -5.898   3.476  1.00  0.00     0.081 A 
ATOM     76  C   UNL     1       6.849  -6.313   4.765  1.00  0.00     0.018 A 
ATOM     77  C   UNL     1       5.536  -6.613   2.752  1.00  0.00     0.128 A 
ATOM     78  C   UNL     1       6.211  -7.412   5.347  1.00  0.00     0.010 A 
ATOM     79  C   UNL     1       4.890  -7.701   3.337  1.00  0.00     0.055 A 
ATOM     80  C   UNL     1       5.220  -8.106   4.641  1.00  0.00    -0.014 A 
BRANCH  77  81
ATOM     81  O   UNL     1       5.219  -6.252   1.472  1.00  0.00    -0.507 OA
ATOM     82  H   UNL     1       5.648  -5.522   1.071  1.00  0.00     0.293 HD
ENDBRANCH  77  81
BRANCH  80  83
ATOM     83  C   UNL     1       4.522  -9.269   5.223  1.00  0.00    -0.011 A 
ATOM     84  C   UNL     1       4.516 -10.566   4.573  1.00  0.00     0.027 A 
ATOM     85  C   UNL     1       3.821  -9.107   6.359  1.00  0.00     0.080 A 
ATOM     86  C   UNL     1       3.786 -11.572   5.064  1.00  0.00     0.095 A 
ATOM     87  C   UNL     1       3.024 -10.228   6.935  1.00  0.00     0.255 A 
ATOM     88  N   UNL     1       3.040 -11.412   6.216  1.00  0.00    -0.258 N 
ATOM     89  O   UNL     1       2.407 -10.034   7.977  1.00  0.00    -0.269 OA
BRANCH  88  90
ATOM     90  C   UNL     1       2.231 -12.494   6.716  1.00  0.00     0.451 C 
ATOM     91  F   UNL     1       2.613 -12.857   7.964  1.00  0.00    -0.185 F 
ATOM     92  F   UNL     1       0.923 -12.143   6.761  1.00  0.00    -0.185 F 
ENDBRANCH  88  90
ENDBRANCH  80  83
ENDBRANCH  72  75
ENDBRANCH  70  71
ENDBRANCH  69  70
ENDBRANCH   1  69
TORSDOF 17
