REMARK SMILES O=C(NCCCCNC(=O)[C@H]1CCCN(C(=O)C2CCN(S(=O)(=O)c3ccccc3)CC2)C1)c1ccc(-c2c3nc(c(-c4ccc(S(=O)(=O)[O-])cc4)c4ccc([nH]4)c(-c4ccc(S(=O)(=O)[O-])cc4)c4nc(c(-c5ccc(S(=O)(=O)[O-])cc5)c5ccc2[nH]5)C=C4)C=C3)cc1
REMARK SMILES IDX 6 1 5 2 4 3 3 4 1 5 2 6 34 8 35 9 93 10 36 11 92 12 37 13
REMARK SMILES IDX 38 14 39 15 86 16 40 17 91 18 85 19 87 20 41 21 90 22 84 23
REMARK SMILES IDX 83 24 42 26 72 27 53 28 71 29 54 30 57 31 70 32 88 33 55 34
REMARK SMILES IDX 56 35 69 37 89 38 58 39 43 40 44 41 52 42 45 43 51 44 46 45
REMARK SMILES IDX 47 46 48 47 49 48 50 49 73 50 74 51 82 52 75 53 81 54 76 55
REMARK SMILES IDX 77 56 78 57 79 58 80 59 59 60 60 61 68 62 61 63 67 64 62 65
REMARK SMILES IDX 63 66 64 67 65 68 66 69 7 70 8 71 9 72 10 74 11 75 12 76
REMARK SMILES IDX 33 77 13 78 15 79 14 80 16 81 17 82 18 83 19 84 32 85 20 86
REMARK SMILES IDX 31 87 21 88 22 89 23 90 24 91 25 92 26 93 30 94 27 95 29 96
REMARK SMILES IDX 28 97
REMARK H PARENT 3 7 87 25 57 36 8 73
REMARK Flexibility Score: inf
ROOT
ATOM      1  C   UNL     1       3.393   7.261   3.792  1.00  0.00     0.023 C 
ENDROOT
BRANCH   1   2
ATOM      2  C   UNL     1       1.897   6.996   3.647  1.00  0.00     0.023 C 
BRANCH   2   3
ATOM      3  C   UNL     1       1.050   7.508   4.799  1.00  0.00     0.116 C 
BRANCH   3   4
ATOM      4  N   UNL     1       1.158   8.945   4.991  1.00  0.00    -0.352 N 
ATOM      5  O   UNL     1       0.367  11.023   5.394  1.00  0.00    -0.269 OA
ATOM      6  C   UNL     1       0.169   9.814   5.387  1.00  0.00     0.251 C 
ATOM      7  H   UNL     1       2.042   9.342   4.818  1.00  0.00     0.163 HD
BRANCH   6   8
ATOM      8  C   UNL     1      -1.145   9.260   5.772  1.00  0.00     0.039 A 
ATOM      9  C   UNL     1      -1.219   8.198   6.678  1.00  0.00     0.014 A 
ATOM     10  C   UNL     1      -2.302   9.787   5.196  1.00  0.00     0.014 A 
ATOM     11  C   UNL     1      -2.442   7.593   6.929  1.00  0.00     0.010 A 
ATOM     12  C   UNL     1      -3.541   9.226   5.508  1.00  0.00     0.010 A 
ATOM     13  C   UNL     1      -3.617   8.120   6.369  1.00  0.00    -0.014 A 
BRANCH  13  14
ATOM     14  C   UNL     1      -4.926   7.585   6.808  1.00  0.00     0.031 A 
ATOM     15  C   UNL     1      -5.826   6.840   5.867  1.00  0.00     0.074 A 
ATOM     16  C   UNL     1      -5.288   7.798   8.089  1.00  0.00     0.049 A 
ATOM     17  N   UNL     1      -7.007   6.330   6.103  1.00  0.00    -0.248 NA
ATOM     18  C   UNL     1      -5.351   6.644   4.488  1.00  0.00     0.031 C 
ATOM     19  C   UNL     1      -4.489   8.530   9.079  1.00  0.00     0.029 A 
ATOM     20  N   UNL     1      -6.408   7.422   8.781  1.00  0.00    -0.354 N 
ATOM     21  C   UNL     1      -7.431   5.776   4.902  1.00  0.00     0.074 A 
ATOM     22  C   UNL     1      -6.381   6.013   3.934  1.00  0.00     0.031 C 
ATOM     23  C   UNL     1      -5.133   8.527  10.254  1.00  0.00     0.029 A 
ATOM     24  C   UNL     1      -6.413   7.851  10.086  1.00  0.00     0.049 A 
ATOM     25  H   UNL     1      -7.138   6.896   8.382  1.00  0.00     0.167 HD
ATOM     26  C   UNL     1      -8.592   5.131   4.639  1.00  0.00     0.031 A 
ATOM     27  C   UNL     1      -7.357   7.746  11.038  1.00  0.00     0.031 A 
ATOM     28  C   UNL     1      -9.621   4.892   5.618  1.00  0.00     0.049 A 
ATOM     29  C   UNL     1      -8.643   7.051  10.705  1.00  0.00     0.074 A 
ATOM     30  C   UNL     1     -10.802   4.184   5.468  1.00  0.00     0.029 A 
ATOM     31  N   UNL     1      -9.603   5.365   6.921  1.00  0.00    -0.354 N 
ATOM     32  N   UNL     1      -8.994   6.474   9.581  1.00  0.00    -0.248 NA
ATOM     33  C   UNL     1      -9.662   7.002  11.760  1.00  0.00     0.031 C 
ATOM     34  C   UNL     1     -11.522   4.276   6.663  1.00  0.00     0.029 A 
ATOM     35  C   UNL     1     -10.769   5.002   7.573  1.00  0.00     0.049 A 
ATOM     36  H   UNL     1      -8.868   5.883   7.324  1.00  0.00     0.167 HD
ATOM     37  C   UNL     1     -10.280   5.996   9.792  1.00  0.00     0.074 A 
ATOM     38  C   UNL     1     -10.630   6.322  11.161  1.00  0.00     0.031 C 
ATOM     39  C   UNL     1     -11.102   5.354   8.928  1.00  0.00     0.031 A 
BRANCH  26  40
ATOM     40  C   UNL     1      -8.842   4.652   3.235  1.00  0.00    -0.014 A 
ATOM     41  C   UNL     1      -8.221   3.493   2.740  1.00  0.00     0.010 A 
ATOM     42  C   UNL     1      -9.797   5.312   2.439  1.00  0.00     0.010 A 
ATOM     43  C   UNL     1      -8.546   3.005   1.470  1.00  0.00     0.020 A 
ATOM     44  C   UNL     1     -10.136   4.819   1.176  1.00  0.00     0.020 A 
ATOM     45  C   UNL     1      -9.504   3.670   0.697  1.00  0.00     0.054 A 
BRANCH  45  46
ATOM     46  S   UNL     1      -9.955   2.978  -0.920  1.00  0.00     0.124 S 
ATOM     47  O   UNL     1      -8.786   3.314  -1.728  1.00  0.00    -0.237 OA
ATOM     48  O   UNL     1     -10.125   1.557  -0.624  1.00  0.00    -0.237 OA
ATOM     49  O   UNL     1     -11.181   3.689  -1.272  1.00  0.00    -0.744 OA
ENDBRANCH  45  46
ENDBRANCH  26  40
BRANCH  27  50
ATOM     50  C   UNL     1      -7.138   8.370  12.368  1.00  0.00    -0.014 A 
ATOM     51  C   UNL     1      -6.933   7.579  13.510  1.00  0.00     0.010 A 
ATOM     52  C   UNL     1      -7.116   9.773  12.490  1.00  0.00     0.010 A 
ATOM     53  C   UNL     1      -6.731   8.180  14.756  1.00  0.00     0.020 A 
ATOM     54  C   UNL     1      -6.887  10.376  13.727  1.00  0.00     0.020 A 
ATOM     55  C   UNL     1      -6.712   9.575  14.857  1.00  0.00     0.054 A 
BRANCH  55  56
ATOM     56  S   UNL     1      -6.409  10.340  16.473  1.00  0.00     0.124 S 
ATOM     57  O   UNL     1      -7.722  10.245  17.102  1.00  0.00    -0.237 OA
ATOM     58  O   UNL     1      -5.370   9.485  17.043  1.00  0.00    -0.237 OA
ATOM     59  O   UNL     1      -5.972  11.692  16.131  1.00  0.00    -0.744 OA
ENDBRANCH  55  56
ENDBRANCH  27  50
BRANCH  39  60
ATOM     60  C   UNL     1     -12.461   4.973   9.442  1.00  0.00    -0.014 A 
ATOM     61  C   UNL     1     -13.464   5.945   9.599  1.00  0.00     0.010 A 
ATOM     62  C   UNL     1     -12.749   3.628   9.735  1.00  0.00     0.010 A 
ATOM     63  C   UNL     1     -14.728   5.583  10.067  1.00  0.00     0.020 A 
ATOM     64  C   UNL     1     -14.019   3.259  10.181  1.00  0.00     0.020 A 
ATOM     65  C   UNL     1     -14.997   4.241  10.357  1.00  0.00     0.054 A 
BRANCH  65  66
ATOM     66  S   UNL     1     -16.659   3.787  10.922  1.00  0.00     0.124 S 
ATOM     67  O   UNL     1     -16.635   4.225  12.315  1.00  0.00    -0.237 OA
ATOM     68  O   UNL     1     -17.525   4.559  10.035  1.00  0.00    -0.237 OA
ATOM     69  O   UNL     1     -16.707   2.340  10.724  1.00  0.00    -0.744 OA
ENDBRANCH  65  66
ENDBRANCH  39  60
ENDBRANCH  13  14
ENDBRANCH   6   8
ENDBRANCH   3   4
ENDBRANCH   2   3
ENDBRANCH   1   2
BRANCH   1  70
ATOM     70  C   UNL     1       4.049   6.604   5.009  1.00  0.00     0.116 C 
BRANCH  70  71
ATOM     71  N   UNL     1       4.176   5.166   4.846  1.00  0.00    -0.356 N 
ATOM     72  C   UNL     1       5.244   4.389   4.508  1.00  0.00     0.224 C 
ATOM     73  H   UNL     1       3.345   4.664   5.008  1.00  0.00     0.163 HD
ATOM     74  O   UNL     1       5.050   3.177   4.384  1.00  0.00    -0.275 OA
BRANCH  72  75
ATOM     75  C   UNL     1       6.643   4.964   4.319  1.00  0.00     0.098 C 
ATOM     76  C   UNL     1       6.711   6.004   3.191  1.00  0.00     0.017 C 
ATOM     77  C   UNL     1       7.219   5.401   5.676  1.00  0.00     0.133 C 
ATOM     78  C   UNL     1       7.960   6.868   3.239  1.00  0.00     0.022 C 
ATOM     79  N   UNL     1       8.409   6.253   5.538  1.00  0.00    -0.342 N 
ATOM     80  C   UNL     1       8.194   7.377   4.652  1.00  0.00     0.119 C 
BRANCH  79  81
ATOM     81  C   UNL     1       9.574   5.900   6.187  1.00  0.00     0.225 C 
ATOM     82  O   UNL     1       9.623   4.839   6.825  1.00  0.00    -0.275 OA
BRANCH  81  83
ATOM     83  C   UNL     1      10.864   6.750   6.167  1.00  0.00     0.081 C 
ATOM     84  C   UNL     1      10.827   8.128   6.808  1.00  0.00     0.030 C 
ATOM     85  C   UNL     1      11.695   6.705   4.897  1.00  0.00     0.030 C 
ATOM     86  C   UNL     1      10.743   9.327   5.879  1.00  0.00     0.103 C 
ATOM     87  C   UNL     1      11.486   7.857   3.938  1.00  0.00     0.103 C 
ATOM     88  N   UNL     1      11.471   9.202   4.574  1.00  0.00    -0.198 NA
BRANCH  88  89
ATOM     89  S   UNL     1      10.912  10.461   3.496  1.00  0.00     0.243 S 
ATOM     90  O   UNL     1       9.623  10.033   2.979  1.00  0.00    -0.207 OA
ATOM     91  O   UNL     1      11.040  11.715   4.197  1.00  0.00    -0.207 OA
BRANCH  89  92
ATOM     92  C   UNL     1      12.055  10.468   2.136  1.00  0.00     0.082 A 
ATOM     93  C   UNL     1      12.997  11.496   2.038  1.00  0.00     0.022 A 
ATOM     94  C   UNL     1      11.913   9.538   1.100  1.00  0.00     0.022 A 
ATOM     95  C   UNL     1      13.824  11.567   0.916  1.00  0.00     0.001 A 
ATOM     96  C   UNL     1      12.760   9.600  -0.006  1.00  0.00     0.001 A 
ATOM     97  C   UNL     1      13.713  10.614  -0.098  1.00  0.00     0.000 A 
ENDBRANCH  89  92
ENDBRANCH  88  89
ENDBRANCH  81  83
ENDBRANCH  79  81
ENDBRANCH  72  75
ENDBRANCH  70  71
ENDBRANCH   1  70
TORSDOF 18
