REMARK SMILES [NH3+][C@H]1CN(C(=O)OCC2c3ccccc3-c3ccccc32)C[C@@H]1C(=O)NCCCCNC(=O)c1ccc(-c2c3nc(c(-c4ccc(S(=O)(=O)[O-])cc4)c4ccc([nH]4)c(-c4ccc(S(=O)(=O)[O-])cc4)c4nc(c(-c5ccc(S(=O)(=O)[O-])cc5)c5ccc2[nH]5)C=C4)C=C3)cc1
REMARK SMILES IDX 28 1 27 2 26 3 24 4 25 5 23 7 2 8 3 9 4 10 22 11 1 12 5 16
REMARK SMILES IDX 6 17 7 18 8 19 9 20 10 21 21 22 11 23 15 24 16 25 20 26
REMARK SMILES IDX 12 27 14 28 17 29 19 30 13 31 18 32 29 33 30 34 31 35 32 36
REMARK SMILES IDX 33 38 34 39 35 40 93 41 36 42 92 43 37 44 38 45 39 46 86 47
REMARK SMILES IDX 40 48 91 49 85 50 87 51 41 52 90 53 84 54 83 55 42 57 72 58
REMARK SMILES IDX 53 59 71 60 54 61 57 62 70 63 88 64 55 65 56 66 69 68 89 69
REMARK SMILES IDX 58 70 43 71 44 72 52 73 45 74 51 75 46 76 47 77 48 78 49 79
REMARK SMILES IDX 50 80 73 81 74 82 82 83 75 84 81 85 76 86 77 87 78 88 79 89
REMARK SMILES IDX 80 90 59 91 60 92 68 93 61 94 67 95 62 96 63 97 64 98 65 99
REMARK SMILES IDX 66 100
REMARK H PARENT 26 6 1 13 1 14 1 15 31 37 87 56 57 67
REMARK Flexibility Score: inf
ROOT
ATOM      1  C   UNL     1       2.517  -4.296   1.601  1.00  0.00     0.023 C 
ENDROOT
BRANCH   1   2
ATOM      2  C   UNL     1       2.591  -3.177   2.642  1.00  0.00     0.116 C 
BRANCH   2   3
ATOM      3  N   UNL     1       3.176  -1.978   2.064  1.00  0.00    -0.356 N 
ATOM      4  C   UNL     1       2.571  -0.823   1.657  1.00  0.00     0.231 C 
ATOM      5  O   UNL     1       3.213  -0.028   0.972  1.00  0.00    -0.274 OA
ATOM      6  H   UNL     1       4.154  -2.001   1.951  1.00  0.00     0.163 HD
BRANCH   4   7
ATOM      7  C   UNL     1       1.157  -0.537   2.123  1.00  0.00     0.158 C 
ATOM      8  C   UNL     1       0.423   0.480   1.232  1.00  0.00     0.215 C 
ATOM      9  C   UNL     1       0.797   1.853   1.833  1.00  0.00     0.188 C 
ATOM     10  N   UNL     1       1.310   1.573   3.158  1.00  0.00    -0.301 N 
ATOM     11  C   UNL     1       1.256   0.160   3.472  1.00  0.00     0.143 C 
BRANCH   8  12
ATOM     12  N   UNL     1      -1.035   0.245   1.293  1.00  0.00    -0.353 N 
ATOM     13  H   UNL     1      -1.514   0.923   0.700  1.00  0.00     0.344 HD
ATOM     14  H   UNL     1      -1.357   0.348   2.256  1.00  0.00     0.344 HD
ATOM     15  H   UNL     1      -1.242  -0.698   0.965  1.00  0.00     0.344 HD
ENDBRANCH   8  12
BRANCH  10  16
ATOM     16  C   UNL     1       1.986   2.480   3.930  1.00  0.00     0.410 C 
ATOM     17  O   UNL     1       2.810   2.165   4.774  1.00  0.00    -0.224 OA
BRANCH  16  18
ATOM     18  O   UNL     1       1.538   3.749   3.720  1.00  0.00    -0.448 OA
BRANCH  18  19
ATOM     19  C   UNL     1       1.978   4.735   4.679  1.00  0.00     0.248 C 
BRANCH  19  20
ATOM     20  C   UNL     1       0.967   4.915   5.834  1.00  0.00     0.088 C 
ATOM     21  C   UNL     1       1.088   3.866   6.942  1.00  0.00    -0.029 A 
ATOM     22  C   UNL     1       1.250   6.200   6.618  1.00  0.00    -0.029 A 
ATOM     23  C   UNL     1       0.812   2.509   6.894  1.00  0.00     0.005 A 
ATOM     24  C   UNL     1       1.540   4.462   8.137  1.00  0.00    -0.014 A 
ATOM     25  C   UNL     1       1.596   5.894   7.953  1.00  0.00    -0.014 A 
ATOM     26  C   UNL     1       1.175   7.515   6.184  1.00  0.00     0.005 A 
ATOM     27  C   UNL     1       1.120   1.723   8.005  1.00  0.00     0.000 A 
ATOM     28  C   UNL     1       1.829   3.687   9.250  1.00  0.00     0.009 A 
ATOM     29  C   UNL     1       1.864   6.902   8.865  1.00  0.00     0.009 A 
ATOM     30  C   UNL     1       1.446   8.531   7.105  1.00  0.00     0.000 A 
ATOM     31  C   UNL     1       1.641   2.305   9.169  1.00  0.00     0.001 A 
ATOM     32  C   UNL     1       1.785   8.228   8.434  1.00  0.00     0.001 A 
ENDBRANCH  19  20
ENDBRANCH  18  19
ENDBRANCH  16  18
ENDBRANCH  10  16
ENDBRANCH   4   7
ENDBRANCH   2   3
ENDBRANCH   1   2
BRANCH   1  33
ATOM     33  C   UNL     1       3.884  -4.808   1.132  1.00  0.00     0.023 C 
BRANCH  33  34
ATOM     34  C   UNL     1       4.789  -5.341   2.238  1.00  0.00     0.116 C 
BRANCH  34  35
ATOM     35  N   UNL     1       4.213  -6.480   2.935  1.00  0.00    -0.352 N 
ATOM     36  C   UNL     1       4.785  -7.693   3.237  1.00  0.00     0.251 C 
ATOM     37  H   UNL     1       3.281  -6.366   3.233  1.00  0.00     0.163 HD
ATOM     38  O   UNL     1       4.091  -8.596   3.696  1.00  0.00    -0.269 OA
BRANCH  36  39
ATOM     39  C   UNL     1       6.225  -7.917   2.979  1.00  0.00     0.039 A 
ATOM     40  C   UNL     1       6.623  -9.107   2.365  1.00  0.00     0.014 A 
ATOM     41  C   UNL     1       7.177  -6.955   3.326  1.00  0.00     0.014 A 
ATOM     42  C   UNL     1       7.967  -9.300   2.037  1.00  0.00     0.010 A 
ATOM     43  C   UNL     1       8.502  -7.115   2.927  1.00  0.00     0.010 A 
ATOM     44  C   UNL     1       8.912  -8.290   2.278  1.00  0.00    -0.014 A 
BRANCH  44  45
ATOM     45  C   UNL     1      10.327  -8.438   1.843  1.00  0.00     0.031 A 
ATOM     46  C   UNL     1      11.439  -8.448   2.858  1.00  0.00     0.074 A 
ATOM     47  C   UNL     1      10.617  -8.506   0.528  1.00  0.00     0.049 A 
ATOM     48  N   UNL     1      12.731  -8.526   2.664  1.00  0.00    -0.248 NA
ATOM     49  C   UNL     1      11.051  -8.334   4.274  1.00  0.00     0.031 C 
ATOM     50  C   UNL     1       9.634  -8.468  -0.559  1.00  0.00     0.029 A 
ATOM     51  N   UNL     1      11.822  -8.617  -0.121  1.00  0.00    -0.354 N 
ATOM     52  C   UNL     1      13.309  -8.457   3.927  1.00  0.00     0.074 A 
ATOM     53  C   UNL     1      12.231  -8.277   4.874  1.00  0.00     0.031 C 
ATOM     54  C   UNL     1      10.273  -8.587  -1.734  1.00  0.00     0.029 A 
ATOM     55  C   UNL     1      11.710  -8.659  -1.492  1.00  0.00     0.049 A 
ATOM     56  H   UNL     1      12.685  -8.662   0.350  1.00  0.00     0.167 HD
ATOM     57  C   UNL     1      14.617  -8.553   4.269  1.00  0.00     0.031 A 
ATOM     58  C   UNL     1      12.656  -8.736  -2.449  1.00  0.00     0.031 A 
ATOM     59  C   UNL     1      15.687  -8.730   3.323  1.00  0.00     0.049 A 
ATOM     60  C   UNL     1      14.103  -8.811  -2.045  1.00  0.00     0.074 A 
ATOM     61  C   UNL     1      17.038  -8.892   3.575  1.00  0.00     0.029 A 
ATOM     62  N   UNL     1      15.532  -8.761   1.945  1.00  0.00    -0.354 N 
ATOM     63  N   UNL     1      14.624  -8.817  -0.841  1.00  0.00    -0.248 NA
ATOM     64  C   UNL     1      15.091  -8.900  -3.130  1.00  0.00     0.031 C 
ATOM     65  C   UNL     1      17.708  -8.952   2.349  1.00  0.00     0.029 A 
ATOM     66  C   UNL     1      16.767  -8.905   1.333  1.00  0.00     0.049 A 
ATOM     67  H   UNL     1      14.672  -8.691   1.472  1.00  0.00     0.167 HD
ATOM     68  C   UNL     1      15.998  -8.939  -1.023  1.00  0.00     0.074 A 
ATOM     69  C   UNL     1      16.224  -9.022  -2.452  1.00  0.00     0.031 C 
ATOM     70  C   UNL     1      16.982  -8.980  -0.091  1.00  0.00     0.031 A 
BRANCH  57  71
ATOM     71  C   UNL     1      14.964  -8.452   5.733  1.00  0.00    -0.014 A 
ATOM     72  C   UNL     1      14.593  -9.460   6.643  1.00  0.00     0.010 A 
ATOM     73  C   UNL     1      15.710  -7.354   6.201  1.00  0.00     0.010 A 
ATOM     74  C   UNL     1      14.921  -9.350   7.997  1.00  0.00     0.020 A 
ATOM     75  C   UNL     1      16.069  -7.256   7.549  1.00  0.00     0.020 A 
ATOM     76  C   UNL     1      15.656  -8.247   8.441  1.00  0.00     0.054 A 
BRANCH  76  77
ATOM     77  S   UNL     1      16.084  -8.143  10.201  1.00  0.00     0.124 S 
ATOM     78  O   UNL     1      14.785  -7.865  10.810  1.00  0.00    -0.237 OA
ATOM     79  O   UNL     1      16.635  -9.467  10.474  1.00  0.00    -0.237 OA
ATOM     80  O   UNL     1      17.046  -7.045  10.261  1.00  0.00    -0.744 OA
ENDBRANCH  76  77
ENDBRANCH  57  71
BRANCH  58  81
ATOM     81  C   UNL     1      12.260  -8.755  -3.885  1.00  0.00    -0.014 A 
ATOM     82  C   UNL     1      12.432  -9.916  -4.660  1.00  0.00     0.010 A 
ATOM     83  C   UNL     1      11.697  -7.614  -4.484  1.00  0.00     0.010 A 
ATOM     84  C   UNL     1      12.064  -9.930  -6.009  1.00  0.00     0.020 A 
ATOM     85  C   UNL     1      11.297  -7.633  -5.824  1.00  0.00     0.020 A 
ATOM     86  C   UNL     1      11.494  -8.790  -6.581  1.00  0.00     0.054 A 
BRANCH  86  87
ATOM     87  S   UNL     1      10.973  -8.850  -8.318  1.00  0.00     0.124 S 
ATOM     88  O   UNL     1      12.252  -8.872  -9.019  1.00  0.00    -0.237 OA
ATOM     89  O   UNL     1      10.200 -10.089  -8.370  1.00  0.00    -0.237 OA
ATOM     90  O   UNL     1      10.188  -7.628  -8.483  1.00  0.00    -0.744 OA
ENDBRANCH  86  87
ENDBRANCH  58  81
BRANCH  70  91
ATOM     91  C   UNL     1      18.397  -9.155  -0.580  1.00  0.00    -0.014 A 
ATOM     92  C   UNL     1      19.068  -8.127  -1.266  1.00  0.00     0.010 A 
ATOM     93  C   UNL     1      19.084 -10.350  -0.298  1.00  0.00     0.010 A 
ATOM     94  C   UNL     1      20.387  -8.305  -1.691  1.00  0.00     0.020 A 
ATOM     95  C   UNL     1      20.414 -10.519  -0.691  1.00  0.00     0.020 A 
ATOM     96  C   UNL     1      21.053  -9.499  -1.399  1.00  0.00     0.054 A 
BRANCH  96  97
ATOM     97  S   UNL     1      22.780  -9.686  -1.922  1.00  0.00     0.124 S 
ATOM     98  O   UNL     1      22.646  -9.822  -3.370  1.00  0.00    -0.237 OA
ATOM     99  O   UNL     1      23.389  -8.440  -1.462  1.00  0.00    -0.237 OA
ATOM    100  O   UNL     1      23.227 -10.888  -1.222  1.00  0.00    -0.744 OA
ENDBRANCH  96  97
ENDBRANCH  70  91
ENDBRANCH  44  45
ENDBRANCH  36  39
ENDBRANCH  34  35
ENDBRANCH  33  34
ENDBRANCH   1  33
TORSDOF 19
