REMARK SMILES CC(C)(C)c1cc(Nc2ccccc2C(=O)NCCCCNC(=O)c2ccc(-c3c4nc(c(-c5ccc(S(=O)(=O)[O-])cc5)c5ccc([nH]5)c(-c5ccc(S(=O)(=O)[O-])cc5)c5nc(c(-c6ccc(S(=O)(=O)[O-])cc6)c6ccc3[nH]6)C=C5)C=C4)cc2)cc2c1OCC2(C)C
REMARK SMILES IDX 19 1 18 2 17 3 15 4 16 5 14 7 9 8 10 9 11 10 13 11 12 12
REMARK SMILES IDX 8 13 7 15 5 16 6 17 87 18 86 19 88 20 85 21 90 22 89 23
REMARK SMILES IDX 91 24 92 25 2 26 1 27 3 28 4 29 20 30 21 31 22 32 23 33
REMARK SMILES IDX 24 35 25 36 26 37 84 38 27 39 83 40 28 41 29 42 30 43 77 44
REMARK SMILES IDX 31 45 82 46 76 47 78 48 32 49 81 50 75 51 74 52 33 54 63 55
REMARK SMILES IDX 44 56 62 57 45 58 48 59 61 60 79 61 46 62 47 63 60 65 80 66
REMARK SMILES IDX 49 67 34 68 35 69 43 70 36 71 42 72 37 73 38 74 39 75 40 76
REMARK SMILES IDX 41 77 64 78 65 79 73 80 66 81 72 82 67 83 68 84 69 85 70 86
REMARK SMILES IDX 71 87 50 88 51 89 59 90 52 91 58 92 53 93 54 94 55 95 56 96
REMARK SMILES IDX 57 97
REMARK H PARENT 17 6 8 14 22 34 78 53 48 64
REMARK Flexibility Score: inf
ROOT
ATOM      1  C   UNL     1       4.360  -0.184  -1.997  1.00  0.00     0.023 C 
ENDROOT
BRANCH   1   2
ATOM      2  C   UNL     1       3.805   0.036  -3.395  1.00  0.00     0.116 C 
BRANCH   2   3
ATOM      3  N   UNL     1       4.612   0.771  -4.325  1.00  0.00    -0.352 N 
ATOM      4  C   UNL     1       4.491   0.866  -5.691  1.00  0.00     0.253 C 
ATOM      5  O   UNL     1       5.263   1.649  -6.252  1.00  0.00    -0.269 OA
ATOM      6  H   UNL     1       5.357   1.279  -3.930  1.00  0.00     0.163 HD
BRANCH   4   7
ATOM      7  C   UNL     1       3.567   0.057  -6.558  1.00  0.00     0.063 A 
ATOM      8  C   UNL     1       2.214  -0.301  -6.362  1.00  0.00     0.051 A 
ATOM      9  C   UNL     1       1.523  -0.941  -7.423  1.00  0.00     0.027 A 
ATOM     10  C   UNL     1       2.151  -1.306  -8.611  1.00  0.00     0.002 A 
ATOM     11  C   UNL     1       4.181  -0.330  -7.778  1.00  0.00     0.016 A 
ATOM     12  C   UNL     1       3.493  -1.018  -8.780  1.00  0.00     0.001 A 
BRANCH   8  13
ATOM     13  N   UNL     1       1.484  -0.156  -5.161  1.00  0.00    -0.355 N 
ATOM     14  H   UNL     1       1.219   0.756  -4.901  1.00  0.00     0.167 HD
BRANCH  13  15
ATOM     15  C   UNL     1       1.099  -1.217  -4.296  1.00  0.00     0.039 A 
ATOM     16  C   UNL     1       0.447  -1.975  -2.013  1.00  0.00     0.002 A 
ATOM     17  C   UNL     1       0.632  -0.952  -2.985  1.00  0.00     0.034 A 
ATOM     18  C   UNL     1       0.636  -3.279  -2.468  1.00  0.00     0.127 A 
ATOM     19  C   UNL     1       1.068  -3.561  -3.751  1.00  0.00     0.006 A 
ATOM     20  O   UNL     1       0.413  -4.409  -1.731  1.00  0.00    -0.492 OA
ATOM     21  C   UNL     1       1.312  -2.550  -4.661  1.00  0.00     0.034 A 
ATOM     22  C   UNL     1       1.222  -5.027  -3.957  1.00  0.00     0.028 C 
ATOM     23  C   UNL     1       0.818  -5.523  -2.556  1.00  0.00     0.240 C 
ATOM     24  C   UNL     1       0.263  -5.529  -5.040  1.00  0.00     0.020 C 
ATOM     25  C   UNL     1       2.665  -5.418  -4.295  1.00  0.00     0.020 C 
BRANCH  16  26
ATOM     26  C   UNL     1       0.070  -1.664  -0.550  1.00  0.00    -0.009 C 
ATOM     27  C   UNL     1       0.534  -0.264  -0.107  1.00  0.00     0.016 C 
ATOM     28  C   UNL     1       0.712  -2.635   0.474  1.00  0.00     0.016 C 
ATOM     29  C   UNL     1      -1.460  -1.726  -0.412  1.00  0.00     0.016 C 
ENDBRANCH  16  26
ENDBRANCH  13  15
ENDBRANCH   8  13
ENDBRANCH   4   7
ENDBRANCH   2   3
ENDBRANCH   1   2
BRANCH   1  30
ATOM     30  C   UNL     1       4.706   1.051  -1.166  1.00  0.00     0.023 C 
BRANCH  30  31
ATOM     31  C   UNL     1       3.929   2.339  -1.429  1.00  0.00     0.116 C 
BRANCH  31  32
ATOM     32  N   UNL     1       2.534   2.340  -1.001  1.00  0.00    -0.352 N 
ATOM     33  C   UNL     1       1.934   2.854   0.130  1.00  0.00     0.251 C 
ATOM     34  H   UNL     1       1.915   1.897  -1.625  1.00  0.00     0.163 HD
ATOM     35  O   UNL     1       0.718   2.775   0.284  1.00  0.00    -0.269 OA
BRANCH  33  36
ATOM     36  C   UNL     1       2.758   3.463   1.186  1.00  0.00     0.039 A 
ATOM     37  C   UNL     1       3.684   4.442   0.852  1.00  0.00     0.014 A 
ATOM     38  C   UNL     1       2.633   3.028   2.510  1.00  0.00     0.014 A 
ATOM     39  C   UNL     1       4.650   4.798   1.776  1.00  0.00     0.010 A 
ATOM     40  C   UNL     1       3.528   3.495   3.478  1.00  0.00     0.010 A 
ATOM     41  C   UNL     1       4.587   4.333   3.102  1.00  0.00    -0.014 A 
BRANCH  41  42
ATOM     42  C   UNL     1       5.655   4.765   4.041  1.00  0.00     0.031 A 
ATOM     43  C   UNL     1       6.615   3.772   4.638  1.00  0.00     0.074 A 
ATOM     44  C   UNL     1       5.844   6.089   4.217  1.00  0.00     0.049 A 
ATOM     45  N   UNL     1       7.703   4.003   5.328  1.00  0.00    -0.248 NA
ATOM     46  C   UNL     1       6.328   2.341   4.444  1.00  0.00     0.031 C 
ATOM     47  C   UNL     1       4.979   7.134   3.661  1.00  0.00     0.029 A 
ATOM     48  N   UNL     1       6.858   6.787   4.822  1.00  0.00    -0.354 N 
ATOM     49  C   UNL     1       8.222   2.756   5.657  1.00  0.00     0.074 A 
ATOM     50  C   UNL     1       7.314   1.767   5.120  1.00  0.00     0.031 C 
ATOM     51  C   UNL     1       5.566   8.325   3.828  1.00  0.00     0.029 A 
ATOM     52  C   UNL     1       6.799   8.143   4.587  1.00  0.00     0.049 A 
ATOM     53  H   UNL     1       7.558   6.362   5.369  1.00  0.00     0.167 HD
ATOM     54  C   UNL     1       9.357   2.466   6.336  1.00  0.00     0.031 A 
ATOM     55  C   UNL     1       7.645   9.135   4.927  1.00  0.00     0.031 A 
ATOM     56  C   UNL     1      10.255   3.465   6.857  1.00  0.00     0.049 A 
ATOM     57  C   UNL     1       8.883   8.791   5.698  1.00  0.00     0.074 A 
ATOM     58  C   UNL     1      11.417   3.277   7.585  1.00  0.00     0.029 A 
ATOM     59  N   UNL     1      10.102   4.835   6.696  1.00  0.00    -0.354 N 
ATOM     60  N   UNL     1       9.333   7.606   6.034  1.00  0.00    -0.248 NA
ATOM     61  C   UNL     1       9.719   9.909   6.151  1.00  0.00     0.031 C 
ATOM     62  C   UNL     1      11.938   4.532   7.907  1.00  0.00     0.029 A 
ATOM     63  C   UNL     1      11.138   5.503   7.324  1.00  0.00     0.049 A 
ATOM     64  H   UNL     1       9.365   5.267   6.206  1.00  0.00     0.167 HD
ATOM     65  C   UNL     1      10.501   7.834   6.749  1.00  0.00     0.074 A 
ATOM     66  C   UNL     1      10.706   9.269   6.768  1.00  0.00     0.031 C 
ATOM     67  C   UNL     1      11.319   6.934   7.346  1.00  0.00     0.031 A 
BRANCH  54  68
ATOM     68  C   UNL     1       9.703   1.017   6.569  1.00  0.00    -0.014 A 
ATOM     69  C   UNL     1       9.665   0.490   7.873  1.00  0.00     0.010 A 
ATOM     70  C   UNL     1      10.164   0.203   5.518  1.00  0.00     0.010 A 
ATOM     71  C   UNL     1      10.104  -0.813   8.128  1.00  0.00     0.020 A 
ATOM     72  C   UNL     1      10.579  -1.110   5.765  1.00  0.00     0.020 A 
ATOM     73  C   UNL     1      10.566  -1.602   7.072  1.00  0.00     0.054 A 
BRANCH  73  74
ATOM     74  S   UNL     1      11.138  -3.289   7.421  1.00  0.00     0.124 S 
ATOM     75  O   UNL     1      12.459  -3.054   7.996  1.00  0.00    -0.237 OA
ATOM     76  O   UNL     1      10.124  -3.787   8.349  1.00  0.00    -0.237 OA
ATOM     77  O   UNL     1      11.132  -3.929   6.107  1.00  0.00    -0.744 OA
ENDBRANCH  73  74
ENDBRANCH  54  68
BRANCH  55  78
ATOM     78  C   UNL     1       7.330  10.527   4.504  1.00  0.00    -0.014 A 
ATOM     79  C   UNL     1       6.189  11.180   5.011  1.00  0.00     0.010 A 
ATOM     80  C   UNL     1       8.085  11.156   3.499  1.00  0.00     0.010 A 
ATOM     81  C   UNL     1       5.762  12.392   4.466  1.00  0.00     0.020 A 
ATOM     82  C   UNL     1       7.679  12.389   2.974  1.00  0.00     0.020 A 
ATOM     83  C   UNL     1       6.499  12.978   3.435  1.00  0.00     0.054 A 
BRANCH  83  84
ATOM     84  S   UNL     1       5.882  14.510   2.685  1.00  0.00     0.124 S 
ATOM     85  O   UNL     1       4.823  14.009   1.812  1.00  0.00    -0.237 OA
ATOM     86  O   UNL     1       5.431  15.276   3.844  1.00  0.00    -0.237 OA
ATOM     87  O   UNL     1       7.053  15.052   2.002  1.00  0.00    -0.744 OA
ENDBRANCH  83  84
ENDBRANCH  55  78
BRANCH  67  88
ATOM     88  C   UNL     1      12.511   7.460   8.097  1.00  0.00    -0.014 A 
ATOM     89  C   UNL     1      13.808   7.224   7.604  1.00  0.00     0.010 A 
ATOM     90  C   UNL     1      12.352   8.072   9.352  1.00  0.00     0.010 A 
ATOM     91  C   UNL     1      14.926   7.559   8.370  1.00  0.00     0.020 A 
ATOM     92  C   UNL     1      13.470   8.432  10.110  1.00  0.00     0.020 A 
ATOM     93  C   UNL     1      14.749   8.149   9.624  1.00  0.00     0.054 A 
BRANCH  93  94
ATOM     94  S   UNL     1      16.212   8.544  10.620  1.00  0.00     0.124 S 
ATOM     95  O   UNL     1      16.582   7.237  11.153  1.00  0.00    -0.237 OA
ATOM     96  O   UNL     1      17.132   9.107   9.634  1.00  0.00    -0.237 OA
ATOM     97  O   UNL     1      15.707   9.500  11.604  1.00  0.00    -0.744 OA
ENDBRANCH  93  94
ENDBRANCH  67  88
ENDBRANCH  41  42
ENDBRANCH  33  36
ENDBRANCH  31  32
ENDBRANCH  30  31
ENDBRANCH   1  30
TORSDOF 17
