REMARK SMILES Cc1ccc2c(c1)OCCN2c1sc(C(=O)NCCCCNC(=O)c2ccc(-c3c4nc(c(-c5ccc(S(=O)(=O)[O-])cc5)c5ccc([nH]5)c(-c5ccc(S(=O)(=O)[O-])cc5)c5nc(c(-c6ccc(S(=O)(=O)[O-])cc6)c6ccc3[nH]6)C=C5)C=C4)cc2)cc1C
REMARK SMILES IDX 20 1 19 2 18 3 17 4 15 5 16 6 14 8 12 9 13 10 86 11 85 12
REMARK SMILES IDX 87 13 11 14 1 15 2 16 3 17 7 18 4 19 6 20 5 21 8 22 9 23
REMARK SMILES IDX 10 24 21 25 22 26 23 27 24 29 25 30 26 31 84 32 27 33 83 34
REMARK SMILES IDX 28 35 29 36 30 37 77 38 31 39 82 40 76 41 78 42 32 43 81 44
REMARK SMILES IDX 75 45 74 46 33 48 63 49 44 50 62 51 45 52 48 53 61 54 79 55
REMARK SMILES IDX 46 56 47 57 60 59 80 60 49 61 34 62 35 63 43 64 36 65 42 66
REMARK SMILES IDX 37 67 38 68 39 69 40 70 41 71 64 72 65 73 73 74 66 75 72 76
REMARK SMILES IDX 67 77 68 78 69 79 70 80 71 81 50 82 51 83 59 84 52 85 58 86
REMARK SMILES IDX 53 87 54 88 55 89 56 90 57 91
REMARK H PARENT 17 7 22 28 78 47 48 58
REMARK Flexibility Score: inf
ROOT
ATOM      1  C   UNL     1       0.274 -10.310   1.958  1.00  0.00     0.023 C 
ENDROOT
BRANCH   1   2
ATOM      2  C   UNL     1       0.164  -9.014   1.147  1.00  0.00     0.023 C 
BRANCH   2   3
ATOM      3  C   UNL     1       1.508  -8.456   0.680  1.00  0.00     0.116 C 
BRANCH   3   4
ATOM      4  N   UNL     1       2.066  -9.264  -0.386  1.00  0.00    -0.351 N 
ATOM      5  C   UNL     1       2.065  -9.134  -1.753  1.00  0.00     0.261 C 
ATOM      6  O   UNL     1       2.689 -10.013  -2.357  1.00  0.00    -0.268 OA
ATOM      7  H   UNL     1       2.539 -10.066  -0.067  1.00  0.00     0.163 HD
BRANCH   5   8
ATOM      8  C   UNL     1       1.453  -8.023  -2.469  1.00  0.00     0.094 A 
ATOM      9  C   UNL     1       0.325  -5.934  -3.210  1.00  0.00     0.099 A 
ATOM     10  S   UNL     1       0.177  -7.045  -1.908  1.00  0.00    -0.112 S 
ATOM     11  C   UNL     1       1.122  -6.465  -4.213  1.00  0.00    -0.015 A 
ATOM     12  C   UNL     1       1.767  -7.665  -3.770  1.00  0.00     0.031 A 
ATOM     13  C   UNL     1       1.371  -5.866  -5.556  1.00  0.00     0.047 C 
BRANCH   9  14
ATOM     14  N   UNL     1      -0.324  -4.736  -3.226  1.00  0.00    -0.327 N 
ATOM     15  C   UNL     1       0.878  -0.117   0.010  1.00  0.00     0.044 C 
ATOM     16  C   UNL     1       0.573  -1.309  -0.846  1.00  0.00    -0.047 A 
ATOM     17  C   UNL     1       1.230  -2.521  -0.619  1.00  0.00     0.006 A 
ATOM     18  C   UNL     1      -0.384  -1.245  -1.861  1.00  0.00     0.052 A 
ATOM     19  C   UNL     1       0.949  -3.644  -1.407  1.00  0.00     0.030 A 
ATOM     20  C   UNL     1      -0.663  -2.370  -2.646  1.00  0.00     0.143 A 
ATOM     21  C   UNL     1      -0.017  -3.606  -2.425  1.00  0.00     0.085 A 
ATOM     22  O   UNL     1      -1.603  -2.171  -3.636  1.00  0.00    -0.490 OA
ATOM     23  C   UNL     1      -1.547  -3.185  -4.644  1.00  0.00     0.251 C 
ATOM     24  C   UNL     1      -1.534  -4.580  -4.031  1.00  0.00     0.165 C 
ENDBRANCH   9  14
ENDBRANCH   5   8
ENDBRANCH   3   4
ENDBRANCH   2   3
ENDBRANCH   1   2
BRANCH   1  25
ATOM     25  C   UNL     1       1.095 -10.210   3.240  1.00  0.00     0.116 C 
BRANCH  25  26
ATOM     26  N   UNL     1       0.614  -9.190   4.160  1.00  0.00    -0.352 N 
ATOM     27  C   UNL     1       0.599  -9.212   5.536  1.00  0.00     0.251 C 
ATOM     28  H   UNL     1       0.250  -8.376   3.743  1.00  0.00     0.163 HD
ATOM     29  O   UNL     1       0.061  -8.303   6.160  1.00  0.00    -0.269 OA
BRANCH  27  30
ATOM     30  C   UNL     1       1.197 -10.359   6.252  1.00  0.00     0.039 A 
ATOM     31  C   UNL     1       2.449 -10.853   5.884  1.00  0.00     0.014 A 
ATOM     32  C   UNL     1       0.476 -10.970   7.283  1.00  0.00     0.014 A 
ATOM     33  C   UNL     1       2.905 -12.046   6.431  1.00  0.00     0.010 A 
ATOM     34  C   UNL     1       0.976 -12.126   7.890  1.00  0.00     0.010 A 
ATOM     35  C   UNL     1       2.173 -12.700   7.438  1.00  0.00    -0.014 A 
BRANCH  35  36
ATOM     36  C   UNL     1       2.700 -13.969   8.002  1.00  0.00     0.031 A 
ATOM     37  C   UNL     1       1.978 -15.273   7.790  1.00  0.00     0.074 A 
ATOM     38  C   UNL     1       3.887 -13.950   8.641  1.00  0.00     0.049 A 
ATOM     39  N   UNL     1       2.356 -16.480   8.129  1.00  0.00    -0.248 NA
ATOM     40  C   UNL     1       0.670 -15.224   7.117  1.00  0.00     0.031 C 
ATOM     41  C   UNL     1       4.679 -12.746   8.901  1.00  0.00     0.029 A 
ATOM     42  N   UNL     1       4.654 -14.969   9.147  1.00  0.00    -0.354 N 
ATOM     43  C   UNL     1       1.334 -17.329   7.721  1.00  0.00     0.074 A 
ATOM     44  C   UNL     1       0.304 -16.499   7.136  1.00  0.00     0.031 C 
ATOM     45  C   UNL     1       5.851 -13.101   9.446  1.00  0.00     0.029 A 
ATOM     46  C   UNL     1       5.870 -14.549   9.633  1.00  0.00     0.049 A 
ATOM     47  H   UNL     1       4.363 -15.909   9.162  1.00  0.00     0.167 HD
ATOM     48  C   UNL     1       1.270 -18.678   7.812  1.00  0.00     0.031 A 
ATOM     49  C   UNL     1       6.894 -15.242  10.168  1.00  0.00     0.031 A 
ATOM     50  C   UNL     1       2.307 -19.501   8.381  1.00  0.00     0.049 A 
ATOM     51  C   UNL     1       6.786 -16.734  10.284  1.00  0.00     0.074 A 
ATOM     52  C   UNL     1       2.341 -20.881   8.486  1.00  0.00     0.029 A 
ATOM     53  N   UNL     1       3.487 -19.028   8.934  1.00  0.00    -0.354 N 
ATOM     54  N   UNL     1       5.818 -17.518   9.876  1.00  0.00    -0.248 NA
ATOM     55  C   UNL     1       7.900 -17.435  10.936  1.00  0.00     0.031 C 
ATOM     56  C   UNL     1       3.514 -21.238   9.157  1.00  0.00     0.029 A 
ATOM     57  C   UNL     1       4.241 -20.087   9.412  1.00  0.00     0.049 A 
ATOM     58  H   UNL     1       3.750 -18.081   8.980  1.00  0.00     0.167 HD
ATOM     59  C   UNL     1       6.201 -18.806  10.228  1.00  0.00     0.074 A 
ATOM     60  C   UNL     1       7.504 -18.700  10.853  1.00  0.00     0.031 C 
ATOM     61  C   UNL     1       5.526 -19.968  10.056  1.00  0.00     0.031 A 
BRANCH  48  62
ATOM     62  C   UNL     1       0.042 -19.376   7.287  1.00  0.00    -0.014 A 
ATOM     63  C   UNL     1      -0.838 -20.009   8.185  1.00  0.00     0.010 A 
ATOM     64  C   UNL     1      -0.173 -19.516   5.905  1.00  0.00     0.010 A 
ATOM     65  C   UNL     1      -1.892 -20.795   7.711  1.00  0.00     0.020 A 
ATOM     66  C   UNL     1      -1.242 -20.282   5.427  1.00  0.00     0.020 A 
ATOM     67  C   UNL     1      -2.080 -20.936   6.334  1.00  0.00     0.054 A 
BRANCH  67  68
ATOM     68  S   UNL     1      -3.435 -21.984   5.735  1.00  0.00     0.124 S 
ATOM     69  O   UNL     1      -2.901 -23.326   5.939  1.00  0.00    -0.237 OA
ATOM     70  O   UNL     1      -4.543 -21.605   6.609  1.00  0.00    -0.237 OA
ATOM     71  O   UNL     1      -3.590 -21.576   4.340  1.00  0.00    -0.744 OA
ENDBRANCH  67  68
ENDBRANCH  48  62
BRANCH  49  72
ATOM     72  C   UNL     1       8.110 -14.507  10.610  1.00  0.00    -0.014 A 
ATOM     73  C   UNL     1       8.046 -13.629  11.709  1.00  0.00     0.010 A 
ATOM     74  C   UNL     1       9.303 -14.596   9.874  1.00  0.00     0.010 A 
ATOM     75  C   UNL     1       9.129 -12.806  12.023  1.00  0.00     0.020 A 
ATOM     76  C   UNL     1      10.401 -13.794  10.204  1.00  0.00     0.020 A 
ATOM     77  C   UNL     1      10.293 -12.880  11.256  1.00  0.00     0.054 A 
BRANCH  77  78
ATOM     78  S   UNL     1      11.665 -11.756  11.637  1.00  0.00     0.124 S 
ATOM     79  O   UNL     1      11.215 -10.516  11.011  1.00  0.00    -0.237 OA
ATOM     80  O   UNL     1      11.682 -11.752  13.098  1.00  0.00    -0.237 OA
ATOM     81  O   UNL     1      12.815 -12.396  11.005  1.00  0.00    -0.744 OA
ENDBRANCH  77  78
ENDBRANCH  49  72
BRANCH  61  82
ATOM     82  C   UNL     1       6.156 -21.232  10.577  1.00  0.00    -0.014 A 
ATOM     83  C   UNL     1       6.617 -22.211   9.679  1.00  0.00     0.010 A 
ATOM     84  C   UNL     1       6.187 -21.497  11.958  1.00  0.00     0.010 A 
ATOM     85  C   UNL     1       7.069 -23.446  10.149  1.00  0.00     0.020 A 
ATOM     86  C   UNL     1       6.665 -22.721  12.433  1.00  0.00     0.020 A 
ATOM     87  C   UNL     1       7.081 -23.697  11.524  1.00  0.00     0.054 A 
BRANCH  87  88
ATOM     88  S   UNL     1       7.654 -25.312  12.118  1.00  0.00     0.124 S 
ATOM     89  O   UNL     1       6.490 -26.159  11.874  1.00  0.00    -0.237 OA
ATOM     90  O   UNL     1       8.814 -25.575  11.269  1.00  0.00    -0.237 OA
ATOM     91  O   UNL     1       7.965 -25.067  13.525  1.00  0.00    -0.744 OA
ENDBRANCH  87  88
ENDBRANCH  61  82
ENDBRANCH  35  36
ENDBRANCH  27  30
ENDBRANCH  25  26
ENDBRANCH   1  25
TORSDOF 15
