REMARK SMILES CC(C)[C@H](NC(=O)OCc1ccccc1)C(=O)NCC(=O)NCCCCNC(=O)c1ccc(-c2c3nc(c(-c4ccc(S(=O)(=O)[O-])cc4)c4ccc([nH]4)c(-c4ccc(S(=O)(=O)[O-])cc4)c4nc(c(-c5ccc(S(=O)(=O)[O-])cc5)c5ccc2[nH]5)C=C4)C=C3)cc1
REMARK SMILES IDX 23 1 22 2 20 3 21 4 19 6 18 7 16 8 17 9 4 11 2 12 1 13 3 14
REMARK SMILES IDX 5 15 6 16 7 18 8 19 9 20 10 21 11 22 15 23 12 24 14 25 13 26
REMARK SMILES IDX 24 27 25 28 26 29 27 30 28 31 29 33 30 34 31 35 89 36 32 37
REMARK SMILES IDX 88 38 33 39 34 40 35 41 82 42 36 43 87 44 81 45 83 46 37 47
REMARK SMILES IDX 86 48 80 49 79 50 38 52 68 53 49 54 67 55 50 56 53 57 66 58
REMARK SMILES IDX 84 59 51 60 52 61 65 63 85 64 54 65 39 66 40 67 48 68 41 69
REMARK SMILES IDX 47 70 42 71 43 72 44 73 45 74 46 75 69 76 70 77 78 78 71 79
REMARK SMILES IDX 77 80 72 81 73 82 74 83 75 84 76 85 55 86 56 87 64 88 57 89
REMARK SMILES IDX 63 90 58 91 59 92 60 93 61 94 62 95
REMARK H PARENT 22 5 18 10 5 17 27 32 83 51 53 62
REMARK Flexibility Score: inf
ROOT
ATOM      1  C   UNL     1       2.731   2.746  -1.509  1.00  0.00     0.116 C 
ENDROOT
BRANCH   1   2
ATOM      2  N   UNL     1       2.344   3.990  -2.160  1.00  0.00    -0.355 N 
ATOM      3  C   UNL     1       1.081   4.474  -2.372  1.00  0.00     0.239 C 
ATOM      4  O   UNL     1       0.916   5.461  -3.090  1.00  0.00    -0.273 OA
ATOM      5  H   UNL     1       3.082   4.552  -2.489  1.00  0.00     0.163 HD
BRANCH   3   6
ATOM      6  C   UNL     1      -0.099   3.773  -1.700  1.00  0.00     0.216 C 
BRANCH   6   7
ATOM      7  N   UNL     1      -1.134   3.355  -2.613  1.00  0.00    -0.345 N 
ATOM      8  C   UNL     1      -1.870   2.214  -2.620  1.00  0.00     0.243 C 
ATOM      9  O   UNL     1      -2.825   2.172  -3.407  1.00  0.00    -0.273 OA
ATOM     10  H   UNL     1      -1.337   3.990  -3.337  1.00  0.00     0.164 HD
BRANCH   8  11
ATOM     11  C   UNL     1      -1.582   0.982  -1.703  1.00  0.00     0.177 C 
BRANCH  11  12
ATOM     12  C   UNL     1      -1.807   1.174  -0.159  1.00  0.00     0.015 C 
ATOM     13  C   UNL     1      -0.578   1.355   0.751  1.00  0.00     0.010 C 
ATOM     14  C   UNL     1      -2.841   2.255   0.167  1.00  0.00     0.010 C 
ENDBRANCH  11  12
BRANCH  11  15
ATOM     15  N   UNL     1      -0.359   0.233  -2.000  1.00  0.00    -0.309 N 
ATOM     16  C   UNL     1       0.065  -0.213  -3.227  1.00  0.00     0.408 C 
ATOM     17  H   UNL     1       0.223   0.026  -1.234  1.00  0.00     0.167 HD
ATOM     18  O   UNL     1       0.876  -1.129  -3.286  1.00  0.00    -0.225 OA
BRANCH  16  19
ATOM     19  O   UNL     1      -0.386   0.518  -4.269  1.00  0.00    -0.445 OA
BRANCH  19  20
ATOM     20  C   UNL     1       0.216   0.272  -5.561  1.00  0.00     0.270 C 
BRANCH  20  21
ATOM     21  C   UNL     1       1.091   1.428  -6.011  1.00  0.00    -0.011 A 
ATOM     22  C   UNL     1       2.214   1.193  -6.825  1.00  0.00     0.007 A 
ATOM     23  C   UNL     1       0.812   2.750  -5.641  1.00  0.00     0.007 A 
ATOM     24  C   UNL     1       3.076   2.240  -7.177  1.00  0.00     0.000 A 
ATOM     25  C   UNL     1       1.677   3.794  -5.985  1.00  0.00     0.000 A 
ATOM     26  C   UNL     1       2.817   3.537  -6.740  1.00  0.00     0.000 A 
ENDBRANCH  20  21
ENDBRANCH  19  20
ENDBRANCH  16  19
ENDBRANCH  11  15
ENDBRANCH   8  11
ENDBRANCH   6   7
ENDBRANCH   3   6
ENDBRANCH   1   2
BRANCH   1  27
ATOM     27  C   UNL     1       2.567   1.571  -2.461  1.00  0.00     0.023 C 
BRANCH  27  28
ATOM     28  C   UNL     1       3.696   1.466  -3.474  1.00  0.00     0.023 C 
BRANCH  28  29
ATOM     29  C   UNL     1       4.691   0.373  -3.139  1.00  0.00     0.116 C 
BRANCH  29  30
ATOM     30  N   UNL     1       4.259  -0.949  -3.589  1.00  0.00    -0.352 N 
ATOM     31  C   UNL     1       4.790  -1.818  -4.521  1.00  0.00     0.251 C 
ATOM     32  H   UNL     1       3.443  -1.279  -3.149  1.00  0.00     0.163 HD
ATOM     33  O   UNL     1       4.184  -2.854  -4.790  1.00  0.00    -0.269 OA
BRANCH  31  34
ATOM     34  C   UNL     1       6.046  -1.508  -5.252  1.00  0.00     0.039 A 
ATOM     35  C   UNL     1       6.203  -1.957  -6.569  1.00  0.00     0.014 A 
ATOM     36  C   UNL     1       7.074  -0.775  -4.670  1.00  0.00     0.014 A 
ATOM     37  C   UNL     1       7.334  -1.589  -7.312  1.00  0.00     0.010 A 
ATOM     38  C   UNL     1       8.099  -0.265  -5.455  1.00  0.00     0.010 A 
ATOM     39  C   UNL     1       8.268  -0.687  -6.780  1.00  0.00    -0.014 A 
BRANCH  39  40
ATOM     40  C   UNL     1       9.460  -0.203  -7.532  1.00  0.00     0.031 A 
ATOM     41  C   UNL     1      10.833  -0.331  -6.910  1.00  0.00     0.074 A 
ATOM     42  C   UNL     1       9.319   0.448  -8.705  1.00  0.00     0.049 A 
ATOM     43  N   UNL     1      11.965   0.215  -7.273  1.00  0.00    -0.248 NA
ATOM     44  C   UNL     1      10.929  -1.131  -5.675  1.00  0.00     0.031 C 
ATOM     45  C   UNL     1       8.055   0.685  -9.407  1.00  0.00     0.029 A 
ATOM     46  N   UNL     1      10.258   1.045  -9.512  1.00  0.00    -0.354 N 
ATOM     47  C   UNL     1      12.880  -0.117  -6.278  1.00  0.00     0.074 A 
ATOM     48  C   UNL     1      12.157  -0.855  -5.268  1.00  0.00     0.031 C 
ATOM     49  C   UNL     1       8.302   1.337 -10.555  1.00  0.00     0.029 A 
ATOM     50  C   UNL     1       9.730   1.619 -10.645  1.00  0.00     0.049 A 
ATOM     51  H   UNL     1      11.219   1.061  -9.298  1.00  0.00     0.167 HD
ATOM     52  C   UNL     1      14.209   0.140  -6.220  1.00  0.00     0.031 A 
ATOM     53  C   UNL     1      10.326   2.302 -11.642  1.00  0.00     0.031 A 
ATOM     54  C   UNL     1      14.940   0.804  -7.263  1.00  0.00     0.049 A 
ATOM     55  C   UNL     1      11.812   2.533 -11.587  1.00  0.00     0.074 A 
ATOM     56  C   UNL     1      16.301   1.038  -7.347  1.00  0.00     0.029 A 
ATOM     57  N   UNL     1      14.371   1.320  -8.418  1.00  0.00    -0.354 N 
ATOM     58  N   UNL     1      12.666   2.182 -10.655  1.00  0.00    -0.248 NA
ATOM     59  C   UNL     1      12.415   3.245 -12.722  1.00  0.00     0.031 C 
ATOM     60  C   UNL     1      16.550   1.727  -8.539  1.00  0.00     0.029 A 
ATOM     61  C   UNL     1      15.351   1.878  -9.218  1.00  0.00     0.049 A 
ATOM     62  H   UNL     1      13.411   1.294  -8.635  1.00  0.00     0.167 HD
ATOM     63  C   UNL     1      13.912   2.605 -11.105  1.00  0.00     0.074 A 
ATOM     64  C   UNL     1      13.701   3.229 -12.395  1.00  0.00     0.031 C 
ATOM     65  C   UNL     1      15.121   2.486 -10.504  1.00  0.00     0.031 A 
BRANCH  52  66
ATOM     66  C   UNL     1      14.951  -0.314  -4.987  1.00  0.00    -0.014 A 
ATOM     67  C   UNL     1      15.124  -1.681  -4.700  1.00  0.00     0.010 A 
ATOM     68  C   UNL     1      15.484   0.640  -4.102  1.00  0.00     0.010 A 
ATOM     69  C   UNL     1      15.751  -2.085  -3.519  1.00  0.00     0.020 A 
ATOM     70  C   UNL     1      16.145   0.240  -2.936  1.00  0.00     0.020 A 
ATOM     71  C   UNL     1      16.250  -1.121  -2.639  1.00  0.00     0.054 A 
BRANCH  71  72
ATOM     72  S   UNL     1      17.053  -1.671  -1.109  1.00  0.00     0.124 S 
ATOM     73  O   UNL     1      15.906  -2.071  -0.296  1.00  0.00    -0.237 OA
ATOM     74  O   UNL     1      17.907  -2.763  -1.568  1.00  0.00    -0.237 OA
ATOM     75  O   UNL     1      17.762  -0.482  -0.642  1.00  0.00    -0.744 OA
ENDBRANCH  71  72
ENDBRANCH  52  66
BRANCH  53  76
ATOM     76  C   UNL     1       9.519   2.781 -12.798  1.00  0.00    -0.014 A 
ATOM     77  C   UNL     1       9.630   2.144 -14.046  1.00  0.00     0.010 A 
ATOM     78  C   UNL     1       8.612   3.847 -12.653  1.00  0.00     0.010 A 
ATOM     79  C   UNL     1       8.858   2.568 -15.131  1.00  0.00     0.020 A 
ATOM     80  C   UNL     1       7.819   4.258 -13.729  1.00  0.00     0.020 A 
ATOM     81  C   UNL     1       7.953   3.620 -14.965  1.00  0.00     0.054 A 
BRANCH  81  82
ATOM     82  S   UNL     1       6.913   4.107 -16.370  1.00  0.00     0.124 S 
ATOM     83  O   UNL     1       7.868   4.801 -17.229  1.00  0.00    -0.237 OA
ATOM     84  O   UNL     1       6.433   2.821 -16.868  1.00  0.00    -0.237 OA
ATOM     85  O   UNL     1       5.889   4.952 -15.760  1.00  0.00    -0.744 OA
ENDBRANCH  81  82
ENDBRANCH  53  76
BRANCH  65  86
ATOM     86  C   UNL     1      16.321   3.001 -11.251  1.00  0.00    -0.014 A 
ATOM     87  C   UNL     1      16.572   4.379 -11.366  1.00  0.00     0.010 A 
ATOM     88  C   UNL     1      17.249   2.085 -11.781  1.00  0.00     0.010 A 
ATOM     89  C   UNL     1      17.720   4.833 -12.020  1.00  0.00     0.020 A 
ATOM     90  C   UNL     1      18.410   2.536 -12.413  1.00  0.00     0.020 A 
ATOM     91  C   UNL     1      18.633   3.909 -12.537  1.00  0.00     0.054 A 
BRANCH  91  92
ATOM     92  S   UNL     1      20.144   4.523 -13.329  1.00  0.00     0.124 S 
ATOM     93  O   UNL     1      19.639   5.015 -14.608  1.00  0.00    -0.237 OA
ATOM     94  O   UNL     1      20.600   5.551 -12.396  1.00  0.00    -0.237 OA
ATOM     95  O   UNL     1      20.998   3.340 -13.410  1.00  0.00    -0.744 OA
ENDBRANCH  91  92
ENDBRANCH  65  86
ENDBRANCH  39  40
ENDBRANCH  31  34
ENDBRANCH  29  30
ENDBRANCH  28  29
ENDBRANCH  27  28
ENDBRANCH   1  27
TORSDOF 21
