REMARK SMILES CCC(CC)(NC(=O)c1cc(C)ccc1OC)C(=O)NCCCCNC(=O)c1ccc(-c2c3nc(c(-c4ccc(S(=O)(=O)[O-])cc4)c4ccc([nH]4)c(-c4ccc(S(=O)(=O)[O-])cc4)c4nc(c(-c5ccc(S(=O)(=O)[O-])cc5)c5ccc2[nH]5)C=C4)C=C3)cc1
REMARK SMILES IDX 22 1 21 2 20 3 18 4 19 5 3 7 2 8 1 9 4 10 5 11 6 12 7 13
REMARK SMILES IDX 8 15 9 16 10 17 15 18 11 19 14 20 12 21 13 22 16 23 17 24
REMARK SMILES IDX 23 25 24 26 25 27 26 28 27 30 28 31 29 32 87 33 30 34 86 35
REMARK SMILES IDX 31 36 32 37 33 38 80 39 34 40 85 41 79 42 81 43 35 44 84 45
REMARK SMILES IDX 78 46 77 47 36 49 66 50 47 51 65 52 48 53 51 54 64 55 82 56
REMARK SMILES IDX 49 57 50 58 63 60 83 61 52 62 37 63 38 64 46 65 39 66 45 67
REMARK SMILES IDX 40 68 41 69 42 70 43 71 44 72 67 73 68 74 76 75 69 76 75 77
REMARK SMILES IDX 70 78 71 79 72 80 73 81 74 82 53 83 54 84 62 85 55 86 61 87
REMARK SMILES IDX 56 88 57 89 58 90 59 91 60 92
REMARK H PARENT 20 6 6 14 25 29 81 48 51 59
REMARK Flexibility Score: inf
ROOT
ATOM      1  C   UNL     1       2.186   5.668   2.555  1.00  0.00     0.023 C 
ENDROOT
BRANCH   1   2
ATOM      2  C   UNL     1       2.384   4.723   1.313  1.00  0.00     0.116 C 
BRANCH   2   3
ATOM      3  N   UNL     1       2.926   3.346   1.315  1.00  0.00    -0.354 N 
ATOM      4  C   UNL     1       2.542   2.027   1.376  1.00  0.00     0.245 C 
ATOM      5  O   UNL     1       3.492   1.242   1.185  1.00  0.00    -0.272 OA
ATOM      6  H   UNL     1       3.908   3.390   1.250  1.00  0.00     0.163 HD
BRANCH   4   7
ATOM      7  C   UNL     1       1.109   1.388   1.749  1.00  0.00     0.118 C 
BRANCH   7   8
ATOM      8  C   UNL     1       0.994   0.061   0.897  1.00  0.00     0.035 C 
ATOM      9  C   UNL     1       1.071   0.177  -0.620  1.00  0.00     0.007 C 
ENDBRANCH   7   8
BRANCH   7  10
ATOM     10  C   UNL     1      -0.011   2.387   1.345  1.00  0.00     0.035 C 
ATOM     11  C   UNL     1      -1.448   1.871   1.351  1.00  0.00     0.007 C 
ENDBRANCH   7  10
BRANCH   7  12
ATOM     12  N   UNL     1       0.808   0.834   3.172  1.00  0.00    -0.338 N 
ATOM     13  C   UNL     1       1.508   0.528   4.335  1.00  0.00     0.255 C 
ATOM     14  H   UNL     1      -0.153   0.646   3.280  1.00  0.00     0.164 HD
ATOM     15  O   UNL     1       1.014  -0.273   5.130  1.00  0.00    -0.269 OA
BRANCH  13  16
ATOM     16  C   UNL     1       2.758   1.224   4.710  1.00  0.00     0.082 A 
ATOM     17  C   UNL     1       3.646   0.881   5.734  1.00  0.00     0.021 A 
ATOM     18  C   UNL     1       2.962   2.453   4.158  1.00  0.00     0.131 A 
ATOM     19  C   UNL     1       4.840   1.625   5.885  1.00  0.00    -0.050 A 
ATOM     20  C   UNL     1       4.261   2.911   3.991  1.00  0.00     0.047 A 
ATOM     21  C   UNL     1       5.600   1.707   7.174  1.00  0.00     0.044 C 
ATOM     22  C   UNL     1       5.232   2.481   4.862  1.00  0.00     0.007 A 
BRANCH  18  23
ATOM     23  O   UNL     1       1.902   3.241   3.801  1.00  0.00    -0.496 OA
ATOM     24  C   UNL     1       0.947   3.450   4.856  1.00  0.00     0.278 C 
ENDBRANCH  18  23
ENDBRANCH  13  16
ENDBRANCH   7  12
ENDBRANCH   4   7
ENDBRANCH   2   3
ENDBRANCH   1   2
BRANCH   1  25
ATOM     25  C   UNL     1       3.006   5.889   3.863  1.00  0.00     0.023 C 
BRANCH  25  26
ATOM     26  C   UNL     1       4.370   6.560   3.824  1.00  0.00     0.116 C 
BRANCH  26  27
ATOM     27  N   UNL     1       4.773   7.151   5.122  1.00  0.00    -0.352 N 
ATOM     28  C   UNL     1       5.904   7.914   5.419  1.00  0.00     0.251 C 
ATOM     29  H   UNL     1       4.162   6.983   5.875  1.00  0.00     0.163 HD
ATOM     30  O   UNL     1       6.191   8.360   6.487  1.00  0.00    -0.269 OA
BRANCH  28  31
ATOM     31  C   UNL     1       6.741   8.240   4.240  1.00  0.00     0.039 A 
ATOM     32  C   UNL     1       6.438   9.453   3.611  1.00  0.00     0.014 A 
ATOM     33  C   UNL     1       7.321   7.166   3.569  1.00  0.00     0.014 A 
ATOM     34  C   UNL     1       6.462   9.492   2.228  1.00  0.00     0.010 A 
ATOM     35  C   UNL     1       7.279   7.187   2.191  1.00  0.00     0.010 A 
ATOM     36  C   UNL     1       6.758   8.312   1.539  1.00  0.00    -0.014 A 
BRANCH  36  37
ATOM     37  C   UNL     1       6.415   8.164   0.134  1.00  0.00     0.031 A 
ATOM     38  C   UNL     1       7.464   8.441  -0.853  1.00  0.00     0.074 A 
ATOM     39  C   UNL     1       5.141   7.927  -0.254  1.00  0.00     0.049 A 
ATOM     40  N   UNL     1       7.267   9.085  -1.950  1.00  0.00    -0.248 NA
ATOM     41  C   UNL     1       8.859   8.098  -0.605  1.00  0.00     0.031 C 
ATOM     42  C   UNL     1       4.669   7.712  -1.618  1.00  0.00     0.029 A 
ATOM     43  N   UNL     1       3.970   8.083   0.494  1.00  0.00    -0.354 N 
ATOM     44  C   UNL     1       8.440   9.023  -2.664  1.00  0.00     0.074 A 
ATOM     45  C   UNL     1       9.423   8.487  -1.750  1.00  0.00     0.031 C 
ATOM     46  C   UNL     1       3.369   8.046  -1.674  1.00  0.00     0.029 A 
ATOM     47  C   UNL     1       2.986   8.573  -0.371  1.00  0.00     0.049 A 
ATOM     48  H   UNL     1       3.859   7.885   1.452  1.00  0.00     0.167 HD
ATOM     49  C   UNL     1       8.438   9.284  -4.000  1.00  0.00     0.031 A 
ATOM     50  C   UNL     1       2.286   9.719  -0.147  1.00  0.00     0.031 A 
ATOM     51  C   UNL     1       7.102   9.630  -4.475  1.00  0.00     0.049 A 
ATOM     52  C   UNL     1       2.500  10.737  -1.247  1.00  0.00     0.074 A 
ATOM     53  C   UNL     1       6.099   8.870  -5.055  1.00  0.00     0.029 A 
ATOM     54  N   UNL     1       6.509  10.818  -4.064  1.00  0.00    -0.354 N 
ATOM     55  N   UNL     1       3.469  10.671  -2.120  1.00  0.00    -0.248 NA
ATOM     56  C   UNL     1       1.666  11.920  -1.433  1.00  0.00     0.031 C 
ATOM     57  C   UNL     1       4.877   9.578  -4.920  1.00  0.00     0.029 A 
ATOM     58  C   UNL     1       5.145  10.784  -4.296  1.00  0.00     0.049 A 
ATOM     59  H   UNL     1       6.991  11.577  -3.664  1.00  0.00     0.167 HD
ATOM     60  C   UNL     1       3.405  11.750  -2.966  1.00  0.00     0.074 A 
ATOM     61  C   UNL     1       2.251  12.498  -2.498  1.00  0.00     0.031 C 
ATOM     62  C   UNL     1       4.306  11.935  -3.977  1.00  0.00     0.031 A 
BRANCH  49  63
ATOM     63  C   UNL     1       9.584   8.854  -4.880  1.00  0.00    -0.014 A 
ATOM     64  C   UNL     1       9.322   8.347  -6.168  1.00  0.00     0.010 A 
ATOM     65  C   UNL     1      10.929   8.846  -4.462  1.00  0.00     0.010 A 
ATOM     66  C   UNL     1      10.326   7.749  -6.943  1.00  0.00     0.020 A 
ATOM     67  C   UNL     1      11.933   8.207  -5.203  1.00  0.00     0.020 A 
ATOM     68  C   UNL     1      11.621   7.649  -6.438  1.00  0.00     0.054 A 
BRANCH  68  69
ATOM     69  S   UNL     1      12.879   6.775  -7.406  1.00  0.00     0.124 S 
ATOM     70  O   UNL     1      12.237   5.489  -7.671  1.00  0.00    -0.237 OA
ATOM     71  O   UNL     1      13.042   7.648  -8.564  1.00  0.00    -0.237 OA
ATOM     72  O   UNL     1      14.028   6.713  -6.505  1.00  0.00    -0.744 OA
ENDBRANCH  68  69
ENDBRANCH  49  63
BRANCH  50  73
ATOM     73  C   UNL     1       1.985  10.030   1.279  1.00  0.00    -0.014 A 
ATOM     74  C   UNL     1       0.958   9.301   1.914  1.00  0.00     0.010 A 
ATOM     75  C   UNL     1       2.877  10.762   2.082  1.00  0.00     0.010 A 
ATOM     76  C   UNL     1       0.882   9.221   3.311  1.00  0.00     0.020 A 
ATOM     77  C   UNL     1       2.811  10.675   3.484  1.00  0.00     0.020 A 
ATOM     78  C   UNL     1       1.840   9.870   4.089  1.00  0.00     0.054 A 
BRANCH  78  79
ATOM     79  S   UNL     1       1.805   9.651   5.899  1.00  0.00     0.124 S 
ATOM     80  O   UNL     1       0.375   9.680   6.194  1.00  0.00    -0.237 OA
ATOM     81  O   UNL     1       2.446   8.348   6.069  1.00  0.00    -0.237 OA
ATOM     82  O   UNL     1       2.567  10.795   6.385  1.00  0.00    -0.744 OA
ENDBRANCH  78  79
ENDBRANCH  50  73
BRANCH  62  83
ATOM     83  C   UNL     1       4.454  13.169  -4.844  1.00  0.00    -0.014 A 
ATOM     84  C   UNL     1       3.957  14.440  -4.518  1.00  0.00     0.010 A 
ATOM     85  C   UNL     1       5.252  13.083  -6.014  1.00  0.00     0.010 A 
ATOM     86  C   UNL     1       4.202  15.553  -5.338  1.00  0.00     0.020 A 
ATOM     87  C   UNL     1       5.545  14.193  -6.810  1.00  0.00     0.020 A 
ATOM     88  C   UNL     1       4.998  15.423  -6.477  1.00  0.00     0.054 A 
BRANCH  88  89
ATOM     89  S   UNL     1       5.382  16.881  -7.478  1.00  0.00     0.124 S 
ATOM     90  O   UNL     1       4.239  16.933  -8.386  1.00  0.00    -0.237 OA
ATOM     91  O   UNL     1       5.443  17.952  -6.486  1.00  0.00    -0.237 OA
ATOM     92  O   UNL     1       6.661  16.544  -8.097  1.00  0.00    -0.744 OA
ENDBRANCH  88  89
ENDBRANCH  62  83
ENDBRANCH  36  37
ENDBRANCH  28  31
ENDBRANCH  26  27
ENDBRANCH  25  26
ENDBRANCH   1  25
TORSDOF 19
