REMARK SMILES O=C(NCCCCNC(=O)c1ccc2nc(-c3c[nH]nc3-c3ccc(F)cc3F)[nH]c2c1)c1ccc(-c2c3nc(c(-c4ccc(S(=O)(=O)[O-])cc4)c4ccc([nH]4)c(-c4ccc(S(=O)(=O)[O-])cc4)c4nc(c(-c5ccc(S(=O)(=O)[O-])cc5)c5ccc2[nH]5)C=C4)C=C3)cc1
REMARK SMILES IDX 5 1 4 2 3 3 1 4 2 5 33 7 34 8 92 9 35 10 91 11 36 12 37 13
REMARK SMILES IDX 38 14 85 15 39 16 90 17 84 18 86 19 40 20 89 21 83 22 82 23
REMARK SMILES IDX 41 25 71 26 52 27 70 28 53 29 56 30 69 31 87 32 54 33 55 34
REMARK SMILES IDX 68 36 88 37 57 38 42 39 43 40 51 41 44 42 50 43 45 44 46 45
REMARK SMILES IDX 47 46 48 47 49 48 72 49 73 50 81 51 74 52 80 53 75 54 76 55
REMARK SMILES IDX 77 56 78 57 79 58 58 59 59 60 67 61 60 62 66 63 61 64 62 65
REMARK SMILES IDX 63 66 64 67 65 68 6 69 7 70 8 71 9 72 10 74 11 75 12 76
REMARK SMILES IDX 32 77 13 78 31 79 14 80 30 81 15 82 16 83 17 85 18 86 21 87
REMARK SMILES IDX 19 88 20 89 22 91 23 92 28 93 24 94 27 95 29 96 25 97 26 98
REMARK H PARENT 3 6 86 24 56 35 8 73 30 84 19 90
REMARK Flexibility Score: inf
ROOT
ATOM      1  C   UNL     1       4.902  -2.571  -0.976  1.00  0.00     0.023 C 
ENDROOT
BRANCH   1   2
ATOM      2  C   UNL     1       4.631  -1.073  -0.914  1.00  0.00     0.116 C 
BRANCH   2   3
ATOM      3  N   UNL     1       3.214  -0.745  -0.947  1.00  0.00    -0.352 N 
ATOM      4  O   UNL     1       1.257   0.094  -0.203  1.00  0.00    -0.269 OA
ATOM      5  C   UNL     1       2.477   0.026  -0.078  1.00  0.00     0.251 C 
ATOM      6  H   UNL     1       2.709  -1.130  -1.700  1.00  0.00     0.163 HD
BRANCH   5   7
ATOM      7  C   UNL     1       3.153   0.739   1.029  1.00  0.00     0.039 A 
ATOM      8  C   UNL     1       4.333   1.450   0.804  1.00  0.00     0.014 A 
ATOM      9  C   UNL     1       2.613   0.668   2.317  1.00  0.00     0.014 A 
ATOM     10  C   UNL     1       5.061   1.934   1.885  1.00  0.00     0.010 A 
ATOM     11  C   UNL     1       3.303   1.236   3.393  1.00  0.00     0.010 A 
ATOM     12  C   UNL     1       4.559   1.831   3.194  1.00  0.00    -0.014 A 
BRANCH  12  13
ATOM     13  C   UNL     1       5.362   2.370   4.323  1.00  0.00     0.031 A 
ATOM     14  C   UNL     1       5.913   1.463   5.393  1.00  0.00     0.074 A 
ATOM     15  C   UNL     1       5.643   3.688   4.349  1.00  0.00     0.049 A 
ATOM     16  N   UNL     1       6.697   1.762   6.399  1.00  0.00    -0.248 NA
ATOM     17  C   UNL     1       5.535   0.042   5.333  1.00  0.00     0.031 C 
ATOM     18  C   UNL     1       5.162   4.672   3.376  1.00  0.00     0.029 A 
ATOM     19  N   UNL     1       6.428   4.422   5.201  1.00  0.00    -0.354 N 
ATOM     20  C   UNL     1       6.880   0.580   7.108  1.00  0.00     0.074 A 
ATOM     21  C   UNL     1       6.112  -0.440   6.426  1.00  0.00     0.031 C 
ATOM     22  C   UNL     1       5.716   5.863   3.643  1.00  0.00     0.029 A 
ATOM     23  C   UNL     1       6.543   5.743   4.838  1.00  0.00     0.049 A 
ATOM     24  H   UNL     1       6.866   4.040   5.996  1.00  0.00     0.167 HD
ATOM     25  C   UNL     1       7.622   0.361   8.222  1.00  0.00     0.031 A 
ATOM     26  C   UNL     1       7.238   6.750   5.400  1.00  0.00     0.031 A 
ATOM     27  C   UNL     1       8.399   1.373   8.890  1.00  0.00     0.049 A 
ATOM     28  C   UNL     1       8.055   6.480   6.629  1.00  0.00     0.074 A 
ATOM     29  C   UNL     1       9.215   1.237  10.001  1.00  0.00     0.029 A 
ATOM     30  N   UNL     1       8.459   2.705   8.512  1.00  0.00    -0.354 N 
ATOM     31  N   UNL     1       8.238   5.347   7.263  1.00  0.00    -0.248 NA
ATOM     32  C   UNL     1       8.761   7.626   7.217  1.00  0.00     0.031 C 
ATOM     33  C   UNL     1       9.735   2.497  10.319  1.00  0.00     0.029 A 
ATOM     34  C   UNL     1       9.281   3.407   9.378  1.00  0.00     0.049 A 
ATOM     35  H   UNL     1       7.987   3.095   7.741  1.00  0.00     0.167 HD
ATOM     36  C   UNL     1       9.092   5.641   8.318  1.00  0.00     0.074 A 
ATOM     37  C   UNL     1       9.404   7.053   8.225  1.00  0.00     0.031 C 
ATOM     38  C   UNL     1       9.575   4.814   9.278  1.00  0.00     0.031 A 
BRANCH  25  39
ATOM     39  C   UNL     1       7.603  -1.025   8.811  1.00  0.00    -0.014 A 
ATOM     40  C   UNL     1       8.284  -2.091   8.196  1.00  0.00     0.010 A 
ATOM     41  C   UNL     1       6.924  -1.255  10.021  1.00  0.00     0.010 A 
ATOM     42  C   UNL     1       8.250  -3.371   8.759  1.00  0.00     0.020 A 
ATOM     43  C   UNL     1       6.907  -2.528  10.600  1.00  0.00     0.020 A 
ATOM     44  C   UNL     1       7.555  -3.583   9.954  1.00  0.00     0.054 A 
BRANCH  44  45
ATOM     45  S   UNL     1       7.531  -5.250  10.668  1.00  0.00     0.124 S 
ATOM     46  O   UNL     1       6.569  -5.932   9.806  1.00  0.00    -0.237 OA
ATOM     47  O   UNL     1       8.918  -5.684  10.524  1.00  0.00    -0.237 OA
ATOM     48  O   UNL     1       7.090  -5.032  12.044  1.00  0.00    -0.744 OA
ENDBRANCH  44  45
ENDBRANCH  25  39
BRANCH  26  49
ATOM     49  C   UNL     1       7.192   8.104   4.789  1.00  0.00    -0.014 A 
ATOM     50  C   UNL     1       8.311   8.619   4.113  1.00  0.00     0.010 A 
ATOM     51  C   UNL     1       6.013   8.870   4.849  1.00  0.00     0.010 A 
ATOM     52  C   UNL     1       8.255   9.880   3.513  1.00  0.00     0.020 A 
ATOM     53  C   UNL     1       5.945  10.119   4.229  1.00  0.00     0.020 A 
ATOM     54  C   UNL     1       7.071  10.621   3.573  1.00  0.00     0.054 A 
BRANCH  54  55
ATOM     55  S   UNL     1       6.995  12.226   2.730  1.00  0.00     0.124 S 
ATOM     56  O   UNL     1       7.708  13.091   3.663  1.00  0.00    -0.237 OA
ATOM     57  O   UNL     1       7.678  11.955   1.468  1.00  0.00    -0.237 OA
ATOM     58  O   UNL     1       5.560  12.478   2.610  1.00  0.00    -0.744 OA
ENDBRANCH  54  55
ENDBRANCH  26  49
BRANCH  38  59
ATOM     59  C   UNL     1      10.511   5.417  10.289  1.00  0.00    -0.014 A 
ATOM     60  C   UNL     1      10.034   6.264  11.305  1.00  0.00     0.010 A 
ATOM     61  C   UNL     1      11.882   5.112  10.234  1.00  0.00     0.010 A 
ATOM     62  C   UNL     1      10.921   6.830  12.225  1.00  0.00     0.020 A 
ATOM     63  C   UNL     1      12.769   5.657  11.166  1.00  0.00     0.020 A 
ATOM     64  C   UNL     1      12.284   6.528  12.145  1.00  0.00     0.054 A 
BRANCH  64  65
ATOM     65  S   UNL     1      13.417   7.254  13.361  1.00  0.00     0.124 S 
ATOM     66  O   UNL     1      13.576   8.614  12.853  1.00  0.00    -0.237 OA
ATOM     67  O   UNL     1      12.671   7.134  14.611  1.00  0.00    -0.237 OA
ATOM     68  O   UNL     1      14.607   6.411  13.271  1.00  0.00    -0.744 OA
ENDBRANCH  64  65
ENDBRANCH  38  59
ENDBRANCH  12  13
ENDBRANCH   5   7
ENDBRANCH   2   3
ENDBRANCH   1   2
BRANCH   1  69
ATOM     69  C   UNL     1       4.417  -3.275  -2.243  1.00  0.00     0.023 C 
BRANCH  69  70
ATOM     70  C   UNL     1       4.853  -2.627  -3.555  1.00  0.00     0.116 C 
BRANCH  70  71
ATOM     71  N   UNL     1       6.298  -2.531  -3.663  1.00  0.00    -0.352 N 
ATOM     72  C   UNL     1       7.130  -3.102  -4.587  1.00  0.00     0.251 C 
ATOM     73  H   UNL     1       6.740  -1.979  -2.977  1.00  0.00     0.163 HD
ATOM     74  O   UNL     1       8.348  -3.062  -4.454  1.00  0.00    -0.269 OA
BRANCH  72  75
ATOM     75  C   UNL     1       6.554  -3.784  -5.758  1.00  0.00     0.042 A 
ATOM     76  C   UNL     1       5.779  -3.060  -6.675  1.00  0.00     0.016 A 
ATOM     77  C   UNL     1       6.854  -5.141  -5.942  1.00  0.00     0.042 A 
ATOM     78  C   UNL     1       5.285  -3.681  -7.826  1.00  0.00     0.031 A 
ATOM     79  C   UNL     1       6.328  -5.733  -7.090  1.00  0.00     0.067 A 
ATOM     80  C   UNL     1       5.595  -5.032  -8.041  1.00  0.00     0.089 A 
ATOM     81  N   UNL     1       6.377  -7.014  -7.579  1.00  0.00    -0.338 N 
ATOM     82  N   UNL     1       5.313  -5.827  -9.117  1.00  0.00    -0.228 NA
ATOM     83  C   UNL     1       5.807  -7.012  -8.826  1.00  0.00     0.142 A 
ATOM     84  H   UNL     1       6.755  -7.797  -7.117  1.00  0.00     0.168 HD
BRANCH  83  85
ATOM     85  C   UNL     1       5.788  -8.162  -9.756  1.00  0.00     0.063 A 
ATOM     86  C   UNL     1       5.797  -9.491  -9.410  1.00  0.00     0.117 A 
ATOM     87  C   UNL     1       5.786  -8.129 -11.180  1.00  0.00     0.106 A 
ATOM     88  N   UNL     1       5.708 -10.168 -10.591  1.00  0.00    -0.284 N 
ATOM     89  N   UNL     1       5.746  -9.379 -11.675  1.00  0.00    -0.175 NA
ATOM     90  H   UNL     1       5.623 -11.148 -10.643  1.00  0.00     0.189 HD
BRANCH  87  91
ATOM     91  C   UNL     1       5.977  -6.973 -12.050  1.00  0.00     0.039 A 
ATOM     92  C   UNL     1       7.077  -6.121 -11.836  1.00  0.00     0.016 A 
ATOM     93  C   UNL     1       5.109  -6.696 -13.108  1.00  0.00     0.135 A 
ATOM     94  C   UNL     1       7.290  -5.015 -12.660  1.00  0.00     0.040 A 
ATOM     95  C   UNL     1       5.320  -5.595 -13.938  1.00  0.00     0.079 A 
ATOM     96  F   UNL     1       4.039  -7.471 -13.346  1.00  0.00    -0.206 F 
ATOM     97  C   UNL     1       6.409  -4.766 -13.704  1.00  0.00     0.126 A 
ATOM     98  F   UNL     1       6.617  -3.708 -14.500  1.00  0.00    -0.207 F 
ENDBRANCH  87  91
ENDBRANCH  83  85
ENDBRANCH  72  75
ENDBRANCH  70  71
ENDBRANCH  69  70
ENDBRANCH   1  69
TORSDOF 16
