REMARK SMILES O=C(NCCCCNC(=O)[C@H]1CC(=O)N(c2cccc(OC(F)(F)F)c2)C1)c1ccc(-c2c3nc(c(-c4ccc(S(=O)(=O)[O-])cc4)c4ccc([nH]4)c(-c4ccc(S(=O)(=O)[O-])cc4)c4nc(c(-c5ccc(S(=O)(=O)[O-])cc5)c5ccc2[nH]5)C=C4)C=C3)cc1
REMARK SMILES IDX 5 1 4 2 3 3 1 4 2 5 28 7 29 8 87 9 30 10 86 11 31 12 32 13
REMARK SMILES IDX 33 14 80 15 34 16 85 17 79 18 81 19 35 20 84 21 78 22 77 23
REMARK SMILES IDX 36 25 66 26 47 27 65 28 48 29 51 30 64 31 82 32 49 33 50 34
REMARK SMILES IDX 63 36 83 37 52 38 37 39 38 40 46 41 39 42 45 43 40 44 41 45
REMARK SMILES IDX 42 46 43 47 44 48 67 49 68 50 76 51 69 52 75 53 70 54 71 55
REMARK SMILES IDX 72 56 73 57 74 58 53 59 54 60 62 61 55 62 61 63 56 64 57 65
REMARK SMILES IDX 58 66 59 67 60 68 6 69 7 70 8 71 9 72 10 74 11 75 12 76
REMARK SMILES IDX 27 77 13 78 15 79 14 80 16 81 17 82 26 83 18 84 20 85 19 86
REMARK SMILES IDX 21 87 22 88 23 89 24 90 25 91
REMARK H PARENT 3 6 81 24 51 35 8 73
REMARK Flexibility Score: inf
ROOT
ATOM      1  C   UNL     1      10.305  -3.977   6.464  1.00  0.00     0.023 C 
ENDROOT
BRANCH   1   2
ATOM      2  C   UNL     1      10.962  -5.117   7.234  1.00  0.00     0.116 C 
BRANCH   2   3
ATOM      3  N   UNL     1      12.206  -5.562   6.622  1.00  0.00    -0.352 N 
ATOM      4  O   UNL     1      14.435  -5.851   6.455  1.00  0.00    -0.269 OA
ATOM      5  C   UNL     1      13.466  -5.613   7.167  1.00  0.00     0.251 C 
ATOM      6  H   UNL     1      12.134  -5.868   5.689  1.00  0.00     0.163 HD
BRANCH   5   7
ATOM      7  C   UNL     1      13.639  -5.350   8.609  1.00  0.00     0.039 A 
ATOM      8  C   UNL     1      12.801  -5.961   9.546  1.00  0.00     0.014 A 
ATOM      9  C   UNL     1      14.632  -4.461   9.021  1.00  0.00     0.014 A 
ATOM     10  C   UNL     1      12.860  -5.574  10.879  1.00  0.00     0.010 A 
ATOM     11  C   UNL     1      14.746  -4.138  10.374  1.00  0.00     0.010 A 
ATOM     12  C   UNL     1      13.839  -4.666  11.309  1.00  0.00    -0.014 A 
BRANCH  12  13
ATOM     13  C   UNL     1      13.944  -4.306  12.744  1.00  0.00     0.031 A 
ATOM     14  C   UNL     1      13.720  -2.892  13.200  1.00  0.00     0.074 A 
ATOM     15  C   UNL     1      14.269  -5.263  13.634  1.00  0.00     0.049 A 
ATOM     16  N   UNL     1      13.850  -2.384  14.399  1.00  0.00    -0.248 NA
ATOM     17  C   UNL     1      13.307  -1.919  12.177  1.00  0.00     0.031 C 
ATOM     18  C   UNL     1      14.497  -6.673  13.310  1.00  0.00     0.029 A 
ATOM     19  N   UNL     1      14.471  -5.195  14.988  1.00  0.00    -0.354 N 
ATOM     20  C   UNL     1      13.563  -1.030  14.272  1.00  0.00     0.074 A 
ATOM     21  C   UNL     1      13.275  -0.791  12.873  1.00  0.00     0.031 C 
ATOM     22  C   UNL     1      14.793  -7.339  14.435  1.00  0.00     0.029 A 
ATOM     23  C   UNL     1      14.845  -6.394  15.545  1.00  0.00     0.049 A 
ATOM     24  H   UNL     1      14.360  -4.368  15.510  1.00  0.00     0.167 HD
ATOM     25  C   UNL     1      13.545  -0.074  15.234  1.00  0.00     0.031 A 
ATOM     26  C   UNL     1      15.226  -6.699  16.799  1.00  0.00     0.031 A 
ATOM     27  C   UNL     1      13.851  -0.322  16.620  1.00  0.00     0.049 A 
ATOM     28  C   UNL     1      15.250  -5.617  17.838  1.00  0.00     0.074 A 
ATOM     29  C   UNL     1      13.836   0.571  17.677  1.00  0.00     0.029 A 
ATOM     30  N   UNL     1      14.239  -1.549  17.140  1.00  0.00    -0.354 N 
ATOM     31  N   UNL     1      14.951  -4.346  17.707  1.00  0.00    -0.248 NA
ATOM     32  C   UNL     1      15.656  -6.007  19.194  1.00  0.00     0.031 C 
ATOM     33  C   UNL     1      14.276  -0.101  18.822  1.00  0.00     0.029 A 
ATOM     34  C   UNL     1      14.492  -1.431  18.496  1.00  0.00     0.049 A 
ATOM     35  H   UNL     1      14.322  -2.382  16.620  1.00  0.00     0.167 HD
ATOM     36  C   UNL     1      15.101  -3.790  18.972  1.00  0.00     0.074 A 
ATOM     37  C   UNL     1      15.515  -4.864  19.853  1.00  0.00     0.031 C 
ATOM     38  C   UNL     1      14.901  -2.508  19.365  1.00  0.00     0.031 A 
BRANCH  25  39
ATOM     39  C   UNL     1      13.231   1.338  14.806  1.00  0.00    -0.014 A 
ATOM     40  C   UNL     1      11.950   1.703  14.353  1.00  0.00     0.010 A 
ATOM     41  C   UNL     1      14.235   2.322  14.873  1.00  0.00     0.010 A 
ATOM     42  C   UNL     1      11.698   3.006  13.915  1.00  0.00     0.020 A 
ATOM     43  C   UNL     1      13.978   3.635  14.466  1.00  0.00     0.020 A 
ATOM     44  C   UNL     1      12.718   3.962  13.965  1.00  0.00     0.054 A 
BRANCH  44  45
ATOM     45  S   UNL     1      12.370   5.639  13.367  1.00  0.00     0.124 S 
ATOM     46  O   UNL     1      12.301   5.433  11.922  1.00  0.00    -0.237 OA
ATOM     47  O   UNL     1      11.100   5.954  14.017  1.00  0.00    -0.237 OA
ATOM     48  O   UNL     1      13.514   6.418  13.832  1.00  0.00    -0.744 OA
ENDBRANCH  44  45
ENDBRANCH  25  39
BRANCH  26  49
ATOM     49  C   UNL     1      15.623  -8.097  17.116  1.00  0.00    -0.014 A 
ATOM     50  C   UNL     1      14.791  -8.917  17.896  1.00  0.00     0.010 A 
ATOM     51  C   UNL     1      16.804  -8.636  16.572  1.00  0.00     0.010 A 
ATOM     52  C   UNL     1      15.133 -10.253  18.126  1.00  0.00     0.020 A 
ATOM     53  C   UNL     1      17.134  -9.978  16.774  1.00  0.00     0.020 A 
ATOM     54  C   UNL     1      16.297 -10.777  17.555  1.00  0.00     0.054 A 
BRANCH  54  55
ATOM     55  S   UNL     1      16.671 -12.536  17.795  1.00  0.00     0.124 S 
ATOM     56  O   UNL     1      17.054 -12.576  19.202  1.00  0.00    -0.237 OA
ATOM     57  O   UNL     1      15.399 -13.174  17.466  1.00  0.00    -0.237 OA
ATOM     58  O   UNL     1      17.750 -12.790  16.843  1.00  0.00    -0.744 OA
ENDBRANCH  54  55
ENDBRANCH  26  49
BRANCH  38  59
ATOM     59  C   UNL     1      15.072  -2.192  20.828  1.00  0.00    -0.014 A 
ATOM     60  C   UNL     1      16.342  -2.138  21.427  1.00  0.00     0.010 A 
ATOM     61  C   UNL     1      13.938  -1.862  21.593  1.00  0.00     0.010 A 
ATOM     62  C   UNL     1      16.473  -1.771  22.770  1.00  0.00     0.020 A 
ATOM     63  C   UNL     1      14.066  -1.467  22.926  1.00  0.00     0.020 A 
ATOM     64  C   UNL     1      15.334  -1.431  23.509  1.00  0.00     0.054 A 
BRANCH  64  65
ATOM     65  S   UNL     1      15.538  -0.885  25.226  1.00  0.00     0.124 S 
ATOM     66  O   UNL     1      15.889  -2.131  25.903  1.00  0.00    -0.237 OA
ATOM     67  O   UNL     1      16.612   0.099  25.123  1.00  0.00    -0.237 OA
ATOM     68  O   UNL     1      14.229  -0.335  25.573  1.00  0.00    -0.744 OA
ENDBRANCH  64  65
ENDBRANCH  38  59
ENDBRANCH  12  13
ENDBRANCH   5   7
ENDBRANCH   2   3
ENDBRANCH   1   2
BRANCH   1  69
ATOM     69  C   UNL     1       9.977  -4.302   5.010  1.00  0.00     0.023 C 
BRANCH  69  70
ATOM     70  C   UNL     1       9.111  -5.543   4.837  1.00  0.00     0.116 C 
BRANCH  70  71
ATOM     71  N   UNL     1       7.749  -5.310   5.288  1.00  0.00    -0.356 N 
ATOM     72  C   UNL     1       6.594  -5.423   4.566  1.00  0.00     0.225 C 
ATOM     73  H   UNL     1       7.646  -5.038   6.229  1.00  0.00     0.163 HD
ATOM     74  O   UNL     1       5.520  -5.113   5.073  1.00  0.00    -0.275 OA
BRANCH  72  75
ATOM     75  C   UNL     1       6.713  -5.981   3.173  1.00  0.00     0.107 C 
ATOM     76  C   UNL     1       6.949  -7.489   3.242  1.00  0.00     0.116 C 
ATOM     77  C   UNL     1       5.454  -5.858   2.341  1.00  0.00     0.139 C 
ATOM     78  C   UNL     1       6.382  -7.980   1.946  1.00  0.00     0.227 C 
ATOM     79  N   UNL     1       5.565  -6.973   1.431  1.00  0.00    -0.311 N 
ATOM     80  O   UNL     1       6.642  -9.073   1.463  1.00  0.00    -0.274 OA
BRANCH  79  81
ATOM     81  C   UNL     1       4.806  -7.088   0.255  1.00  0.00     0.047 A 
ATOM     82  C   UNL     1       4.650  -6.003  -0.610  1.00  0.00     0.026 A 
ATOM     83  C   UNL     1       4.212  -8.316  -0.062  1.00  0.00     0.073 A 
ATOM     84  C   UNL     1       3.946  -6.162  -1.803  1.00  0.00     0.006 A 
ATOM     85  C   UNL     1       3.446  -8.462  -1.216  1.00  0.00     0.131 A 
ATOM     86  C   UNL     1       3.344  -7.387  -2.101  1.00  0.00     0.047 A 
BRANCH  85  87
ATOM     87  O   UNL     1       2.766  -9.589  -1.582  1.00  0.00    -0.406 OA
BRANCH  87  88
ATOM     88  C   UNL     1       2.612 -10.598  -0.593  1.00  0.00     0.573 C 
ATOM     89  F   UNL     1       3.789 -11.199  -0.323  1.00  0.00    -0.132 F 
ATOM     90  F   UNL     1       2.080 -10.101   0.546  1.00  0.00    -0.132 F 
ATOM     91  F   UNL     1       1.763 -11.539  -1.067  1.00  0.00    -0.132 F 
ENDBRANCH  87  88
ENDBRANCH  85  87
ENDBRANCH  79  81
ENDBRANCH  72  75
ENDBRANCH  70  71
ENDBRANCH  69  70
ENDBRANCH   1  69
TORSDOF 17
