REMARK SMILES O=C(NCCCCNC(=O)c1cccnc1C(=O)Nc1ccc(Cl)cn1)c1ccc(-c2c3nc(c(-c4ccc(S(=O)(=O)[O-])cc4)c4ccc([nH]4)c(-c4ccc(S(=O)(=O)[O-])cc4)c4nc(c(-c5ccc(S(=O)(=O)[O-])cc5)c5ccc2[nH]5)C=C4)C=C3)cc1
REMARK SMILES IDX 5 1 4 2 3 3 1 4 2 5 27 7 28 8 86 9 29 10 85 11 30 12 31 13
REMARK SMILES IDX 32 14 79 15 33 16 84 17 78 18 80 19 34 20 83 21 77 22 76 23
REMARK SMILES IDX 35 25 65 26 46 27 64 28 47 29 50 30 63 31 81 32 48 33 49 34
REMARK SMILES IDX 62 36 82 37 51 38 36 39 37 40 45 41 38 42 44 43 39 44 40 45
REMARK SMILES IDX 41 46 42 47 43 48 66 49 67 50 75 51 68 52 74 53 69 54 70 55
REMARK SMILES IDX 71 56 72 57 73 58 52 59 53 60 61 61 54 62 60 63 55 64 56 65
REMARK SMILES IDX 57 66 58 67 59 68 6 69 7 70 8 71 9 72 10 74 11 75 12 76
REMARK SMILES IDX 16 77 13 78 15 79 14 80 17 81 18 82 19 83 20 85 21 86 26 87
REMARK SMILES IDX 22 88 25 89 23 90 24 91
REMARK H PARENT 3 6 80 24 50 35 8 73 19 84
REMARK Flexibility Score: inf
ROOT
ATOM      1  C   UNL     1       4.412   0.076  -2.798  1.00  0.00     0.023 C 
ENDROOT
BRANCH   1   2
ATOM      2  C   UNL     1       4.175   0.560  -1.375  1.00  0.00     0.116 C 
BRANCH   2   3
ATOM      3  N   UNL     1       2.779   0.559  -0.981  1.00  0.00    -0.352 N 
ATOM      4  O   UNL     1       0.961   0.003   0.222  1.00  0.00    -0.269 OA
ATOM      5  C   UNL     1       2.183  -0.028   0.113  1.00  0.00     0.251 C 
ATOM      6  H   UNL     1       2.171   1.048  -1.582  1.00  0.00     0.163 HD
BRANCH   5   7
ATOM      7  C   UNL     1       3.003  -0.724   1.135  1.00  0.00     0.039 A 
ATOM      8  C   UNL     1       4.194  -0.171   1.608  1.00  0.00     0.014 A 
ATOM      9  C   UNL     1       2.563  -1.954   1.637  1.00  0.00     0.014 A 
ATOM     10  C   UNL     1       5.013  -0.909   2.458  1.00  0.00     0.010 A 
ATOM     11  C   UNL     1       3.343  -2.652   2.568  1.00  0.00     0.010 A 
ATOM     12  C   UNL     1       4.591  -2.150   2.966  1.00  0.00    -0.014 A 
BRANCH  12  13
ATOM     13  C   UNL     1       5.442  -2.845   3.970  1.00  0.00     0.031 A 
ATOM     14  C   UNL     1       6.069  -4.184   3.688  1.00  0.00     0.074 A 
ATOM     15  C   UNL     1       5.688  -2.221   5.140  1.00  0.00     0.049 A 
ATOM     16  N   UNL     1       6.896  -4.874   4.434  1.00  0.00    -0.248 NA
ATOM     17  C   UNL     1       5.722  -4.840   2.418  1.00  0.00     0.031 C 
ATOM     18  C   UNL     1       5.115  -0.932   5.544  1.00  0.00     0.029 A 
ATOM     19  N   UNL     1       6.501  -2.562   6.190  1.00  0.00    -0.354 N 
ATOM     20  C   UNL     1       7.169  -6.041   3.728  1.00  0.00     0.074 A 
ATOM     21  C   UNL     1       6.388  -5.984   2.510  1.00  0.00     0.031 C 
ATOM     22  C   UNL     1       5.638  -0.567   6.722  1.00  0.00     0.029 A 
ATOM     23  C   UNL     1       6.535  -1.617   7.188  1.00  0.00     0.049 A 
ATOM     24  H   UNL     1       7.012  -3.403   6.225  1.00  0.00     0.167 HD
ATOM     25  C   UNL     1       8.001  -7.060   4.059  1.00  0.00     0.031 A 
ATOM     26  C   UNL     1       7.202  -1.595   8.357  1.00  0.00     0.031 A 
ATOM     27  C   UNL     1       8.767  -7.120   5.279  1.00  0.00     0.049 A 
ATOM     28  C   UNL     1       8.107  -2.741   8.702  1.00  0.00     0.074 A 
ATOM     29  C   UNL     1       9.642  -8.109   5.698  1.00  0.00     0.029 A 
ATOM     30  N   UNL     1       8.753  -6.156   6.275  1.00  0.00    -0.354 N 
ATOM     31  N   UNL     1       8.370  -3.820   8.003  1.00  0.00    -0.248 NA
ATOM     32  C   UNL     1       8.810  -2.664   9.989  1.00  0.00     0.031 C 
ATOM     33  C   UNL     1      10.122  -7.763   6.966  1.00  0.00     0.029 A 
ATOM     34  C   UNL     1       9.591  -6.532   7.313  1.00  0.00     0.049 A 
ATOM     35  H   UNL     1       8.226  -5.325   6.249  1.00  0.00     0.167 HD
ATOM     36  C   UNL     1       9.277  -4.548   8.764  1.00  0.00     0.074 A 
ATOM     37  C   UNL     1       9.542  -3.769   9.957  1.00  0.00     0.031 C 
ATOM     38  C   UNL     1       9.833  -5.756   8.502  1.00  0.00     0.031 A 
BRANCH  25  39
ATOM     39  C   UNL     1       8.126  -8.206   3.087  1.00  0.00    -0.014 A 
ATOM     40  C   UNL     1       8.818  -8.052   1.873  1.00  0.00     0.010 A 
ATOM     41  C   UNL     1       7.606  -9.471   3.420  1.00  0.00     0.010 A 
ATOM     42  C   UNL     1       8.963  -9.131   0.996  1.00  0.00     0.020 A 
ATOM     43  C   UNL     1       7.770 -10.560   2.557  1.00  0.00     0.020 A 
ATOM     44  C   UNL     1       8.437 -10.379   1.343  1.00  0.00     0.054 A 
BRANCH  44  45
ATOM     45  S   UNL     1       8.669 -11.769   0.201  1.00  0.00     0.124 S 
ATOM     46  O   UNL     1       7.749 -11.426  -0.881  1.00  0.00    -0.237 OA
ATOM     47  O   UNL     1      10.089 -11.679  -0.130  1.00  0.00    -0.237 OA
ATOM     48  O   UNL     1       8.290 -12.937   0.992  1.00  0.00    -0.744 OA
ENDBRANCH  44  45
ENDBRANCH  25  39
BRANCH  26  49
ATOM     49  C   UNL     1       7.015  -0.453   9.292  1.00  0.00    -0.014 A 
ATOM     50  C   UNL     1       8.055   0.459   9.541  1.00  0.00     0.010 A 
ATOM     51  C   UNL     1       5.774  -0.268   9.931  1.00  0.00     0.010 A 
ATOM     52  C   UNL     1       7.865   1.521  10.430  1.00  0.00     0.020 A 
ATOM     53  C   UNL     1       5.571   0.810  10.794  1.00  0.00     0.020 A 
ATOM     54  C   UNL     1       6.624   1.689  11.051  1.00  0.00     0.054 A 
BRANCH  54  55
ATOM     55  S   UNL     1       6.383   3.096  12.170  1.00  0.00     0.124 S 
ATOM     56  O   UNL     1       7.081   2.650  13.371  1.00  0.00    -0.237 OA
ATOM     57  O   UNL     1       7.013   4.194  11.441  1.00  0.00    -0.237 OA
ATOM     58  O   UNL     1       4.929   3.192  12.288  1.00  0.00    -0.744 OA
ENDBRANCH  54  55
ENDBRANCH  26  49
BRANCH  38  59
ATOM     59  C   UNL     1      10.796  -6.298   9.525  1.00  0.00    -0.014 A 
ATOM     60  C   UNL     1      10.344  -6.757  10.776  1.00  0.00     0.010 A 
ATOM     61  C   UNL     1      12.169  -6.355   9.229  1.00  0.00     0.010 A 
ATOM     62  C   UNL     1      11.255  -7.218  11.730  1.00  0.00     0.020 A 
ATOM     63  C   UNL     1      13.080  -6.841  10.170  1.00  0.00     0.020 A 
ATOM     64  C   UNL     1      12.619  -7.250  11.423  1.00  0.00     0.054 A 
BRANCH  64  65
ATOM     65  S   UNL     1      13.782  -7.860  12.674  1.00  0.00     0.124 S 
ATOM     66  O   UNL     1      13.845  -6.735  13.603  1.00  0.00    -0.237 OA
ATOM     67  O   UNL     1      13.113  -9.056  13.179  1.00  0.00    -0.237 OA
ATOM     68  O   UNL     1      15.005  -8.111  11.915  1.00  0.00    -0.744 OA
ENDBRANCH  64  65
ENDBRANCH  38  59
ENDBRANCH  12  13
ENDBRANCH   5   7
ENDBRANCH   2   3
ENDBRANCH   1   2
BRANCH   1  69
ATOM     69  C   UNL     1       3.863   0.933  -3.936  1.00  0.00     0.023 C 
BRANCH  69  70
ATOM     70  C   UNL     1       3.965   2.449  -3.796  1.00  0.00     0.116 C 
BRANCH  70  71
ATOM     71  N   UNL     1       5.287   2.956  -3.461  1.00  0.00    -0.352 N 
ATOM     72  C   UNL     1       6.141   3.741  -4.196  1.00  0.00     0.253 C 
ATOM     73  H   UNL     1       5.620   2.697  -2.571  1.00  0.00     0.163 HD
ATOM     74  O   UNL     1       7.059   4.342  -3.655  1.00  0.00    -0.269 OA
BRANCH  72  75
ATOM     75  C   UNL     1       5.876   3.974  -5.608  1.00  0.00     0.071 A 
ATOM     76  C   UNL     1       4.906   4.958  -5.863  1.00  0.00     0.018 A 
ATOM     77  C   UNL     1       6.492   3.327  -6.675  1.00  0.00     0.141 A 
ATOM     78  C   UNL     1       4.528   5.237  -7.167  1.00  0.00     0.021 A 
ATOM     79  N   UNL     1       6.106   3.600  -7.963  1.00  0.00    -0.250 NA
ATOM     80  C   UNL     1       5.148   4.529  -8.176  1.00  0.00     0.112 A 
BRANCH  77  81
ATOM     81  C   UNL     1       7.609   2.299  -6.629  1.00  0.00     0.276 C 
ATOM     82  O   UNL     1       7.656   1.411  -7.482  1.00  0.00    -0.267 OA
ATOM     83  N   UNL     1       8.706   2.559  -5.849  1.00  0.00    -0.305 N 
ATOM     84  H   UNL     1       9.442   3.048  -6.284  1.00  0.00     0.171 HD
BRANCH  83  85
ATOM     85  C   UNL     1       8.903   2.215  -4.514  1.00  0.00     0.132 A 
ATOM     86  C   UNL     1       8.039   1.375  -3.823  1.00  0.00     0.049 A 
ATOM     87  N   UNL     1       9.959   2.821  -3.934  1.00  0.00    -0.238 NA
ATOM     88  C   UNL     1       8.174   1.273  -2.437  1.00  0.00     0.026 A 
ATOM     89  C   UNL     1      10.046   2.731  -2.583  1.00  0.00     0.134 A 
ATOM     90  C   UNL     1       9.169   2.001  -1.800  1.00  0.00     0.059 A 
ATOM     91  Cl  UNL     1       9.280   2.011  -0.089  1.00  0.00    -0.083 Cl
ENDBRANCH  83  85
ENDBRANCH  77  81
ENDBRANCH  72  75
ENDBRANCH  70  71
ENDBRANCH  69  70
ENDBRANCH   1  69
TORSDOF 16
