REMARK SMILES O=C(NCCCCNC(=O)[C@H](CO)NC(=O)[C@H](Cc1ccc(O)cc1)NC(=O)c1ccc(F)cc1)c1ccc(-c2c3nc(c(-c4ccc(S(=O)(=O)[O-])cc4)c4ccc([nH]4)c(-c4ccc(S(=O)(=O)[O-])cc4)c4nc(c(-c5ccc(S(=O)(=O)[O-])cc5)c5ccc2[nH]5)C=C4)C=C3)cc1
REMARK SMILES IDX 6 1 5 2 4 3 3 4 1 5 2 6 36 8 37 9 95 10 38 11 94 12 39 13
REMARK SMILES IDX 40 14 41 15 88 16 42 17 93 18 87 19 89 20 43 21 92 22 86 23
REMARK SMILES IDX 85 24 44 26 74 27 55 28 73 29 56 30 59 31 72 32 90 33 57 34
REMARK SMILES IDX 58 35 71 37 91 38 60 39 45 40 46 41 54 42 47 43 53 44 48 45
REMARK SMILES IDX 49 46 50 47 51 48 52 49 75 50 76 51 84 52 77 53 83 54 78 55
REMARK SMILES IDX 79 56 80 57 81 58 82 59 61 60 62 61 70 62 63 63 69 64 64 65
REMARK SMILES IDX 65 66 66 67 67 68 68 69 7 70 8 71 9 72 10 74 11 75 14 76
REMARK SMILES IDX 15 77 16 79 17 80 26 81 27 82 28 84 29 85 30 86 35 87 31 88
REMARK SMILES IDX 34 89 32 90 33 91 18 92 19 93 20 94 25 95 21 96 24 97 22 98
REMARK SMILES IDX 23 99 12 101 13 102
REMARK H PARENT 3 7 89 25 59 36 8 73 14 78 26 83 23 100 13 103
REMARK Flexibility Score: inf
ROOT
ATOM      1  C   UNL     1       6.303   8.802  -0.960  1.00  0.00     0.023 C 
ENDROOT
BRANCH   1   2
ATOM      2  C   UNL     1       5.846   7.867  -2.083  1.00  0.00     0.023 C 
BRANCH   2   3
ATOM      3  C   UNL     1       4.497   7.190  -1.863  1.00  0.00     0.116 C 
BRANCH   3   4
ATOM      4  N   UNL     1       3.410   8.141  -1.700  1.00  0.00    -0.352 N 
ATOM      5  O   UNL     1       1.454   9.150  -2.192  1.00  0.00    -0.269 OA
ATOM      6  C   UNL     1       2.216   8.212  -2.377  1.00  0.00     0.251 C 
ATOM      7  H   UNL     1       3.548   8.829  -1.009  1.00  0.00     0.163 HD
BRANCH   6   8
ATOM      8  C   UNL     1       1.873   7.152  -3.349  1.00  0.00     0.039 A 
ATOM      9  C   UNL     1       1.948   5.806  -2.983  1.00  0.00     0.014 A 
ATOM     10  C   UNL     1       1.476   7.514  -4.639  1.00  0.00     0.014 A 
ATOM     11  C   UNL     1       1.732   4.819  -3.939  1.00  0.00     0.010 A 
ATOM     12  C   UNL     1       1.200   6.521  -5.582  1.00  0.00     0.010 A 
ATOM     13  C   UNL     1       1.345   5.166  -5.245  1.00  0.00    -0.014 A 
BRANCH  13  14
ATOM     14  C   UNL     1       1.010   4.094  -6.215  1.00  0.00     0.031 A 
ATOM     15  C   UNL     1       1.865   3.836  -7.425  1.00  0.00     0.074 A 
ATOM     16  C   UNL     1      -0.083   3.342  -5.981  1.00  0.00     0.049 A 
ATOM     17  N   UNL     1       1.714   2.925  -8.353  1.00  0.00    -0.248 NA
ATOM     18  C   UNL     1       3.033   4.707  -7.626  1.00  0.00     0.031 C 
ATOM     19  C   UNL     1      -0.996   3.515  -4.846  1.00  0.00     0.029 A 
ATOM     20  N   UNL     1      -0.610   2.282  -6.671  1.00  0.00    -0.354 N 
ATOM     21  C   UNL     1       2.753   3.120  -9.255  1.00  0.00     0.074 A 
ATOM     22  C   UNL     1       3.523   4.247  -8.771  1.00  0.00     0.031 C 
ATOM     23  C   UNL     1      -1.952   2.576  -4.904  1.00  0.00     0.029 A 
ATOM     24  C   UNL     1      -1.754   1.772  -6.104  1.00  0.00     0.049 A 
ATOM     25  H   UNL     1      -0.209   1.921  -7.495  1.00  0.00     0.167 HD
ATOM     26  C   UNL     1       3.036   2.421 -10.380  1.00  0.00     0.031 A 
ATOM     27  C   UNL     1      -2.568   0.781  -6.512  1.00  0.00     0.031 A 
ATOM     28  C   UNL     1       2.268   1.296 -10.851  1.00  0.00     0.049 A 
ATOM     29  C   UNL     1      -2.240   0.043  -7.778  1.00  0.00     0.074 A 
ATOM     30  C   UNL     1       2.513   0.489 -11.950  1.00  0.00     0.029 A 
ATOM     31  N   UNL     1       1.104   0.826 -10.263  1.00  0.00    -0.354 N 
ATOM     32  N   UNL     1      -1.216   0.204  -8.580  1.00  0.00    -0.248 NA
ATOM     33  C   UNL     1      -3.178  -1.008  -8.193  1.00  0.00     0.031 C 
ATOM     34  C   UNL     1       1.467  -0.433 -12.058  1.00  0.00     0.029 A 
ATOM     35  C   UNL     1       0.599  -0.235 -10.996  1.00  0.00     0.049 A 
ATOM     36  H   UNL     1       0.696   1.192  -9.445  1.00  0.00     0.167 HD
ATOM     37  C   UNL     1      -1.381  -0.733  -9.592  1.00  0.00     0.074 A 
ATOM     38  C   UNL     1      -2.587  -1.475  -9.285  1.00  0.00     0.031 C 
ATOM     39  C   UNL     1      -0.608  -0.955 -10.683  1.00  0.00     0.031 A 
BRANCH  26  40
ATOM     40  C   UNL     1       4.219   2.849 -11.209  1.00  0.00    -0.014 A 
ATOM     41  C   UNL     1       5.534   2.563 -10.802  1.00  0.00     0.010 A 
ATOM     42  C   UNL     1       4.005   3.447 -12.465  1.00  0.00     0.010 A 
ATOM     43  C   UNL     1       6.614   2.876 -11.633  1.00  0.00     0.020 A 
ATOM     44  C   UNL     1       5.082   3.744 -13.307  1.00  0.00     0.020 A 
ATOM     45  C   UNL     1       6.381   3.462 -12.882  1.00  0.00     0.054 A 
BRANCH  45  46
ATOM     46  S   UNL     1       7.798   3.796 -13.966  1.00  0.00     0.124 S 
ATOM     47  O   UNL     1       8.421   4.939 -13.302  1.00  0.00    -0.237 OA
ATOM     48  O   UNL     1       8.552   2.547 -13.903  1.00  0.00    -0.237 OA
ATOM     49  O   UNL     1       7.185   4.087 -15.260  1.00  0.00    -0.744 OA
ENDBRANCH  45  46
ENDBRANCH  26  40
BRANCH  27  50
ATOM     50  C   UNL     1      -3.794   0.461  -5.734  1.00  0.00    -0.014 A 
ATOM     51  C   UNL     1      -3.907  -0.752  -5.034  1.00  0.00     0.010 A 
ATOM     52  C   UNL     1      -4.860   1.379  -5.693  1.00  0.00     0.010 A 
ATOM     53  C   UNL     1      -5.076  -1.053  -4.328  1.00  0.00     0.020 A 
ATOM     54  C   UNL     1      -6.017   1.095  -4.965  1.00  0.00     0.020 A 
ATOM     55  C   UNL     1      -6.124  -0.128  -4.301  1.00  0.00     0.054 A 
BRANCH  55  56
ATOM     56  S   UNL     1      -7.622  -0.521  -3.356  1.00  0.00     0.124 S 
ATOM     57  O   UNL     1      -8.307  -1.449  -4.250  1.00  0.00    -0.237 OA
ATOM     58  O   UNL     1      -7.081  -1.103  -2.130  1.00  0.00    -0.237 OA
ATOM     59  O   UNL     1      -8.266   0.779  -3.185  1.00  0.00    -0.744 OA
ENDBRANCH  55  56
ENDBRANCH  27  50
BRANCH  39  60
ATOM     60  C   UNL     1      -1.041  -2.052 -11.616  1.00  0.00    -0.014 A 
ATOM     61  C   UNL     1      -2.152  -1.885 -12.461  1.00  0.00     0.010 A 
ATOM     62  C   UNL     1      -0.308  -3.252 -11.671  1.00  0.00     0.010 A 
ATOM     63  C   UNL     1      -2.545  -2.913 -13.321  1.00  0.00     0.020 A 
ATOM     64  C   UNL     1      -0.683  -4.271 -12.549  1.00  0.00     0.020 A 
ATOM     65  C   UNL     1      -1.809  -4.101 -13.358  1.00  0.00     0.054 A 
BRANCH  65  66
ATOM     66  S   UNL     1      -2.318  -5.409 -14.507  1.00  0.00     0.124 S 
ATOM     67  O   UNL     1      -3.489  -5.965 -13.834  1.00  0.00    -0.237 OA
ATOM     68  O   UNL     1      -2.592  -4.669 -15.736  1.00  0.00    -0.237 OA
ATOM     69  O   UNL     1      -1.154  -6.291 -14.564  1.00  0.00    -0.744 OA
ENDBRANCH  65  66
ENDBRANCH  39  60
ENDBRANCH  13  14
ENDBRANCH   6   8
ENDBRANCH   3   4
ENDBRANCH   2   3
ENDBRANCH   1   2
BRANCH   1  70
ATOM     70  C   UNL     1       6.337   8.178   0.435  1.00  0.00     0.116 C 
BRANCH  70  71
ATOM     71  N   UNL     1       7.306   7.097   0.523  1.00  0.00    -0.354 N 
ATOM     72  C   UNL     1       8.123   6.749   1.558  1.00  0.00     0.244 C 
ATOM     73  H   UNL     1       7.384   6.536  -0.282  1.00  0.00     0.163 HD
ATOM     74  O   UNL     1       8.802   5.724   1.440  1.00  0.00    -0.273 OA
BRANCH  72  75
ATOM     75  C   UNL     1       8.250   7.649   2.802  1.00  0.00     0.197 C 
BRANCH  75  76
ATOM     76  N   UNL     1       8.668   6.776   3.917  1.00  0.00    -0.340 N 
ATOM     77  C   UNL     1       8.159   6.419   5.120  1.00  0.00     0.243 C 
ATOM     78  H   UNL     1       9.535   6.346   3.742  1.00  0.00     0.164 HD
ATOM     79  O   UNL     1       8.798   5.552   5.733  1.00  0.00    -0.273 OA
BRANCH  77  80
ATOM     80  C   UNL     1       6.832   6.926   5.729  1.00  0.00     0.176 C 
BRANCH  80  81
ATOM     81  N   UNL     1       6.301   8.185   5.216  1.00  0.00    -0.340 N 
ATOM     82  C   UNL     1       6.192   9.428   5.777  1.00  0.00     0.251 C 
ATOM     83  H   UNL     1       5.958   8.130   4.295  1.00  0.00     0.164 HD
ATOM     84  O   UNL     1       5.752  10.353   5.098  1.00  0.00    -0.269 OA
BRANCH  82  85
ATOM     85  C   UNL     1       6.463   9.662   7.214  1.00  0.00     0.040 A 
ATOM     86  C   UNL     1       7.645   9.274   7.853  1.00  0.00     0.017 A 
ATOM     87  C   UNL     1       5.464  10.331   7.939  1.00  0.00     0.017 A 
ATOM     88  C   UNL     1       7.787   9.480   9.229  1.00  0.00     0.040 A 
ATOM     89  C   UNL     1       5.616  10.551   9.308  1.00  0.00     0.040 A 
ATOM     90  C   UNL     1       6.769  10.109   9.943  1.00  0.00     0.123 A 
ATOM     91  F   UNL     1       6.907  10.296  11.262  1.00  0.00    -0.207 F 
ENDBRANCH  82  85
ENDBRANCH  80  81
BRANCH  80  92
ATOM     92  C   UNL     1       5.775   5.795   5.787  1.00  0.00     0.070 C 
BRANCH  92  93
ATOM     93  C   UNL     1       4.923   5.621   4.552  1.00  0.00    -0.045 A 
ATOM     94  C   UNL     1       3.530   5.779   4.631  1.00  0.00     0.007 A 
ATOM     95  C   UNL     1       5.493   5.290   3.319  1.00  0.00     0.007 A 
ATOM     96  C   UNL     1       2.737   5.695   3.484  1.00  0.00     0.046 A 
ATOM     97  C   UNL     1       4.705   5.227   2.170  1.00  0.00     0.046 A 
ATOM     98  C   UNL     1       3.338   5.454   2.255  1.00  0.00     0.115 A 
BRANCH  98  99
ATOM     99  O   UNL     1       2.619   5.434   1.098  1.00  0.00    -0.508 OA
ATOM    100  H   UNL     1       1.694   5.583   1.119  1.00  0.00     0.293 HD
ENDBRANCH  98  99
ENDBRANCH  92  93
ENDBRANCH  80  92
ENDBRANCH  77  80
ENDBRANCH  75  76
BRANCH  75 101
ATOM    101  C   UNL     1       9.344   8.690   2.512  1.00  0.00     0.191 C 
BRANCH 101 102
ATOM    102  O   UNL     1       8.887   9.754   1.682  1.00  0.00    -0.394 OA
ATOM    103  H   UNL     1       8.610   9.398   0.824  1.00  0.00     0.210 HD
ENDBRANCH 101 102
ENDBRANCH  75 101
ENDBRANCH  72  75
ENDBRANCH  70  71
ENDBRANCH   1  70
TORSDOF 23
