REMARK SMILES CC1=C(CC(=O)NCCCCNC(=O)c2ccc(-c3c4nc(c(-c5ccc(S(=O)(=O)[O-])cc5)c5ccc([nH]5)c(-c5ccc(S(=O)(=O)[O-])cc5)c5nc(c(-c6ccc(S(=O)(=O)[O-])cc6)c6ccc3[nH]6)C=C5)C=C4)cc2)c2cc(F)ccc2/C1=C\c1cccc(OCc2ccccc2)c1
REMARK SMILES IDX 8 1 7 2 5 3 6 4 4 6 3 7 1 8 2 9 82 10 75 11 81 12 83 13
REMARK SMILES IDX 76 14 80 15 77 16 79 17 78 18 84 19 85 20 97 21 86 22 88 23
REMARK SMILES IDX 87 24 89 25 90 26 91 27 92 28 96 29 93 30 95 31 94 32 9 33
REMARK SMILES IDX 10 34 11 35 12 36 13 37 14 39 15 40 16 41 74 42 17 43 73 44
REMARK SMILES IDX 18 45 19 46 20 47 67 48 21 49 72 50 66 51 68 52 22 53 71 54
REMARK SMILES IDX 65 55 64 56 23 58 53 59 34 60 52 61 35 62 38 63 51 64 69 65
REMARK SMILES IDX 36 66 37 67 50 69 70 70 39 71 24 72 25 73 33 74 26 75 32 76
REMARK SMILES IDX 27 77 28 78 29 79 30 80 31 81 54 82 55 83 63 84 56 85 62 86
REMARK SMILES IDX 57 87 58 88 59 89 60 90 61 91 40 92 41 93 49 94 42 95 48 96
REMARK SMILES IDX 43 97 44 98 45 99 46 100 47 101
REMARK H PARENT 7 5 12 38 68 57 38 68
REMARK Flexibility Score: inf
ROOT
ATOM      1  C   UNL     1       3.759  -1.372   1.339  1.00  0.00     0.116 C 
ENDROOT
BRANCH   1   2
ATOM      2  N   UNL     1       4.124  -2.636   0.731  1.00  0.00    -0.356 N 
ATOM      3  C   UNL     1       3.534  -3.292  -0.311  1.00  0.00     0.224 C 
ATOM      4  O   UNL     1       4.012  -4.370  -0.673  1.00  0.00    -0.275 OA
ATOM      5  H   UNL     1       4.907  -3.084   1.124  1.00  0.00     0.163 HD
BRANCH   3   6
ATOM      6  C   UNL     1       2.333  -2.685  -1.034  1.00  0.00     0.136 C 
BRANCH   6   7
ATOM      7  C   UNL     1       1.107  -2.642  -0.183  1.00  0.00    -0.027 C 
ATOM      8  C   UNL     1       0.576  -0.134  -0.149  1.00  0.00     0.045 C 
ATOM      9  C   UNL     1       0.385  -1.570   0.218  1.00  0.00    -0.039 C 
ATOM     10  C   UNL     1      -0.661  -2.013   1.151  1.00  0.00    -0.014 C 
ATOM     11  C   UNL     1       0.481  -3.848   0.395  1.00  0.00    -0.011 A 
ATOM     12  C   UNL     1      -0.613  -3.480   1.200  1.00  0.00    -0.010 A 
ATOM     13  C   UNL     1      -1.439  -1.175   1.853  1.00  0.00     0.017 C 
ATOM     14  C   UNL     1       0.820  -5.184   0.237  1.00  0.00     0.048 A 
ATOM     15  C   UNL     1      -1.386  -4.438   1.841  1.00  0.00     0.012 A 
ATOM     16  C   UNL     1       0.051  -6.139   0.896  1.00  0.00     0.123 A 
ATOM     17  C   UNL     1      -1.042  -5.782   1.689  1.00  0.00     0.040 A 
ATOM     18  F   UNL     1       0.357  -7.436   0.760  1.00  0.00    -0.207 F 
BRANCH  13  19
ATOM     19  C   UNL     1      -2.493  -1.532   2.798  1.00  0.00    -0.021 A 
ATOM     20  C   UNL     1      -2.220  -1.874   4.123  1.00  0.00     0.008 A 
ATOM     21  C   UNL     1      -3.815  -1.441   2.356  1.00  0.00     0.054 A 
ATOM     22  C   UNL     1      -3.275  -2.119   5.001  1.00  0.00     0.004 A 
ATOM     23  C   UNL     1      -4.869  -1.571   3.256  1.00  0.00     0.120 A 
ATOM     24  C   UNL     1      -4.594  -1.956   4.569  1.00  0.00     0.046 A 
BRANCH  23  25
ATOM     25  O   UNL     1      -6.179  -1.295   2.984  1.00  0.00    -0.489 OA
BRANCH  25  26
ATOM     26  C   UNL     1      -6.494  -0.541   1.807  1.00  0.00     0.265 C 
BRANCH  26  27
ATOM     27  C   UNL     1      -6.365   0.966   1.962  1.00  0.00    -0.011 A 
ATOM     28  C   UNL     1      -7.498   1.782   1.821  1.00  0.00     0.007 A 
ATOM     29  C   UNL     1      -5.130   1.597   2.183  1.00  0.00     0.007 A 
ATOM     30  C   UNL     1      -7.395   3.174   1.899  1.00  0.00     0.000 A 
ATOM     31  C   UNL     1      -5.026   2.987   2.265  1.00  0.00     0.000 A 
ATOM     32  C   UNL     1      -6.159   3.776   2.119  1.00  0.00     0.000 A 
ENDBRANCH  26  27
ENDBRANCH  25  26
ENDBRANCH  23  25
ENDBRANCH  13  19
ENDBRANCH   6   7
ENDBRANCH   3   6
ENDBRANCH   1   2
BRANCH   1  33
ATOM     33  C   UNL     1       2.951  -1.551   2.625  1.00  0.00     0.023 C 
BRANCH  33  34
ATOM     34  C   UNL     1       3.725  -2.143   3.802  1.00  0.00     0.023 C 
BRANCH  34  35
ATOM     35  C   UNL     1       4.964  -1.365   4.221  1.00  0.00     0.116 C 
BRANCH  35  36
ATOM     36  N   UNL     1       4.690   0.007   4.619  1.00  0.00    -0.352 N 
ATOM     37  C   UNL     1       5.322   0.758   5.591  1.00  0.00     0.251 C 
ATOM     38  H   UNL     1       3.962   0.458   4.133  1.00  0.00     0.163 HD
ATOM     39  O   UNL     1       4.920   1.873   5.871  1.00  0.00    -0.269 OA
BRANCH  37  40
ATOM     40  C   UNL     1       6.465   0.159   6.320  1.00  0.00     0.039 A 
ATOM     41  C   UNL     1       7.483  -0.494   5.625  1.00  0.00     0.014 A 
ATOM     42  C   UNL     1       6.474   0.193   7.717  1.00  0.00     0.014 A 
ATOM     43  C   UNL     1       8.404  -1.264   6.324  1.00  0.00     0.010 A 
ATOM     44  C   UNL     1       7.459  -0.510   8.420  1.00  0.00     0.010 A 
ATOM     45  C   UNL     1       8.399  -1.289   7.729  1.00  0.00    -0.014 A 
BRANCH  45  46
ATOM     46  C   UNL     1       9.398  -2.133   8.436  1.00  0.00     0.031 A 
ATOM     47  C   UNL     1       8.974  -3.323   9.254  1.00  0.00     0.074 A 
ATOM     48  C   UNL     1      10.708  -1.866   8.265  1.00  0.00     0.049 A 
ATOM     49  N   UNL     1       9.725  -4.214   9.851  1.00  0.00    -0.248 NA
ATOM     50  C   UNL     1       7.529  -3.546   9.432  1.00  0.00     0.031 C 
ATOM     51  C   UNL     1      11.238  -0.743   7.488  1.00  0.00     0.029 A 
ATOM     52  N   UNL     1      11.827  -2.535   8.690  1.00  0.00    -0.354 N 
ATOM     53  C   UNL     1       8.851  -5.090  10.483  1.00  0.00     0.074 A 
ATOM     54  C   UNL     1       7.512  -4.611  10.224  1.00  0.00     0.031 C 
ATOM     55  C   UNL     1      12.573  -0.847   7.425  1.00  0.00     0.029 A 
ATOM     56  C   UNL     1      13.000  -2.001   8.210  1.00  0.00     0.049 A 
ATOM     57  H   UNL     1      11.794  -3.322   9.281  1.00  0.00     0.167 HD
ATOM     58  C   UNL     1       9.140  -6.199  11.205  1.00  0.00     0.031 A 
ATOM     59  C   UNL     1      14.280  -2.389   8.375  1.00  0.00     0.031 A 
ATOM     60  C   UNL     1      10.476  -6.683  11.444  1.00  0.00     0.049 A 
ATOM     61  C   UNL     1      14.576  -3.607   9.197  1.00  0.00     0.074 A 
ATOM     62  C   UNL     1      10.862  -7.820  12.134  1.00  0.00     0.029 A 
ATOM     63  N   UNL     1      11.638  -6.068  11.007  1.00  0.00    -0.354 N 
ATOM     64  N   UNL     1      13.733  -4.430   9.773  1.00  0.00    -0.248 NA
ATOM     65  C   UNL     1      15.990  -3.949   9.398  1.00  0.00     0.031 C 
ATOM     66  C   UNL     1      12.258  -7.859  12.165  1.00  0.00     0.029 A 
ATOM     67  C   UNL     1      12.743  -6.782  11.441  1.00  0.00     0.049 A 
ATOM     68  H   UNL     1      11.674  -5.245  10.468  1.00  0.00     0.167 HD
ATOM     69  C   UNL     1      14.514  -5.383  10.414  1.00  0.00     0.074 A 
ATOM     70  C   UNL     1      15.896  -5.053  10.129  1.00  0.00     0.031 C 
ATOM     71  C   UNL     1      14.117  -6.430  11.177  1.00  0.00     0.031 A 
BRANCH  58  72
ATOM     72  C   UNL     1       7.999  -6.981  11.803  1.00  0.00    -0.014 A 
ATOM     73  C   UNL     1       7.829  -7.003  13.200  1.00  0.00     0.010 A 
ATOM     74  C   UNL     1       7.169  -7.783  11.001  1.00  0.00     0.010 A 
ATOM     75  C   UNL     1       6.865  -7.828  13.787  1.00  0.00     0.020 A 
ATOM     76  C   UNL     1       6.187  -8.592  11.583  1.00  0.00     0.020 A 
ATOM     77  C   UNL     1       6.056  -8.625  12.974  1.00  0.00     0.054 A 
BRANCH  77  78
ATOM     78  S   UNL     1       4.817  -9.699  13.751  1.00  0.00     0.124 S 
ATOM     79  O   UNL     1       5.629 -10.816  14.222  1.00  0.00    -0.237 OA
ATOM     80  O   UNL     1       4.255  -8.842  14.792  1.00  0.00    -0.237 OA
ATOM     81  O   UNL     1       3.901 -10.009  12.654  1.00  0.00    -0.744 OA
ENDBRANCH  77  78
ENDBRANCH  58  72
BRANCH  59  82
ATOM     82  C   UNL     1      15.354  -1.601   7.715  1.00  0.00    -0.014 A 
ATOM     83  C   UNL     1      15.632  -0.288   8.142  1.00  0.00     0.010 A 
ATOM     84  C   UNL     1      16.011  -2.106   6.580  1.00  0.00     0.010 A 
ATOM     85  C   UNL     1      16.489   0.531   7.403  1.00  0.00     0.020 A 
ATOM     86  C   UNL     1      16.892  -1.298   5.854  1.00  0.00     0.020 A 
ATOM     87  C   UNL     1      17.096   0.027   6.251  1.00  0.00     0.054 A 
BRANCH  87  88
ATOM     88  S   UNL     1      18.134   1.132   5.256  1.00  0.00     0.124 S 
ATOM     89  O   UNL     1      17.132   1.901   4.522  1.00  0.00    -0.237 OA
ATOM     90  O   UNL     1      18.878   1.875   6.270  1.00  0.00    -0.237 OA
ATOM     91  O   UNL     1      18.933   0.214   4.449  1.00  0.00    -0.744 OA
ENDBRANCH  87  88
ENDBRANCH  59  82
BRANCH  71  92
ATOM     92  C   UNL     1      15.182  -7.292  11.798  1.00  0.00    -0.014 A 
ATOM     93  C   UNL     1      15.364  -8.616  11.356  1.00  0.00     0.010 A 
ATOM     94  C   UNL     1      15.925  -6.827  12.897  1.00  0.00     0.010 A 
ATOM     95  C   UNL     1      16.248  -9.469  12.020  1.00  0.00     0.020 A 
ATOM     96  C   UNL     1      16.830  -7.671  13.548  1.00  0.00     0.020 A 
ATOM     97  C   UNL     1      16.968  -8.993  13.120  1.00  0.00     0.054 A 
BRANCH  97  98
ATOM     98  S   UNL     1      18.098 -10.119  13.983  1.00  0.00     0.124 S 
ATOM     99  O   UNL     1      17.181 -10.903  14.806  1.00  0.00    -0.237 OA
ATOM    100  O   UNL     1      18.735 -10.843  12.885  1.00  0.00    -0.237 OA
ATOM    101  O   UNL     1      18.982  -9.217  14.718  1.00  0.00    -0.744 OA
ENDBRANCH  97  98
ENDBRANCH  71  92
ENDBRANCH  45  46
ENDBRANCH  37  40
ENDBRANCH  35  36
ENDBRANCH  34  35
ENDBRANCH  33  34
ENDBRANCH   1  33
TORSDOF 19
