REMARK SMILES CC(C)=CC(=O)Nc1ccc(C(=O)NCCCCNC(=O)c2ccc(-c3c4nc(c(-c5ccc(S(=O)(=O)[O-])cc5)c5ccc([nH]5)c(-c5ccc(S(=O)(=O)[O-])cc5)c5nc(c(-c6ccc(S(=O)(=O)[O-])cc6)c6ccc3[nH]6)C=C5)C=C4)cc2)cc1
REMARK SMILES IDX 17 1 16 2 15 3 14 4 12 5 13 6 11 8 8 9 9 10 83 11 10 12
REMARK SMILES IDX 82 13 7 14 5 15 6 16 4 18 1 19 2 20 3 21 18 22 19 23 20 24
REMARK SMILES IDX 21 26 22 27 23 28 81 29 24 30 80 31 25 32 26 33 27 34 74 35
REMARK SMILES IDX 28 36 79 37 73 38 75 39 29 40 78 41 72 42 71 43 30 45 60 46
REMARK SMILES IDX 41 47 59 48 42 49 45 50 58 51 76 52 43 53 44 54 57 56 77 57
REMARK SMILES IDX 46 58 31 59 32 60 40 61 33 62 39 63 34 64 35 65 36 66 37 67
REMARK SMILES IDX 38 68 61 69 62 70 70 71 63 72 69 73 64 74 65 75 66 76 67 77
REMARK SMILES IDX 68 78 47 79 48 80 56 81 49 82 55 83 50 84 51 85 52 86 53 87
REMARK SMILES IDX 54 88
REMARK H PARENT 14 7 7 17 19 25 75 44 45 55
REMARK Flexibility Score: inf
ROOT
ATOM      1  C   UNL     1       2.885  -4.422   4.394  1.00  0.00     0.023 C 
ENDROOT
BRANCH   1   2
ATOM      2  C   UNL     1       2.771  -3.556   3.139  1.00  0.00     0.023 C 
BRANCH   2   3
ATOM      3  C   UNL     1       1.496  -2.712   3.078  1.00  0.00     0.116 C 
BRANCH   3   4
ATOM      4  N   UNL     1       1.577  -1.600   4.008  1.00  0.00    -0.352 N 
ATOM      5  C   UNL     1       1.945  -0.288   3.835  1.00  0.00     0.251 C 
ATOM      6  O   UNL     1       1.911   0.464   4.808  1.00  0.00    -0.269 OA
ATOM      7  H   UNL     1       1.322  -1.828   4.931  1.00  0.00     0.163 HD
BRANCH   5   8
ATOM      8  C   UNL     1       2.276   0.274   2.498  1.00  0.00     0.039 A 
ATOM      9  C   UNL     1       2.361   1.304  -0.094  1.00  0.00     0.041 A 
ATOM     10  C   UNL     1       1.968   2.128   0.960  1.00  0.00     0.027 A 
ATOM     11  C   UNL     1       2.898   0.048   0.171  1.00  0.00     0.027 A 
ATOM     12  C   UNL     1       1.889   1.599   2.249  1.00  0.00     0.016 A 
ATOM     13  C   UNL     1       2.891  -0.447   1.474  1.00  0.00     0.016 A 
BRANCH   9  14
ATOM     14  N   UNL     1       2.130   1.757  -1.395  1.00  0.00    -0.323 N 
ATOM     15  C   UNL     1       1.692   1.064  -2.487  1.00  0.00     0.248 C 
ATOM     16  O   UNL     1       1.750   1.583  -3.603  1.00  0.00    -0.270 OA
ATOM     17  H   UNL     1       2.309   2.713  -1.547  1.00  0.00     0.170 HD
BRANCH  15  18
ATOM     18  C   UNL     1       1.093  -0.298  -2.374  1.00  0.00     0.070 C 
ATOM     19  C   UNL     1      -0.546   0.038  -0.448  1.00  0.00     0.039 C 
ATOM     20  C   UNL     1       0.129  -0.746  -1.540  1.00  0.00    -0.071 C 
ATOM     21  C   UNL     1      -0.413  -2.146  -1.688  1.00  0.00     0.039 C 
ENDBRANCH  15  18
ENDBRANCH   9  14
ENDBRANCH   5   8
ENDBRANCH   3   4
ENDBRANCH   2   3
ENDBRANCH   1   2
BRANCH   1  22
ATOM     22  C   UNL     1       1.815  -5.497   4.529  1.00  0.00     0.116 C 
BRANCH  22  23
ATOM     23  N   UNL     1       1.799  -6.422   3.406  1.00  0.00    -0.352 N 
ATOM     24  C   UNL     1       1.627  -7.783   3.413  1.00  0.00     0.251 C 
ATOM     25  H   UNL     1       1.930  -6.015   2.520  1.00  0.00     0.163 HD
ATOM     26  O   UNL     1       1.779  -8.420   2.372  1.00  0.00    -0.269 OA
BRANCH  24  27
ATOM     27  C   UNL     1       1.291  -8.480   4.672  1.00  0.00     0.039 A 
ATOM     28  C   UNL     1       1.947  -9.675   4.975  1.00  0.00     0.014 A 
ATOM     29  C   UNL     1       0.336  -7.962   5.553  1.00  0.00     0.014 A 
ATOM     30  C   UNL     1       1.678 -10.325   6.180  1.00  0.00     0.010 A 
ATOM     31  C   UNL     1       0.132  -8.566   6.790  1.00  0.00     0.010 A 
ATOM     32  C   UNL     1       0.787  -9.763   7.110  1.00  0.00    -0.014 A 
BRANCH  32  33
ATOM     33  C   UNL     1       0.520 -10.434   8.408  1.00  0.00     0.031 A 
ATOM     34  C   UNL     1      -0.859 -10.951   8.725  1.00  0.00     0.074 A 
ATOM     35  C   UNL     1       1.511 -10.552   9.313  1.00  0.00     0.049 A 
ATOM     36  N   UNL     1      -1.277 -11.580   9.794  1.00  0.00    -0.248 NA
ATOM     37  C   UNL     1      -1.911 -10.710   7.724  1.00  0.00     0.031 C 
ATOM     38  C   UNL     1       2.876 -10.044   9.148  1.00  0.00     0.029 A 
ATOM     39  N   UNL     1       1.526 -11.143  10.552  1.00  0.00    -0.354 N 
ATOM     40  C   UNL     1      -2.636 -11.799   9.598  1.00  0.00     0.074 A 
ATOM     41  C   UNL     1      -2.985 -11.182   8.338  1.00  0.00     0.031 C 
ATOM     42  C   UNL     1       3.604 -10.382  10.224  1.00  0.00     0.029 A 
ATOM     43  C   UNL     1       2.754 -11.098  11.169  1.00  0.00     0.049 A 
ATOM     44  H   UNL     1       0.733 -11.560  10.959  1.00  0.00     0.167 HD
ATOM     45  C   UNL     1      -3.510 -12.475  10.381  1.00  0.00     0.031 A 
ATOM     46  C   UNL     1       3.153 -11.587  12.360  1.00  0.00     0.031 A 
ATOM     47  C   UNL     1      -3.158 -13.095  11.631  1.00  0.00     0.049 A 
ATOM     48  C   UNL     1       2.166 -12.342  13.208  1.00  0.00     0.074 A 
ATOM     49  C   UNL     1      -3.956 -13.847  12.475  1.00  0.00     0.029 A 
ATOM     50  N   UNL     1      -1.902 -13.035  12.218  1.00  0.00    -0.354 N 
ATOM     51  N   UNL     1       0.902 -12.601  12.970  1.00  0.00    -0.248 NA
ATOM     52  C   UNL     1       2.669 -12.891  14.474  1.00  0.00     0.031 C 
ATOM     53  C   UNL     1      -3.198 -14.198  13.597  1.00  0.00     0.029 A 
ATOM     54  C   UNL     1      -1.909 -13.720  13.422  1.00  0.00     0.049 A 
ATOM     55  H   UNL     1      -1.121 -12.574  11.835  1.00  0.00     0.167 HD
ATOM     56  C   UNL     1       0.466 -13.369  14.045  1.00  0.00     0.074 A 
ATOM     57  C   UNL     1       1.607 -13.549  14.919  1.00  0.00     0.031 C 
ATOM     58  C   UNL     1      -0.767 -13.881  14.286  1.00  0.00     0.031 A 
BRANCH  45  59
ATOM     59  C   UNL     1      -4.937 -12.574   9.905  1.00  0.00    -0.014 A 
ATOM     60  C   UNL     1      -5.274 -13.341   8.773  1.00  0.00     0.010 A 
ATOM     61  C   UNL     1      -5.960 -11.920  10.614  1.00  0.00     0.010 A 
ATOM     62  C   UNL     1      -6.599 -13.413   8.335  1.00  0.00     0.020 A 
ATOM     63  C   UNL     1      -7.291 -12.016  10.197  1.00  0.00     0.020 A 
ATOM     64  C   UNL     1      -7.599 -12.748   9.048  1.00  0.00     0.054 A 
BRANCH  64  65
ATOM     65  S   UNL     1      -9.312 -12.877   8.467  1.00  0.00     0.124 S 
ATOM     66  O   UNL     1      -9.286 -12.045   7.267  1.00  0.00    -0.237 OA
ATOM     67  O   UNL     1      -9.464 -14.310   8.234  1.00  0.00    -0.237 OA
ATOM     68  O   UNL     1     -10.097 -12.342   9.578  1.00  0.00    -0.744 OA
ENDBRANCH  64  65
ENDBRANCH  45  59
BRANCH  46  69
ATOM     69  C   UNL     1       4.563 -11.405  12.805  1.00  0.00    -0.014 A 
ATOM     70  C   UNL     1       5.440 -12.502  12.872  1.00  0.00     0.010 A 
ATOM     71  C   UNL     1       5.037 -10.129  13.159  1.00  0.00     0.010 A 
ATOM     72  C   UNL     1       6.758 -12.331  13.308  1.00  0.00     0.020 A 
ATOM     73  C   UNL     1       6.362  -9.949  13.566  1.00  0.00     0.020 A 
ATOM     74  C   UNL     1       7.211 -11.055  13.651  1.00  0.00     0.054 A 
BRANCH  74  75
ATOM     75  S   UNL     1       8.937 -10.849  14.169  1.00  0.00     0.124 S 
ATOM     76  O   UNL     1       8.926 -11.437  15.505  1.00  0.00    -0.237 OA
ATOM     77  O   UNL     1       9.664 -11.603  13.151  1.00  0.00    -0.237 OA
ATOM     78  O   UNL     1       9.138  -9.402  14.123  1.00  0.00    -0.744 OA
ENDBRANCH  74  75
ENDBRANCH  46  69
BRANCH  58  79
ATOM     79  C   UNL     1      -0.932 -14.717  15.529  1.00  0.00    -0.014 A 
ATOM     80  C   UNL     1      -0.878 -14.145  16.812  1.00  0.00     0.010 A 
ATOM     81  C   UNL     1      -1.158 -16.101  15.406  1.00  0.00     0.010 A 
ATOM     82  C   UNL     1      -0.987 -14.949  17.950  1.00  0.00     0.020 A 
ATOM     83  C   UNL     1      -1.302 -16.903  16.540  1.00  0.00     0.020 A 
ATOM     84  C   UNL     1      -1.191 -16.325  17.806  1.00  0.00     0.054 A 
BRANCH  84  85
ATOM     85  S   UNL     1      -1.329 -17.349  19.296  1.00  0.00     0.124 S 
ATOM     86  O   UNL     1       0.057 -17.408  19.752  1.00  0.00    -0.237 OA
ATOM     87  O   UNL     1      -2.235 -16.571  20.138  1.00  0.00    -0.237 OA
ATOM     88  O   UNL     1      -1.877 -18.610  18.801  1.00  0.00    -0.744 OA
ENDBRANCH  84  85
ENDBRANCH  58  79
ENDBRANCH  32  33
ENDBRANCH  24  27
ENDBRANCH  22  23
ENDBRANCH   1  22
TORSDOF 16
