REMARK SMILES O=C(NCCCCNC(=O)c1ccccc1[C@@H]1SCC(=O)N1NC(=S)Nc1ccccc1)c1ccc(-c2c3nc(c(-c4ccc(S(=O)(=O)[O-])cc4)c4ccc([nH]4)c(-c4ccc(S(=O)(=O)[O-])cc4)c4nc(c(-c5ccc(S(=O)(=O)[O-])cc5)c5ccc2[nH]5)C=C4)C=C3)cc1
REMARK SMILES IDX 6 1 5 2 4 3 3 4 1 5 2 6 33 8 34 9 92 10 35 11 91 12 36 13
REMARK SMILES IDX 37 14 38 15 85 16 39 17 90 18 84 19 86 20 40 21 89 22 83 23
REMARK SMILES IDX 82 24 41 26 71 27 52 28 70 29 53 30 56 31 69 32 87 33 54 34
REMARK SMILES IDX 55 35 68 37 88 38 57 39 42 40 43 41 51 42 44 43 50 44 45 45
REMARK SMILES IDX 46 46 47 47 48 48 49 49 72 50 73 51 81 52 74 53 80 54 75 55
REMARK SMILES IDX 76 56 77 57 78 58 79 59 58 60 59 61 67 62 60 63 66 64 61 65
REMARK SMILES IDX 62 66 63 67 64 68 65 69 7 70 8 71 9 72 10 74 11 75 12 76
REMARK SMILES IDX 16 77 13 78 15 79 14 80 17 81 18 82 22 83 19 84 20 85 21 86
REMARK SMILES IDX 23 87 24 89 25 90 26 91 27 93 28 94 32 95 29 96 31 97 30 98
REMARK H PARENT 3 7 86 25 56 36 8 73 23 88 26 92
REMARK Flexibility Score: inf
ROOT
ATOM      1  C   UNL     1       5.297   2.929  -2.979  1.00  0.00     0.023 C 
ENDROOT
BRANCH   1   2
ATOM      2  C   UNL     1       5.774   1.537  -2.528  1.00  0.00     0.023 C 
BRANCH   2   3
ATOM      3  C   UNL     1       4.782   0.394  -2.205  1.00  0.00     0.116 C 
BRANCH   3   4
ATOM      4  N   UNL     1       3.435   0.696  -1.744  1.00  0.00    -0.352 N 
ATOM      5  O   UNL     1       1.337   0.048  -1.153  1.00  0.00    -0.269 OA
ATOM      6  C   UNL     1       2.529  -0.234  -1.232  1.00  0.00     0.251 C 
ATOM      7  H   UNL     1       3.139   1.633  -1.797  1.00  0.00     0.163 HD
BRANCH   6   8
ATOM      8  C   UNL     1       3.002  -1.570  -0.786  1.00  0.00     0.039 A 
ATOM      9  C   UNL     1       3.951  -1.663   0.225  1.00  0.00     0.014 A 
ATOM     10  C   UNL     1       2.526  -2.740  -1.372  1.00  0.00     0.014 A 
ATOM     11  C   UNL     1       4.585  -2.863   0.518  1.00  0.00     0.010 A 
ATOM     12  C   UNL     1       3.113  -3.971  -1.033  1.00  0.00     0.010 A 
ATOM     13  C   UNL     1       4.200  -4.031  -0.139  1.00  0.00    -0.014 A 
BRANCH  13  14
ATOM     14  C   UNL     1       5.021  -5.263   0.018  1.00  0.00     0.031 A 
ATOM     15  C   UNL     1       5.763  -5.810  -1.176  1.00  0.00     0.074 A 
ATOM     16  C   UNL     1       5.177  -5.850   1.222  1.00  0.00     0.049 A 
ATOM     17  N   UNL     1       6.455  -6.915  -1.288  1.00  0.00    -0.248 NA
ATOM     18  C   UNL     1       5.716  -5.009  -2.411  1.00  0.00     0.031 C 
ATOM     19  C   UNL     1       4.585  -5.384   2.478  1.00  0.00     0.029 A 
ATOM     20  N   UNL     1       5.893  -6.964   1.587  1.00  0.00    -0.354 N 
ATOM     21  C   UNL     1       6.877  -6.967  -2.612  1.00  0.00     0.074 A 
ATOM     22  C   UNL     1       6.360  -5.787  -3.268  1.00  0.00     0.031 C 
ATOM     23  C   UNL     1       4.977  -6.194   3.475  1.00  0.00     0.029 A 
ATOM     24  C   UNL     1       5.790  -7.273   2.923  1.00  0.00     0.049 A 
ATOM     25  H   UNL     1       6.428  -7.492   0.951  1.00  0.00     0.167 HD
ATOM     26  C   UNL     1       7.626  -7.913  -3.229  1.00  0.00     0.031 A 
ATOM     27  C   UNL     1       6.265  -8.324   3.621  1.00  0.00     0.031 A 
ATOM     28  C   UNL     1       8.170  -9.069  -2.569  1.00  0.00     0.049 A 
ATOM     29  C   UNL     1       7.057  -9.385   2.908  1.00  0.00     0.074 A 
ATOM     30  C   UNL     1       8.947 -10.081  -3.107  1.00  0.00     0.029 A 
ATOM     31  N   UNL     1       8.007  -9.361  -1.224  1.00  0.00    -0.354 N 
ATOM     32  N   UNL     1       7.405  -9.442   1.645  1.00  0.00    -0.248 NA
ATOM     33  C   UNL     1       7.513 -10.527   3.713  1.00  0.00     0.031 C 
ATOM     34  C   UNL     1       9.218 -11.008  -2.095  1.00  0.00     0.029 A 
ATOM     35  C   UNL     1       8.654 -10.546  -0.917  1.00  0.00     0.049 A 
ATOM     36  H   UNL     1       7.505  -8.809  -0.583  1.00  0.00     0.167 HD
ATOM     37  C   UNL     1       8.132 -10.619   1.506  1.00  0.00     0.074 A 
ATOM     38  C   UNL     1       8.189 -11.233   2.817  1.00  0.00     0.031 C 
ATOM     39  C   UNL     1       8.699 -11.145   0.392  1.00  0.00     0.031 A 
BRANCH  26  40
ATOM     40  C   UNL     1       7.862  -7.758  -4.708  1.00  0.00    -0.014 A 
ATOM     41  C   UNL     1       8.748  -6.791  -5.215  1.00  0.00     0.010 A 
ATOM     42  C   UNL     1       7.207  -8.624  -5.604  1.00  0.00     0.010 A 
ATOM     43  C   UNL     1       8.944  -6.667  -6.594  1.00  0.00     0.020 A 
ATOM     44  C   UNL     1       7.420  -8.520  -6.981  1.00  0.00     0.020 A 
ATOM     45  C   UNL     1       8.275  -7.530  -7.468  1.00  0.00     0.054 A 
BRANCH  45  46
ATOM     46  S   UNL     1       8.560  -7.361  -9.252  1.00  0.00     0.124 S 
ATOM     47  O   UNL     1       7.790  -6.160  -9.566  1.00  0.00    -0.237 OA
ATOM     48  O   UNL     1      10.011  -7.215  -9.334  1.00  0.00    -0.237 OA
ATOM     49  O   UNL     1       8.030  -8.604  -9.807  1.00  0.00    -0.744 OA
ENDBRANCH  45  46
ENDBRANCH  26  40
BRANCH  27  50
ATOM     50  C   UNL     1       5.962  -8.443   5.074  1.00  0.00    -0.014 A 
ATOM     51  C   UNL     1       6.970  -8.267   6.036  1.00  0.00     0.010 A 
ATOM     52  C   UNL     1       4.647  -8.709   5.501  1.00  0.00     0.010 A 
ATOM     53  C   UNL     1       6.671  -8.355   7.400  1.00  0.00     0.020 A 
ATOM     54  C   UNL     1       4.339  -8.772   6.863  1.00  0.00     0.020 A 
ATOM     55  C   UNL     1       5.355  -8.602   7.804  1.00  0.00     0.054 A 
BRANCH  55  56
ATOM     56  S   UNL     1       4.971  -8.633   9.577  1.00  0.00     0.124 S 
ATOM     57  O   UNL     1       5.467  -9.947   9.972  1.00  0.00    -0.237 OA
ATOM     58  O   UNL     1       5.726  -7.491  10.087  1.00  0.00    -0.237 OA
ATOM     59  O   UNL     1       3.518  -8.473   9.613  1.00  0.00    -0.744 OA
ENDBRANCH  55  56
ENDBRANCH  27  50
BRANCH  39  60
ATOM     60  C   UNL     1       9.457 -12.434   0.547  1.00  0.00    -0.014 A 
ATOM     61  C   UNL     1       8.783 -13.657   0.712  1.00  0.00     0.010 A 
ATOM     62  C   UNL     1      10.862 -12.426   0.478  1.00  0.00     0.010 A 
ATOM     63  C   UNL     1       9.505 -14.848   0.836  1.00  0.00     0.020 A 
ATOM     64  C   UNL     1      11.585 -13.617   0.579  1.00  0.00     0.020 A 
ATOM     65  C   UNL     1      10.901 -14.819   0.772  1.00  0.00     0.054 A 
BRANCH  65  66
ATOM     66  S   UNL     1      11.816 -16.381   0.900  1.00  0.00     0.124 S 
ATOM     67  O   UNL     1      11.743 -16.658   2.332  1.00  0.00    -0.237 OA
ATOM     68  O   UNL     1      11.043 -17.278   0.045  1.00  0.00    -0.237 OA
ATOM     69  O   UNL     1      13.146 -16.044   0.397  1.00  0.00    -0.744 OA
ENDBRANCH  65  66
ENDBRANCH  39  60
ENDBRANCH  13  14
ENDBRANCH   6   8
ENDBRANCH   3   4
ENDBRANCH   2   3
ENDBRANCH   1   2
BRANCH   1  70
ATOM     70  C   UNL     1       5.393   4.026  -1.903  1.00  0.00     0.116 C 
BRANCH  70  71
ATOM     71  N   UNL     1       6.727   4.419  -1.473  1.00  0.00    -0.352 N 
ATOM     72  C   UNL     1       7.049   5.485  -0.649  1.00  0.00     0.251 C 
ATOM     73  H   UNL     1       7.477   3.871  -1.801  1.00  0.00     0.163 HD
ATOM     74  O   UNL     1       8.061   5.458   0.048  1.00  0.00    -0.269 OA
BRANCH  72  75
ATOM     75  C   UNL     1       6.280   6.753  -0.677  1.00  0.00     0.046 A 
ATOM     76  C   UNL     1       6.627   7.565  -1.774  1.00  0.00     0.014 A 
ATOM     77  C   UNL     1       5.478   7.277   0.373  1.00  0.00    -0.001 A 
ATOM     78  C   UNL     1       6.178   8.880  -1.863  1.00  0.00     0.001 A 
ATOM     79  C   UNL     1       5.025   8.613   0.237  1.00  0.00     0.007 A 
ATOM     80  C   UNL     1       5.372   9.401  -0.861  1.00  0.00     0.000 A 
BRANCH  77  81
ATOM     81  C   UNL     1       5.053   6.567   1.661  1.00  0.00     0.197 C 
ATOM     82  S   UNL     1       6.308   6.625   2.953  1.00  0.00    -0.120 SA
ATOM     83  N   UNL     1       4.680   5.185   1.485  1.00  0.00    -0.236 N 
ATOM     84  C   UNL     1       6.505   4.827   2.956  1.00  0.00     0.174 C 
ATOM     85  C   UNL     1       5.752   4.326   1.740  1.00  0.00     0.252 C 
ATOM     86  O   UNL     1       6.099   3.343   1.106  1.00  0.00    -0.272 OA
BRANCH  83  87
ATOM     87  N   UNL     1       3.538   4.997   0.672  1.00  0.00    -0.270 N 
ATOM     88  H   UNL     1       3.165   5.833   0.311  1.00  0.00     0.191 HD
BRANCH  87  89
ATOM     89  C   UNL     1       2.859   3.888   0.295  1.00  0.00     0.189 C 
ATOM     90  S   UNL     1       1.710   4.103  -0.913  1.00  0.00    -0.039 S 
BRANCH  89  91
ATOM     91  N   UNL     1       3.169   2.641   0.682  1.00  0.00    -0.331 N 
ATOM     92  H   UNL     1       3.026   1.950  -0.005  1.00  0.00     0.169 HD
BRANCH  91  93
ATOM     93  C   UNL     1       3.660   2.163   1.895  1.00  0.00     0.040 A 
ATOM     94  C   UNL     1       4.706   1.240   1.850  1.00  0.00     0.026 A 
ATOM     95  C   UNL     1       3.123   2.545   3.115  1.00  0.00     0.026 A 
ATOM     96  C   UNL     1       5.249   0.713   3.015  1.00  0.00     0.002 A 
ATOM     97  C   UNL     1       3.628   1.974   4.285  1.00  0.00     0.002 A 
ATOM     98  C   UNL     1       4.695   1.069   4.236  1.00  0.00     0.000 A 
ENDBRANCH  91  93
ENDBRANCH  89  91
ENDBRANCH  87  89
ENDBRANCH  83  87
ENDBRANCH  77  81
ENDBRANCH  72  75
ENDBRANCH  70  71
ENDBRANCH   1  70
TORSDOF 19
