REMARK SMILES O=C(NCCCCNC(=O)c1ccccc1-c1ccc(/C=C2/SC(=S)N(Cc3ccccc3)C2=O)o1)c1ccc(-c2c3nc(c(-c4ccc(S(=O)(=O)[O-])cc4)c4ccc([nH]4)c(-c4ccc(S(=O)(=O)[O-])cc4)c4nc(c(-c5ccc(S(=O)(=O)[O-])cc5)c5ccc2[nH]5)C=C4)C=C3)cc1
REMARK SMILES IDX 6 1 5 2 4 3 3 4 1 5 2 6 37 8 38 9 96 10 39 11 95 12 40 13
REMARK SMILES IDX 41 14 42 15 89 16 43 17 94 18 88 19 90 20 44 21 93 22 87 23
REMARK SMILES IDX 86 24 45 26 75 27 56 28 74 29 57 30 60 31 73 32 91 33 58 34
REMARK SMILES IDX 59 35 72 37 92 38 61 39 46 40 47 41 55 42 48 43 54 44 49 45
REMARK SMILES IDX 50 46 51 47 52 48 53 49 76 50 77 51 85 52 78 53 84 54 79 55
REMARK SMILES IDX 80 56 81 57 82 58 83 59 62 60 63 61 71 62 64 63 70 64 65 65
REMARK SMILES IDX 66 66 67 67 68 68 69 69 7 70 8 71 9 72 10 74 11 75 12 76
REMARK SMILES IDX 16 77 13 78 15 79 14 80 17 81 18 82 36 83 19 84 20 85 21 86
REMARK SMILES IDX 22 87 23 88 34 89 24 90 26 91 35 92 25 93 27 94 28 95 29 96
REMARK SMILES IDX 33 97 30 98 32 99 31 100
REMARK H PARENT 3 7 90 25 60 36 8 73
REMARK Flexibility Score: inf
ROOT
ATOM      1  C   UNL     1       4.625   1.629   3.612  1.00  0.00     0.023 C 
ENDROOT
BRANCH   1   2
ATOM      2  C   UNL     1       5.052   1.595   2.146  1.00  0.00     0.023 C 
BRANCH   2   3
ATOM      3  C   UNL     1       4.618   0.369   1.349  1.00  0.00     0.116 C 
BRANCH   3   4
ATOM      4  N   UNL     1       3.173   0.225   1.243  1.00  0.00    -0.352 N 
ATOM      5  O   UNL     1       1.164   0.051   0.232  1.00  0.00    -0.269 OA
ATOM      6  C   UNL     1       2.385   0.115   0.120  1.00  0.00     0.251 C 
ATOM      7  H   UNL     1       2.689   0.202   2.100  1.00  0.00     0.163 HD
BRANCH   6   8
ATOM      8  C   UNL     1       3.013   0.127  -1.219  1.00  0.00     0.039 A 
ATOM      9  C   UNL     1       4.109  -0.690  -1.499  1.00  0.00     0.014 A 
ATOM     10  C   UNL     1       2.530   1.012  -2.186  1.00  0.00     0.014 A 
ATOM     11  C   UNL     1       4.829  -0.494  -2.673  1.00  0.00     0.010 A 
ATOM     12  C   UNL     1       3.200   1.139  -3.407  1.00  0.00     0.010 A 
ATOM     13  C   UNL     1       4.381   0.419  -3.644  1.00  0.00    -0.014 A 
BRANCH  13  14
ATOM     14  C   UNL     1       5.130   0.558  -4.921  1.00  0.00     0.031 A 
ATOM     15  C   UNL     1       5.784   1.857  -5.311  1.00  0.00     0.074 A 
ATOM     16  C   UNL     1       5.226  -0.515  -5.730  1.00  0.00     0.049 A 
ATOM     17  N   UNL     1       6.474   2.138  -6.388  1.00  0.00    -0.248 NA
ATOM     18  C   UNL     1       5.641   2.989  -4.381  1.00  0.00     0.031 C 
ATOM     19  C   UNL     1       4.626  -1.826  -5.463  1.00  0.00     0.029 A 
ATOM     20  N   UNL     1       5.866  -0.683  -6.930  1.00  0.00    -0.354 N 
ATOM     21  C   UNL     1       6.829   3.479  -6.279  1.00  0.00     0.074 A 
ATOM     22  C   UNL     1       6.257   3.962  -5.040  1.00  0.00     0.031 C 
ATOM     23  C   UNL     1       4.958  -2.671  -6.448  1.00  0.00     0.029 A 
ATOM     24  C   UNL     1       5.731  -1.948  -7.451  1.00  0.00     0.049 A 
ATOM     25  H   UNL     1       6.374   0.033  -7.376  1.00  0.00     0.167 HD
ATOM     26  C   UNL     1       7.564   4.234  -7.133  1.00  0.00     0.031 A 
ATOM     27  C   UNL     1       6.153  -2.469  -8.618  1.00  0.00     0.031 A 
ATOM     28  C   UNL     1       8.121   3.745  -8.369  1.00  0.00     0.049 A 
ATOM     29  C   UNL     1       6.934  -1.601  -9.561  1.00  0.00     0.074 A 
ATOM     30  C   UNL     1       8.912   4.420  -9.283  1.00  0.00     0.029 A 
ATOM     31  N   UNL     1       7.939   2.465  -8.872  1.00  0.00    -0.354 N 
ATOM     32  N   UNL     1       7.298  -0.350  -9.417  1.00  0.00    -0.248 NA
ATOM     33  C   UNL     1       7.365  -2.217 -10.822  1.00  0.00     0.031 C 
ATOM     34  C   UNL     1       9.153   3.570 -10.368  1.00  0.00     0.029 A 
ATOM     35  C   UNL     1       8.573   2.341 -10.098  1.00  0.00     0.049 A 
ATOM     36  H   UNL     1       7.433   1.749  -8.424  1.00  0.00     0.167 HD
ATOM     37  C   UNL     1       8.018  -0.032 -10.562  1.00  0.00     0.074 A 
ATOM     38  C   UNL     1       8.055  -1.230 -11.377  1.00  0.00     0.031 C 
ATOM     39  C   UNL     1       8.595   1.146 -10.906  1.00  0.00     0.031 A 
BRANCH  26  40
ATOM     40  C   UNL     1       7.780   5.686  -6.781  1.00  0.00    -0.014 A 
ATOM     41  C   UNL     1       8.603   6.068  -5.706  1.00  0.00     0.010 A 
ATOM     42  C   UNL     1       7.187   6.689  -7.572  1.00  0.00     0.010 A 
ATOM     43  C   UNL     1       8.792   7.420  -5.402  1.00  0.00     0.020 A 
ATOM     44  C   UNL     1       7.397   8.043  -7.290  1.00  0.00     0.020 A 
ATOM     45  C   UNL     1       8.184   8.400  -6.193  1.00  0.00     0.054 A 
BRANCH  45  46
ATOM     46  S   UNL     1       8.453  10.146  -5.779  1.00  0.00     0.124 S 
ATOM     47  O   UNL     1       7.669  10.288  -4.554  1.00  0.00    -0.237 OA
ATOM     48  O   UNL     1       9.902  10.214  -5.608  1.00  0.00    -0.237 OA
ATOM     49  O   UNL     1       7.930  10.864  -6.939  1.00  0.00    -0.744 OA
ENDBRANCH  45  46
ENDBRANCH  26  40
BRANCH  27  50
ATOM     50  C   UNL     1       5.816  -3.878  -8.955  1.00  0.00    -0.014 A 
ATOM     51  C   UNL     1       6.811  -4.867  -8.995  1.00  0.00     0.010 A 
ATOM     52  C   UNL     1       4.477  -4.242  -9.195  1.00  0.00     0.010 A 
ATOM     53  C   UNL     1       6.477  -6.194  -9.280  1.00  0.00     0.020 A 
ATOM     54  C   UNL     1       4.134  -5.572  -9.448  1.00  0.00     0.020 A 
ATOM     55  C   UNL     1       5.139  -6.538  -9.500  1.00  0.00     0.054 A 
BRANCH  55  56
ATOM     56  S   UNL     1       4.723  -8.277  -9.808  1.00  0.00     0.124 S 
ATOM     57  O   UNL     1       5.228  -8.473 -11.163  1.00  0.00    -0.237 OA
ATOM     58  O   UNL     1       5.457  -8.968  -8.751  1.00  0.00    -0.237 OA
ATOM     59  O   UNL     1       3.269  -8.310  -9.669  1.00  0.00    -0.744 OA
ENDBRANCH  55  56
ENDBRANCH  27  50
BRANCH  39  60
ATOM     60  C   UNL     1       9.345   1.189 -12.211  1.00  0.00    -0.014 A 
ATOM     61  C   UNL     1       8.669   1.152 -13.444  1.00  0.00     0.010 A 
ATOM     62  C   UNL     1      10.746   1.312 -12.201  1.00  0.00     0.010 A 
ATOM     63  C   UNL     1       9.385   1.204 -14.643  1.00  0.00     0.020 A 
ATOM     64  C   UNL     1      11.463   1.396 -13.397  1.00  0.00     0.020 A 
ATOM     65  C   UNL     1      10.778   1.327 -14.612  1.00  0.00     0.054 A 
BRANCH  65  66
ATOM     66  S   UNL     1      11.680   1.435 -16.181  1.00  0.00     0.124 S 
ATOM     67  O   UNL     1      11.586   0.066 -16.681  1.00  0.00    -0.237 OA
ATOM     68  O   UNL     1      10.911   2.430 -16.924  1.00  0.00    -0.237 OA
ATOM     69  O   UNL     1      13.020   1.861 -15.783  1.00  0.00    -0.744 OA
ENDBRANCH  65  66
ENDBRANCH  39  60
ENDBRANCH  13  14
ENDBRANCH   6   8
ENDBRANCH   3   4
ENDBRANCH   2   3
ENDBRANCH   1   2
BRANCH   1  70
ATOM     70  C   UNL     1       4.983   0.390   4.418  1.00  0.00     0.116 C 
BRANCH  70  71
ATOM     71  N   UNL     1       6.408   0.132   4.522  1.00  0.00    -0.352 N 
ATOM     72  C   UNL     1       7.086  -0.464   5.561  1.00  0.00     0.252 C 
ATOM     73  H   UNL     1       6.957   0.419   3.757  1.00  0.00     0.163 HD
ATOM     74  O   UNL     1       8.295  -0.662   5.488  1.00  0.00    -0.269 OA
BRANCH  72  75
ATOM     75  C   UNL     1       6.373  -0.816   6.809  1.00  0.00     0.050 A 
ATOM     76  C   UNL     1       6.764  -0.125   7.965  1.00  0.00     0.014 A 
ATOM     77  C   UNL     1       5.356  -1.785   6.863  1.00  0.00     0.030 A 
ATOM     78  C   UNL     1       6.108  -0.359   9.171  1.00  0.00     0.001 A 
ATOM     79  C   UNL     1       4.692  -1.994   8.080  1.00  0.00     0.013 A 
ATOM     80  C   UNL     1       5.065  -1.283   9.226  1.00  0.00     0.001 A 
BRANCH  77  81
ATOM     81  C   UNL     1       4.986  -2.567   5.698  1.00  0.00     0.135 A 
ATOM     82  C   UNL     1       5.689  -3.380   4.841  1.00  0.00     0.051 A 
ATOM     83  O   UNL     1       3.711  -2.393   5.246  1.00  0.00    -0.457 OA
ATOM     84  C   UNL     1       4.804  -3.683   3.783  1.00  0.00     0.051 A 
ATOM     85  C   UNL     1       3.590  -3.053   4.045  1.00  0.00     0.128 A 
BRANCH  85  86
ATOM     86  C   UNL     1       2.439  -2.994   3.214  1.00  0.00     0.068 C 
ATOM     87  C   UNL     1       1.748  -4.095   2.905  1.00  0.00     0.084 C 
ATOM     88  S   UNL     1       0.655  -4.231   1.587  1.00  0.00    -0.054 SA
ATOM     89  C   UNL     1       1.925  -5.426   3.525  1.00  0.00     0.266 C 
ATOM     90  C   UNL     1       0.832  -5.991   1.542  1.00  0.00     0.148 C 
ATOM     91  N   UNL     1       1.563  -6.410   2.633  1.00  0.00    -0.288 N 
ATOM     92  O   UNL     1       2.279  -5.598   4.686  1.00  0.00    -0.268 OA
ATOM     93  S   UNL     1       0.154  -6.918   0.334  1.00  0.00    -0.052 S 
BRANCH  91  94
ATOM     94  C   UNL     1       1.898  -7.792   2.964  1.00  0.00     0.163 C 
BRANCH  94  95
ATOM     95  C   UNL     1       3.336  -8.151   2.630  1.00  0.00    -0.028 A 
ATOM     96  C   UNL     1       3.615  -9.152   1.689  1.00  0.00     0.005 A 
ATOM     97  C   UNL     1       4.417  -7.536   3.285  1.00  0.00     0.005 A 
ATOM     98  C   UNL     1       4.934  -9.527   1.418  1.00  0.00     0.000 A 
ATOM     99  C   UNL     1       5.735  -7.895   2.998  1.00  0.00     0.000 A 
ATOM    100  C   UNL     1       5.993  -8.896   2.069  1.00  0.00     0.000 A 
ENDBRANCH  94  95
ENDBRANCH  91  94
ENDBRANCH  85  86
ENDBRANCH  77  81
ENDBRANCH  72  75
ENDBRANCH  70  71
ENDBRANCH   1  70
TORSDOF 18
