REMARK SMILES C[C@H]1[C@H](C(=O)NCCCCNC(=O)c2ccc(-c3c4nc(c(-c5ccc(S(=O)(=O)[O-])cc5)c5ccc([nH]5)c(-c5ccc(S(=O)(=O)[O-])cc5)c5nc(c(-c6ccc(S(=O)(=O)[O-])cc6)c6ccc3[nH]6)C=C5)C=C4)cc2)CC[N@@H+]1Cc1nnnn1-c1ccccc1
REMARK SMILES IDX 8 1 7 2 6 3 4 4 5 5 3 7 1 8 2 9 76 10 74 11 75 12 77 14
REMARK SMILES IDX 78 15 79 16 82 17 80 18 81 19 83 20 84 21 88 22 85 23 87 24
REMARK SMILES IDX 86 25 9 26 10 27 11 28 12 29 13 31 14 32 15 33 73 34 16 35
REMARK SMILES IDX 72 36 17 37 18 38 19 39 66 40 20 41 71 42 65 43 67 44 21 45
REMARK SMILES IDX 70 46 64 47 63 48 22 50 52 51 33 52 51 53 34 54 37 55 50 56
REMARK SMILES IDX 68 57 35 58 36 59 49 61 69 62 38 63 23 64 24 65 32 66 25 67
REMARK SMILES IDX 31 68 26 69 27 70 28 71 29 72 30 73 53 74 54 75 62 76 55 77
REMARK SMILES IDX 61 78 56 79 57 80 58 81 59 82 60 83 39 84 40 85 48 86 41 87
REMARK SMILES IDX 47 88 42 89 43 90 44 91 45 92 46 93
REMARK H PARENT 6 6 76 13 11 30 67 49 37 60
REMARK Flexibility Score: inf
ROOT
ATOM      1  C   UNL     1       0.692   0.770   4.140  1.00  0.00     0.023 C 
ENDROOT
BRANCH   1   2
ATOM      2  C   UNL     1      -0.252   1.567   3.232  1.00  0.00     0.116 C 
BRANCH   2   3
ATOM      3  N   UNL     1       0.448   2.502   2.381  1.00  0.00    -0.356 N 
ATOM      4  C   UNL     1       0.727   2.442   1.055  1.00  0.00     0.229 C 
ATOM      5  O   UNL     1       1.237   3.448   0.547  1.00  0.00    -0.275 OA
ATOM      6  H   UNL     1       0.773   3.312   2.836  1.00  0.00     0.163 HD
BRANCH   4   7
ATOM      7  C   UNL     1       0.407   1.244   0.166  1.00  0.00     0.142 C 
ATOM      8  C   UNL     1       2.137  -0.567  -0.034  1.00  0.00     0.076 C 
ATOM      9  C   UNL     1       0.820  -0.163   0.642  1.00  0.00     0.194 C 
ATOM     10  N   UNL     1      -0.238  -1.081   0.166  1.00  0.00    -0.326 N 
ATOM     11  C   UNL     1      -1.050   1.095  -0.244  1.00  0.00     0.081 C 
ATOM     12  C   UNL     1      -1.068  -0.332  -0.768  1.00  0.00     0.263 C 
ATOM     13  H   UNL     1       0.199  -1.857  -0.332  1.00  0.00     0.348 HD
BRANCH  10  14
ATOM     14  C   UNL     1      -0.906  -1.952   1.153  1.00  0.00     0.343 C 
BRANCH  14  15
ATOM     15  C   UNL     1      -1.922  -1.378   2.093  1.00  0.00     0.210 A 
ATOM     16  N   UNL     1      -1.757  -1.161   3.387  1.00  0.00    -0.107 NA
ATOM     17  N   UNL     1      -3.191  -0.926   1.770  1.00  0.00    -0.192 N 
ATOM     18  N   UNL     1      -2.817  -0.388   3.788  1.00  0.00    -0.023 NA
ATOM     19  N   UNL     1      -3.631  -0.142   2.776  1.00  0.00    -0.040 NA
BRANCH  17  20
ATOM     20  C   UNL     1      -3.988  -1.172   0.641  1.00  0.00     0.069 A 
ATOM     21  C   UNL     1      -4.675  -0.110   0.042  1.00  0.00     0.028 A 
ATOM     22  C   UNL     1      -4.056  -2.464   0.108  1.00  0.00     0.028 A 
ATOM     23  C   UNL     1      -5.364  -0.333  -1.149  1.00  0.00     0.002 A 
ATOM     24  C   UNL     1      -4.788  -2.684  -1.055  1.00  0.00     0.002 A 
ATOM     25  C   UNL     1      -5.421  -1.617  -1.694  1.00  0.00     0.000 A 
ENDBRANCH  17  20
ENDBRANCH  14  15
ENDBRANCH  10  14
ENDBRANCH   4   7
ENDBRANCH   2   3
ENDBRANCH   1   2
BRANCH   1  26
ATOM     26  C   UNL     1       0.657   1.172   5.614  1.00  0.00     0.023 C 
BRANCH  26  27
ATOM     27  C   UNL     1      -0.699   1.080   6.310  1.00  0.00     0.116 C 
BRANCH  27  28
ATOM     28  N   UNL     1      -1.271  -0.255   6.374  1.00  0.00    -0.352 N 
ATOM     29  C   UNL     1      -2.090  -0.780   7.357  1.00  0.00     0.251 C 
ATOM     30  H   UNL     1      -1.048  -0.858   5.628  1.00  0.00     0.163 HD
ATOM     31  O   UNL     1      -2.477  -1.936   7.314  1.00  0.00    -0.269 OA
BRANCH  29  32
ATOM     32  C   UNL     1      -2.453   0.085   8.506  1.00  0.00     0.039 A 
ATOM     33  C   UNL     1      -2.170  -0.356   9.800  1.00  0.00     0.014 A 
ATOM     34  C   UNL     1      -2.979   1.362   8.294  1.00  0.00     0.014 A 
ATOM     35  C   UNL     1      -2.305   0.529  10.873  1.00  0.00     0.010 A 
ATOM     36  C   UNL     1      -3.044   2.264   9.353  1.00  0.00     0.010 A 
ATOM     37  C   UNL     1      -2.681   1.865  10.648  1.00  0.00    -0.014 A 
BRANCH  37  38
ATOM     38  C   UNL     1      -2.630   2.873  11.740  1.00  0.00     0.031 A 
ATOM     39  C   UNL     1      -3.880   3.564  12.205  1.00  0.00     0.074 A 
ATOM     40  C   UNL     1      -1.434   3.227  12.255  1.00  0.00     0.049 A 
ATOM     41  N   UNL     1      -4.014   4.504  13.105  1.00  0.00    -0.248 NA
ATOM     42  C   UNL     1      -5.141   3.167  11.558  1.00  0.00     0.031 C 
ATOM     43  C   UNL     1      -0.138   2.676  11.848  1.00  0.00     0.029 A 
ATOM     44  N   UNL     1      -1.111   4.142  13.227  1.00  0.00    -0.354 N 
ATOM     45  C   UNL     1      -5.367   4.821  13.124  1.00  0.00     0.074 A 
ATOM     46  C   UNL     1      -6.005   4.005  12.113  1.00  0.00     0.031 C 
ATOM     47  C   UNL     1       0.833   3.243  12.583  1.00  0.00     0.029 A 
ATOM     48  C   UNL     1       0.238   4.221  13.486  1.00  0.00     0.049 A 
ATOM     49  H   UNL     1      -1.782   4.690  13.694  1.00  0.00     0.167 HD
ATOM     50  C   UNL     1      -6.023   5.698  13.921  1.00  0.00     0.031 A 
ATOM     51  C   UNL     1       0.922   4.995  14.351  1.00  0.00     0.031 A 
ATOM     52  C   UNL     1      -5.390   6.504  14.932  1.00  0.00     0.049 A 
ATOM     53  C   UNL     1       0.171   5.955  15.232  1.00  0.00     0.074 A 
ATOM     54  C   UNL     1      -5.979   7.377  15.830  1.00  0.00     0.029 A 
ATOM     55  N   UNL     1      -4.026   6.537  15.179  1.00  0.00    -0.354 N 
ATOM     56  N   UNL     1      -1.119   6.185  15.285  1.00  0.00    -0.248 NA
ATOM     57  C   UNL     1       0.967   6.750  16.177  1.00  0.00     0.031 C 
ATOM     58  C   UNL     1      -4.967   7.970  16.592  1.00  0.00     0.029 A 
ATOM     59  C   UNL     1      -3.752   7.430  16.202  1.00  0.00     0.049 A 
ATOM     60  H   UNL     1      -3.352   6.005  14.698  1.00  0.00     0.167 HD
ATOM     61  C   UNL     1      -1.292   7.134  16.286  1.00  0.00     0.074 A 
ATOM     62  C   UNL     1       0.023   7.425  16.820  1.00  0.00     0.031 C 
ATOM     63  C   UNL     1      -2.438   7.711  16.723  1.00  0.00     0.031 A 
BRANCH  50  64
ATOM     64  C   UNL     1      -7.510   5.830  13.727  1.00  0.00    -0.014 A 
ATOM     65  C   UNL     1      -8.384   4.798  14.115  1.00  0.00     0.010 A 
ATOM     66  C   UNL     1      -8.045   7.010  13.180  1.00  0.00     0.010 A 
ATOM     67  C   UNL     1      -9.761   4.923  13.916  1.00  0.00     0.020 A 
ATOM     68  C   UNL     1      -9.424   7.151  13.003  1.00  0.00     0.020 A 
ATOM     69  C   UNL     1     -10.272   6.097  13.355  1.00  0.00     0.054 A 
BRANCH  69  70
ATOM     70  S   UNL     1     -12.065   6.240  13.118  1.00  0.00     0.124 S 
ATOM     71  O   UNL     1     -12.284   5.381  11.957  1.00  0.00    -0.237 OA
ATOM     72  O   UNL     1     -12.598   5.735  14.381  1.00  0.00    -0.237 OA
ATOM     73  O   UNL     1     -12.271   7.667  12.885  1.00  0.00    -0.744 OA
ENDBRANCH  69  70
ENDBRANCH  50  64
BRANCH  51  74
ATOM     74  C   UNL     1       2.403   4.876  14.443  1.00  0.00    -0.014 A 
ATOM     75  C   UNL     1       2.998   4.261  15.559  1.00  0.00     0.010 A 
ATOM     76  C   UNL     1       3.224   5.363  13.411  1.00  0.00     0.010 A 
ATOM     77  C   UNL     1       4.389   4.150  15.648  1.00  0.00     0.020 A 
ATOM     78  C   UNL     1       4.614   5.232  13.485  1.00  0.00     0.020 A 
ATOM     79  C   UNL     1       5.188   4.636  14.610  1.00  0.00     0.054 A 
BRANCH  79  80
ATOM     80  S   UNL     1       6.988   4.433  14.721  1.00  0.00     0.124 S 
ATOM     81  O   UNL     1       7.351   5.468  15.683  1.00  0.00    -0.237 OA
ATOM     82  O   UNL     1       7.124   3.056  15.190  1.00  0.00    -0.237 OA
ATOM     83  O   UNL     1       7.441   4.663  13.351  1.00  0.00    -0.744 OA
ENDBRANCH  79  80
ENDBRANCH  51  74
BRANCH  63  84
ATOM     84  C   UNL     1      -2.328   8.696  17.855  1.00  0.00    -0.014 A 
ATOM     85  C   UNL     1      -1.807   9.985  17.649  1.00  0.00     0.010 A 
ATOM     86  C   UNL     1      -2.802   8.342  19.131  1.00  0.00     0.010 A 
ATOM     87  C   UNL     1      -1.736  10.895  18.708  1.00  0.00     0.020 A 
ATOM     88  C   UNL     1      -2.756   9.257  20.186  1.00  0.00     0.020 A 
ATOM     89  C   UNL     1      -2.211  10.524  19.971  1.00  0.00     0.054 A 
BRANCH  89  90
ATOM     90  S   UNL     1      -2.152  11.737  21.318  1.00  0.00     0.124 S 
ATOM     91  O   UNL     1      -0.738  11.721  21.680  1.00  0.00    -0.237 OA
ATOM     92  O   UNL     1      -2.622  12.960  20.672  1.00  0.00    -0.237 OA
ATOM     93  O   UNL     1      -3.059  11.183  22.321  1.00  0.00    -0.744 OA
ENDBRANCH  89  90
ENDBRANCH  63  84
ENDBRANCH  37  38
ENDBRANCH  29  32
ENDBRANCH  27  28
ENDBRANCH  26  27
ENDBRANCH   1  26
TORSDOF 17
