REMARK SMILES C[NH2+][C@]1(C(=O)NCCCCNC(=O)c2ccc(-c3c4nc(c(-c5ccc(S(=O)(=O)[O-])cc5)c5ccc([nH]5)c(-c5ccc(S(=O)(=O)[O-])cc5)c5nc(c(-c6ccc(S(=O)(=O)[O-])cc6)c6ccc3[nH]6)C=C5)C=C4)cc2)CCC[C@@H]([N@@H+](C)C2CCCCCC2)C1
REMARK SMILES IDX 7 1 6 2 4 3 5 4 3 6 74 7 87 8 75 9 77 10 76 11 2 12 1 13
REMARK SMILES IDX 78 16 79 17 80 19 81 20 82 21 86 23 85 24 84 25 83 26 8 28
REMARK SMILES IDX 9 29 10 30 11 31 12 32 13 34 14 35 15 36 73 37 16 38 72 39
REMARK SMILES IDX 17 40 18 41 19 42 66 43 20 44 71 45 65 46 67 47 21 48 70 49
REMARK SMILES IDX 64 50 63 51 22 53 52 54 33 55 51 56 34 57 37 58 50 59 68 60
REMARK SMILES IDX 35 61 36 62 49 64 69 65 38 66 23 67 24 68 32 69 25 70 31 71
REMARK SMILES IDX 26 72 27 73 28 74 29 75 30 76 53 77 54 78 62 79 55 80 61 81
REMARK SMILES IDX 56 82 57 83 58 84 59 85 60 86 39 87 40 88 48 89 41 90 47 91
REMARK SMILES IDX 42 92 43 93 44 94 45 95 46 96
REMARK H PARENT 6 5 2 14 2 15 78 18 11 33 67 52 37 63
REMARK Flexibility Score: 80.00
ROOT
ATOM      1  C   UNL     1       0.873   0.182   0.893  1.00  0.00     0.116 C 
ENDROOT
BRANCH   1   2
ATOM      2  N   UNL     1       1.193  -0.087  -0.493  1.00  0.00    -0.351 N 
ATOM      3  C   UNL     1       0.413  -0.146  -1.611  1.00  0.00     0.281 C 
ATOM      4  O   UNL     1       1.020  -0.365  -2.671  1.00  0.00    -0.268 OA
ATOM      5  H   UNL     1       2.148  -0.259  -0.660  1.00  0.00     0.163 HD
BRANCH   3   6
ATOM      6  C   UNL     1      -1.183  -0.049  -1.626  1.00  0.00     0.181 C 
ATOM      7  C   UNL     1      -1.714  -1.332  -0.967  1.00  0.00     0.079 C 
ATOM      8  C   UNL     1      -1.679   1.196  -0.865  1.00  0.00     0.144 C 
ATOM      9  C   UNL     1      -3.212  -1.382  -0.711  1.00  0.00     0.013 C 
ATOM     10  C   UNL     1      -3.187   1.264  -0.581  1.00  0.00     0.190 C 
ATOM     11  C   UNL     1      -3.891  -0.080  -0.296  1.00  0.00     0.065 C 
BRANCH   6  12
ATOM     12  N   UNL     1      -1.527   0.132  -3.073  1.00  0.00    -0.336 N 
ATOM     13  C   UNL     1      -2.729  -0.465  -3.613  1.00  0.00     0.331 C 
ATOM     14  H   UNL     1      -1.599   1.136  -3.235  1.00  0.00     0.346 HD
ATOM     15  H   UNL     1      -0.781  -0.370  -3.554  1.00  0.00     0.346 HD
ENDBRANCH   6  12
BRANCH  10  16
ATOM     16  N   UNL     1      -3.588   2.404   0.304  1.00  0.00    -0.332 N 
ATOM     17  C   UNL     1      -4.995   2.763   0.065  1.00  0.00     0.333 C 
ATOM     18  H   UNL     1      -2.900   3.086  -0.016  1.00  0.00     0.348 HD
BRANCH  16  19
ATOM     19  C   UNL     1      -3.282   2.462   1.768  1.00  0.00     0.184 C 
BRANCH  19  20
ATOM     20  C   UNL     1      -3.830   1.341   2.677  1.00  0.00     0.065 C 
BRANCH  20  21
ATOM     21  C   UNL     1      -2.891   0.161   2.912  1.00  0.00     0.006 CG0
ATOM     22  G   UNL     1      -2.023   0.351   4.148  1.00  0.00     0.000 G0
ENDBRANCH  20  21
ENDBRANCH  19  20
BRANCH  19  23
ATOM     23  C   UNL     1      -1.841   2.914   2.104  1.00  0.00     0.065 C 
BRANCH  23  24
ATOM     24  C   UNL     1      -1.456   2.828   3.588  1.00  0.00     0.006 C 
BRANCH  24  25
ATOM     25  C   UNL     1      -0.971   1.438   4.005  1.00  0.00     0.000 C 
BRANCH  25  26
ATOM     26  C   UNL     1      -2.023   0.351   4.148  1.00  0.00     0.000 CG0
ATOM     27  G   UNL     1      -2.891   0.161   2.912  1.00  0.00     0.000 G0
ENDBRANCH  25  26
ENDBRANCH  24  25
ENDBRANCH  23  24
ENDBRANCH  19  23
ENDBRANCH  16  19
ENDBRANCH  10  16
ENDBRANCH   3   6
ENDBRANCH   1   2
BRANCH   1  28
ATOM     28  C   UNL     1       1.713  -0.610   1.889  1.00  0.00     0.023 C 
BRANCH  28  29
ATOM     29  C   UNL     1       3.143  -0.122   2.112  1.00  0.00     0.023 C 
BRANCH  29  30
ATOM     30  C   UNL     1       3.332   1.359   2.438  1.00  0.00     0.116 C 
BRANCH  30  31
ATOM     31  N   UNL     1       2.573   1.828   3.591  1.00  0.00    -0.352 N 
ATOM     32  C   UNL     1       2.969   2.465   4.743  1.00  0.00     0.251 C 
ATOM     33  H   UNL     1       1.605   1.660   3.533  1.00  0.00     0.163 HD
ATOM     34  O   UNL     1       2.138   2.725   5.612  1.00  0.00    -0.269 OA
BRANCH  32  35
ATOM     35  C   UNL     1       4.391   2.790   4.961  1.00  0.00     0.039 A 
ATOM     36  C   UNL     1       4.976   2.474   6.191  1.00  0.00     0.014 A 
ATOM     37  C   UNL     1       5.157   3.351   3.941  1.00  0.00     0.014 A 
ATOM     38  C   UNL     1       6.357   2.599   6.348  1.00  0.00     0.010 A 
ATOM     39  C   UNL     1       6.540   3.384   4.065  1.00  0.00     0.010 A 
ATOM     40  C   UNL     1       7.157   2.986   5.261  1.00  0.00    -0.014 A 
BRANCH  40  41
ATOM     41  C   UNL     1       8.640   2.936   5.324  1.00  0.00     0.031 A 
ATOM     42  C   UNL     1       9.447   4.185   5.104  1.00  0.00     0.074 A 
ATOM     43  C   UNL     1       9.256   1.745   5.465  1.00  0.00     0.049 A 
ATOM     44  N   UNL     1      10.742   4.319   4.988  1.00  0.00    -0.248 NA
ATOM     45  C   UNL     1       8.697   5.444   4.960  1.00  0.00     0.031 C 
ATOM     46  C   UNL     1       8.584   0.451   5.628  1.00  0.00     0.029 A 
ATOM     47  N   UNL     1      10.591   1.424   5.480  1.00  0.00    -0.354 N 
ATOM     48  C   UNL     1      10.960   5.666   4.724  1.00  0.00     0.074 A 
ATOM     49  C   UNL     1       9.661   6.299   4.655  1.00  0.00     0.031 C 
ATOM     50  C   UNL     1       9.508  -0.514   5.756  1.00  0.00     0.029 A 
ATOM     51  C   UNL     1      10.835   0.079   5.639  1.00  0.00     0.049 A 
ATOM     52  H   UNL     1      11.306   2.093   5.386  1.00  0.00     0.167 HD
ATOM     53  C   UNL     1      12.136   6.321   4.573  1.00  0.00     0.031 A 
ATOM     54  C   UNL     1      11.995  -0.602   5.678  1.00  0.00     0.031 A 
ATOM     55  C   UNL     1      13.425   5.691   4.671  1.00  0.00     0.049 A 
ATOM     56  C   UNL     1      13.288   0.151   5.535  1.00  0.00     0.074 A 
ATOM     57  C   UNL     1      14.677   6.277   4.595  1.00  0.00     0.029 A 
ATOM     58  N   UNL     1      13.628   4.335   4.875  1.00  0.00    -0.354 N 
ATOM     59  N   UNL     1      13.475   1.435   5.342  1.00  0.00    -0.248 NA
ATOM     60  C   UNL     1      14.527  -0.635   5.626  1.00  0.00     0.031 C 
ATOM     61  C   UNL     1      15.638   5.267   4.719  1.00  0.00     0.029 A 
ATOM     62  C   UNL     1      14.984   4.061   4.917  1.00  0.00     0.049 A 
ATOM     63  H   UNL     1      12.913   3.665   4.974  1.00  0.00     0.167 HD
ATOM     64  C   UNL     1      14.852   1.615   5.312  1.00  0.00     0.074 A 
ATOM     65  C   UNL     1      15.450   0.311   5.520  1.00  0.00     0.031 C 
ATOM     66  C   UNL     1      15.559   2.757   5.129  1.00  0.00     0.031 A 
BRANCH  53  67
ATOM     67  C   UNL     1      12.073   7.797   4.288  1.00  0.00    -0.014 A 
ATOM     68  C   UNL     1      11.660   8.708   5.277  1.00  0.00     0.010 A 
ATOM     69  C   UNL     1      12.449   8.284   3.023  1.00  0.00     0.010 A 
ATOM     70  C   UNL     1      11.579  10.073   4.993  1.00  0.00     0.020 A 
ATOM     71  C   UNL     1      12.395   9.653   2.743  1.00  0.00     0.020 A 
ATOM     72  C   UNL     1      11.941  10.537   3.725  1.00  0.00     0.054 A 
BRANCH  72  73
ATOM     73  S   UNL     1      11.836  12.315   3.386  1.00  0.00     0.124 S 
ATOM     74  O   UNL     1      10.396  12.506   3.229  1.00  0.00    -0.237 OA
ATOM     75  O   UNL     1      12.420  12.907   4.587  1.00  0.00    -0.237 OA
ATOM     76  O   UNL     1      12.623  12.482   2.167  1.00  0.00    -0.744 OA
ENDBRANCH  72  73
ENDBRANCH  53  67
BRANCH  54  77
ATOM     77  C   UNL     1      11.987  -2.075   5.889  1.00  0.00    -0.014 A 
ATOM     78  C   UNL     1      12.390  -2.615   7.124  1.00  0.00     0.010 A 
ATOM     79  C   UNL     1      11.559  -2.944   4.870  1.00  0.00     0.010 A 
ATOM     80  C   UNL     1      12.381  -3.997   7.330  1.00  0.00     0.020 A 
ATOM     81  C   UNL     1      11.526  -4.326   5.080  1.00  0.00     0.020 A 
ATOM     82  C   UNL     1      11.948  -4.845   6.306  1.00  0.00     0.054 A 
BRANCH  82  83
ATOM     83  S   UNL     1      11.891  -6.632   6.614  1.00  0.00     0.124 S 
ATOM     84  O   UNL     1      13.300  -7.000   6.524  1.00  0.00    -0.237 OA
ATOM     85  O   UNL     1      11.301  -6.706   7.949  1.00  0.00    -0.237 OA
ATOM     86  O   UNL     1      11.040  -7.136   5.538  1.00  0.00    -0.744 OA
ENDBRANCH  82  83
ENDBRANCH  54  77
BRANCH  66  87
ATOM     87  C   UNL     1      17.058   2.656   5.181  1.00  0.00    -0.014 A 
ATOM     88  C   UNL     1      17.786   2.098   4.116  1.00  0.00     0.010 A 
ATOM     89  C   UNL     1      17.749   3.179   6.290  1.00  0.00     0.010 A 
ATOM     90  C   UNL     1      19.181   2.041   4.170  1.00  0.00     0.020 A 
ATOM     91  C   UNL     1      19.144   3.145   6.336  1.00  0.00     0.020 A 
ATOM     92  C   UNL     1      19.851   2.565   5.281  1.00  0.00     0.054 A 
BRANCH  92  93
ATOM     93  S   UNL     1      21.664   2.525   5.308  1.00  0.00     0.124 S 
ATOM     94  O   UNL     1      21.932   1.125   5.624  1.00  0.00    -0.237 OA
ATOM     95  O   UNL     1      22.015   2.942   3.952  1.00  0.00    -0.237 OA
ATOM     96  O   UNL     1      22.015   3.480   6.356  1.00  0.00    -0.744 OA
ENDBRANCH  92  93
ENDBRANCH  66  87
ENDBRANCH  40  41
ENDBRANCH  32  35
ENDBRANCH  30  31
ENDBRANCH  29  30
ENDBRANCH  28  29
ENDBRANCH   1  28
TORSDOF 17
