REMARK SMILES C[C@H](NC(=O)OC(C)(C)C)C(=O)N[C@@H](C)C(=O)N1CCC[C@H]1C(=O)NCCCCNC(=O)c1ccc(-c2c3nc(c(-c4ccc(S(=O)(=O)[O-])cc4)c4ccc([nH]4)c(-c4ccc(S(=O)(=O)[O-])cc4)c4nc(c(-c5ccc(S(=O)(=O)[O-])cc5)c5ccc2[nH]5)C=C4)C=C3)cc1
REMARK SMILES IDX 23 1 24 2 25 3 22 5 18 6 19 7 20 8 21 9 16 10 17 11 14 12
REMARK SMILES IDX 15 13 13 14 11 15 12 16 2 18 1 19 3 20 4 21 5 23 6 24 7 25
REMARK SMILES IDX 8 26 9 27 10 28 26 29 27 30 28 31 29 32 30 33 31 34 32 36
REMARK SMILES IDX 33 37 34 38 92 39 35 40 91 41 36 42 37 43 38 44 85 45 39 46
REMARK SMILES IDX 90 47 84 48 86 49 40 50 89 51 83 52 82 53 41 55 71 56 52 57
REMARK SMILES IDX 70 58 53 59 56 60 69 61 87 62 54 63 55 64 68 66 88 67 57 68
REMARK SMILES IDX 42 69 43 70 51 71 44 72 50 73 45 74 46 75 47 76 48 77 49 78
REMARK SMILES IDX 72 79 73 80 81 81 74 82 80 83 75 84 76 85 77 86 78 87 79 88
REMARK SMILES IDX 58 89 59 90 67 91 60 92 66 93 61 94 62 95 63 96 64 97 65 98
REMARK H PARENT 25 4 13 17 3 22 30 35 86 54 56 65
REMARK Flexibility Score: inf
ROOT
ATOM      1  C   UNL     1      -3.175   6.261  -1.760  1.00  0.00     0.242 C 
ATOM      2  O   UNL     1      -2.480   7.037  -2.426  1.00  0.00    -0.273 OA
ATOM      3  N   UNL     1      -3.771   6.771  -0.647  1.00  0.00    -0.354 N 
ATOM      4  H   UNL     1      -3.420   7.643  -0.355  1.00  0.00     0.163 HD
ENDROOT
BRANCH   1   5
ATOM      5  C   UNL     1      -3.444   4.827  -2.268  1.00  0.00     0.174 C 
ATOM      6  N   UNL     1      -3.130   3.725  -1.355  1.00  0.00    -0.329 N 
ATOM      7  C   UNL     1      -4.300   2.946  -1.019  1.00  0.00     0.120 C 
ATOM      8  C   UNL     1      -5.283   3.231  -2.140  1.00  0.00     0.024 C 
ATOM      9  C   UNL     1      -4.889   4.593  -2.712  1.00  0.00     0.037 C 
BRANCH   6  10
ATOM     10  C   UNL     1      -1.802   3.423  -1.166  1.00  0.00     0.245 C 
ATOM     11  O   UNL     1      -0.941   4.296  -1.316  1.00  0.00    -0.272 OA
BRANCH  10  12
ATOM     12  C   UNL     1      -1.353   1.962  -0.980  1.00  0.00     0.168 C 
ATOM     13  C   UNL     1      -1.703   1.118  -2.206  1.00  0.00     0.041 C 
BRANCH  12  14
ATOM     14  N   UNL     1      -1.732   1.298   0.255  1.00  0.00    -0.343 N 
ATOM     15  C   UNL     1      -0.931   0.691   1.176  1.00  0.00     0.243 C 
ATOM     16  O   UNL     1      -1.497   0.167   2.142  1.00  0.00    -0.273 OA
ATOM     17  H   UNL     1      -2.696   1.284   0.453  1.00  0.00     0.164 HD
BRANCH  15  18
ATOM     18  C   UNL     1       0.619   0.703   1.091  1.00  0.00     0.171 C 
ATOM     19  C   UNL     1       1.177   2.064   1.489  1.00  0.00     0.042 C 
BRANCH  18  20
ATOM     20  N   UNL     1       1.143   0.078  -0.130  1.00  0.00    -0.310 N 
ATOM     21  C   UNL     1       1.761   0.591  -1.230  1.00  0.00     0.408 C 
ATOM     22  H   UNL     1       1.026  -0.899  -0.159  1.00  0.00     0.167 HD
ATOM     23  O   UNL     1       2.006  -0.131  -2.189  1.00  0.00    -0.225 OA
BRANCH  21  24
ATOM     24  O   UNL     1       2.011   1.913  -1.155  1.00  0.00    -0.444 OA
BRANCH  24  25
ATOM     25  C   UNL     1       2.525   2.665  -2.287  1.00  0.00     0.106 C 
ATOM     26  C   UNL     1       3.921   2.180  -2.686  1.00  0.00     0.056 C 
ATOM     27  C   UNL     1       1.557   2.633  -3.477  1.00  0.00     0.056 C 
ATOM     28  C   UNL     1       2.632   4.113  -1.786  1.00  0.00     0.056 C 
ENDBRANCH  24  25
ENDBRANCH  21  24
ENDBRANCH  18  20
ENDBRANCH  15  18
ENDBRANCH  12  14
ENDBRANCH  10  12
ENDBRANCH   6  10
ENDBRANCH   1   5
BRANCH   3  29
ATOM     29  C   UNL     1      -4.834   6.242   0.174  1.00  0.00     0.116 C 
BRANCH  29  30
ATOM     30  C   UNL     1      -4.383   5.919   1.591  1.00  0.00     0.023 C 
BRANCH  30  31
ATOM     31  C   UNL     1      -3.997   7.141   2.423  1.00  0.00     0.023 C 
BRANCH  31  32
ATOM     32  C   UNL     1      -5.045   8.247   2.481  1.00  0.00     0.116 C 
BRANCH  32  33
ATOM     33  N   UNL     1      -6.325   7.795   3.008  1.00  0.00    -0.352 N 
ATOM     34  C   UNL     1      -7.112   8.375   3.976  1.00  0.00     0.251 C 
ATOM     35  H   UNL     1      -6.675   6.961   2.619  1.00  0.00     0.163 HD
ATOM     36  O   UNL     1      -8.101   7.786   4.400  1.00  0.00    -0.269 OA
BRANCH  34  37
ATOM     37  C   UNL     1      -6.733   9.695   4.523  1.00  0.00     0.039 A 
ATOM     38  C   UNL     1      -6.703   9.873   5.907  1.00  0.00     0.014 A 
ATOM     39  C   UNL     1      -6.363  10.737   3.669  1.00  0.00     0.014 A 
ATOM     40  C   UNL     1      -6.228  11.075   6.436  1.00  0.00     0.010 A 
ATOM     41  C   UNL     1      -5.811  11.899   4.198  1.00  0.00     0.010 A 
ATOM     42  C   UNL     1      -5.737  12.082   5.587  1.00  0.00    -0.014 A 
BRANCH  42  43
ATOM     43  C   UNL     1      -5.137  13.327   6.132  1.00  0.00     0.031 A 
ATOM     44  C   UNL     1      -5.763  14.663   5.832  1.00  0.00     0.074 A 
ATOM     45  C   UNL     1      -3.995  13.263   6.846  1.00  0.00     0.049 A 
ATOM     46  N   UNL     1      -5.359  15.859   6.177  1.00  0.00    -0.248 NA
ATOM     47  C   UNL     1      -6.989  14.655   5.017  1.00  0.00     0.031 C 
ATOM     48  C   UNL     1      -3.269  12.033   7.176  1.00  0.00     0.029 A 
ATOM     49  N   UNL     1      -3.241  14.255   7.422  1.00  0.00    -0.354 N 
ATOM     50  C   UNL     1      -6.273  16.743   5.615  1.00  0.00     0.074 A 
ATOM     51  C   UNL     1      -7.214  15.950   4.854  1.00  0.00     0.031 C 
ATOM     52  C   UNL     1      -2.200  12.342   7.927  1.00  0.00     0.029 A 
ATOM     53  C   UNL     1      -2.133  13.790   8.091  1.00  0.00     0.049 A 
ATOM     54  H   UNL     1      -3.473  15.210   7.362  1.00  0.00     0.167 HD
ATOM     55  C   UNL     1      -6.340  18.090   5.739  1.00  0.00     0.031 A 
ATOM     56  C   UNL     1      -1.168  14.454   8.758  1.00  0.00     0.031 A 
ATOM     57  C   UNL     1      -5.398  18.876   6.492  1.00  0.00     0.049 A 
ATOM     58  C   UNL     1      -1.238  15.954   8.847  1.00  0.00     0.074 A 
ATOM     59  C   UNL     1      -5.400  20.242   6.713  1.00  0.00     0.029 A 
ATOM     60  N   UNL     1      -4.283  18.368   7.142  1.00  0.00    -0.354 N 
ATOM     61  N   UNL     1      -2.146  16.767   8.362  1.00  0.00    -0.248 NA
ATOM     62  C   UNL     1      -0.159  16.625   9.584  1.00  0.00     0.031 C 
ATOM     63  C   UNL     1      -4.253  20.568   7.443  1.00  0.00     0.029 A 
ATOM     64  C   UNL     1      -3.574  19.397   7.740  1.00  0.00     0.049 A 
ATOM     65  H   UNL     1      -4.032  17.417   7.174  1.00  0.00     0.167 HD
ATOM     66  C   UNL     1      -1.764  18.043   8.762  1.00  0.00     0.074 A 
ATOM     67  C   UNL     1      -0.552  17.891   9.541  1.00  0.00     0.031 C 
ATOM     68  C   UNL     1      -2.366  19.233   8.512  1.00  0.00     0.031 A 
BRANCH  55  69
ATOM     69  C   UNL     1      -7.468  18.797   5.031  1.00  0.00    -0.014 A 
ATOM     70  C   UNL     1      -8.805  18.618   5.432  1.00  0.00     0.010 A 
ATOM     71  C   UNL     1      -7.189  19.672   3.966  1.00  0.00     0.010 A 
ATOM     72  C   UNL     1      -9.843  19.255   4.748  1.00  0.00     0.020 A 
ATOM     73  C   UNL     1      -8.222  20.340   3.301  1.00  0.00     0.020 A 
ATOM     74  C   UNL     1      -9.545  20.110   3.683  1.00  0.00     0.054 A 
BRANCH  74  75
ATOM     75  S   UNL     1     -10.913  20.929   2.819  1.00  0.00     0.124 S 
ATOM     76  O   UNL     1     -11.524  19.813   2.100  1.00  0.00    -0.237 OA
ATOM     77  O   UNL     1     -11.704  21.475   3.919  1.00  0.00    -0.237 OA
ATOM     78  O   UNL     1     -10.249  21.922   1.978  1.00  0.00    -0.744 OA
ENDBRANCH  74  75
ENDBRANCH  55  69
BRANCH  56  79
ATOM     79  C   UNL     1      -0.062  13.700   9.414  1.00  0.00    -0.014 A 
ATOM     80  C   UNL     1       0.028  13.644  10.816  1.00  0.00     0.010 A 
ATOM     81  C   UNL     1       0.899  13.022   8.641  1.00  0.00     0.010 A 
ATOM     82  C   UNL     1       1.066  12.940  11.433  1.00  0.00     0.020 A 
ATOM     83  C   UNL     1       1.921  12.291   9.254  1.00  0.00     0.020 A 
ATOM     84  C   UNL     1       2.004  12.264  10.648  1.00  0.00     0.054 A 
BRANCH  84  85
ATOM     85  S   UNL     1       3.309  11.312  11.473  1.00  0.00     0.124 S 
ATOM     86  O   UNL     1       4.150  12.368  12.029  1.00  0.00    -0.237 OA
ATOM     87  O   UNL     1       2.556  10.524  12.446  1.00  0.00    -0.237 OA
ATOM     88  O   UNL     1       3.909  10.540  10.387  1.00  0.00    -0.744 OA
ENDBRANCH  84  85
ENDBRANCH  56  79
BRANCH  68  89
ATOM     89  C   UNL     1      -1.748  20.467   9.117  1.00  0.00    -0.014 A 
ATOM     90  C   UNL     1      -0.521  20.976   8.656  1.00  0.00     0.010 A 
ATOM     91  C   UNL     1      -2.439  21.160  10.129  1.00  0.00     0.010 A 
ATOM     92  C   UNL     1       0.018  22.137   9.219  1.00  0.00     0.020 A 
ATOM     93  C   UNL     1      -1.920  22.338  10.671  1.00  0.00     0.020 A 
ATOM     94  C   UNL     1      -0.686  22.812  10.220  1.00  0.00     0.054 A 
BRANCH  94  95
ATOM     95  S   UNL     1       0.013  24.341  10.899  1.00  0.00     0.124 S 
ATOM     96  O   UNL     1       1.140  23.840  11.681  1.00  0.00    -0.237 OA
ATOM     97  O   UNL     1       0.367  25.091   9.696  1.00  0.00    -0.237 OA
ATOM     98  O   UNL     1      -1.084  24.909  11.680  1.00  0.00    -0.744 OA
ENDBRANCH  94  95
ENDBRANCH  68  89
ENDBRANCH  42  43
ENDBRANCH  34  37
ENDBRANCH  32  33
ENDBRANCH  31  32
ENDBRANCH  30  31
ENDBRANCH  29  30
ENDBRANCH   3  29
TORSDOF 21
