REMARK SMILES CC1=C([C@@H](NC(=O)c2cc3c(s2)CCCCC3)C(=O)NCCCCNC(=O)c2ccc(-c3c4nc(c(-c5ccc(S(=O)(=O)[O-])cc5)c5ccc([nH]5)c(-c5ccc(S(=O)(=O)[O-])cc5)c5nc(c(-c6ccc(S(=O)(=O)[O-])cc6)c6ccc3[nH]6)C=C5)C=C4)cc2)[C@H](C)N=N1
REMARK SMILES IDX 21 1 20 2 18 3 19 4 4 6 3 7 1 8 2 9 91 10 88 11 90 12 89 13
REMARK SMILES IDX 5 14 6 15 7 17 8 18 9 19 12 20 10 21 11 22 17 23 13 25 14 26
REMARK SMILES IDX 15 27 16 28 22 30 23 31 24 32 25 33 26 34 27 36 28 37 29 38
REMARK SMILES IDX 87 39 30 40 86 41 31 42 32 43 33 44 80 45 34 46 85 47 79 48
REMARK SMILES IDX 81 49 35 50 84 51 78 52 77 53 36 55 66 56 47 57 65 58 48 59
REMARK SMILES IDX 51 60 64 61 82 62 49 63 50 64 63 66 83 67 52 68 37 69 38 70
REMARK SMILES IDX 46 71 39 72 45 73 40 74 41 75 42 76 43 77 44 78 67 79 68 80
REMARK SMILES IDX 76 81 69 82 75 83 70 84 71 85 72 86 73 87 74 88 53 89 54 90
REMARK SMILES IDX 62 91 55 92 61 93 56 94 57 95 58 96 59 97 60 98
REMARK H PARENT 20 5 5 16 25 35 81 54 51 65
REMARK Flexibility Score: 80.00
ROOT
ATOM      1  C   UNL     1       1.896   5.644   0.661  1.00  0.00     0.116 C 
ENDROOT
BRANCH   1   2
ATOM      2  N   UNL     1       2.701   4.614   1.298  1.00  0.00    -0.354 N 
ATOM      3  C   UNL     1       2.946   3.310   0.982  1.00  0.00     0.247 C 
ATOM      4  O   UNL     1       3.444   2.617   1.879  1.00  0.00    -0.272 OA
ATOM      5  H   UNL     1       3.157   4.917   2.116  1.00  0.00     0.163 HD
BRANCH   3   6
ATOM      6  C   UNL     1       2.492   2.644  -0.348  1.00  0.00     0.202 C 
BRANCH   6   7
ATOM      7  C   UNL     1       1.153   1.982  -0.161  1.00  0.00     0.011 C 
ATOM      8  C   UNL     1       1.569  -0.500  -0.636  1.00  0.00     0.069 C 
ATOM      9  C   UNL     1       0.761   0.715  -0.355  1.00  0.00     0.064 C 
ATOM     10  N   UNL     1      -0.605   0.572  -0.275  1.00  0.00    -0.160 NA
ATOM     11  C   UNL     1      -0.082   2.664   0.335  1.00  0.00     0.156 C 
ATOM     12  N   UNL     1      -1.143   1.681  -0.015  1.00  0.00    -0.181 NA
ATOM     13  C   UNL     1      -0.148   2.791   1.861  1.00  0.00     0.040 C 
ENDBRANCH   6   7
BRANCH   6  14
ATOM     14  N   UNL     1       2.436   3.446  -1.571  1.00  0.00    -0.336 N 
ATOM     15  C   UNL     1       3.443   4.175  -2.184  1.00  0.00     0.262 C 
ATOM     16  H   UNL     1       1.561   3.473  -2.020  1.00  0.00     0.165 HD
ATOM     17  O   UNL     1       3.210   4.584  -3.321  1.00  0.00    -0.268 OA
BRANCH  15  18
ATOM     18  C   UNL     1       4.585   4.601  -1.404  1.00  0.00     0.092 A 
ATOM     19  C   UNL     1       4.940   5.904  -1.113  1.00  0.00     0.029 A 
ATOM     20  S   UNL     1       5.712   3.519  -0.723  1.00  0.00    -0.135 S 
ATOM     21  C   UNL     1       5.816   5.978   0.024  1.00  0.00    -0.033 A 
ATOM     22  C   UNL     1       6.234   4.712   0.395  1.00  0.00     0.009 A 
BRANCH  21  23
ATOM     23  C   UNL     1       6.095   7.253   0.758  1.00  0.00     0.037 CG0
ATOM     24  G   UNL     1       7.430   7.414   1.481  1.00  0.00     0.000 G0
ENDBRANCH  21  23
BRANCH  22  25
ATOM     25  C   UNL     1       6.958   4.314   1.640  1.00  0.00     0.047 C 
BRANCH  25  26
ATOM     26  C   UNL     1       8.277   5.035   1.902  1.00  0.00     0.006 C 
BRANCH  26  27
ATOM     27  C   UNL     1       8.510   6.377   1.211  1.00  0.00     0.001 C 
BRANCH  27  28
ATOM     28  C   UNL     1       7.430   7.414   1.481  1.00  0.00     0.005 CG0
ATOM     29  G   UNL     1       6.095   7.253   0.758  1.00  0.00     0.000 G0
ENDBRANCH  27  28
ENDBRANCH  26  27
ENDBRANCH  25  26
ENDBRANCH  22  25
ENDBRANCH  15  18
ENDBRANCH   6  14
ENDBRANCH   3   6
ENDBRANCH   1   2
BRANCH   1  30
ATOM     30  C   UNL     1       0.816   6.183   1.608  1.00  0.00     0.023 C 
BRANCH  30  31
ATOM     31  C   UNL     1       1.329   6.948   2.837  1.00  0.00     0.023 C 
BRANCH  31  32
ATOM     32  C   UNL     1       1.685   8.398   2.542  1.00  0.00     0.116 C 
BRANCH  32  33
ATOM     33  N   UNL     1       0.515   9.195   2.155  1.00  0.00    -0.352 N 
ATOM     34  C   UNL     1       0.486  10.430   1.521  1.00  0.00     0.251 C 
ATOM     35  H   UNL     1      -0.361   8.805   2.373  1.00  0.00     0.163 HD
ATOM     36  O   UNL     1      -0.509  11.128   1.525  1.00  0.00    -0.269 OA
BRANCH  34  37
ATOM     37  C   UNL     1       1.718  10.851   0.831  1.00  0.00     0.039 A 
ATOM     38  C   UNL     1       2.369  12.049   1.133  1.00  0.00     0.014 A 
ATOM     39  C   UNL     1       2.305   9.899   0.016  1.00  0.00     0.014 A 
ATOM     40  C   UNL     1       3.696  12.217   0.721  1.00  0.00     0.010 A 
ATOM     41  C   UNL     1       3.651   9.998  -0.223  1.00  0.00     0.010 A 
ATOM     42  C   UNL     1       4.363  11.162   0.083  1.00  0.00    -0.014 A 
BRANCH  42  43
ATOM     43  C   UNL     1       5.803  11.212  -0.210  1.00  0.00     0.031 A 
ATOM     44  C   UNL     1       6.740  11.678   0.866  1.00  0.00     0.074 A 
ATOM     45  C   UNL     1       6.344  10.631  -1.308  1.00  0.00     0.049 A 
ATOM     46  N   UNL     1       7.551  12.686   0.826  1.00  0.00    -0.248 NA
ATOM     47  C   UNL     1       6.789  10.942   2.139  1.00  0.00     0.031 C 
ATOM     48  C   UNL     1       5.680   9.847  -2.363  1.00  0.00     0.029 A 
ATOM     49  N   UNL     1       7.658  10.502  -1.635  1.00  0.00    -0.354 N 
ATOM     50  C   UNL     1       8.335  12.626   1.979  1.00  0.00     0.074 A 
ATOM     51  C   UNL     1       7.769  11.575   2.791  1.00  0.00     0.031 C 
ATOM     52  C   UNL     1       6.593   9.107  -3.025  1.00  0.00     0.029 A 
ATOM     53  C   UNL     1       7.906   9.557  -2.619  1.00  0.00     0.049 A 
ATOM     54  H   UNL     1       8.370  11.033  -1.211  1.00  0.00     0.167 HD
ATOM     55  C   UNL     1       9.491  13.338   2.119  1.00  0.00     0.031 A 
ATOM     56  C   UNL     1       9.102   9.182  -3.122  1.00  0.00     0.031 A 
ATOM     57  C   UNL     1       9.622  14.359   1.114  1.00  0.00     0.049 A 
ATOM     58  C   UNL     1      10.037  10.301  -2.871  1.00  0.00     0.074 A 
ATOM     59  C   UNL     1       8.879  15.462   0.746  1.00  0.00     0.029 A 
ATOM     60  N   UNL     1      10.456  14.102   0.050  1.00  0.00    -0.354 N 
ATOM     61  N   UNL     1       9.886  11.490  -3.391  1.00  0.00    -0.248 NA
ATOM     62  C   UNL     1      10.912  10.236  -1.714  1.00  0.00     0.031 C 
ATOM     63  C   UNL     1       8.928  15.470  -0.680  1.00  0.00     0.029 A 
ATOM     64  C   UNL     1       9.748  14.412  -1.084  1.00  0.00     0.049 A 
ATOM     65  H   UNL     1      11.379  13.764   0.094  1.00  0.00     0.167 HD
ATOM     66  C   UNL     1      10.296  12.370  -2.401  1.00  0.00     0.074 A 
ATOM     67  C   UNL     1      11.029  11.540  -1.448  1.00  0.00     0.031 C 
ATOM     68  C   UNL     1       9.779  13.633  -2.309  1.00  0.00     0.031 A 
BRANCH  55  69
ATOM     69  C   UNL     1      10.666  12.929   2.975  1.00  0.00    -0.014 A 
ATOM     70  C   UNL     1      11.725  13.841   3.180  1.00  0.00     0.010 A 
ATOM     71  C   UNL     1      10.893  11.591   3.352  1.00  0.00     0.010 A 
ATOM     72  C   UNL     1      12.968  13.421   3.678  1.00  0.00     0.020 A 
ATOM     73  C   UNL     1      12.116  11.169   3.885  1.00  0.00     0.020 A 
ATOM     74  C   UNL     1      13.159  12.080   4.009  1.00  0.00     0.054 A 
BRANCH  74  75
ATOM     75  S   UNL     1      14.806  11.520   4.522  1.00  0.00     0.124 S 
ATOM     76  O   UNL     1      15.569  11.664   3.286  1.00  0.00    -0.237 OA
ATOM     77  O   UNL     1      15.140  12.462   5.587  1.00  0.00    -0.237 OA
ATOM     78  O   UNL     1      14.576  10.146   4.962  1.00  0.00    -0.744 OA
ENDBRANCH  74  75
ENDBRANCH  55  69
BRANCH  56  79
ATOM     79  C   UNL     1       9.498   7.830  -3.571  1.00  0.00    -0.014 A 
ATOM     80  C   UNL     1      10.637   7.630  -4.367  1.00  0.00     0.010 A 
ATOM     81  C   UNL     1       8.885   6.695  -2.997  1.00  0.00     0.010 A 
ATOM     82  C   UNL     1      11.182   6.346  -4.529  1.00  0.00     0.020 A 
ATOM     83  C   UNL     1       9.419   5.412  -3.156  1.00  0.00     0.020 A 
ATOM     84  C   UNL     1      10.583   5.248  -3.903  1.00  0.00     0.054 A 
BRANCH  84  85
ATOM     85  S   UNL     1      11.407   3.630  -3.964  1.00  0.00     0.124 S 
ATOM     86  O   UNL     1      11.210   3.232  -5.354  1.00  0.00    -0.237 OA
ATOM     87  O   UNL     1      12.780   3.961  -3.590  1.00  0.00    -0.237 OA
ATOM     88  O   UNL     1      10.678   2.832  -2.979  1.00  0.00    -0.744 OA
ENDBRANCH  84  85
ENDBRANCH  56  79
BRANCH  68  89
ATOM     89  C   UNL     1       8.923  14.160  -3.446  1.00  0.00    -0.014 A 
ATOM     90  C   UNL     1       7.697  13.574  -3.820  1.00  0.00     0.010 A 
ATOM     91  C   UNL     1       9.265  15.400  -4.014  1.00  0.00     0.010 A 
ATOM     92  C   UNL     1       6.842  14.206  -4.736  1.00  0.00     0.020 A 
ATOM     93  C   UNL     1       8.411  16.044  -4.917  1.00  0.00     0.020 A 
ATOM     94  C   UNL     1       7.203  15.444  -5.274  1.00  0.00     0.054 A 
BRANCH  94  95
ATOM     95  S   UNL     1       6.049  16.301  -6.386  1.00  0.00     0.124 S 
ATOM     96  O   UNL     1       6.106  15.484  -7.594  1.00  0.00    -0.237 OA
ATOM     97  O   UNL     1       4.788  16.250  -5.650  1.00  0.00    -0.237 OA
ATOM     98  O   UNL     1       6.623  17.640  -6.517  1.00  0.00    -0.744 OA
ENDBRANCH  94  95
ENDBRANCH  68  89
ENDBRANCH  42  43
ENDBRANCH  34  37
ENDBRANCH  32  33
ENDBRANCH  31  32
ENDBRANCH  30  31
ENDBRANCH   1  30
TORSDOF 17
