REMARK SMILES O=C(C[C@@H](NC(=O)c1cc(-c2ccc(F)cc2)on1)c1cccc(Br)c1)NCCCCNC(=O)c1ccc(-c2c3nc(c(-c4ccc(S(=O)(=O)[O-])cc4)c4ccc([nH]4)c(-c4ccc(S(=O)(=O)[O-])cc4)c4nc(c(-c5ccc(S(=O)(=O)[O-])cc5)c5ccc2[nH]5)C=C4)C=C3)cc1
REMARK SMILES IDX 29 1 28 2 27 3 1 4 2 5 3 7 4 8 5 9 6 10 7 12 8 13 9 14 19 15
REMARK SMILES IDX 10 16 18 17 11 18 12 19 17 20 13 21 16 22 14 23 15 24 20 25
REMARK SMILES IDX 21 26 26 27 22 28 24 29 23 30 25 31 30 32 31 33 32 34 33 35
REMARK SMILES IDX 34 37 35 38 36 39 94 40 37 41 93 42 38 43 39 44 40 45 87 46
REMARK SMILES IDX 41 47 92 48 86 49 88 50 42 51 91 52 85 53 84 54 43 56 73 57
REMARK SMILES IDX 54 58 72 59 55 60 58 61 71 62 89 63 56 64 57 65 70 67 90 68
REMARK SMILES IDX 59 69 44 70 45 71 53 72 46 73 52 74 47 75 48 76 49 77 50 78
REMARK SMILES IDX 51 79 74 80 75 81 83 82 76 83 82 84 77 85 78 86 79 87 80 88
REMARK SMILES IDX 81 89 60 90 61 91 69 92 62 93 68 94 63 95 64 96 65 97 66 98
REMARK SMILES IDX 67 99
REMARK H PARENT 27 6 5 11 32 36 88 55 58 66
REMARK Flexibility Score: inf
ROOT
ATOM      1  C   UNL     1       2.522   3.434  -0.959  1.00  0.00     0.023 C 
ENDROOT
BRANCH   1   2
ATOM      2  C   UNL     1       2.180   2.014  -1.406  1.00  0.00     0.116 C 
BRANCH   2   3
ATOM      3  N   UNL     1       2.876   1.035  -0.596  1.00  0.00    -0.356 N 
ATOM      4  O   UNL     1       1.130  -0.451  -0.424  1.00  0.00    -0.275 OA
ATOM      5  C   UNL     1       2.263  -0.098  -0.121  1.00  0.00     0.222 C 
ATOM      6  H   UNL     1       3.823   1.188  -0.378  1.00  0.00     0.163 HD
BRANCH   5   7
ATOM      7  C   UNL     1       3.123  -0.887   0.830  1.00  0.00     0.129 C 
BRANCH   7   8
ATOM      8  C   UNL     1       4.004  -1.913   0.095  1.00  0.00     0.122 C 
BRANCH   8   9
ATOM      9  N   UNL     1       5.114  -1.241  -0.605  1.00  0.00    -0.343 N 
ATOM     10  C   UNL     1       6.477  -1.387  -0.709  1.00  0.00     0.273 C 
ATOM     11  H   UNL     1       4.792  -0.482  -1.143  1.00  0.00     0.164 HD
ATOM     12  O   UNL     1       7.067  -0.529  -1.369  1.00  0.00    -0.267 OA
BRANCH  10  13
ATOM     13  C   UNL     1       7.167  -2.505  -0.088  1.00  0.00     0.171 A 
ATOM     14  C   UNL     1       7.037  -3.883  -0.386  1.00  0.00     0.088 A 
ATOM     15  N   UNL     1       8.050  -2.314   0.906  1.00  0.00    -0.074 NA
ATOM     16  C   UNL     1       7.740  -4.519   0.610  1.00  0.00     0.167 A 
ATOM     17  O   UNL     1       8.387  -3.581   1.356  1.00  0.00    -0.355 OA
BRANCH  16  18
ATOM     18  C   UNL     1       7.812  -5.900   1.067  1.00  0.00     0.020 A 
ATOM     19  C   UNL     1       7.556  -6.954   0.176  1.00  0.00     0.015 A 
ATOM     20  C   UNL     1       7.989  -6.196   2.429  1.00  0.00     0.015 A 
ATOM     21  C   UNL     1       7.434  -8.265   0.644  1.00  0.00     0.040 A 
ATOM     22  C   UNL     1       7.850  -7.504   2.899  1.00  0.00     0.040 A 
ATOM     23  C   UNL     1       7.564  -8.525   2.002  1.00  0.00     0.123 A 
ATOM     24  F   UNL     1       7.394  -9.774   2.455  1.00  0.00    -0.207 F 
ENDBRANCH  16  18
ENDBRANCH  10  13
ENDBRANCH   8   9
BRANCH   8  25
ATOM     25  C   UNL     1       4.353  -2.996   1.093  1.00  0.00    -0.024 A 
ATOM     26  C   UNL     1       5.032  -2.705   2.289  1.00  0.00     0.006 A 
ATOM     27  C   UNL     1       3.908  -4.311   0.873  1.00  0.00     0.021 A 
ATOM     28  C   UNL     1       5.273  -3.704   3.232  1.00  0.00     0.002 A 
ATOM     29  C   UNL     1       4.153  -5.303   1.821  1.00  0.00     0.018 A 
ATOM     30  C   UNL     1       4.827  -5.004   3.002  1.00  0.00     0.016 A 
ATOM     31  Br  UNL     1       3.576  -7.073   1.493  1.00  0.00    -0.051 Br
ENDBRANCH   8  25
ENDBRANCH   7   8
ENDBRANCH   5   7
ENDBRANCH   2   3
ENDBRANCH   1   2
BRANCH   1  32
ATOM     32  C   UNL     1       4.006   3.801  -1.064  1.00  0.00     0.023 C 
BRANCH  32  33
ATOM     33  C   UNL     1       4.618   3.627  -2.449  1.00  0.00     0.116 C 
BRANCH  33  34
ATOM     34  N   UNL     1       4.006   4.503  -3.434  1.00  0.00    -0.352 N 
ATOM     35  C   UNL     1       4.604   5.399  -4.289  1.00  0.00     0.251 C 
ATOM     36  H   UNL     1       3.025   4.447  -3.499  1.00  0.00     0.163 HD
ATOM     37  O   UNL     1       3.913   6.188  -4.923  1.00  0.00    -0.269 OA
BRANCH  35  38
ATOM     38  C   UNL     1       6.078   5.427  -4.419  1.00  0.00     0.039 A 
ATOM     39  C   UNL     1       6.732   6.662  -4.420  1.00  0.00     0.014 A 
ATOM     40  C   UNL     1       6.815   4.245  -4.534  1.00  0.00     0.014 A 
ATOM     41  C   UNL     1       8.127   6.707  -4.472  1.00  0.00     0.010 A 
ATOM     42  C   UNL     1       8.207   4.289  -4.507  1.00  0.00     0.010 A 
ATOM     43  C   UNL     1       8.880   5.520  -4.477  1.00  0.00    -0.014 A 
BRANCH  43  44
ATOM     44  C   UNL     1      10.366   5.550  -4.442  1.00  0.00     0.031 A 
ATOM     45  C   UNL     1      11.166   4.986  -5.586  1.00  0.00     0.074 A 
ATOM     46  C   UNL     1      10.998   6.032  -3.353  1.00  0.00     0.049 A 
ATOM     47  N   UNL     1      12.464   4.878  -5.710  1.00  0.00    -0.248 NA
ATOM     48  C   UNL     1      10.409   4.457  -6.732  1.00  0.00     0.031 C 
ATOM     49  C   UNL     1      10.339   6.571  -2.160  1.00  0.00     0.029 A 
ATOM     50  N   UNL     1      12.336   6.141  -3.067  1.00  0.00    -0.354 N 
ATOM     51  C   UNL     1      12.679   4.261  -6.937  1.00  0.00     0.074 A 
ATOM     52  C   UNL     1      11.376   3.970  -7.495  1.00  0.00     0.031 C 
ATOM     53  C   UNL     1      11.274   6.974  -1.284  1.00  0.00     0.029 A 
ATOM     54  C   UNL     1      12.596   6.681  -1.829  1.00  0.00     0.049 A 
ATOM     55  H   UNL     1      13.044   5.859  -3.690  1.00  0.00     0.167 HD
ATOM     56  C   UNL     1      13.852   3.979  -7.553  1.00  0.00     0.031 A 
ATOM     57  C   UNL     1      13.763   6.905  -1.194  1.00  0.00     0.031 A 
ATOM     58  C   UNL     1      15.147   4.267  -6.994  1.00  0.00     0.049 A 
ATOM     59  C   UNL     1      15.053   6.558  -1.887  1.00  0.00     0.074 A 
ATOM     60  C   UNL     1      16.393   4.061  -7.561  1.00  0.00     0.029 A 
ATOM     61  N   UNL     1      15.365   4.818  -5.740  1.00  0.00    -0.354 N 
ATOM     62  N   UNL     1      15.235   6.036  -3.077  1.00  0.00    -0.248 NA
ATOM     63  C   UNL     1      16.297   6.844  -1.158  1.00  0.00     0.031 C 
ATOM     64  C   UNL     1      17.365   4.430  -6.626  1.00  0.00     0.029 A 
ATOM     65  C   UNL     1      16.725   4.934  -5.504  1.00  0.00     0.049 A 
ATOM     66  H   UNL     1      14.658   5.086  -5.110  1.00  0.00     0.167 HD
ATOM     67  C   UNL     1      16.613   5.957  -3.249  1.00  0.00     0.074 A 
ATOM     68  C   UNL     1      17.216   6.502  -2.050  1.00  0.00     0.031 C 
ATOM     69  C   UNL     1      17.315   5.478  -4.306  1.00  0.00     0.031 A 
BRANCH  56  70
ATOM     70  C   UNL     1      13.788   3.318  -8.907  1.00  0.00    -0.014 A 
ATOM     71  C   UNL     1      13.304   4.010 -10.032  1.00  0.00     0.010 A 
ATOM     72  C   UNL     1      14.260   2.002  -9.068  1.00  0.00     0.010 A 
ATOM     73  C   UNL     1      13.254   3.387 -11.282  1.00  0.00     0.020 A 
ATOM     74  C   UNL     1      14.242   1.385 -10.322  1.00  0.00     0.020 A 
ATOM     75  C   UNL     1      13.722   2.077 -11.419  1.00  0.00     0.054 A 
BRANCH  75  76
ATOM     76  S   UNL     1      13.667   1.303 -13.058  1.00  0.00     0.124 S 
ATOM     77  O   UNL     1      12.233   1.089 -13.242  1.00  0.00    -0.237 OA
ATOM     78  O   UNL     1      14.264   2.325 -13.914  1.00  0.00    -0.237 OA
ATOM     79  O   UNL     1      14.460   0.087 -12.896  1.00  0.00    -0.744 OA
ENDBRANCH  75  76
ENDBRANCH  56  70
BRANCH  57  80
ATOM     80  C   UNL     1      13.765   7.490   0.176  1.00  0.00    -0.014 A 
ATOM     81  C   UNL     1      14.245   8.793   0.400  1.00  0.00     0.010 A 
ATOM     82  C   UNL     1      13.275   6.747   1.267  1.00  0.00     0.010 A 
ATOM     83  C   UNL     1      14.255   9.333   1.690  1.00  0.00     0.020 A 
ATOM     84  C   UNL     1      13.254   7.295   2.552  1.00  0.00     0.020 A 
ATOM     85  C   UNL     1      13.756   8.581   2.758  1.00  0.00     0.054 A 
BRANCH  85  86
ATOM     86  S   UNL     1      13.734   9.321   4.415  1.00  0.00     0.124 S 
ATOM     87  O   UNL     1      15.150   9.321   4.767  1.00  0.00    -0.237 OA
ATOM     88  O   UNL     1      13.144  10.634   4.165  1.00  0.00    -0.237 OA
ATOM     89  O   UNL     1      12.896   8.407   5.187  1.00  0.00    -0.744 OA
ENDBRANCH  85  86
ENDBRANCH  57  80
BRANCH  69  90
ATOM     90  C   UNL     1      18.818   5.555  -4.236  1.00  0.00    -0.014 A 
ATOM     91  C   UNL     1      19.556   4.734  -3.366  1.00  0.00     0.010 A 
ATOM     92  C   UNL     1      19.506   6.428  -5.100  1.00  0.00     0.010 A 
ATOM     93  C   UNL     1      20.952   4.808  -3.337  1.00  0.00     0.020 A 
ATOM     94  C   UNL     1      20.902   6.482  -5.098  1.00  0.00     0.020 A 
ATOM     95  C   UNL     1      21.616   5.681  -4.205  1.00  0.00     0.054 A 
BRANCH  95  96
ATOM     96  S   UNL     1      23.429   5.725  -4.179  1.00  0.00     0.124 S 
ATOM     97  O   UNL     1      23.699   6.398  -2.912  1.00  0.00    -0.237 OA
ATOM     98  O   UNL     1      23.784   4.309  -4.227  1.00  0.00    -0.237 OA
ATOM     99  O   UNL     1      23.775   6.489  -5.376  1.00  0.00    -0.744 OA
ENDBRANCH  95  96
ENDBRANCH  69  90
ENDBRANCH  43  44
ENDBRANCH  35  38
ENDBRANCH  33  34
ENDBRANCH  32  33
ENDBRANCH   1  32
TORSDOF 19
