REMARK SMILES O=C(NCCCCNC(=O)[C@H]1N=c2ccccc2=C1C[NH2+]CCc1ccccc1)c1ccc(-c2c3nc(c(-c4ccc(S(=O)(=O)[O-])cc4)c4ccc([nH]4)c(-c4ccc(S(=O)(=O)[O-])cc4)c4nc(c(-c5ccc(S(=O)(=O)[O-])cc5)c5ccc2[nH]5)C=C4)C=C3)cc1
REMARK SMILES IDX 6 1 5 2 4 3 3 4 1 5 2 6 30 8 31 9 89 10 32 11 88 12 33 13
REMARK SMILES IDX 34 14 35 15 82 16 36 17 87 18 81 19 83 20 37 21 86 22 80 23
REMARK SMILES IDX 79 24 38 26 68 27 49 28 67 29 50 30 53 31 66 32 84 33 51 34
REMARK SMILES IDX 52 35 65 37 85 38 54 39 39 40 40 41 48 42 41 43 47 44 42 45
REMARK SMILES IDX 43 46 44 47 45 48 46 49 69 50 70 51 78 52 71 53 77 54 72 55
REMARK SMILES IDX 73 56 74 57 75 58 76 59 55 60 56 61 64 62 57 63 63 64 58 65
REMARK SMILES IDX 59 66 60 67 61 68 62 69 7 70 8 71 9 72 10 74 11 75 12 76
REMARK SMILES IDX 19 77 13 78 18 79 14 80 17 81 15 82 16 83 20 84 21 85 22 88
REMARK SMILES IDX 23 89 24 90 25 91 29 92 26 93 28 94 27 95
REMARK H PARENT 3 7 83 25 53 36 8 73 21 86 21 87
REMARK Flexibility Score: inf
ROOT
ATOM      1  C   UNL     1       4.310   3.560   0.999  1.00  0.00     0.023 C 
ENDROOT
BRANCH   1   2
ATOM      2  C   UNL     1       4.823   2.538  -0.019  1.00  0.00     0.023 C 
BRANCH   2   3
ATOM      3  C   UNL     1       4.460   1.094   0.306  1.00  0.00     0.116 C 
BRANCH   3   4
ATOM      4  N   UNL     1       3.025   0.906   0.439  1.00  0.00    -0.352 N 
ATOM      5  O   UNL     1       1.007   0.012   0.009  1.00  0.00    -0.269 OA
ATOM      6  C   UNL     1       2.234  -0.101  -0.044  1.00  0.00     0.251 C 
ATOM      7  H   UNL     1       2.554   1.604   0.949  1.00  0.00     0.163 HD
BRANCH   6   8
ATOM      8  C   UNL     1       2.842  -1.311  -0.628  1.00  0.00     0.039 A 
ATOM      9  C   UNL     1       2.272  -1.866  -1.776  1.00  0.00     0.014 A 
ATOM     10  C   UNL     1       3.941  -1.925  -0.019  1.00  0.00     0.014 A 
ATOM     11  C   UNL     1       2.814  -3.028  -2.325  1.00  0.00     0.010 A 
ATOM     12  C   UNL     1       4.523  -3.043  -0.606  1.00  0.00     0.010 A 
ATOM     13  C   UNL     1       3.947  -3.620  -1.746  1.00  0.00    -0.014 A 
BRANCH  13  14
ATOM     14  C   UNL     1       4.512  -4.882  -2.279  1.00  0.00     0.031 A 
ATOM     15  C   UNL     1       4.444  -6.133  -1.448  1.00  0.00     0.074 A 
ATOM     16  C   UNL     1       5.124  -4.891  -3.477  1.00  0.00     0.049 A 
ATOM     17  N   UNL     1       4.933  -7.317  -1.705  1.00  0.00    -0.248 NA
ATOM     18  C   UNL     1       3.757  -6.035  -0.149  1.00  0.00     0.031 C 
ATOM     19  C   UNL     1       5.260  -3.734  -4.362  1.00  0.00     0.029 A 
ATOM     20  N   UNL     1       5.745  -5.909  -4.157  1.00  0.00    -0.354 N 
ATOM     21  C   UNL     1       4.632  -8.096  -0.595  1.00  0.00     0.074 A 
ATOM     22  C   UNL     1       3.962  -7.241   0.358  1.00  0.00     0.031 C 
ATOM     23  C   UNL     1       5.894  -4.114  -5.482  1.00  0.00     0.029 A 
ATOM     24  C   UNL     1       6.248  -5.528  -5.377  1.00  0.00     0.049 A 
ATOM     25  H   UNL     1       5.822  -6.824  -3.803  1.00  0.00     0.167 HD
ATOM     26  C   UNL     1       4.873  -9.413  -0.399  1.00  0.00     0.031 A 
ATOM     27  C   UNL     1       6.922  -6.233  -6.308  1.00  0.00     0.031 A 
ATOM     28  C   UNL     1       5.512 -10.260  -1.369  1.00  0.00     0.049 A 
ATOM     29  C   UNL     1       7.201  -7.689  -6.065  1.00  0.00     0.074 A 
ATOM     30  C   UNL     1       5.732 -11.624  -1.299  1.00  0.00     0.029 A 
ATOM     31  N   UNL     1       6.033  -9.829  -2.580  1.00  0.00    -0.354 N 
ATOM     32  N   UNL     1       6.861  -8.426  -5.034  1.00  0.00    -0.248 NA
ATOM     33  C   UNL     1       7.950  -8.411  -7.102  1.00  0.00     0.031 C 
ATOM     34  C   UNL     1       6.444 -12.006  -2.438  1.00  0.00     0.029 A 
ATOM     35  C   UNL     1       6.610 -10.894  -3.250  1.00  0.00     0.049 A 
ATOM     36  H   UNL     1       5.997  -8.904  -2.914  1.00  0.00     0.167 HD
ATOM     37  C   UNL     1       7.347  -9.700  -5.299  1.00  0.00     0.074 A 
ATOM     38  C   UNL     1       7.993  -9.639  -6.596  1.00  0.00     0.031 C 
ATOM     39  C   UNL     1       7.265 -10.816  -4.534  1.00  0.00     0.031 A 
BRANCH  26  40
ATOM     40  C   UNL     1       4.441 -10.026   0.907  1.00  0.00    -0.014 A 
ATOM     41  C   UNL     1       5.411 -10.496   1.811  1.00  0.00     0.010 A 
ATOM     42  C   UNL     1       3.080 -10.206   1.211  1.00  0.00     0.010 A 
ATOM     43  C   UNL     1       5.030 -11.144   2.989  1.00  0.00     0.020 A 
ATOM     44  C   UNL     1       2.694 -10.827   2.402  1.00  0.00     0.020 A 
ATOM     45  C   UNL     1       3.672 -11.309   3.275  1.00  0.00     0.054 A 
BRANCH  45  46
ATOM     46  S   UNL     1       3.192 -12.141   4.814  1.00  0.00     0.124 S 
ATOM     47  O   UNL     1       3.390 -13.547   4.479  1.00  0.00    -0.237 OA
ATOM     48  O   UNL     1       4.129 -11.584   5.787  1.00  0.00    -0.237 OA
ATOM     49  O   UNL     1       1.802 -11.731   5.001  1.00  0.00    -0.744 OA
ENDBRANCH  45  46
ENDBRANCH  26  40
BRANCH  27  50
ATOM     50  C   UNL     1       7.318  -5.549  -7.568  1.00  0.00    -0.014 A 
ATOM     51  C   UNL     1       8.319  -4.558  -7.559  1.00  0.00     0.010 A 
ATOM     52  C   UNL     1       6.589  -5.774  -8.748  1.00  0.00     0.010 A 
ATOM     53  C   UNL     1       8.527  -3.752  -8.681  1.00  0.00     0.020 A 
ATOM     54  C   UNL     1       6.811  -4.985  -9.881  1.00  0.00     0.020 A 
ATOM     55  C   UNL     1       7.752  -3.954  -9.826  1.00  0.00     0.054 A 
BRANCH  55  56
ATOM     56  S   UNL     1       7.949  -2.815 -11.225  1.00  0.00     0.124 S 
ATOM     57  O   UNL     1       7.281  -1.614 -10.728  1.00  0.00    -0.237 OA
ATOM     58  O   UNL     1       9.400  -2.719 -11.356  1.00  0.00    -0.237 OA
ATOM     59  O   UNL     1       7.270  -3.498 -12.322  1.00  0.00    -0.744 OA
ENDBRANCH  55  56
ENDBRANCH  27  50
BRANCH  39  60
ATOM     60  C   UNL     1       7.906 -12.080  -5.042  1.00  0.00    -0.014 A 
ATOM     61  C   UNL     1       7.099 -13.174  -5.409  1.00  0.00     0.010 A 
ATOM     62  C   UNL     1       9.301 -12.241  -4.990  1.00  0.00     0.010 A 
ATOM     63  C   UNL     1       7.672 -14.421  -5.664  1.00  0.00     0.020 A 
ATOM     64  C   UNL     1       9.880 -13.482  -5.272  1.00  0.00     0.020 A 
ATOM     65  C   UNL     1       9.059 -14.571  -5.576  1.00  0.00     0.054 A 
BRANCH  65  66
ATOM     66  S   UNL     1       9.779 -16.215  -5.843  1.00  0.00     0.124 S 
ATOM     67  O   UNL     1       9.457 -16.898  -4.594  1.00  0.00    -0.237 OA
ATOM     68  O   UNL     1       9.063 -16.691  -7.024  1.00  0.00    -0.237 OA
ATOM     69  O   UNL     1      11.198 -15.937  -6.056  1.00  0.00    -0.744 OA
ENDBRANCH  65  66
ENDBRANCH  39  60
ENDBRANCH  13  14
ENDBRANCH   6   8
ENDBRANCH   3   4
ENDBRANCH   2   3
ENDBRANCH   1   2
BRANCH   1  70
ATOM     70  C   UNL     1       4.844   3.371   2.417  1.00  0.00     0.116 C 
BRANCH  70  71
ATOM     71  N   UNL     1       6.269   3.623   2.508  1.00  0.00    -0.354 N 
ATOM     72  C   UNL     1       6.937   4.744   2.936  1.00  0.00     0.249 C 
ATOM     73  H   UNL     1       6.845   2.878   2.218  1.00  0.00     0.163 HD
ATOM     74  O   UNL     1       8.169   4.748   2.843  1.00  0.00    -0.272 OA
BRANCH  72  75
ATOM     75  C   UNL     1       6.133   5.933   3.514  1.00  0.00     0.227 C 
ATOM     76  N   UNL     1       6.729   6.322   4.840  1.00  0.00    -0.267 NA
ATOM     77  C   UNL     1       6.192   7.177   2.669  1.00  0.00     0.027 C 
ATOM     78  C   UNL     1       7.019   7.575   4.670  1.00  0.00     0.066 A 
ATOM     79  C   UNL     1       6.699   8.190   3.372  1.00  0.00     0.007 A 
ATOM     80  C   UNL     1       7.618   8.468   5.686  1.00  0.00     0.028 A 
ATOM     81  C   UNL     1       6.907   9.583   3.125  1.00  0.00     0.010 A 
ATOM     82  C   UNL     1       7.782   9.769   5.396  1.00  0.00     0.002 A 
ATOM     83  C   UNL     1       7.415  10.341   4.111  1.00  0.00     0.001 A 
BRANCH  77  84
ATOM     84  C   UNL     1       5.636   7.214   1.288  1.00  0.00     0.296 C 
BRANCH  84  85
ATOM     85  N   UNL     1       6.434   6.386   0.400  1.00  0.00    -0.342 N 
ATOM     86  H   UNL     1       6.410   5.427   0.748  1.00  0.00     0.346 HD
ATOM     87  H   UNL     1       7.375   6.779   0.396  1.00  0.00     0.346 HD
BRANCH  85  88
ATOM     88  C   UNL     1       5.970   6.382  -0.990  1.00  0.00     0.265 C 
BRANCH  88  89
ATOM     89  C   UNL     1       6.191   7.686  -1.777  1.00  0.00     0.097 C 
BRANCH  89  90
ATOM     90  C   UNL     1       7.597   8.243  -1.760  1.00  0.00    -0.042 A 
ATOM     91  C   UNL     1       7.787   9.629  -1.655  1.00  0.00     0.004 A 
ATOM     92  C   UNL     1       8.723   7.418  -1.892  1.00  0.00     0.004 A 
ATOM     93  C   UNL     1       9.073  10.172  -1.649  1.00  0.00     0.000 A 
ATOM     94  C   UNL     1      10.008   7.962  -1.877  1.00  0.00     0.000 A 
ATOM     95  C   UNL     1      10.183   9.338  -1.754  1.00  0.00     0.000 A 
ENDBRANCH  89  90
ENDBRANCH  88  89
ENDBRANCH  85  88
ENDBRANCH  84  85
ENDBRANCH  77  84
ENDBRANCH  72  75
ENDBRANCH  70  71
ENDBRANCH   1  70
TORSDOF 19
