REMARK SMILES O=C(COc1ccccc1C[NH+]1CCC2(CC[NH2+]CC2)CC1)NCCCCNC(=O)c1ccc(-c2c3nc(c(-c4ccc(S(=O)(=O)[O-])cc4)c4ccc([nH]4)c(-c4ccc(S(=O)(=O)[O-])cc4)c4nc(c(-c5ccc(S(=O)(=O)[O-])cc5)c5ccc2[nH]5)C=C4)C=C3)cc1
REMARK SMILES IDX 25 1 24 2 23 3 1 4 2 5 3 7 4 8 5 9 6 10 10 11 7 12 9 13 8 14
REMARK SMILES IDX 11 15 12 16 13 17 22 18 14 20 21 21 15 22 16 23 20 24 17 25
REMARK SMILES IDX 19 26 18 27 26 30 27 31 28 32 29 33 30 35 31 36 32 37 90 38
REMARK SMILES IDX 33 39 89 40 34 41 35 42 36 43 83 44 37 45 88 46 82 47 84 48
REMARK SMILES IDX 38 49 87 50 81 51 80 52 39 54 69 55 50 56 68 57 51 58 54 59
REMARK SMILES IDX 67 60 85 61 52 62 53 63 66 65 86 66 55 67 40 68 41 69 49 70
REMARK SMILES IDX 42 71 48 72 43 73 44 74 45 75 46 76 47 77 70 78 71 79 79 80
REMARK SMILES IDX 72 81 78 82 73 83 74 84 75 85 76 86 77 87 56 88 57 89 65 90
REMARK SMILES IDX 58 91 64 92 59 93 60 94 61 95 62 96 63 97
REMARK H PARENT 23 6 12 19 18 28 18 29 28 34 84 53 54 64
REMARK Flexibility Score: inf
ROOT
ATOM      1  C   UNL     1       2.689  -3.074  -2.261  1.00  0.00     0.023 C 
ENDROOT
BRANCH   1   2
ATOM      2  C   UNL     1       2.117  -2.070  -1.267  1.00  0.00     0.116 C 
BRANCH   2   3
ATOM      3  N   UNL     1       2.920  -0.878  -1.044  1.00  0.00    -0.353 N 
ATOM      4  O   UNL     1       1.303   0.659  -1.625  1.00  0.00    -0.271 OA
ATOM      5  C   UNL     1       2.358   0.389  -1.056  1.00  0.00     0.257 C 
ATOM      6  H   UNL     1       3.887  -0.974  -0.881  1.00  0.00     0.163 HD
BRANCH   5   7
ATOM      7  C   UNL     1       3.125   1.431  -0.230  1.00  0.00     0.329 C 
BRANCH   7   8
ATOM      8  O   UNL     1       3.579   0.878   1.015  1.00  0.00    -0.483 OA
BRANCH   8   9
ATOM      9  C   UNL     1       2.895   1.390   2.091  1.00  0.00     0.128 A 
ATOM     10  C   UNL     1       3.521   2.403   2.828  1.00  0.00     0.047 A 
ATOM     11  C   UNL     1       1.690   0.830   2.544  1.00  0.00     0.048 A 
ATOM     12  C   UNL     1       2.912   2.921   3.974  1.00  0.00     0.004 A 
ATOM     13  C   UNL     1       1.041   1.446   3.631  1.00  0.00     0.013 A 
ATOM     14  C   UNL     1       1.655   2.465   4.357  1.00  0.00     0.001 A 
BRANCH  11  15
ATOM     15  C   UNL     1       1.090  -0.438   1.984  1.00  0.00     0.302 C 
BRANCH  15  16
ATOM     16  N   UNL     1       1.467  -1.722   2.589  1.00  0.00    -0.331 N 
ATOM     17  C   UNL     1       2.846  -2.158   2.441  1.00  0.00     0.263 C 
ATOM     18  C   UNL     1       0.948  -1.999   3.917  1.00  0.00     0.263 C 
ATOM     19  H   UNL     1       0.941  -2.326   1.958  1.00  0.00     0.348 HD
ATOM     20  C   UNL     1       3.818  -1.649   3.498  1.00  0.00     0.069 C 
ATOM     21  C   UNL     1       1.805  -1.463   5.062  1.00  0.00     0.069 C 
ATOM     22  C   UNL     1       3.318  -1.771   4.957  1.00  0.00    -0.008 C 
ATOM     23  C   UNL     1       3.592  -3.185   5.525  1.00  0.00     0.069 C 
ATOM     24  C   UNL     1       4.082  -0.734   5.823  1.00  0.00     0.069 C 
ATOM     25  C   UNL     1       5.073  -3.453   5.811  1.00  0.00     0.261 C 
ATOM     26  C   UNL     1       5.551  -1.097   6.011  1.00  0.00     0.261 C 
ATOM     27  N   UNL     1       5.678  -2.409   6.638  1.00  0.00    -0.346 N 
ATOM     28  H   UNL     1       6.667  -2.621   6.770  1.00  0.00     0.346 HD
ATOM     29  H   UNL     1       5.192  -2.386   7.535  1.00  0.00     0.346 HD
ENDBRANCH  15  16
ENDBRANCH  11  15
ENDBRANCH   8   9
ENDBRANCH   7   8
ENDBRANCH   5   7
ENDBRANCH   2   3
ENDBRANCH   1   2
BRANCH   1  30
ATOM     30  C   UNL     1       4.131  -3.525  -2.021  1.00  0.00     0.023 C 
BRANCH  30  31
ATOM     31  C   UNL     1       4.416  -4.221  -0.692  1.00  0.00     0.116 C 
BRANCH  31  32
ATOM     32  N   UNL     1       3.828  -5.547  -0.586  1.00  0.00    -0.352 N 
ATOM     33  C   UNL     1       4.426  -6.784  -0.474  1.00  0.00     0.251 C 
ATOM     34  H   UNL     1       2.843  -5.564  -0.596  1.00  0.00     0.163 HD
ATOM     35  O   UNL     1       3.732  -7.795  -0.512  1.00  0.00    -0.269 OA
BRANCH  33  36
ATOM     36  C   UNL     1       5.899  -6.912  -0.344  1.00  0.00     0.039 A 
ATOM     37  C   UNL     1       6.561  -7.865  -1.125  1.00  0.00     0.014 A 
ATOM     38  C   UNL     1       6.630  -6.123   0.547  1.00  0.00     0.014 A 
ATOM     39  C   UNL     1       7.956  -7.963  -1.077  1.00  0.00     0.010 A 
ATOM     40  C   UNL     1       8.026  -6.172   0.541  1.00  0.00     0.010 A 
ATOM     41  C   UNL     1       8.708  -7.085  -0.279  1.00  0.00    -0.014 A 
BRANCH  41  42
ATOM     42  C   UNL     1      10.197  -7.088  -0.318  1.00  0.00     0.031 A 
ATOM     43  C   UNL     1      11.001  -7.428   0.910  1.00  0.00     0.074 A 
ATOM     44  C   UNL     1      10.836  -6.725  -1.450  1.00  0.00     0.049 A 
ATOM     45  N   UNL     1      12.301  -7.439   1.069  1.00  0.00    -0.248 NA
ATOM     46  C   UNL     1      10.247  -7.782   2.123  1.00  0.00     0.031 C 
ATOM     47  C   UNL     1      10.183  -6.339  -2.704  1.00  0.00     0.029 A 
ATOM     48  N   UNL     1      12.177  -6.615  -1.732  1.00  0.00    -0.354 N 
ATOM     49  C   UNL     1      12.521  -7.784   2.398  1.00  0.00     0.074 A 
ATOM     50  C   UNL     1      11.219  -7.930   3.013  1.00  0.00     0.031 C 
ATOM     51  C   UNL     1      11.121  -6.066  -3.624  1.00  0.00     0.029 A 
ATOM     52  C   UNL     1      12.442  -6.210  -3.020  1.00  0.00     0.049 A 
ATOM     53  H   UNL     1      12.882  -6.809  -1.073  1.00  0.00     0.167 HD
ATOM     54  C   UNL     1      13.696  -7.977   3.045  1.00  0.00     0.031 A 
ATOM     55  C   UNL     1      13.611  -5.971  -3.646  1.00  0.00     0.031 A 
ATOM     56  C   UNL     1      14.992  -7.835   2.433  1.00  0.00     0.049 A 
ATOM     57  C   UNL     1      14.902  -6.167  -2.899  1.00  0.00     0.074 A 
ATOM     58  C   UNL     1      16.237  -8.067   2.994  1.00  0.00     0.029 A 
ATOM     59  N   UNL     1      15.215  -7.417   1.130  1.00  0.00    -0.354 N 
ATOM     60  N   UNL     1      15.087  -6.563  -1.662  1.00  0.00    -0.248 NA
ATOM     61  C   UNL     1      16.145  -5.894  -3.636  1.00  0.00     0.031 C 
ATOM     62  C   UNL     1      17.212  -7.729   2.051  1.00  0.00     0.029 A 
ATOM     63  C   UNL     1      16.576  -7.353   0.879  1.00  0.00     0.049 A 
ATOM     64  H   UNL     1      14.509  -7.198   0.478  1.00  0.00     0.167 HD
ATOM     65  C   UNL     1      16.465  -6.616  -1.484  1.00  0.00     0.074 A 
ATOM     66  C   UNL     1      17.066  -6.225  -2.742  1.00  0.00     0.031 C 
ATOM     67  C   UNL     1      17.168  -6.961  -0.376  1.00  0.00     0.031 A 
BRANCH  54  68
ATOM     68  C   UNL     1      13.637  -8.351   4.505  1.00  0.00    -0.014 A 
ATOM     69  C   UNL     1      13.159  -9.608   4.918  1.00  0.00     0.010 A 
ATOM     70  C   UNL     1      14.111  -7.449   5.476  1.00  0.00     0.010 A 
ATOM     71  C   UNL     1      13.114  -9.938   6.276  1.00  0.00     0.020 A 
ATOM     72  C   UNL     1      14.097  -7.788   6.833  1.00  0.00     0.020 A 
ATOM     73  C   UNL     1      13.581  -9.024   7.225  1.00  0.00     0.054 A 
BRANCH  73  74
ATOM     74  S   UNL     1      13.529  -9.489   8.978  1.00  0.00     0.124 S 
ATOM     75  O   UNL     1      12.097  -9.433   9.261  1.00  0.00    -0.237 OA
ATOM     76  O   UNL     1      14.115 -10.827   8.972  1.00  0.00    -0.237 OA
ATOM     77  O   UNL     1      14.334  -8.462   9.635  1.00  0.00    -0.744 OA
ENDBRANCH  73  74
ENDBRANCH  54  68
BRANCH  55  78
ATOM     78  C   UNL     1      13.617  -5.531  -5.070  1.00  0.00    -0.014 A 
ATOM     79  C   UNL     1      14.085  -6.389  -6.081  1.00  0.00     0.010 A 
ATOM     80  C   UNL     1      13.146  -4.253  -5.424  1.00  0.00     0.010 A 
ATOM     81  C   UNL     1      14.099  -5.972  -7.415  1.00  0.00     0.020 A 
ATOM     82  C   UNL     1      13.129  -3.844  -6.760  1.00  0.00     0.020 A 
ATOM     83  C   UNL     1      13.617  -4.703  -7.747  1.00  0.00     0.054 A 
BRANCH  83  84
ATOM     84  S   UNL     1      13.595  -4.204  -9.492  1.00  0.00     0.124 S 
ATOM     85  O   UNL     1      15.013  -3.990  -9.764  1.00  0.00    -0.237 OA
ATOM     86  O   UNL     1      12.992  -5.364 -10.143  1.00  0.00    -0.237 OA
ATOM     87  O   UNL     1      12.768  -2.999  -9.492  1.00  0.00    -0.744 OA
ENDBRANCH  83  84
ENDBRANCH  55  78
BRANCH  67  88
ATOM     88  C   UNL     1      18.672  -6.971  -0.479  1.00  0.00    -0.014 A 
ATOM     89  C   UNL     1      19.409  -5.778  -0.577  1.00  0.00     0.010 A 
ATOM     90  C   UNL     1      19.361  -8.197  -0.423  1.00  0.00     0.010 A 
ATOM     91  C   UNL     1      20.805  -5.812  -0.648  1.00  0.00     0.020 A 
ATOM     92  C   UNL     1      20.757  -8.234  -0.463  1.00  0.00     0.020 A 
ATOM     93  C   UNL     1      21.470  -7.041  -0.589  1.00  0.00     0.054 A 
BRANCH  93  94
ATOM     94  S   UNL     1      23.284  -7.055  -0.638  1.00  0.00     0.124 S 
ATOM     95  O   UNL     1      23.553  -6.718  -2.033  1.00  0.00    -0.237 OA
ATOM     96  O   UNL     1      23.638  -6.026   0.337  1.00  0.00    -0.237 OA
ATOM     97  O   UNL     1      23.631  -8.420  -0.249  1.00  0.00    -0.744 OA
ENDBRANCH  93  94
ENDBRANCH  67  88
ENDBRANCH  41  42
ENDBRANCH  33  36
ENDBRANCH  31  32
ENDBRANCH  30  31
ENDBRANCH   1  30
TORSDOF 18
