REMARK SMILES Cc1ccc(NC(=O)C[N@H+]2CC[C@@H](C(=O)NCCCCNC(=O)c3ccc(-c4c5nc(c(-c6ccc(S(=O)(=O)[O-])cc6)c6ccc([nH]6)c(-c6ccc(S(=O)(=O)[O-])cc6)c6nc(c(-c7ccc(S(=O)(=O)[O-])cc7)c7ccc4[nH]7)C=C6)C=C5)cc3)[C@@H]2C)cc1
REMARK SMILES IDX 18 1 17 2 16 3 14 4 15 5 13 7 10 8 11 9 84 10 12 12 85 13
REMARK SMILES IDX 9 14 7 15 6 16 8 18 5 19 1 20 2 21 3 22 87 23 4 24 86 25
REMARK SMILES IDX 19 26 20 27 21 28 22 29 23 31 24 32 25 33 83 34 26 35 82 36
REMARK SMILES IDX 27 37 28 38 29 39 76 40 30 41 81 42 75 43 77 44 31 45 80 46
REMARK SMILES IDX 74 47 73 48 32 50 62 51 43 52 61 53 44 54 47 55 60 56 78 57
REMARK SMILES IDX 45 58 46 59 59 61 79 62 48 63 33 64 34 65 42 66 35 67 41 68
REMARK SMILES IDX 36 69 37 70 38 71 39 72 40 73 63 74 64 75 72 76 65 77 71 78
REMARK SMILES IDX 66 79 67 80 68 81 69 82 70 83 49 84 50 85 58 86 51 87 57 88
REMARK SMILES IDX 52 89 53 90 54 91 55 92 56 93
REMARK H PARENT 16 6 10 11 6 17 21 30 77 49 47 60
REMARK Flexibility Score: inf
ROOT
ATOM      1  C   UNL     1      -1.713  -3.308   2.926  1.00  0.00     0.023 C 
ENDROOT
BRANCH   1   2
ATOM      2  C   UNL     1      -1.011  -2.366   1.945  1.00  0.00     0.116 C 
BRANCH   2   3
ATOM      3  N   UNL     1       0.231  -2.862   1.354  1.00  0.00    -0.356 N 
ATOM      4  C   UNL     1       0.637  -3.050   0.064  1.00  0.00     0.229 C 
ATOM      5  O   UNL     1       1.865  -2.995  -0.114  1.00  0.00    -0.275 OA
ATOM      6  H   UNL     1       0.911  -3.110   2.021  1.00  0.00     0.163 HD
BRANCH   4   7
ATOM      7  C   UNL     1      -0.247  -3.382  -1.157  1.00  0.00     0.142 C 
ATOM      8  N   UNL     1      -2.426  -2.601  -1.448  1.00  0.00    -0.324 N 
ATOM      9  C   UNL     1      -1.748  -1.968  -2.545  1.00  0.00     0.263 C 
ATOM     10  C   UNL     1      -1.705  -3.768  -0.952  1.00  0.00     0.194 C 
ATOM     11  H   UNL     1      -3.333  -2.773  -1.882  1.00  0.00     0.348 HD
ATOM     12  C   UNL     1      -0.275  -2.363  -2.326  1.00  0.00     0.081 C 
ATOM     13  C   UNL     1      -1.998  -5.021  -1.794  1.00  0.00     0.076 C 
BRANCH   8  14
ATOM     14  C   UNL     1      -3.518  -2.018  -0.679  1.00  0.00     0.364 C 
BRANCH  14  15
ATOM     15  C   UNL     1      -3.874  -0.522  -0.808  1.00  0.00     0.279 C 
ATOM     16  N   UNL     1      -3.156   0.566  -0.399  1.00  0.00    -0.321 N 
ATOM     17  H   UNL     1      -3.742   1.347  -0.272  1.00  0.00     0.170 HD
ATOM     18  O   UNL     1      -5.017  -0.245  -1.222  1.00  0.00    -0.268 OA
BRANCH  16  19
ATOM     19  C   UNL     1      -1.818   0.891  -0.107  1.00  0.00     0.041 A 
ATOM     20  C   UNL     1       2.338   2.122   0.265  1.00  0.00     0.044 C 
ATOM     21  C   UNL     1       0.895   1.731   0.177  1.00  0.00    -0.051 A 
ATOM     22  C   UNL     1       0.571   0.405  -0.058  1.00  0.00     0.005 A 
ATOM     23  C   UNL     1      -0.152   2.637   0.330  1.00  0.00     0.005 A 
ATOM     24  C   UNL     1      -0.767   0.013  -0.179  1.00  0.00     0.026 A 
ATOM     25  C   UNL     1      -1.489   2.218   0.176  1.00  0.00     0.026 A 
ENDBRANCH  16  19
ENDBRANCH  14  15
ENDBRANCH   8  14
ENDBRANCH   4   7
ENDBRANCH   2   3
ENDBRANCH   1   2
BRANCH   1  26
ATOM     26  C   UNL     1      -1.181  -3.236   4.358  1.00  0.00     0.023 C 
BRANCH  26  27
ATOM     27  C   UNL     1      -1.534  -1.950   5.101  1.00  0.00     0.116 C 
BRANCH  27  28
ATOM     28  N   UNL     1      -2.787  -1.956   5.844  1.00  0.00    -0.352 N 
ATOM     29  C   UNL     1      -2.931  -1.177   6.998  1.00  0.00     0.251 C 
ATOM     30  H   UNL     1      -3.537  -2.512   5.533  1.00  0.00     0.163 HD
ATOM     31  O   UNL     1      -3.111  -1.619   8.112  1.00  0.00    -0.269 OA
BRANCH  29  32
ATOM     32  C   UNL     1      -2.809   0.285   6.769  1.00  0.00     0.039 A 
ATOM     33  C   UNL     1      -3.931   1.116   6.832  1.00  0.00     0.014 A 
ATOM     34  C   UNL     1      -1.581   0.777   6.330  1.00  0.00     0.014 A 
ATOM     35  C   UNL     1      -3.851   2.407   6.304  1.00  0.00     0.010 A 
ATOM     36  C   UNL     1      -1.529   2.005   5.718  1.00  0.00     0.010 A 
ATOM     37  C   UNL     1      -2.668   2.810   5.682  1.00  0.00    -0.014 A 
BRANCH  37  38
ATOM     38  C   UNL     1      -2.495   4.040   4.929  1.00  0.00     0.031 A 
ATOM     39  C   UNL     1      -1.809   5.191   5.548  1.00  0.00     0.074 A 
ATOM     40  C   UNL     1      -2.792   4.048   3.611  1.00  0.00     0.049 A 
ATOM     41  N   UNL     1      -1.955   6.413   5.163  1.00  0.00    -0.248 NA
ATOM     42  C   UNL     1      -0.897   5.049   6.682  1.00  0.00     0.031 C 
ATOM     43  C   UNL     1      -2.396   5.046   2.624  1.00  0.00     0.029 A 
ATOM     44  N   UNL     1      -3.705   3.244   2.929  1.00  0.00    -0.354 N 
ATOM     45  C   UNL     1      -0.941   7.140   5.743  1.00  0.00     0.074 A 
ATOM     46  C   UNL     1      -0.374   6.277   6.753  1.00  0.00     0.031 C 
ATOM     47  C   UNL     1      -3.275   5.011   1.609  1.00  0.00     0.029 A 
ATOM     48  C   UNL     1      -4.326   4.075   1.986  1.00  0.00     0.049 A 
ATOM     49  H   UNL     1      -3.879   2.286   3.079  1.00  0.00     0.167 HD
ATOM     50  C   UNL     1      -0.560   8.328   5.196  1.00  0.00     0.031 A 
ATOM     51  C   UNL     1      -5.663   4.349   1.983  1.00  0.00     0.031 A 
ATOM     52  C   UNL     1      -1.375   8.671   4.033  1.00  0.00     0.049 A 
ATOM     53  C   UNL     1      -5.926   5.835   2.109  1.00  0.00     0.074 A 
ATOM     54  C   UNL     1      -1.154   8.564   2.670  1.00  0.00     0.029 A 
ATOM     55  N   UNL     1      -2.736   8.898   4.195  1.00  0.00    -0.354 N 
ATOM     56  N   UNL     1      -5.043   6.689   2.550  1.00  0.00    -0.248 NA
ATOM     57  C   UNL     1      -7.189   6.476   1.763  1.00  0.00     0.031 C 
ATOM     58  C   UNL     1      -2.409   8.650   2.014  1.00  0.00     0.029 A 
ATOM     59  C   UNL     1      -3.385   8.835   2.977  1.00  0.00     0.049 A 
ATOM     60  H   UNL     1      -3.177   9.078   5.057  1.00  0.00     0.167 HD
ATOM     61  C   UNL     1      -5.562   7.955   2.520  1.00  0.00     0.074 A 
ATOM     62  C   UNL     1      -6.916   7.768   2.030  1.00  0.00     0.031 C 
ATOM     63  C   UNL     1      -4.826   9.044   2.892  1.00  0.00     0.031 A 
BRANCH  50  64
ATOM     64  C   UNL     1       0.755   8.988   5.532  1.00  0.00    -0.014 A 
ATOM     65  C   UNL     1       1.480   9.649   4.519  1.00  0.00     0.010 A 
ATOM     66  C   UNL     1       1.346   8.960   6.810  1.00  0.00     0.010 A 
ATOM     67  C   UNL     1       2.760  10.174   4.741  1.00  0.00     0.020 A 
ATOM     68  C   UNL     1       2.642   9.454   7.040  1.00  0.00     0.020 A 
ATOM     69  C   UNL     1       3.345  10.053   5.998  1.00  0.00     0.054 A 
BRANCH  69  70
ATOM     70  S   UNL     1       5.024  10.690   6.240  1.00  0.00     0.124 S 
ATOM     71  O   UNL     1       5.782   9.979   5.213  1.00  0.00    -0.237 OA
ATOM     72  O   UNL     1       4.850  12.122   6.016  1.00  0.00    -0.237 OA
ATOM     73  O   UNL     1       5.344  10.309   7.614  1.00  0.00    -0.744 OA
ENDBRANCH  69  70
ENDBRANCH  50  64
BRANCH  51  74
ATOM     74  C   UNL     1      -6.503   3.261   2.565  1.00  0.00    -0.014 A 
ATOM     75  C   UNL     1      -6.581   2.045   1.848  1.00  0.00     0.010 A 
ATOM     76  C   UNL     1      -6.793   3.253   3.941  1.00  0.00     0.010 A 
ATOM     77  C   UNL     1      -6.753   0.830   2.519  1.00  0.00     0.020 A 
ATOM     78  C   UNL     1      -6.977   2.034   4.614  1.00  0.00     0.020 A 
ATOM     79  C   UNL     1      -6.878   0.830   3.908  1.00  0.00     0.054 A 
BRANCH  79  80
ATOM     80  S   UNL     1      -6.723  -0.758   4.787  1.00  0.00     0.124 S 
ATOM     81  O   UNL     1      -7.781  -1.559   4.181  1.00  0.00    -0.237 OA
ATOM     82  O   UNL     1      -5.353  -1.167   4.460  1.00  0.00    -0.237 OA
ATOM     83  O   UNL     1      -6.934  -0.390   6.183  1.00  0.00    -0.744 OA
ENDBRANCH  79  80
ENDBRANCH  51  74
BRANCH  63  84
ATOM     84  C   UNL     1      -5.348  10.443   3.126  1.00  0.00    -0.014 A 
ATOM     85  C   UNL     1      -6.695  10.755   3.356  1.00  0.00     0.010 A 
ATOM     86  C   UNL     1      -4.415  11.504   3.255  1.00  0.00     0.010 A 
ATOM     87  C   UNL     1      -7.099  12.067   3.643  1.00  0.00     0.020 A 
ATOM     88  C   UNL     1      -4.800  12.803   3.590  1.00  0.00     0.020 A 
ATOM     89  C   UNL     1      -6.149  13.083   3.757  1.00  0.00     0.054 A 
BRANCH  89  90
ATOM     90  S   UNL     1      -6.678  14.757   4.196  1.00  0.00     0.124 S 
ATOM     91  O   UNL     1      -7.044  15.305   2.893  1.00  0.00    -0.237 OA
ATOM     92  O   UNL     1      -7.792  14.517   5.110  1.00  0.00    -0.237 OA
ATOM     93  O   UNL     1      -5.491  15.342   4.813  1.00  0.00    -0.744 OA
ENDBRANCH  89  90
ENDBRANCH  63  84
ENDBRANCH  37  38
ENDBRANCH  29  32
ENDBRANCH  27  28
ENDBRANCH  26  27
ENDBRANCH   1  26
TORSDOF 17
