REMARK SMILES NC(=O)c1ccsc1NS(=O)(=O)c1ccc(C(=O)NCCCCNC(=O)c2ccc(-c3c4nc(c(-c5ccc(S(=O)(=O)[O-])cc5)c5ccc([nH]5)c(-c5ccc(S(=O)(=O)[O-])cc5)c5nc(c(-c6ccc(S(=O)(=O)[O-])cc6)c6ccc3[nH]6)C=C5)C=C4)cc2)cc1
REMARK SMILES IDX 21 1 20 2 19 3 17 4 18 5 16 7 13 8 14 9 88 10 15 11 87 12
REMARK SMILES IDX 10 13 11 14 12 15 9 16 8 18 4 19 5 20 6 21 7 22 2 23 1 24
REMARK SMILES IDX 3 27 22 28 23 29 24 30 25 31 26 33 27 34 28 35 86 36 29 37
REMARK SMILES IDX 85 38 30 39 31 40 32 41 79 42 33 43 84 44 78 45 80 46 34 47
REMARK SMILES IDX 83 48 77 49 76 50 35 52 65 53 46 54 64 55 47 56 50 57 63 58
REMARK SMILES IDX 81 59 48 60 49 61 62 63 82 64 51 65 36 66 37 67 45 68 38 69
REMARK SMILES IDX 44 70 39 71 40 72 41 73 42 74 43 75 66 76 67 77 75 78 68 79
REMARK SMILES IDX 74 80 69 81 70 82 71 83 72 84 73 85 52 86 53 87 61 88 54 89
REMARK SMILES IDX 60 90 55 91 56 92 57 93 58 94 59 95
REMARK H PARENT 19 6 9 17 1 25 1 26 24 32 80 51 50 62
REMARK Flexibility Score: inf
ROOT
ATOM      1  C   UNL     1       3.594   8.393  -7.660  1.00  0.00     0.023 C 
ENDROOT
BRANCH   1   2
ATOM      2  C   UNL     1       2.659   7.471  -8.445  1.00  0.00     0.116 C 
BRANCH   2   3
ATOM      3  N   UNL     1       3.235   6.149  -8.610  1.00  0.00    -0.352 N 
ATOM      4  C   UNL     1       2.901   4.952  -8.027  1.00  0.00     0.251 C 
ATOM      5  O   UNL     1       3.448   3.922  -8.418  1.00  0.00    -0.269 OA
ATOM      6  H   UNL     1       3.988   6.103  -9.243  1.00  0.00     0.163 HD
BRANCH   4   7
ATOM      7  C   UNL     1       1.888   4.856  -6.945  1.00  0.00     0.039 A 
ATOM      8  C   UNL     1       0.109   4.461  -4.825  1.00  0.00     0.087 A 
ATOM      9  C   UNL     1       0.151   3.528  -5.866  1.00  0.00     0.023 A 
ATOM     10  C   UNL     1       0.906   5.611  -4.864  1.00  0.00     0.023 A 
ATOM     11  C   UNL     1       1.055   3.724  -6.917  1.00  0.00     0.015 A 
ATOM     12  C   UNL     1       1.813   5.788  -5.906  1.00  0.00     0.015 A 
BRANCH   8  13
ATOM     13  S   UNL     1      -0.888   4.176  -3.389  1.00  0.00     0.262 S 
ATOM     14  O   UNL     1      -2.207   3.828  -3.880  1.00  0.00    -0.201 OA
ATOM     15  O   UNL     1      -0.720   5.307  -2.498  1.00  0.00    -0.201 OA
BRANCH  13  16
ATOM     16  N   UNL     1      -0.329   2.828  -2.586  1.00  0.00    -0.270 N 
ATOM     17  H   UNL     1      -0.971   2.395  -1.978  1.00  0.00     0.181 HD
BRANCH  16  18
ATOM     18  C   UNL     1       0.959   2.219  -2.663  1.00  0.00     0.115 A 
ATOM     19  C   UNL     1       1.201   0.991  -2.055  1.00  0.00     0.074 A 
ATOM     20  C   UNL     1       2.465   0.448  -2.479  1.00  0.00     0.028 A 
ATOM     21  C   UNL     1       3.176   1.326  -3.262  1.00  0.00     0.068 A 
ATOM     22  S   UNL     1       2.380   2.826  -3.373  1.00  0.00    -0.125 S 
BRANCH  19  23
ATOM     23  C   UNL     1       0.259   0.350  -1.146  1.00  0.00     0.251 C 
ATOM     24  N   UNL     1       0.829  -0.415  -0.170  1.00  0.00    -0.366 N 
ATOM     25  H   UNL     1       0.260  -0.882   0.485  1.00  0.00     0.159 HD
ATOM     26  H   UNL     1       1.808  -0.500  -0.119  1.00  0.00     0.159 HD
ATOM     27  O   UNL     1      -0.954   0.524  -1.194  1.00  0.00    -0.269 OA
ENDBRANCH  19  23
ENDBRANCH  16  18
ENDBRANCH  13  16
ENDBRANCH   8  13
ENDBRANCH   4   7
ENDBRANCH   2   3
ENDBRANCH   1   2
BRANCH   1  28
ATOM     28  C   UNL     1       4.771   8.946  -8.467  1.00  0.00     0.023 C 
BRANCH  28  29
ATOM     29  C   UNL     1       4.387   9.818  -9.657  1.00  0.00     0.116 C 
BRANCH  29  30
ATOM     30  N   UNL     1       3.570  10.965  -9.292  1.00  0.00    -0.352 N 
ATOM     31  C   UNL     1       3.535  12.207  -9.880  1.00  0.00     0.251 C 
ATOM     32  H   UNL     1       2.964  10.835  -8.527  1.00  0.00     0.163 HD
ATOM     33  O   UNL     1       2.864  13.107  -9.386  1.00  0.00    -0.269 OA
BRANCH  31  34
ATOM     34  C   UNL     1       4.350  12.456 -11.087  1.00  0.00     0.039 A 
ATOM     35  C   UNL     1       5.191  13.571 -11.113  1.00  0.00     0.014 A 
ATOM     36  C   UNL     1       4.314  11.569 -12.166  1.00  0.00     0.014 A 
ATOM     37  C   UNL     1       6.051  13.758 -12.197  1.00  0.00     0.010 A 
ATOM     38  C   UNL     1       5.218  11.722 -13.213  1.00  0.00     0.010 A 
ATOM     39  C   UNL     1       6.097  12.815 -13.237  1.00  0.00    -0.014 A 
BRANCH  39  40
ATOM     40  C   UNL     1       7.065  12.948 -14.354  1.00  0.00     0.031 A 
ATOM     41  C   UNL     1       6.571  13.169 -15.757  1.00  0.00     0.074 A 
ATOM     42  C   UNL     1       8.383  12.800 -14.114  1.00  0.00     0.049 A 
ATOM     43  N   UNL     1       7.257  13.244 -16.869  1.00  0.00    -0.248 NA
ATOM     44  C   UNL     1       5.116  13.295 -15.938  1.00  0.00     0.031 C 
ATOM     45  C   UNL     1       8.982  12.538 -12.803  1.00  0.00     0.029 A 
ATOM     46  N   UNL     1       9.457  12.840 -14.967  1.00  0.00    -0.354 N 
ATOM     47  C   UNL     1       6.319  13.409 -17.881  1.00  0.00     0.074 A 
ATOM     48  C   UNL     1       5.013  13.376 -17.257  1.00  0.00     0.031 C 
ATOM     49  C   UNL     1      10.317  12.465 -12.936  1.00  0.00     0.029 A 
ATOM     50  C   UNL     1      10.666  12.636 -14.343  1.00  0.00     0.049 A 
ATOM     51  H   UNL     1       9.371  12.999 -15.934  1.00  0.00     0.167 HD
ATOM     52  C   UNL     1       6.524  13.591 -19.207  1.00  0.00     0.031 A 
ATOM     53  C   UNL     1      11.914  12.587 -14.846  1.00  0.00     0.031 A 
ATOM     54  C   UNL     1       7.824  13.638 -19.822  1.00  0.00     0.049 A 
ATOM     55  C   UNL     1      12.118  12.794 -16.322  1.00  0.00     0.074 A 
ATOM     56  C   UNL     1       8.140  13.873 -21.148  1.00  0.00     0.029 A 
ATOM     57  N   UNL     1       9.023  13.446 -19.152  1.00  0.00    -0.354 N 
ATOM     58  N   UNL     1      11.221  13.012 -17.254  1.00  0.00    -0.248 NA
ATOM     59  C   UNL     1      13.503  12.759 -16.812  1.00  0.00     0.031 C 
ATOM     60  C   UNL     1       9.529  13.780 -21.289  1.00  0.00     0.029 A 
ATOM     61  C   UNL     1      10.081  13.540 -20.041  1.00  0.00     0.049 A 
ATOM     62  H   UNL     1       9.110  13.270 -18.187  1.00  0.00     0.167 HD
ATOM     63  C   UNL     1      11.935  13.167 -18.437  1.00  0.00     0.074 A 
ATOM     64  C   UNL     1      13.338  13.030 -18.100  1.00  0.00     0.031 C 
ATOM     65  C   UNL     1      11.471  13.402 -19.689  1.00  0.00     0.031 A 
BRANCH  52  66
ATOM     66  C   UNL     1       5.310  13.751 -20.082  1.00  0.00    -0.014 A 
ATOM     67  C   UNL     1       4.522  14.914 -20.022  1.00  0.00     0.010 A 
ATOM     68  C   UNL     1       4.970  12.741 -21.000  1.00  0.00     0.010 A 
ATOM     69  C   UNL     1       3.391  15.046 -20.832  1.00  0.00     0.020 A 
ATOM     70  C   UNL     1       3.856  12.881 -21.833  1.00  0.00     0.020 A 
ATOM     71  C   UNL     1       3.063  14.026 -21.730  1.00  0.00     0.054 A 
BRANCH  71  72
ATOM     72  S   UNL     1       1.600  14.231 -22.783  1.00  0.00     0.124 S 
ATOM     73  O   UNL     1       0.513  14.011 -21.832  1.00  0.00    -0.237 OA
ATOM     74  O   UNL     1       1.743  15.602 -23.267  1.00  0.00    -0.237 OA
ATOM     75  O   UNL     1       1.757  13.195 -23.800  1.00  0.00    -0.744 OA
ENDBRANCH  71  72
ENDBRANCH  52  66
BRANCH  53  76
ATOM     76  C   UNL     1      13.072  12.351 -13.941  1.00  0.00    -0.014 A 
ATOM     77  C   UNL     1      13.968  13.393 -13.646  1.00  0.00     0.010 A 
ATOM     78  C   UNL     1      13.277  11.087 -13.360  1.00  0.00     0.010 A 
ATOM     79  C   UNL     1      15.059  13.171 -12.800  1.00  0.00     0.020 A 
ATOM     80  C   UNL     1      14.351  10.867 -12.493  1.00  0.00     0.020 A 
ATOM     81  C   UNL     1      15.243  11.909 -12.228  1.00  0.00     0.054 A 
BRANCH  81  82
ATOM     82  S   UNL     1      16.635  11.656 -11.092  1.00  0.00     0.124 S 
ATOM     83  O   UNL     1      17.767  11.589 -12.010  1.00  0.00    -0.237 OA
ATOM     84  O   UNL     1      16.574  12.845 -10.246  1.00  0.00    -0.237 OA
ATOM     85  O   UNL     1      16.300  10.404 -10.416  1.00  0.00    -0.744 OA
ENDBRANCH  81  82
ENDBRANCH  53  76
BRANCH  65  86
ATOM     86  C   UNL     1      12.489  13.562 -20.785  1.00  0.00    -0.014 A 
ATOM     87  C   UNL     1      13.191  12.455 -21.294  1.00  0.00     0.010 A 
ATOM     88  C   UNL     1      12.701  14.831 -21.354  1.00  0.00     0.010 A 
ATOM     89  C   UNL     1      14.109  12.621 -22.334  1.00  0.00     0.020 A 
ATOM     90  C   UNL     1      13.599  14.996 -22.411  1.00  0.00     0.020 A 
ATOM     91  C   UNL     1      14.307  13.890 -22.886  1.00  0.00     0.054 A 
BRANCH  91  92
ATOM     92  S   UNL     1      15.468  14.071 -24.268  1.00  0.00     0.124 S 
ATOM     93  O   UNL     1      16.760  13.977 -23.594  1.00  0.00    -0.237 OA
ATOM     94  O   UNL     1      15.124  12.941 -25.128  1.00  0.00    -0.237 OA
ATOM     95  O   UNL     1      15.147  15.385 -24.820  1.00  0.00    -0.744 OA
ENDBRANCH  91  92
ENDBRANCH  65  86
ENDBRANCH  39  40
ENDBRANCH  31  34
ENDBRANCH  29  30
ENDBRANCH  28  29
ENDBRANCH   1  28
TORSDOF 18
