REMARK SMILES O=C(COc1ccc([N+](=O)[O-])cc1)Nc1ccc(C(=O)NCCCCNC(=O)c2ccc(-c3c4nc(c(-c5ccc(S(=O)(=O)[O-])cc5)c5ccc([nH]5)c(-c5ccc(S(=O)(=O)[O-])cc5)c5nc(c(-c6ccc(S(=O)(=O)[O-])cc6)c6ccc3[nH]6)C=C5)C=C4)cc2)c(O)c1
REMARK SMILES IDX 22 1 21 2 19 3 20 4 18 6 15 7 16 8 91 9 17 10 89 11 14 12
REMARK SMILES IDX 1 13 2 14 3 16 4 17 5 18 6 19 13 20 7 21 12 22 8 23 9 24
REMARK SMILES IDX 10 25 11 26 90 27 23 29 24 30 25 31 26 32 27 33 28 35 29 36
REMARK SMILES IDX 30 37 88 38 31 39 87 40 32 41 33 42 34 43 81 44 35 45 86 46
REMARK SMILES IDX 80 47 82 48 36 49 85 50 79 51 78 52 37 54 67 55 48 56 66 57
REMARK SMILES IDX 49 58 52 59 65 60 83 61 50 62 51 63 64 65 84 66 53 67 38 68
REMARK SMILES IDX 39 69 47 70 40 71 46 72 41 73 42 74 43 75 44 76 45 77 68 78
REMARK SMILES IDX 69 79 77 80 70 81 76 82 71 83 72 84 73 85 74 86 75 87 54 88
REMARK SMILES IDX 55 89 63 90 56 91 62 92 57 93 58 94 59 95 60 96 61 97
REMARK H PARENT 21 5 14 15 90 28 26 34 82 53 52 64
REMARK Flexibility Score: inf
ROOT
ATOM      1  C   UNL     1      -1.433  -4.016   4.514  1.00  0.00     0.116 C 
ENDROOT
BRANCH   1   2
ATOM      2  N   UNL     1      -0.397  -3.798   5.502  1.00  0.00    -0.352 N 
ATOM      3  C   UNL     1       0.858  -3.254   5.404  1.00  0.00     0.255 C 
ATOM      4  O   UNL     1       1.540  -3.235   6.433  1.00  0.00    -0.269 OA
ATOM      5  H   UNL     1      -0.638  -4.095   6.410  1.00  0.00     0.163 HD
BRANCH   3   6
ATOM      6  C   UNL     1       1.413  -2.597   4.180  1.00  0.00     0.081 A 
ATOM      7  C   UNL     1       2.569  -1.107   2.060  1.00  0.00     0.045 A 
ATOM      8  C   UNL     1       2.877  -0.794   3.382  1.00  0.00     0.027 A 
ATOM      9  C   UNL     1       1.754  -2.202   1.802  1.00  0.00     0.073 A 
ATOM     10  C   UNL     1       2.288  -1.519   4.427  1.00  0.00     0.020 A 
ATOM     11  C   UNL     1       1.208  -2.956   2.845  1.00  0.00     0.130 A 
BRANCH   7  12
ATOM     12  N   UNL     1       3.084  -0.296   1.036  1.00  0.00    -0.323 N 
ATOM     13  O   UNL     1       1.648  -0.846  -0.724  1.00  0.00    -0.271 OA
ATOM     14  C   UNL     1       2.577  -0.195  -0.252  1.00  0.00     0.262 C 
ATOM     15  H   UNL     1       3.875   0.250   1.250  1.00  0.00     0.170 HD
BRANCH  14  16
ATOM     16  C   UNL     1       3.263   0.883  -1.089  1.00  0.00     0.329 C 
BRANCH  16  17
ATOM     17  O   UNL     1       4.086   1.791  -0.367  1.00  0.00    -0.484 OA
BRANCH  17  18
ATOM     18  C   UNL     1       3.449   2.914   0.088  1.00  0.00     0.120 A 
ATOM     19  C   UNL     1       4.086   4.126  -0.180  1.00  0.00     0.053 A 
ATOM     20  C   UNL     1       2.311   2.885   0.898  1.00  0.00     0.053 A 
ATOM     21  C   UNL     1       3.596   5.315   0.365  1.00  0.00     0.089 A 
ATOM     22  C   UNL     1       1.825   4.065   1.467  1.00  0.00     0.089 A 
ATOM     23  C   UNL     1       2.477   5.276   1.206  1.00  0.00     0.269 A 
BRANCH  23  24
ATOM     24  N   UNL     1       2.005   6.508   1.849  1.00  0.00     0.062 N 
ATOM     25  O   UNL     1       2.563   7.570   1.536  1.00  0.00    -0.258 OA
ATOM     26  O   UNL     1       1.086   6.413   2.674  1.00  0.00    -0.258 OA
ENDBRANCH  23  24
ENDBRANCH  17  18
ENDBRANCH  16  17
ENDBRANCH  14  16
ENDBRANCH   7  12
BRANCH  11  27
ATOM     27  O   UNL     1       0.530  -4.077   2.476  1.00  0.00    -0.507 OA
ATOM     28  H   UNL     1       0.141  -4.625   3.129  1.00  0.00     0.293 HD
ENDBRANCH  11  27
ENDBRANCH   3   6
ENDBRANCH   1   2
BRANCH   1  29
ATOM     29  C   UNL     1      -1.326  -5.429   3.929  1.00  0.00     0.023 C 
BRANCH  29  30
ATOM     30  C   UNL     1      -2.054  -6.516   4.711  1.00  0.00     0.023 C 
BRANCH  30  31
ATOM     31  C   UNL     1      -3.567  -6.385   4.709  1.00  0.00     0.116 C 
BRANCH  31  32
ATOM     32  N   UNL     1      -4.151  -6.381   3.375  1.00  0.00    -0.352 N 
ATOM     33  C   UNL     1      -5.386  -6.841   2.989  1.00  0.00     0.251 C 
ATOM     34  H   UNL     1      -3.589  -6.003   2.660  1.00  0.00     0.163 HD
ATOM     35  O   UNL     1      -5.701  -6.854   1.803  1.00  0.00    -0.269 OA
BRANCH  33  36
ATOM     36  C   UNL     1      -6.309  -7.362   4.018  1.00  0.00     0.039 A 
ATOM     37  C   UNL     1      -6.921  -8.599   3.810  1.00  0.00     0.014 A 
ATOM     38  C   UNL     1      -6.523  -6.655   5.204  1.00  0.00     0.014 A 
ATOM     39  C   UNL     1      -7.706  -9.154   4.822  1.00  0.00     0.010 A 
ATOM     40  C   UNL     1      -7.231  -7.248   6.241  1.00  0.00     0.010 A 
ATOM     41  C   UNL     1      -7.842  -8.496   6.055  1.00  0.00    -0.014 A 
BRANCH  41  42
ATOM     42  C   UNL     1      -8.648  -9.082   7.153  1.00  0.00     0.031 A 
ATOM     43  C   UNL     1      -9.885  -8.371   7.632  1.00  0.00     0.074 A 
ATOM     44  C   UNL     1      -8.240 -10.218   7.752  1.00  0.00     0.049 A 
ATOM     45  N   UNL     1     -10.704  -8.701   8.597  1.00  0.00    -0.248 NA
ATOM     46  C   UNL     1     -10.231  -7.108   6.958  1.00  0.00     0.031 C 
ATOM     47  C   UNL     1      -7.027 -10.968   7.414  1.00  0.00     0.029 A 
ATOM     48  N   UNL     1      -8.801 -10.939   8.775  1.00  0.00    -0.354 N 
ATOM     49  C   UNL     1     -11.645  -7.680   8.658  1.00  0.00     0.074 A 
ATOM     50  C   UNL     1     -11.265  -6.692   7.674  1.00  0.00     0.031 C 
ATOM     51  C   UNL     1      -6.955 -12.061   8.192  1.00  0.00     0.029 A 
ATOM     52  C   UNL     1      -8.095 -12.072   9.104  1.00  0.00     0.049 A 
ATOM     53  H   UNL     1      -9.631 -10.671   9.231  1.00  0.00     0.167 HD
ATOM     54  C   UNL     1     -12.743  -7.584   9.444  1.00  0.00     0.031 A 
ATOM     55  C   UNL     1      -8.343 -13.016  10.032  1.00  0.00     0.031 A 
ATOM     56  C   UNL     1     -13.130  -8.581  10.405  1.00  0.00     0.049 A 
ATOM     57  C   UNL     1      -9.584 -12.903  10.875  1.00  0.00     0.074 A 
ATOM     58  C   UNL     1     -14.254  -8.609  11.212  1.00  0.00     0.029 A 
ATOM     59  N   UNL     1     -12.406  -9.729  10.686  1.00  0.00    -0.354 N 
ATOM     60  N   UNL     1     -10.499 -11.963  10.872  1.00  0.00    -0.248 NA
ATOM     61  C   UNL     1      -9.836 -13.990  11.831  1.00  0.00     0.031 C 
ATOM     62  C   UNL     1     -14.189  -9.757  12.009  1.00  0.00     0.029 A 
ATOM     63  C   UNL     1     -13.052 -10.469  11.661  1.00  0.00     0.049 A 
ATOM     64  H   UNL     1     -11.557  -9.982  10.255  1.00  0.00     0.167 HD
ATOM     65  C   UNL     1     -11.452 -12.361  11.803  1.00  0.00     0.074 A 
ATOM     66  C   UNL     1     -11.007 -13.632  12.339  1.00  0.00     0.031 C 
ATOM     67  C   UNL     1     -12.594 -11.733  12.179  1.00  0.00     0.031 A 
BRANCH  54  68
ATOM     68  C   UNL     1     -13.601  -6.357   9.288  1.00  0.00    -0.014 A 
ATOM     69  C   UNL     1     -14.365  -6.149   8.125  1.00  0.00     0.010 A 
ATOM     70  C   UNL     1     -13.663  -5.409  10.325  1.00  0.00     0.010 A 
ATOM     71  C   UNL     1     -15.137  -4.993   7.981  1.00  0.00     0.020 A 
ATOM     72  C   UNL     1     -14.457  -4.266  10.198  1.00  0.00     0.020 A 
ATOM     73  C   UNL     1     -15.175  -4.056   9.018  1.00  0.00     0.054 A 
BRANCH  73  74
ATOM     74  S   UNL     1     -16.198  -2.573   8.813  1.00  0.00     0.124 S 
ATOM     75  O   UNL     1     -15.403  -1.787   7.872  1.00  0.00    -0.237 OA
ATOM     76  O   UNL     1     -17.445  -3.114   8.280  1.00  0.00    -0.237 OA
ATOM     77  O   UNL     1     -16.288  -2.024  10.164  1.00  0.00    -0.744 OA
ENDBRANCH  73  74
ENDBRANCH  54  68
BRANCH  55  78
ATOM     78  C   UNL     1      -7.416 -14.171  10.184  1.00  0.00    -0.014 A 
ATOM     79  C   UNL     1      -7.801 -15.454   9.758  1.00  0.00     0.010 A 
ATOM     80  C   UNL     1      -6.137 -13.990  10.741  1.00  0.00     0.010 A 
ATOM     81  C   UNL     1      -6.933 -16.540   9.906  1.00  0.00     0.020 A 
ATOM     82  C   UNL     1      -5.256 -15.069  10.867  1.00  0.00     0.020 A 
ATOM     83  C   UNL     1      -5.665 -16.340  10.459  1.00  0.00     0.054 A 
BRANCH  83  84
ATOM     84  S   UNL     1      -4.536 -17.755  10.595  1.00  0.00     0.124 S 
ATOM     85  O   UNL     1      -5.105 -18.489  11.721  1.00  0.00    -0.237 OA
ATOM     86  O   UNL     1      -4.670 -18.394   9.289  1.00  0.00    -0.237 OA
ATOM     87  O   UNL     1      -3.238 -17.131  10.844  1.00  0.00    -0.744 OA
ENDBRANCH  83  84
ENDBRANCH  55  78
BRANCH  67  88
ATOM     88  C   UNL     1     -13.465 -12.432  13.187  1.00  0.00    -0.014 A 
ATOM     89  C   UNL     1     -13.092 -12.521  14.539  1.00  0.00     0.010 A 
ATOM     90  C   UNL     1     -14.700 -12.968  12.777  1.00  0.00     0.010 A 
ATOM     91  C   UNL     1     -13.921 -13.170  15.458  1.00  0.00     0.020 A 
ATOM     92  C   UNL     1     -15.544 -13.593  13.698  1.00  0.00     0.020 A 
ATOM     93  C   UNL     1     -15.140 -13.706  15.030  1.00  0.00     0.054 A 
BRANCH  93  94
ATOM     94  S   UNL     1     -16.214 -14.517  16.245  1.00  0.00     0.124 S 
ATOM     95  O   UNL     1     -15.538 -15.796  16.441  1.00  0.00    -0.237 OA
ATOM     96  O   UNL     1     -16.166 -13.600  17.381  1.00  0.00    -0.237 OA
ATOM     97  O   UNL     1     -17.507 -14.592  15.569  1.00  0.00    -0.744 OA
ENDBRANCH  93  94
ENDBRANCH  67  88
ENDBRANCH  41  42
ENDBRANCH  33  36
ENDBRANCH  31  32
ENDBRANCH  30  31
ENDBRANCH  29  30
ENDBRANCH   1  29
TORSDOF 20
