REMARK SMILES O=C(NCCCCNC(=O)c1ccc(-c2c3nc(c(-c4ccc(S(=O)(=O)[O-])cc4)c4ccc([nH]4)c(-c4ccc(S(=O)(=O)[O-])cc4)c4nc(c(-c5ccc(S(=O)(=O)[O-])cc5)c5ccc2[nH]5)C=C4)C=C3)cc1)C1=Cc2cc(Cl)cc(-c3ccc(O)cc3)c2O[C@@H]1C(F)(F)F
REMARK SMILES IDX 6 1 5 2 4 3 3 4 1 5 2 6 71 8 72 9 88 10 73 11 87 12 74 13
REMARK SMILES IDX 86 14 75 15 78 16 76 17 77 18 89 19 90 20 91 21 92 22 79 23
REMARK SMILES IDX 80 24 85 25 81 26 84 27 82 28 83 29 7 31 8 32 9 33 10 35
REMARK SMILES IDX 11 36 12 37 70 38 13 39 69 40 14 41 15 42 16 43 63 44 17 45
REMARK SMILES IDX 68 46 62 47 64 48 18 49 67 50 61 51 60 52 19 54 49 55 30 56
REMARK SMILES IDX 48 57 31 58 34 59 47 60 65 61 32 62 33 63 46 65 66 66 35 67
REMARK SMILES IDX 20 68 21 69 29 70 22 71 28 72 23 73 24 74 25 75 26 76 27 77
REMARK SMILES IDX 50 78 51 79 59 80 52 81 58 82 53 83 54 84 55 85 56 86 57 87
REMARK SMILES IDX 36 88 37 89 45 90 38 91 44 92 39 93 40 94 41 95 42 96 43 97
REMARK H PARENT 3 7 83 30 8 34 64 53 34 64
REMARK Flexibility Score: inf
ROOT
ATOM      1  C   UNL     1       4.070   4.491   1.302  1.00  0.00     0.023 C 
ENDROOT
BRANCH   1   2
ATOM      2  C   UNL     1       4.335   3.501   0.171  1.00  0.00     0.023 C 
BRANCH   2   3
ATOM      3  C   UNL     1       3.900   2.063   0.429  1.00  0.00     0.116 C 
BRANCH   3   4
ATOM      4  N   UNL     1       2.663   1.674  -0.232  1.00  0.00    -0.352 N 
ATOM      5  O   UNL     1       1.100   0.311  -1.091  1.00  0.00    -0.270 OA
ATOM      6  C   UNL     1       2.275   0.475  -0.761  1.00  0.00     0.251 C 
ATOM      7  H   UNL     1       1.996   2.394  -0.311  1.00  0.00     0.163 HD
BRANCH   6   8
ATOM      8  C   UNL     1       3.199  -0.691  -0.880  1.00  0.00     0.067 C 
ATOM      9  C   UNL     1       4.462  -0.557  -1.317  1.00  0.00     0.025 C 
ATOM     10  C   UNL     1       2.900  -1.774   0.125  1.00  0.00     0.314 C 
ATOM     11  C   UNL     1       5.461  -0.770  -0.236  1.00  0.00     0.019 A 
ATOM     12  O   UNL     1       3.769  -1.654   1.280  1.00  0.00    -0.475 OA
ATOM     13  C   UNL     1       6.737  -0.236  -0.439  1.00  0.00     0.032 A 
ATOM     14  C   UNL     1       5.026  -1.131   1.060  1.00  0.00     0.135 A 
ATOM     15  C   UNL     1       7.543   0.024   0.661  1.00  0.00     0.042 A 
ATOM     16  C   UNL     1       5.813  -0.805   2.184  1.00  0.00     0.026 A 
ATOM     17  Cl  UNL     1       9.049   0.824   0.434  1.00  0.00    -0.084 Cl
ATOM     18  C   UNL     1       7.085  -0.239   1.953  1.00  0.00     0.033 A 
BRANCH  10  19
ATOM     19  C   UNL     1       2.954  -3.173  -0.519  1.00  0.00     0.429 C 
ATOM     20  F   UNL     1       2.563  -4.138   0.346  1.00  0.00    -0.167 F 
ATOM     21  F   UNL     1       2.133  -3.256  -1.595  1.00  0.00    -0.167 F 
ATOM     22  F   UNL     1       4.195  -3.505  -0.951  1.00  0.00    -0.167 F 
ENDBRANCH  10  19
BRANCH  16  23
ATOM     23  C   UNL     1       5.290  -0.846   3.570  1.00  0.00    -0.014 A 
ATOM     24  C   UNL     1       5.333   0.318   4.364  1.00  0.00     0.012 A 
ATOM     25  C   UNL     1       4.732  -2.000   4.142  1.00  0.00     0.012 A 
ATOM     26  C   UNL     1       4.859   0.327   5.675  1.00  0.00     0.047 A 
ATOM     27  C   UNL     1       4.250  -1.994   5.459  1.00  0.00     0.047 A 
ATOM     28  C   UNL     1       4.323  -0.830   6.214  1.00  0.00     0.115 A 
BRANCH  28  29
ATOM     29  O   UNL     1       3.881  -0.769   7.500  1.00  0.00    -0.508 OA
ATOM     30  H   UNL     1       3.945   0.032   7.981  1.00  0.00     0.293 HD
ENDBRANCH  28  29
ENDBRANCH  16  23
ENDBRANCH   6   8
ENDBRANCH   3   4
ENDBRANCH   2   3
ENDBRANCH   1   2
BRANCH   1  31
ATOM     31  C   UNL     1       4.612   4.122   2.683  1.00  0.00     0.116 C 
BRANCH  31  32
ATOM     32  N   UNL     1       6.029   3.795   2.727  1.00  0.00    -0.352 N 
ATOM     33  C   UNL     1       6.926   3.973   3.762  1.00  0.00     0.251 C 
ATOM     34  H   UNL     1       6.398   3.394   1.907  1.00  0.00     0.163 HD
ATOM     35  O   UNL     1       8.094   3.639   3.615  1.00  0.00    -0.269 OA
BRANCH  33  36
ATOM     36  C   UNL     1       6.486   4.602   5.032  1.00  0.00     0.039 A 
ATOM     37  C   UNL     1       7.272   5.619   5.582  1.00  0.00     0.014 A 
ATOM     38  C   UNL     1       5.294   4.229   5.660  1.00  0.00     0.014 A 
ATOM     39  C   UNL     1       6.811   6.329   6.694  1.00  0.00     0.010 A 
ATOM     40  C   UNL     1       4.809   4.968   6.738  1.00  0.00     0.010 A 
ATOM     41  C   UNL     1       5.550   6.042   7.246  1.00  0.00    -0.014 A 
BRANCH  41  42
ATOM     42  C   UNL     1       4.949   6.937   8.264  1.00  0.00     0.031 A 
ATOM     43  C   UNL     1       4.729   6.482   9.676  1.00  0.00     0.074 A 
ATOM     44  C   UNL     1       4.529   8.157   7.871  1.00  0.00     0.049 A 
ATOM     45  N   UNL     1       4.293   7.169  10.701  1.00  0.00    -0.248 NA
ATOM     46  C   UNL     1       5.014   5.070   9.974  1.00  0.00     0.031 C 
ATOM     47  C   UNL     1       4.610   8.676   6.502  1.00  0.00     0.029 A 
ATOM     48  N   UNL     1       3.958   9.182   8.580  1.00  0.00    -0.354 N 
ATOM     49  C   UNL     1       4.251   6.278  11.766  1.00  0.00     0.074 A 
ATOM     50  C   UNL     1       4.659   4.989  11.250  1.00  0.00     0.031 C 
ATOM     51  C   UNL     1       4.149   9.936   6.482  1.00  0.00     0.029 A 
ATOM     52  C   UNL     1       3.722  10.307   7.826  1.00  0.00     0.049 A 
ATOM     53  H   UNL     1       3.738   9.118   9.538  1.00  0.00     0.167 HD
ATOM     54  C   UNL     1       3.916   6.519  13.058  1.00  0.00     0.031 A 
ATOM     55  C   UNL     1       3.238  11.512   8.181  1.00  0.00     0.031 A 
ATOM     56  C   UNL     1       3.489   7.804  13.553  1.00  0.00     0.049 A 
ATOM     57  C   UNL     1       2.899  11.762   9.622  1.00  0.00     0.074 A 
ATOM     58  C   UNL     1       3.201   8.176  14.855  1.00  0.00     0.029 A 
ATOM     59  N   UNL     1       3.269   8.924  12.762  1.00  0.00    -0.354 N 
ATOM     60  N   UNL     1       2.982  10.942  10.643  1.00  0.00    -0.248 NA
ATOM     61  C   UNL     1       2.426  13.110   9.962  1.00  0.00     0.031 C 
ATOM     62  C   UNL     1       2.752   9.502  14.843  1.00  0.00     0.029 A 
ATOM     63  C   UNL     1       2.820   9.977  13.543  1.00  0.00     0.049 A 
ATOM     64  H   UNL     1       3.412   8.964  11.789  1.00  0.00     0.167 HD
ATOM     65  C   UNL     1       2.599  11.684  11.754  1.00  0.00     0.074 A 
ATOM     66  C   UNL     1       2.304  13.022  11.279  1.00  0.00     0.031 C 
ATOM     67  C   UNL     1       2.505  11.296  13.051  1.00  0.00     0.031 A 
BRANCH  54  68
ATOM     68  C   UNL     1       3.986   5.361  14.022  1.00  0.00    -0.014 A 
ATOM     69  C   UNL     1       5.219   4.789  14.387  1.00  0.00     0.010 A 
ATOM     70  C   UNL     1       2.805   4.856  14.598  1.00  0.00     0.010 A 
ATOM     71  C   UNL     1       5.266   3.704  15.268  1.00  0.00     0.020 A 
ATOM     72  C   UNL     1       2.850   3.790  15.502  1.00  0.00     0.020 A 
ATOM     73  C   UNL     1       4.080   3.207  15.815  1.00  0.00     0.054 A 
BRANCH  73  74
ATOM     74  S   UNL     1       4.171   1.803  16.960  1.00  0.00     0.124 S 
ATOM     75  O   UNL     1       4.475   0.696  16.056  1.00  0.00    -0.237 OA
ATOM     76  O   UNL     1       5.253   2.192  17.861  1.00  0.00    -0.237 OA
ATOM     77  O   UNL     1       2.843   1.764  17.568  1.00  0.00    -0.744 OA
ENDBRANCH  73  74
ENDBRANCH  54  68
BRANCH  55  78
ATOM     78  C   UNL     1       3.119  12.590   7.162  1.00  0.00    -0.014 A 
ATOM     79  C   UNL     1       4.010  13.678   7.177  1.00  0.00     0.010 A 
ATOM     80  C   UNL     1       2.142  12.519   6.153  1.00  0.00     0.010 A 
ATOM     81  C   UNL     1       3.917  14.683   6.210  1.00  0.00     0.020 A 
ATOM     82  C   UNL     1       2.064  13.509   5.168  1.00  0.00     0.020 A 
ATOM     83  C   UNL     1       2.947  14.589   5.209  1.00  0.00     0.054 A 
BRANCH  83  84
ATOM     84  S   UNL     1       2.889  15.872   3.926  1.00  0.00     0.124 S 
ATOM     85  O   UNL     1       2.321  17.003   4.652  1.00  0.00    -0.237 OA
ATOM     86  O   UNL     1       4.294  16.003   3.548  1.00  0.00    -0.237 OA
ATOM     87  O   UNL     1       2.029  15.289   2.900  1.00  0.00    -0.744 OA
ENDBRANCH  83  84
ENDBRANCH  55  78
BRANCH  67  88
ATOM     88  C   UNL     1       2.083  12.348  14.044  1.00  0.00    -0.014 A 
ATOM     89  C   UNL     1       0.773  12.861  14.054  1.00  0.00     0.010 A 
ATOM     90  C   UNL     1       3.016  12.836  14.976  1.00  0.00     0.010 A 
ATOM     91  C   UNL     1       0.424  13.890  14.933  1.00  0.00     0.020 A 
ATOM     92  C   UNL     1       2.662  13.842  15.878  1.00  0.00     0.020 A 
ATOM     93  C   UNL     1       1.375  14.381  15.832  1.00  0.00     0.054 A 
BRANCH  93  94
ATOM     94  S   UNL     1       0.905  15.725  16.955  1.00  0.00     0.124 S 
ATOM     95  O   UNL     1       0.918  16.882  16.064  1.00  0.00    -0.237 OA
ATOM     96  O   UNL     1      -0.414  15.308  17.425  1.00  0.00    -0.237 OA
ATOM     97  O   UNL     1       1.955  15.709  17.971  1.00  0.00    -0.744 OA
ENDBRANCH  93  94
ENDBRANCH  67  88
ENDBRANCH  41  42
ENDBRANCH  33  36
ENDBRANCH  31  32
ENDBRANCH   1  31
TORSDOF 17
