REMARK SMILES O=C(CC1c2ccccc2CCc2ccccc21)NCCCCNC(=O)c1ccc(-c2c3nc(c(-c4ccc(S(=O)(=O)[O-])cc4)c4ccc([nH]4)c(-c4ccc(S(=O)(=O)[O-])cc4)c4nc(c(-c5ccc(S(=O)(=O)[O-])cc5)c5ccc2[nH]5)C=C4)C=C3)cc1
REMARK SMILES IDX 21 1 20 2 19 3 1 4 2 5 3 7 4 8 5 9 6 10 10 11 7 12 9 13 8 14
REMARK SMILES IDX 11 15 18 17 13 18 17 19 14 20 16 21 15 22 12 23 22 25 23 26
REMARK SMILES IDX 24 27 25 28 26 30 27 31 28 32 86 33 29 34 85 35 30 36 31 37
REMARK SMILES IDX 32 38 79 39 33 40 84 41 78 42 80 43 34 44 83 45 77 46 76 47
REMARK SMILES IDX 35 49 65 50 46 51 64 52 47 53 50 54 63 55 81 56 48 57 49 58
REMARK SMILES IDX 62 60 82 61 51 62 36 63 37 64 45 65 38 66 44 67 39 68 40 69
REMARK SMILES IDX 41 70 42 71 43 72 66 73 67 74 75 75 68 76 74 77 69 78 70 79
REMARK SMILES IDX 71 80 72 81 73 82 52 83 53 84 61 85 54 86 60 87 55 88 56 89
REMARK SMILES IDX 57 90 58 91 59 92
REMARK H PARENT 19 6 24 29 80 48 50 59
REMARK Flexibility Score: 90.00
ROOT
ATOM      1  C   UNL     1       2.412   0.334   3.451  1.00  0.00     0.023 C 
ENDROOT
BRANCH   1   2
ATOM      2  C   UNL     1       2.058   1.166   2.219  1.00  0.00     0.116 C 
BRANCH   2   3
ATOM      3  N   UNL     1       2.694   0.648   1.023  1.00  0.00    -0.356 N 
ATOM      4  O   UNL     1       0.762   0.521  -0.204  1.00  0.00    -0.275 OA
ATOM      5  C   UNL     1       1.972   0.333  -0.105  1.00  0.00     0.220 C 
ATOM      6  H   UNL     1       3.670   0.519   1.018  1.00  0.00     0.163 HD
BRANCH   5   7
ATOM      7  C   UNL     1       2.755  -0.378  -1.187  1.00  0.00     0.113 C 
BRANCH   7   8
ATOM      8  C   UNL     1       3.837   0.469  -1.882  1.00  0.00     0.059 C 
BRANCH   8   9
ATOM      9  C   UNL     1       3.288   1.608  -2.735  1.00  0.00    -0.037 A 
ATOM     10  C   UNL     1       3.244   2.884  -2.118  1.00  0.00     0.004 A 
ATOM     11  C   UNL     1       2.850   1.497  -4.070  1.00  0.00    -0.044 A 
ATOM     12  C   UNL     1       2.809   4.021  -2.797  1.00  0.00     0.000 A 
ATOM     13  C   UNL     1       2.408   2.667  -4.734  1.00  0.00     0.004 A 
ATOM     14  C   UNL     1       2.391   3.912  -4.112  1.00  0.00     0.000 A 
BRANCH  11  15
ATOM     15  C   UNL     1       2.868   0.255  -4.938  1.00  0.00     0.040 CG0
ATOM     16  G   UNL     1       3.180  -1.120  -4.357  1.00  0.00     0.000 G0
ENDBRANCH  11  15
ENDBRANCH   8   9
BRANCH   8  17
ATOM     17  C   UNL     1       4.865  -0.407  -2.597  1.00  0.00    -0.037 A 
ATOM     18  C   UNL     1       4.541  -1.190  -3.721  1.00  0.00    -0.044 A 
ATOM     19  C   UNL     1       6.183  -0.455  -2.100  1.00  0.00     0.004 A 
ATOM     20  C   UNL     1       5.514  -2.034  -4.284  1.00  0.00     0.004 A 
ATOM     21  C   UNL     1       7.144  -1.283  -2.680  1.00  0.00     0.000 A 
ATOM     22  C   UNL     1       6.806  -2.082  -3.764  1.00  0.00     0.000 A 
BRANCH  18  23
ATOM     23  C   UNL     1       3.180  -1.120  -4.357  1.00  0.00     0.040 CG0
ATOM     24  G   UNL     1       2.868   0.255  -4.938  1.00  0.00     0.000 G0
ENDBRANCH  18  23
ENDBRANCH   8  17
ENDBRANCH   7   8
ENDBRANCH   5   7
ENDBRANCH   2   3
ENDBRANCH   1   2
BRANCH   1  25
ATOM     25  C   UNL     1       3.896   0.334   3.825  1.00  0.00     0.023 C 
BRANCH  25  26
ATOM     26  C   UNL     1       4.515   1.712   4.036  1.00  0.00     0.116 C 
BRANCH  26  27
ATOM     27  N   UNL     1       3.893   2.450   5.123  1.00  0.00    -0.352 N 
ATOM     28  C   UNL     1       4.483   3.104   6.179  1.00  0.00     0.251 C 
ATOM     29  H   UNL     1       2.910   2.486   5.100  1.00  0.00     0.163 HD
ATOM     30  O   UNL     1       3.785   3.551   7.086  1.00  0.00    -0.269 OA
BRANCH  28  31
ATOM     31  C   UNL     1       5.955   3.241   6.240  1.00  0.00     0.039 A 
ATOM     32  C   UNL     1       6.608   2.978   7.447  1.00  0.00     0.014 A 
ATOM     33  C   UNL     1       6.693   3.617   5.114  1.00  0.00     0.014 A 
ATOM     34  C   UNL     1       8.003   3.026   7.506  1.00  0.00     0.010 A 
ATOM     35  C   UNL     1       8.086   3.589   5.155  1.00  0.00     0.010 A 
ATOM     36  C   UNL     1       8.757   3.292   6.351  1.00  0.00    -0.014 A 
BRANCH  36  37
ATOM     37  C   UNL     1      10.244   3.250   6.373  1.00  0.00     0.031 A 
ATOM     38  C   UNL     1      11.045   4.490   6.074  1.00  0.00     0.074 A 
ATOM     39  C   UNL     1      10.875   2.081   6.600  1.00  0.00     0.049 A 
ATOM     40  N   UNL     1      12.343   4.632   5.993  1.00  0.00    -0.248 NA
ATOM     41  C   UNL     1      10.289   5.725   5.809  1.00  0.00     0.031 C 
ATOM     42  C   UNL     1      10.217   0.799   6.868  1.00  0.00     0.029 A 
ATOM     43  N   UNL     1      12.214   1.777   6.638  1.00  0.00    -0.354 N 
ATOM     44  C   UNL     1      12.559   5.963   5.652  1.00  0.00     0.074 A 
ATOM     45  C   UNL     1      11.257   6.573   5.493  1.00  0.00     0.031 C 
ATOM     46  C   UNL     1      11.152  -0.143   7.071  1.00  0.00     0.029 A 
ATOM     47  C   UNL     1      12.474   0.452   6.904  1.00  0.00     0.049 A 
ATOM     48  H   UNL     1      12.922   2.445   6.489  1.00  0.00     0.167 HD
ATOM     49  C   UNL     1      13.733   6.622   5.502  1.00  0.00     0.031 A 
ATOM     50  C   UNL     1      13.642  -0.214   6.995  1.00  0.00     0.031 A 
ATOM     51  C   UNL     1      15.027   6.015   5.669  1.00  0.00     0.049 A 
ATOM     52  C   UNL     1      14.932   0.537   6.804  1.00  0.00     0.074 A 
ATOM     53  C   UNL     1      16.273   6.614   5.595  1.00  0.00     0.029 A 
ATOM     54  N   UNL     1      15.246   4.672   5.938  1.00  0.00    -0.354 N 
ATOM     55  N   UNL     1      15.114   1.811   6.549  1.00  0.00    -0.248 NA
ATOM     56  C   UNL     1      16.175  -0.239   6.922  1.00  0.00     0.031 C 
ATOM     57  C   UNL     1      17.245   5.623   5.758  1.00  0.00     0.029 A 
ATOM     58  C   UNL     1      16.606   4.418   6.003  1.00  0.00     0.049 A 
ATOM     59  H   UNL     1      14.538   3.999   6.064  1.00  0.00     0.167 HD
ATOM     60  C   UNL     1      16.493   1.995   6.508  1.00  0.00     0.074 A 
ATOM     61  C   UNL     1      17.095   0.706   6.779  1.00  0.00     0.031 C 
ATOM     62  C   UNL     1      17.195   3.130   6.272  1.00  0.00     0.031 A 
BRANCH  49  63
ATOM     63  C   UNL     1      13.673   8.081   5.127  1.00  0.00    -0.014 A 
ATOM     64  C   UNL     1      13.199   9.049   6.031  1.00  0.00     0.010 A 
ATOM     65  C   UNL     1      14.142   8.497   3.867  1.00  0.00     0.010 A 
ATOM     66  C   UNL     1      13.155  10.398   5.668  1.00  0.00     0.020 A 
ATOM     67  C   UNL     1      14.130   9.849   3.511  1.00  0.00     0.020 A 
ATOM     68  C   UNL     1      13.620  10.789   4.409  1.00  0.00     0.054 A 
BRANCH  68  69
ATOM     69  S   UNL     1      13.573  12.549   3.975  1.00  0.00     0.124 S 
ATOM     70  O   UNL     1      12.141  12.777   3.796  1.00  0.00    -0.237 OA
ATOM     71  O   UNL     1      14.167  13.184   5.149  1.00  0.00    -0.237 OA
ATOM     72  O   UNL     1      14.373  12.628   2.755  1.00  0.00    -0.744 OA
ENDBRANCH  68  69
ENDBRANCH  49  63
BRANCH  50  73
ATOM     73  C   UNL     1      13.647  -1.673   7.293  1.00  0.00    -0.014 A 
ATOM     74  C   UNL     1      14.123  -2.149   8.528  1.00  0.00     0.010 A 
ATOM     75  C   UNL     1      13.170  -2.597   6.345  1.00  0.00     0.010 A 
ATOM     76  C   UNL     1      14.143  -3.520   8.800  1.00  0.00     0.020 A 
ATOM     77  C   UNL     1      13.159  -3.966   6.625  1.00  0.00     0.020 A 
ATOM     78  C   UNL     1      13.658  -4.420   7.847  1.00  0.00     0.054 A 
BRANCH  78  79
ATOM     79  S   UNL     1      13.650  -6.191   8.241  1.00  0.00     0.124 S 
ATOM     80  O   UNL     1      15.069  -6.524   8.170  1.00  0.00    -0.237 OA
ATOM     81  O   UNL     1      13.060  -6.214   9.577  1.00  0.00    -0.237 OA
ATOM     82  O   UNL     1      12.816  -6.771   7.190  1.00  0.00    -0.744 OA
ENDBRANCH  78  79
ENDBRANCH  50  73
BRANCH  62  83
ATOM     83  C   UNL     1      18.698   3.045   6.332  1.00  0.00    -0.014 A 
ATOM     84  C   UNL     1      19.435   2.380   5.336  1.00  0.00     0.010 A 
ATOM     85  C   UNL     1      19.386   3.690   7.376  1.00  0.00     0.010 A 
ATOM     86  C   UNL     1      20.830   2.335   5.401  1.00  0.00     0.020 A 
ATOM     87  C   UNL     1      20.782   3.675   7.428  1.00  0.00     0.020 A 
ATOM     88  C   UNL     1      21.495   2.984   6.446  1.00  0.00     0.054 A 
BRANCH  88  89
ATOM     89  S   UNL     1      23.308   2.949   6.482  1.00  0.00     0.124 S 
ATOM     90  O   UNL     1      23.578   1.566   6.865  1.00  0.00    -0.237 OA
ATOM     91  O   UNL     1      23.662   3.301   5.109  1.00  0.00    -0.237 OA
ATOM     92  O   UNL     1      23.655   3.952   7.486  1.00  0.00    -0.744 OA
ENDBRANCH  88  89
ENDBRANCH  62  83
ENDBRANCH  36  37
ENDBRANCH  28  31
ENDBRANCH  26  27
ENDBRANCH  25  26
ENDBRANCH   1  25
TORSDOF 15
