REMARK SMILES Cc1ccccc1NC(=S)NN1C(=O)CS[C@H]1c1ccccc1C(=O)NCCCCNC(=O)c1ccc(-c2c3nc(c(-c4ccc(S(=O)(=O)[O-])cc4)c4ccc([nH]4)c(-c4ccc(S(=O)(=O)[O-])cc4)c4nc(c(-c5ccc(S(=O)(=O)[O-])cc5)c5ccc2[nH]5)C=C4)C=C3)cc1
REMARK SMILES IDX 27 1 26 2 24 3 25 4 23 6 18 7 19 8 20 9 22 10 21 11 17 12
REMARK SMILES IDX 12 13 13 14 14 15 15 16 16 17 11 18 9 20 10 21 8 22 7 24
REMARK SMILES IDX 1 25 2 26 3 27 4 28 6 29 5 30 28 31 29 32 30 33 31 34 32 35
REMARK SMILES IDX 33 37 34 38 35 39 93 40 36 41 92 42 37 43 38 44 39 45 86 46
REMARK SMILES IDX 40 47 91 48 85 49 87 50 41 51 90 52 84 53 83 54 42 56 72 57
REMARK SMILES IDX 53 58 71 59 54 60 57 61 70 62 88 63 55 64 56 65 69 67 89 68
REMARK SMILES IDX 58 69 43 70 44 71 52 72 45 73 51 74 46 75 47 76 48 77 49 78
REMARK SMILES IDX 50 79 73 80 74 81 82 82 75 83 81 84 76 85 77 86 78 87 79 88
REMARK SMILES IDX 80 89 59 90 60 91 68 92 61 93 67 94 62 95 63 96 64 97 65 98
REMARK SMILES IDX 66 99
REMARK H PARENT 26 5 11 19 8 23 31 36 87 55 57 66
REMARK Flexibility Score: inf
ROOT
ATOM      1  C   UNL     1      -3.243   2.900   0.510  1.00  0.00     0.116 C 
ENDROOT
BRANCH   1   2
ATOM      2  N   UNL     1      -2.489   4.108   1.274  1.00  0.00    -0.352 N 
ATOM      3  C   UNL     1      -2.493   5.447   1.064  1.00  0.00     0.251 C 
ATOM      4  O   UNL     1      -1.750   6.217   1.654  1.00  0.00    -0.269 OA
ATOM      5  H   UNL     1      -1.926   3.819   2.028  1.00  0.00     0.163 HD
BRANCH   3   6
ATOM      6  C   UNL     1      -3.526   5.925   0.158  1.00  0.00     0.046 A 
ATOM      7  C   UNL     1      -4.010   5.088  -0.858  1.00  0.00    -0.001 A 
ATOM      8  C   UNL     1      -5.347   5.363  -1.248  1.00  0.00     0.007 A 
ATOM      9  C   UNL     1      -6.077   6.459  -0.716  1.00  0.00     0.000 A 
ATOM     10  C   UNL     1      -4.199   7.083   0.608  1.00  0.00     0.014 A 
ATOM     11  C   UNL     1      -5.481   7.356   0.165  1.00  0.00     0.001 A 
BRANCH   7  12
ATOM     12  C   UNL     1      -3.179   3.804  -1.390  1.00  0.00     0.197 C 
ATOM     13  N   UNL     1      -1.560   3.275  -0.551  1.00  0.00    -0.236 N 
ATOM     14  C   UNL     1      -1.599   1.980   0.694  1.00  0.00     0.252 C 
ATOM     15  O   UNL     1      -0.909   2.094   1.717  1.00  0.00    -0.272 OA
ATOM     16  C   UNL     1      -3.324   0.890   0.538  1.00  0.00     0.174 C 
ATOM     17  S   UNL     1      -4.731   2.055  -1.010  1.00  0.00    -0.120 SA
BRANCH  13  18
ATOM     18  N   UNL     1      -0.330   3.894  -0.824  1.00  0.00    -0.270 N 
ATOM     19  H   UNL     1      -0.337   4.684  -1.412  1.00  0.00     0.191 HD
BRANCH  18  20
ATOM     20  C   UNL     1       0.885   3.478  -0.330  1.00  0.00     0.189 C 
ATOM     21  S   UNL     1       2.076   4.665  -0.230  1.00  0.00    -0.039 S 
BRANCH  20  22
ATOM     22  N   UNL     1       1.193   2.213   0.137  1.00  0.00    -0.331 N 
ATOM     23  H   UNL     1       1.803   2.193   0.909  1.00  0.00     0.169 HD
BRANCH  22  24
ATOM     24  C   UNL     1       0.761   0.927  -0.329  1.00  0.00     0.043 A 
ATOM     25  C   UNL     1       2.792   0.654  -2.167  1.00  0.00     0.046 C 
ATOM     26  C   UNL     1       1.287   0.513  -1.979  1.00  0.00    -0.028 A 
ATOM     27  C   UNL     1       0.353  -0.681  -2.949  1.00  0.00     0.005 A 
ATOM     28  C   UNL     1      -1.055  -1.552  -2.243  1.00  0.00     0.000 A 
ATOM     29  C   UNL     1      -0.588  -0.043   0.434  1.00  0.00     0.026 A 
ATOM     30  C   UNL     1      -1.558  -1.207  -0.552  1.00  0.00     0.002 A 
ENDBRANCH  22  24
ENDBRANCH  20  22
ENDBRANCH  18  20
ENDBRANCH  13  18
ENDBRANCH   7  12
ENDBRANCH   3   6
ENDBRANCH   1   2
BRANCH   1  31
ATOM     31  C   UNL     1      -2.438   1.612  -1.081  1.00  0.00     0.023 C 
BRANCH  31  32
ATOM     32  C   UNL     1      -0.887   0.491  -1.542  1.00  0.00     0.023 C 
BRANCH  32  33
ATOM     33  C   UNL     1       0.466  -1.126  -0.889  1.00  0.00     0.116 C 
BRANCH  33  34
ATOM     34  N   UNL     1       0.208  -2.727  -0.457  1.00  0.00    -0.352 N 
ATOM     35  C   UNL     1       1.256  -3.650  -0.375  1.00  0.00     0.251 C 
ATOM     36  H   UNL     1      -0.708  -3.025  -0.255  1.00  0.00     0.163 HD
ATOM     37  O   UNL     1       1.971  -4.031  -1.288  1.00  0.00    -0.269 OA
BRANCH  35  38
ATOM     38  C   UNL     1       1.702  -3.760   1.037  1.00  0.00     0.039 A 
ATOM     39  C   UNL     1       1.000  -4.522   1.980  1.00  0.00     0.014 A 
ATOM     40  C   UNL     1       2.325  -2.566   1.386  1.00  0.00     0.014 A 
ATOM     41  C   UNL     1       0.790  -3.985   3.249  1.00  0.00     0.010 A 
ATOM     42  C   UNL     1       1.873  -1.935   2.511  1.00  0.00     0.010 A 
ATOM     43  C   UNL     1       1.138  -2.654   3.459  1.00  0.00    -0.014 A 
BRANCH  43  44
ATOM     44  C   UNL     1       1.013  -1.922   4.702  1.00  0.00     0.031 A 
ATOM     45  C   UNL     1       2.275  -1.762   5.459  1.00  0.00     0.074 A 
ATOM     46  C   UNL     1      -0.125  -1.261   4.999  1.00  0.00     0.049 A 
ATOM     47  N   UNL     1       2.350  -1.317   6.658  1.00  0.00    -0.248 NA
ATOM     48  C   UNL     1       3.587  -2.149   4.917  1.00  0.00     0.031 C 
ATOM     49  C   UNL     1      -0.322  -0.204   5.987  1.00  0.00     0.029 A 
ATOM     50  N   UNL     1      -1.416  -1.599   4.598  1.00  0.00    -0.354 N 
ATOM     51  C   UNL     1       3.679  -1.067   6.915  1.00  0.00     0.074 A 
ATOM     52  C   UNL     1       4.416  -1.691   5.854  1.00  0.00     0.031 C 
ATOM     53  C   UNL     1      -1.625  -0.159   6.321  1.00  0.00     0.029 A 
ATOM     54  C   UNL     1      -2.275  -1.288   5.671  1.00  0.00     0.049 A 
ATOM     55  H   UNL     1      -1.679  -1.981   3.730  1.00  0.00     0.167 HD
ATOM     56  C   UNL     1       3.985  -0.226   7.933  1.00  0.00     0.031 A 
ATOM     57  C   UNL     1      -2.886  -2.310   6.347  1.00  0.00     0.031 A 
ATOM     58  C   UNL     1       2.812  -0.021   8.777  1.00  0.00     0.049 A 
ATOM     59  C   UNL     1      -2.355  -2.481   7.759  1.00  0.00     0.074 A 
ATOM     60  C   UNL     1       1.888   1.002   8.877  1.00  0.00     0.029 A 
ATOM     61  N   UNL     1       2.232  -1.140   9.370  1.00  0.00    -0.354 N 
ATOM     62  N   UNL     1      -1.221  -1.993   8.188  1.00  0.00    -0.248 NA
ATOM     63  C   UNL     1      -3.075  -3.206   8.803  1.00  0.00     0.031 C 
ATOM     64  C   UNL     1       0.684   0.437   9.391  1.00  0.00     0.029 A 
ATOM     65  C   UNL     1       0.901  -0.905   9.658  1.00  0.00     0.049 A 
ATOM     66  H   UNL     1       2.706  -1.983   9.558  1.00  0.00     0.167 HD
ATOM     67  C   UNL     1      -1.039  -2.327   9.503  1.00  0.00     0.074 A 
ATOM     68  C   UNL     1      -2.237  -3.075   9.846  1.00  0.00     0.031 C 
ATOM     69  C   UNL     1       0.076  -1.976  10.212  1.00  0.00     0.031 A 
BRANCH  56  70
ATOM     70  C   UNL     1       5.265   0.565   8.024  1.00  0.00    -0.014 A 
ATOM     71  C   UNL     1       5.427   1.472   9.087  1.00  0.00     0.010 A 
ATOM     72  C   UNL     1       6.280   0.570   7.041  1.00  0.00     0.010 A 
ATOM     73  C   UNL     1       6.530   2.337   9.162  1.00  0.00     0.020 A 
ATOM     74  C   UNL     1       7.402   1.407   7.117  1.00  0.00     0.020 A 
ATOM     75  C   UNL     1       7.513   2.298   8.175  1.00  0.00     0.054 A 
BRANCH  75  76
ATOM     76  S   UNL     1       8.922   3.430   8.280  1.00  0.00     0.124 S 
ATOM     77  O   UNL     1       8.284   4.736   8.137  1.00  0.00    -0.237 OA
ATOM     78  O   UNL     1       9.467   3.133   9.601  1.00  0.00    -0.237 OA
ATOM     79  O   UNL     1       9.773   3.032   7.159  1.00  0.00    -0.744 OA
ENDBRANCH  75  76
ENDBRANCH  56  70
BRANCH  57  80
ATOM     80  C   UNL     1      -3.321  -3.416   5.433  1.00  0.00    -0.014 A 
ATOM     81  C   UNL     1      -4.352  -3.119   4.513  1.00  0.00     0.010 A 
ATOM     82  C   UNL     1      -2.461  -4.494   5.152  1.00  0.00     0.010 A 
ATOM     83  C   UNL     1      -4.401  -3.749   3.265  1.00  0.00     0.020 A 
ATOM     84  C   UNL     1      -2.518  -5.136   3.903  1.00  0.00     0.020 A 
ATOM     85  C   UNL     1      -3.446  -4.714   2.947  1.00  0.00     0.054 A 
BRANCH  85  86
ATOM     86  S   UNL     1      -3.260  -5.195   1.200  1.00  0.00     0.124 S 
ATOM     87  O   UNL     1      -4.298  -6.205   1.042  1.00  0.00    -0.237 OA
ATOM     88  O   UNL     1      -3.494  -3.929   0.505  1.00  0.00    -0.237 OA
ATOM     89  O   UNL     1      -1.884  -5.677   1.124  1.00  0.00    -0.744 OA
ENDBRANCH  85  86
ENDBRANCH  57  80
BRANCH  69  90
ATOM     90  C   UNL     1       0.474  -2.570  11.546  1.00  0.00    -0.014 A 
ATOM     91  C   UNL     1      -0.002  -3.797  12.033  1.00  0.00     0.010 A 
ATOM     92  C   UNL     1       1.483  -1.931  12.308  1.00  0.00     0.010 A 
ATOM     93  C   UNL     1       0.430  -4.310  13.263  1.00  0.00     0.020 A 
ATOM     94  C   UNL     1       1.970  -2.466  13.502  1.00  0.00     0.020 A 
ATOM     95  C   UNL     1       1.407  -3.635  13.994  1.00  0.00     0.054 A 
BRANCH  95  96
ATOM     96  S   UNL     1       1.961  -4.314  15.575  1.00  0.00     0.124 S 
ATOM     97  O   UNL     1       0.923  -3.833  16.484  1.00  0.00    -0.237 OA
ATOM     98  O   UNL     1       1.960  -5.755  15.330  1.00  0.00    -0.237 OA
ATOM     99  O   UNL     1       3.282  -3.721  15.761  1.00  0.00    -0.744 OA
ENDBRANCH  95  96
ENDBRANCH  69  90
ENDBRANCH  43  44
ENDBRANCH  35  38
ENDBRANCH  33  34
ENDBRANCH  32  33
ENDBRANCH  31  32
ENDBRANCH   1  31
TORSDOF 19
