REMARK SMILES CN(CCCC(=O)NCCCCNC(=O)c1ccc(-c2c3nc(c(-c4ccc(S(=O)(=O)[O-])cc4)c4ccc([nH]4)c(-c4ccc(S(=O)(=O)[O-])cc4)c4nc(c(-c5ccc(S(=O)(=O)[O-])cc5)c5ccc2[nH]5)C=C4)C=C3)cc1)c1cccc(F)c1C(N)=O
REMARK SMILES IDX 9 1 8 2 6 3 7 4 5 6 4 7 3 8 2 9 1 10 76 11 77 12 82 13 78 14
REMARK SMILES IDX 80 15 79 16 81 17 83 18 84 19 85 20 10 23 11 24 12 25 13 26
REMARK SMILES IDX 14 27 15 29 16 30 17 31 75 32 18 33 74 34 19 35 20 36 21 37
REMARK SMILES IDX 68 38 22 39 73 40 67 41 69 42 23 43 72 44 66 45 65 46 24 48
REMARK SMILES IDX 54 49 35 50 53 51 36 52 39 53 52 54 70 55 37 56 38 57 51 59
REMARK SMILES IDX 71 60 40 61 25 62 26 63 34 64 27 65 33 66 28 67 29 68 30 69
REMARK SMILES IDX 31 70 32 71 55 72 56 73 64 74 57 75 63 76 58 77 59 78 60 79
REMARK SMILES IDX 61 80 62 81 41 82 42 83 50 84 43 85 49 86 44 87 45 88 46 89
REMARK SMILES IDX 47 90 48 91
REMARK H PARENT 8 5 84 21 84 22 13 28 69 47 39 58
REMARK Flexibility Score: inf
ROOT
ATOM      1  C   UNL     1       1.109   4.040  -1.173  1.00  0.00     0.116 C 
ENDROOT
BRANCH   1   2
ATOM      2  N   UNL     1       0.008   4.905  -1.519  1.00  0.00    -0.356 N 
ATOM      3  C   UNL     1      -1.292   4.820  -1.126  1.00  0.00     0.220 C 
ATOM      4  O   UNL     1      -2.112   5.579  -1.645  1.00  0.00    -0.275 OA
ATOM      5  H   UNL     1       0.226   5.655  -2.118  1.00  0.00     0.163 HD
BRANCH   3   6
ATOM      6  C   UNL     1      -1.692   3.902   0.015  1.00  0.00     0.102 C 
BRANCH   6   7
ATOM      7  C   UNL     1      -1.951   2.413  -0.249  1.00  0.00     0.031 C 
BRANCH   7   8
ATOM      8  C   UNL     1      -0.820   1.384  -0.400  1.00  0.00     0.117 C 
BRANCH   8   9
ATOM      9  N   UNL     1      -0.052   0.889   0.782  1.00  0.00    -0.374 N 
ATOM     10  C   UNL     1       0.444  -0.479   0.599  1.00  0.00     0.143 C 
BRANCH   9  11
ATOM     11  C   UNL     1       0.655   1.764   1.616  1.00  0.00     0.052 A 
ATOM     12  C   UNL     1      -0.174   2.546   2.458  1.00  0.00     0.027 A 
ATOM     13  C   UNL     1       2.062   2.000   1.719  1.00  0.00     0.098 A 
ATOM     14  C   UNL     1       0.285   3.645   3.186  1.00  0.00     0.005 A 
ATOM     15  C   UNL     1       2.495   3.131   2.454  1.00  0.00     0.138 A 
ATOM     16  C   UNL     1       1.624   3.965   3.145  1.00  0.00     0.040 A 
ATOM     17  F   UNL     1       3.791   3.486   2.497  1.00  0.00    -0.206 F 
BRANCH  13  18
ATOM     18  C   UNL     1       3.154   1.166   1.087  1.00  0.00     0.253 C 
ATOM     19  N   UNL     1       4.442   1.329   1.546  1.00  0.00    -0.365 N 
ATOM     20  O   UNL     1       2.981   0.353   0.200  1.00  0.00    -0.269 OA
ATOM     21  H   UNL     1       4.630   1.976   2.264  1.00  0.00     0.159 HD
ATOM     22  H   UNL     1       5.174   0.798   1.157  1.00  0.00     0.159 HD
ENDBRANCH  13  18
ENDBRANCH   9  11
ENDBRANCH   8   9
ENDBRANCH   7   8
ENDBRANCH   6   7
ENDBRANCH   3   6
ENDBRANCH   1   2
BRANCH   1  23
ATOM     23  C   UNL     1       1.431   3.096  -2.332  1.00  0.00     0.023 C 
BRANCH  23  24
ATOM     24  C   UNL     1       2.394   3.690  -3.341  1.00  0.00     0.023 C 
BRANCH  24  25
ATOM     25  C   UNL     1       3.798   3.844  -2.787  1.00  0.00     0.116 C 
BRANCH  25  26
ATOM     26  N   UNL     1       4.476   2.576  -2.537  1.00  0.00    -0.352 N 
ATOM     27  C   UNL     1       5.793   2.282  -2.817  1.00  0.00     0.251 C 
ATOM     28  H   UNL     1       3.939   1.860  -2.128  1.00  0.00     0.163 HD
ATOM     29  O   UNL     1       6.260   1.163  -2.651  1.00  0.00    -0.269 OA
BRANCH  27  30
ATOM     30  C   UNL     1       6.622   3.373  -3.365  1.00  0.00     0.039 A 
ATOM     31  C   UNL     1       7.179   3.238  -4.637  1.00  0.00     0.014 A 
ATOM     32  C   UNL     1       6.675   4.589  -2.680  1.00  0.00     0.014 A 
ATOM     33  C   UNL     1       7.733   4.358  -5.260  1.00  0.00     0.010 A 
ATOM     34  C   UNL     1       7.129   5.718  -3.344  1.00  0.00     0.010 A 
ATOM     35  C   UNL     1       7.671   5.615  -4.636  1.00  0.00    -0.014 A 
BRANCH  35  36
ATOM     36  C   UNL     1       8.204   6.845  -5.276  1.00  0.00     0.031 A 
ATOM     37  C   UNL     1       9.302   7.605  -4.580  1.00  0.00     0.074 A 
ATOM     38  C   UNL     1       7.650   7.332  -6.405  1.00  0.00     0.049 A 
ATOM     39  N   UNL     1       9.796   8.783  -4.856  1.00  0.00    -0.248 NA
ATOM     40  C   UNL     1       9.890   6.970  -3.387  1.00  0.00     0.031 C 
ATOM     41  C   UNL     1       6.563   6.706  -7.162  1.00  0.00     0.029 A 
ATOM     42  N   UNL     1       7.919   8.482  -7.105  1.00  0.00    -0.354 N 
ATOM     43  C   UNL     1      10.721   9.043  -3.852  1.00  0.00     0.074 A 
ATOM     44  C   UNL     1      10.677   7.931  -2.931  1.00  0.00     0.031 C 
ATOM     45  C   UNL     1       6.274   7.468  -8.230  1.00  0.00     0.029 A 
ATOM     46  C   UNL     1       7.116   8.661  -8.208  1.00  0.00     0.049 A 
ATOM     47  H   UNL     1       8.621   9.120  -6.842  1.00  0.00     0.167 HD
ATOM     48  C   UNL     1      11.552  10.103  -3.720  1.00  0.00     0.031 A 
ATOM     49  C   UNL     1       7.054   9.678  -9.091  1.00  0.00     0.031 A 
ATOM     50  C   UNL     1      11.614  11.190  -4.657  1.00  0.00     0.049 A 
ATOM     51  C   UNL     1       7.985  10.851  -8.923  1.00  0.00     0.074 A 
ATOM     52  C   UNL     1      12.459  12.285  -4.646  1.00  0.00     0.029 A 
ATOM     53  N   UNL     1      10.807  11.314  -5.777  1.00  0.00    -0.354 N 
ATOM     54  N   UNL     1       8.885  11.062  -7.991  1.00  0.00    -0.248 NA
ATOM     55  C   UNL     1       7.902  11.918  -9.930  1.00  0.00     0.031 C 
ATOM     56  C   UNL     1      12.128  13.098  -5.733  1.00  0.00     0.029 A 
ATOM     57  C   UNL     1      11.123  12.476  -6.458  1.00  0.00     0.049 A 
ATOM     58  H   UNL     1      10.112  10.671  -6.048  1.00  0.00     0.167 HD
ATOM     59  C   UNL     1       9.502  12.263  -8.324  1.00  0.00     0.074 A 
ATOM     60  C   UNL     1       8.875  12.732  -9.543  1.00  0.00     0.031 C 
ATOM     61  C   UNL     1      10.504  12.914  -7.683  1.00  0.00     0.031 A 
BRANCH  48  62
ATOM     62  C   UNL     1      12.453  10.134  -2.514  1.00  0.00    -0.014 A 
ATOM     63  C   UNL     1      13.505   9.211  -2.366  1.00  0.00     0.010 A 
ATOM     64  C   UNL     1      12.260  11.114  -1.525  1.00  0.00     0.010 A 
ATOM     65  C   UNL     1      14.315   9.236  -1.229  1.00  0.00     0.020 A 
ATOM     66  C   UNL     1      13.090  11.165  -0.402  1.00  0.00     0.020 A 
ATOM     67  C   UNL     1      14.100  10.213  -0.252  1.00  0.00     0.054 A 
BRANCH  67  68
ATOM     68  S   UNL     1      15.179  10.234   1.205  1.00  0.00     0.124 S 
ATOM     69  O   UNL     1      14.715   9.059   1.939  1.00  0.00    -0.237 OA
ATOM     70  O   UNL     1      16.512  10.120   0.617  1.00  0.00    -0.237 OA
ATOM     71  O   UNL     1      14.886  11.518   1.836  1.00  0.00    -0.744 OA
ENDBRANCH  67  68
ENDBRANCH  48  62
BRANCH  49  72
ATOM     72  C   UNL     1       6.087   9.629 -10.225  1.00  0.00    -0.014 A 
ATOM     73  C   UNL     1       6.544   9.466 -11.545  1.00  0.00     0.010 A 
ATOM     74  C   UNL     1       4.704   9.741  -9.992  1.00  0.00     0.010 A 
ATOM     75  C   UNL     1       5.640   9.437 -12.611  1.00  0.00     0.020 A 
ATOM     76  C   UNL     1       3.795   9.683 -11.053  1.00  0.00     0.020 A 
ATOM     77  C   UNL     1       4.270   9.543 -12.358  1.00  0.00     0.054 A 
BRANCH  77  78
ATOM     78  S   UNL     1       3.114   9.456 -13.754  1.00  0.00     0.124 S 
ATOM     79  O   UNL     1       3.332  10.742 -14.409  1.00  0.00    -0.237 OA
ATOM     80  O   UNL     1       3.591   8.284 -14.485  1.00  0.00    -0.237 OA
ATOM     81  O   UNL     1       1.812   9.293 -13.111  1.00  0.00    -0.744 OA
ENDBRANCH  77  78
ENDBRANCH  49  72
BRANCH  61  82
ATOM     82  C   UNL     1      11.044  14.170  -8.313  1.00  0.00    -0.014 A 
ATOM     83  C   UNL     1      10.320  15.374  -8.293  1.00  0.00     0.010 A 
ATOM     84  C   UNL     1      12.348  14.160  -8.845  1.00  0.00     0.010 A 
ATOM     85  C   UNL     1      10.886  16.544  -8.809  1.00  0.00     0.020 A 
ATOM     86  C   UNL     1      12.927  15.332  -9.334  1.00  0.00     0.020 A 
ATOM     87  C   UNL     1      12.188  16.517  -9.320  1.00  0.00     0.054 A 
BRANCH  87  88
ATOM     88  S   UNL     1      12.927  18.064  -9.911  1.00  0.00     0.124 S 
ATOM     89  O   UNL     1      12.202  18.290 -11.158  1.00  0.00    -0.237 OA
ATOM     90  O   UNL     1      12.624  18.997  -8.829  1.00  0.00    -0.237 OA
ATOM     91  O   UNL     1      14.343  17.736 -10.064  1.00  0.00    -0.744 OA
ENDBRANCH  87  88
ENDBRANCH  61  82
ENDBRANCH  35  36
ENDBRANCH  27  30
ENDBRANCH  25  26
ENDBRANCH  24  25
ENDBRANCH  23  24
ENDBRANCH   1  23
TORSDOF 19
