REMARK SMILES CCCCCO[C@H](C(=O)NCCCCNC(=O)c1ccc(-c2c3nc(c(-c4ccc(S(=O)(=O)[O-])cc4)c4ccc([nH]4)c(-c4ccc(S(=O)(=O)[O-])cc4)c4nc(c(-c5ccc(S(=O)(=O)[O-])cc5)c5ccc2[nH]5)C=C4)C=C3)cc1)c1ccccc1
REMARK SMILES IDX 11 1 10 2 8 3 9 4 7 6 6 7 5 8 4 9 3 10 2 11 1 12 78 13 79 14
REMARK SMILES IDX 83 15 80 16 82 17 81 18 12 19 13 20 14 21 15 22 16 23 17 25
REMARK SMILES IDX 18 26 19 27 77 28 20 29 76 30 21 31 22 32 23 33 70 34 24 35
REMARK SMILES IDX 75 36 69 37 71 38 25 39 74 40 68 41 67 42 26 44 56 45 37 46
REMARK SMILES IDX 55 47 38 48 41 49 54 50 72 51 39 52 40 53 53 55 73 56 42 57
REMARK SMILES IDX 27 58 28 59 36 60 29 61 35 62 30 63 31 64 32 65 33 66 34 67
REMARK SMILES IDX 57 68 58 69 66 70 59 71 65 72 60 73 61 74 62 75 63 76 64 77
REMARK SMILES IDX 43 78 44 79 52 80 45 81 51 82 46 83 47 84 48 85 49 86 50 87
REMARK H PARENT 10 5 15 24 71 43 41 54
REMARK Flexibility Score: inf
ROOT
ATOM      1  C   UNL     1      -0.757  -5.974  -2.261  1.00  0.00     0.116 C 
ENDROOT
BRANCH   1   2
ATOM      2  N   UNL     1      -1.202  -4.888  -1.414  1.00  0.00    -0.354 N 
ATOM      3  C   UNL     1      -0.766  -3.585  -1.387  1.00  0.00     0.253 C 
ATOM      4  O   UNL     1      -0.820  -3.044  -0.277  1.00  0.00    -0.272 OA
ATOM      5  H   UNL     1      -1.913  -5.113  -0.770  1.00  0.00     0.163 HD
BRANCH   3   6
ATOM      6  C   UNL     1      -0.330  -2.818  -2.706  1.00  0.00     0.237 C 
BRANCH   6   7
ATOM      7  O   UNL     1      -0.887  -1.494  -2.893  1.00  0.00    -0.364 OA
BRANCH   7   8
ATOM      8  C   UNL     1      -1.111  -0.644  -1.759  1.00  0.00     0.162 C 
BRANCH   8   9
ATOM      9  C   UNL     1       0.147   0.002  -1.160  1.00  0.00     0.028 C 
BRANCH   9  10
ATOM     10  C   UNL     1       0.738   1.092  -2.073  1.00  0.00     0.002 C 
BRANCH  10  11
ATOM     11  C   UNL     1       0.278   2.516  -1.771  1.00  0.00    -0.003 C 
ATOM     12  C   UNL     1       0.955   3.108  -0.546  1.00  0.00     0.004 C 
ENDBRANCH  10  11
ENDBRANCH   9  10
ENDBRANCH   8   9
ENDBRANCH   7   8
ENDBRANCH   6   7
BRANCH   6  13
ATOM     13  C   UNL     1       1.188  -2.808  -2.973  1.00  0.00    -0.010 A 
ATOM     14  C   UNL     1       1.976  -3.953  -2.884  1.00  0.00     0.007 A 
ATOM     15  C   UNL     1       1.871  -1.667  -3.393  1.00  0.00     0.007 A 
ATOM     16  C   UNL     1       3.371  -3.924  -2.900  1.00  0.00     0.000 A 
ATOM     17  C   UNL     1       3.270  -1.601  -3.414  1.00  0.00     0.000 A 
ATOM     18  C   UNL     1       4.024  -2.724  -3.111  1.00  0.00     0.000 A 
ENDBRANCH   6  13
ENDBRANCH   3   6
ENDBRANCH   1   2
BRANCH   1  19
ATOM     19  C   UNL     1       0.498  -6.619  -1.650  1.00  0.00     0.023 C 
BRANCH  19  20
ATOM     20  C   UNL     1       0.272  -7.638  -0.553  1.00  0.00     0.023 C 
BRANCH  20  21
ATOM     21  C   UNL     1      -0.517  -8.854  -0.982  1.00  0.00     0.116 C 
BRANCH  21  22
ATOM     22  N   UNL     1       0.000  -9.498  -2.185  1.00  0.00    -0.352 N 
ATOM     23  C   UNL     1       0.252 -10.835  -2.404  1.00  0.00     0.251 C 
ATOM     24  H   UNL     1       0.196  -8.897  -2.941  1.00  0.00     0.163 HD
ATOM     25  O   UNL     1       0.777 -11.214  -3.437  1.00  0.00    -0.269 OA
BRANCH  23  26
ATOM     26  C   UNL     1      -0.096 -11.786  -1.329  1.00  0.00     0.039 A 
ATOM     27  C   UNL     1       0.876 -12.671  -0.863  1.00  0.00     0.014 A 
ATOM     28  C   UNL     1      -1.339 -11.689  -0.703  1.00  0.00     0.014 A 
ATOM     29  C   UNL     1       0.627 -13.399   0.301  1.00  0.00     0.010 A 
ATOM     30  C   UNL     1      -1.531 -12.314   0.517  1.00  0.00     0.010 A 
ATOM     31  C   UNL     1      -0.557 -13.185   1.027  1.00  0.00    -0.014 A 
BRANCH  31  32
ATOM     32  C   UNL     1      -0.826 -13.877   2.311  1.00  0.00     0.031 A 
ATOM     33  C   UNL     1      -2.044 -14.753   2.430  1.00  0.00     0.074 A 
ATOM     34  C   UNL     1      -0.038 -13.650   3.381  1.00  0.00     0.049 A 
ATOM     35  N   UNL     1      -2.526 -15.356   3.485  1.00  0.00    -0.248 NA
ATOM     36  C   UNL     1      -2.855 -14.935   1.213  1.00  0.00     0.031 C 
ATOM     37  C   UNL     1       1.134 -12.770   3.407  1.00  0.00     0.029 A 
ATOM     38  N   UNL     1      -0.111 -14.138   4.661  1.00  0.00    -0.354 N 
ATOM     39  C   UNL     1      -3.709 -15.953   3.066  1.00  0.00     0.074 A 
ATOM     40  C   UNL     1      -3.906 -15.588   1.683  1.00  0.00     0.031 C 
ATOM     41  C   UNL     1       1.690 -12.813   4.630  1.00  0.00     0.029 A 
ATOM     42  C   UNL     1       0.895 -13.688   5.484  1.00  0.00     0.049 A 
ATOM     43  H   UNL     1      -0.818 -14.754   4.962  1.00  0.00     0.167 HD
ATOM     44  C   UNL     1      -4.543 -16.761   3.761  1.00  0.00     0.031 A 
ATOM     45  C   UNL     1       1.146 -13.954   6.780  1.00  0.00     0.031 A 
ATOM     46  C   UNL     1      -4.314 -17.161   5.121  1.00  0.00     0.049 A 
ATOM     47  C   UNL     1       0.232 -14.892   7.520  1.00  0.00     0.074 A 
ATOM     48  C   UNL     1      -5.053 -18.036   5.896  1.00  0.00     0.029 A 
ATOM     49  N   UNL     1      -3.257 -16.722   5.902  1.00  0.00    -0.354 N 
ATOM     50  N   UNL     1      -0.848 -15.499   7.088  1.00  0.00    -0.248 NA
ATOM     51  C   UNL     1       0.577 -15.192   8.916  1.00  0.00     0.031 C 
ATOM     52  C   UNL     1      -4.460 -18.100   7.161  1.00  0.00     0.029 A 
ATOM     53  C   UNL     1      -3.327 -17.301   7.156  1.00  0.00     0.049 A 
ATOM     54  H   UNL     1      -2.559 -16.093   5.608  1.00  0.00     0.167 HD
ATOM     55  C   UNL     1      -1.296 -16.275   8.151  1.00  0.00     0.074 A 
ATOM     56  C   UNL     1      -0.363 -16.069   9.241  1.00  0.00     0.031 C 
ATOM     57  C   UNL     1      -2.380 -17.086   8.220  1.00  0.00     0.031 A 
BRANCH  44  58
ATOM     58  C   UNL     1      -5.766 -17.270   3.047  1.00  0.00    -0.014 A 
ATOM     59  C   UNL     1      -5.657 -18.203   1.998  1.00  0.00     0.010 A 
ATOM     60  C   UNL     1      -7.040 -16.820   3.434  1.00  0.00     0.010 A 
ATOM     61  C   UNL     1      -6.796 -18.636   1.316  1.00  0.00     0.020 A 
ATOM     62  C   UNL     1      -8.185 -17.275   2.773  1.00  0.00     0.020 A 
ATOM     63  C   UNL     1      -8.053 -18.165   1.705  1.00  0.00     0.054 A 
BRANCH  63  64
ATOM     64  S   UNL     1      -9.517 -18.756   0.812  1.00  0.00     0.124 S 
ATOM     65  O   UNL     1      -9.429 -18.004  -0.438  1.00  0.00    -0.237 OA
ATOM     66  O   UNL     1      -9.268 -20.191   0.699  1.00  0.00    -0.237 OA
ATOM     67  O   UNL     1     -10.627 -18.386   1.685  1.00  0.00    -0.744 OA
ENDBRANCH  63  64
ENDBRANCH  44  58
BRANCH  45  68
ATOM     68  C   UNL     1       2.334 -13.356   7.447  1.00  0.00    -0.014 A 
ATOM     69  C   UNL     1       3.450 -14.153   7.757  1.00  0.00     0.010 A 
ATOM     70  C   UNL     1       2.365 -11.985   7.762  1.00  0.00     0.010 A 
ATOM     71  C   UNL     1       4.568 -13.597   8.386  1.00  0.00     0.020 A 
ATOM     72  C   UNL     1       3.492 -11.420   8.369  1.00  0.00     0.020 A 
ATOM     73  C   UNL     1       4.582 -12.232   8.688  1.00  0.00     0.054 A 
BRANCH  73  74
ATOM     74  S   UNL     1       6.064 -11.520   9.457  1.00  0.00     0.124 S 
ATOM     75  O   UNL     1       5.947 -11.990  10.833  1.00  0.00    -0.237 OA
ATOM     76  O   UNL     1       7.144 -12.116   8.674  1.00  0.00    -0.237 OA
ATOM     77  O   UNL     1       5.888 -10.082   9.267  1.00  0.00    -0.744 OA
ENDBRANCH  73  74
ENDBRANCH  45  68
BRANCH  57  78
ATOM     78  C   UNL     1      -2.597 -17.842   9.501  1.00  0.00    -0.014 A 
ATOM     79  C   UNL     1      -3.075 -17.196  10.654  1.00  0.00     0.010 A 
ATOM     80  C   UNL     1      -2.387 -19.233   9.526  1.00  0.00     0.010 A 
ATOM     81  C   UNL     1      -3.316 -17.926  11.820  1.00  0.00     0.020 A 
ATOM     82  C   UNL     1      -2.650 -19.970  10.682  1.00  0.00     0.020 A 
ATOM     83  C   UNL     1      -3.102 -19.309  11.826  1.00  0.00     0.054 A 
BRANCH  83  84
ATOM     84  S   UNL     1      -3.474 -20.244  13.335  1.00  0.00     0.124 S 
ATOM     85  O   UNL     1      -2.339 -19.906  14.188  1.00  0.00    -0.237 OA
ATOM     86  O   UNL     1      -4.760 -19.688  13.749  1.00  0.00    -0.237 OA
ATOM     87  O   UNL     1      -3.521 -21.631  12.879  1.00  0.00    -0.744 OA
ENDBRANCH  83  84
ENDBRANCH  57  78
ENDBRANCH  31  32
ENDBRANCH  23  26
ENDBRANCH  21  22
ENDBRANCH  20  21
ENDBRANCH  19  20
ENDBRANCH   1  19
TORSDOF 20
