REMARK SMILES Cc1ccccc1CCNS(=O)(=O)c1ccc(C(=O)NCCCCNC(=O)c2ccc(-c3c4nc(c(-c5ccc(S(=O)(=O)[O-])cc5)c5ccc([nH]5)c(-c5ccc(S(=O)(=O)[O-])cc5)c5nc(c(-c6ccc(S(=O)(=O)[O-])cc6)c6ccc3[nH]6)C=C5)C=C4)cc2)o1
REMARK SMILES IDX 21 1 20 2 18 3 19 4 17 6 14 7 15 8 88 9 16 10 11 11 12 12
REMARK SMILES IDX 13 13 10 14 9 16 8 17 7 18 1 19 2 20 3 21 4 22 6 23 5 24
REMARK SMILES IDX 22 25 23 26 24 27 25 28 26 29 27 31 28 32 29 33 87 34 30 35
REMARK SMILES IDX 86 36 31 37 32 38 33 39 80 40 34 41 85 42 79 43 81 44 35 45
REMARK SMILES IDX 84 46 78 47 77 48 36 50 66 51 47 52 65 53 48 54 51 55 64 56
REMARK SMILES IDX 82 57 49 58 50 59 63 61 83 62 52 63 37 64 38 65 46 66 39 67
REMARK SMILES IDX 45 68 40 69 41 70 42 71 43 72 44 73 67 74 68 75 76 76 69 77
REMARK SMILES IDX 75 78 70 79 71 80 72 81 73 82 74 83 53 84 54 85 62 86 55 87
REMARK SMILES IDX 61 88 56 89 57 90 58 91 59 92 60 93
REMARK H PARENT 20 5 10 15 25 30 81 49 51 60
REMARK Flexibility Score: inf
ROOT
ATOM      1  C   UNL     1       1.871  10.629  -2.992  1.00  0.00     0.116 C 
ENDROOT
BRANCH   1   2
ATOM      2  N   UNL     1       2.697   9.438  -2.868  1.00  0.00    -0.349 N 
ATOM      3  C   UNL     1       2.387   8.105  -2.754  1.00  0.00     0.287 C 
ATOM      4  O   UNL     1       3.350   7.332  -2.721  1.00  0.00    -0.266 OA
ATOM      5  H   UNL     1       3.664   9.623  -2.865  1.00  0.00     0.163 HD
BRANCH   3   6
ATOM      6  C   UNL     1       1.016   7.630  -2.682  1.00  0.00     0.193 A 
ATOM      7  C   UNL     1      -0.504   5.981  -2.799  1.00  0.00     0.234 A 
ATOM      8  C   UNL     1      -1.179   7.158  -2.513  1.00  0.00     0.065 A 
ATOM      9  O   UNL     1       0.835   6.282  -2.883  1.00  0.00    -0.438 OA
ATOM     10  C   UNL     1      -0.217   8.195  -2.421  1.00  0.00     0.058 A 
BRANCH   7  11
ATOM     11  S   UNL     1      -1.099   4.309  -3.012  1.00  0.00     0.273 S 
ATOM     12  O   UNL     1      -0.327   3.724  -4.093  1.00  0.00    -0.204 OA
ATOM     13  O   UNL     1      -2.535   4.408  -3.077  1.00  0.00    -0.204 OA
BRANCH  11  14
ATOM     14  N   UNL     1      -0.751   3.434  -1.608  1.00  0.00    -0.208 NA
ATOM     15  H   UNL     1      -1.153   3.944  -0.821  1.00  0.00     0.141 HD
BRANCH  14  16
ATOM     16  C   UNL     1       0.680   3.190  -1.296  1.00  0.00     0.104 C 
BRANCH  16  17
ATOM     17  C   UNL     1       0.811   2.556   0.102  1.00  0.00     0.052 C 
BRANCH  17  18
ATOM     18  C   UNL     1       0.229   1.154   0.174  1.00  0.00    -0.044 A 
ATOM     19  C   UNL     1       2.478  -0.044  -0.200  1.00  0.00     0.044 C 
ATOM     20  C   UNL     1       0.983  -0.018  -0.033  1.00  0.00    -0.048 A 
ATOM     21  C   UNL     1       0.321  -1.262  -0.040  1.00  0.00     0.004 A 
ATOM     22  C   UNL     1      -1.058  -1.351   0.144  1.00  0.00     0.000 A 
ATOM     23  C   UNL     1      -1.158   1.037   0.404  1.00  0.00     0.004 A 
ATOM     24  C   UNL     1      -1.798  -0.200   0.373  1.00  0.00     0.000 A 
ENDBRANCH  17  18
ENDBRANCH  16  17
ENDBRANCH  14  16
ENDBRANCH  11  14
ENDBRANCH   7  11
ENDBRANCH   3   6
ENDBRANCH   1   2
BRANCH   1  25
ATOM     25  C   UNL     1       1.668  11.333  -1.644  1.00  0.00     0.023 C 
BRANCH  25  26
ATOM     26  C   UNL     1       2.939  11.959  -1.056  1.00  0.00     0.023 C 
BRANCH  26  27
ATOM     27  C   UNL     1       3.447  13.172  -1.830  1.00  0.00     0.116 C 
BRANCH  27  28
ATOM     28  N   UNL     1       3.122  14.467  -1.240  1.00  0.00    -0.352 N 
ATOM     29  C   UNL     1       3.576  15.720  -1.626  1.00  0.00     0.251 C 
ATOM     30  H   UNL     1       2.504  14.449  -0.474  1.00  0.00     0.163 HD
ATOM     31  O   UNL     1       3.420  16.733  -0.955  1.00  0.00    -0.269 OA
BRANCH  29  32
ATOM     32  C   UNL     1       4.114  15.845  -2.997  1.00  0.00     0.039 A 
ATOM     33  C   UNL     1       3.332  16.574  -3.903  1.00  0.00     0.014 A 
ATOM     34  C   UNL     1       5.091  14.957  -3.432  1.00  0.00     0.014 A 
ATOM     35  C   UNL     1       3.340  16.205  -5.239  1.00  0.00     0.010 A 
ATOM     36  C   UNL     1       5.008  14.504  -4.728  1.00  0.00     0.010 A 
ATOM     37  C   UNL     1       4.085  15.084  -5.603  1.00  0.00    -0.014 A 
BRANCH  37  38
ATOM     38  C   UNL     1       3.917  14.420  -6.881  1.00  0.00     0.031 A 
ATOM     39  C   UNL     1       4.888  14.734  -7.943  1.00  0.00     0.074 A 
ATOM     40  C   UNL     1       2.896  13.553  -7.068  1.00  0.00     0.049 A 
ATOM     41  N   UNL     1       4.605  14.775  -9.198  1.00  0.00    -0.248 NA
ATOM     42  C   UNL     1       6.271  15.105  -7.647  1.00  0.00     0.031 C 
ATOM     43  C   UNL     1       2.653  12.726  -8.246  1.00  0.00     0.029 A 
ATOM     44  N   UNL     1       1.725  13.413  -6.312  1.00  0.00    -0.354 N 
ATOM     45  C   UNL     1       5.803  14.859  -9.871  1.00  0.00     0.074 A 
ATOM     46  C   UNL     1       6.794  15.174  -8.873  1.00  0.00     0.031 C 
ATOM     47  C   UNL     1       1.339  12.449  -8.304  1.00  0.00     0.029 A 
ATOM     48  C   UNL     1       0.693  13.200  -7.237  1.00  0.00     0.049 A 
ATOM     49  H   UNL     1       1.643  13.456  -5.332  1.00  0.00     0.167 HD
ATOM     50  C   UNL     1       5.873  14.468 -11.172  1.00  0.00     0.031 A 
ATOM     51  C   UNL     1      -0.345  14.068  -7.410  1.00  0.00     0.031 A 
ATOM     52  C   UNL     1       4.564  14.058 -11.666  1.00  0.00     0.049 A 
ATOM     53  C   UNL     1      -0.394  14.631  -8.820  1.00  0.00     0.074 A 
ATOM     54  C   UNL     1       3.961  12.818 -11.792  1.00  0.00     0.029 A 
ATOM     55  N   UNL     1       3.546  15.001 -11.744  1.00  0.00    -0.354 N 
ATOM     56  N   UNL     1       0.622  14.620  -9.644  1.00  0.00    -0.248 NA
ATOM     57  C   UNL     1      -1.581  15.229  -9.423  1.00  0.00     0.031 C 
ATOM     58  C   UNL     1       2.557  13.018 -11.859  1.00  0.00     0.029 A 
ATOM     59  C   UNL     1       2.313  14.380 -11.810  1.00  0.00     0.049 A 
ATOM     60  H   UNL     1       3.684  15.976 -11.751  1.00  0.00     0.167 HD
ATOM     61  C   UNL     1       0.244  15.129 -10.863  1.00  0.00     0.074 A 
ATOM     62  C   UNL     1      -1.145  15.507 -10.666  1.00  0.00     0.031 C 
ATOM     63  C   UNL     1       1.095  15.174 -11.934  1.00  0.00     0.031 A 
BRANCH  50  64
ATOM     64  C   UNL     1       7.191  14.131 -11.823  1.00  0.00    -0.014 A 
ATOM     65  C   UNL     1       7.276  13.018 -12.682  1.00  0.00     0.010 A 
ATOM     66  C   UNL     1       8.390  14.830 -11.575  1.00  0.00     0.010 A 
ATOM     67  C   UNL     1       8.500  12.570 -13.195  1.00  0.00     0.020 A 
ATOM     68  C   UNL     1       9.629  14.369 -12.050  1.00  0.00     0.020 A 
ATOM     69  C   UNL     1       9.675  13.235 -12.856  1.00  0.00     0.054 A 
BRANCH  69  70
ATOM     70  S   UNL     1      11.252  12.603 -13.489  1.00  0.00     0.124 S 
ATOM     71  O   UNL     1      11.239  11.213 -13.039  1.00  0.00    -0.237 OA
ATOM     72  O   UNL     1      11.111  12.800 -14.928  1.00  0.00    -0.237 OA
ATOM     73  O   UNL     1      12.251  13.449 -12.840  1.00  0.00    -0.744 OA
ENDBRANCH  69  70
ENDBRANCH  50  64
BRANCH  51  74
ATOM     74  C   UNL     1      -0.829  14.727  -6.162  1.00  0.00    -0.014 A 
ATOM     75  C   UNL     1      -1.526  13.916  -5.239  1.00  0.00     0.010 A 
ATOM     76  C   UNL     1      -0.303  15.949  -5.707  1.00  0.00     0.010 A 
ATOM     77  C   UNL     1      -1.570  14.239  -3.878  1.00  0.00     0.020 A 
ATOM     78  C   UNL     1      -0.344  16.276  -4.338  1.00  0.00     0.020 A 
ATOM     79  C   UNL     1      -0.923  15.386  -3.427  1.00  0.00     0.054 A 
BRANCH  79  80
ATOM     80  S   UNL     1      -0.779  15.649  -1.631  1.00  0.00     0.124 S 
ATOM     81  O   UNL     1      -2.109  15.289  -1.147  1.00  0.00    -0.237 OA
ATOM     82  O   UNL     1       0.285  14.710  -1.271  1.00  0.00    -0.237 OA
ATOM     83  O   UNL     1      -0.438  17.062  -1.526  1.00  0.00    -0.744 OA
ENDBRANCH  79  80
ENDBRANCH  51  74
BRANCH  63  84
ATOM     84  C   UNL     1       0.880  15.887 -13.259  1.00  0.00    -0.014 A 
ATOM     85  C   UNL     1      -0.103  16.855 -13.501  1.00  0.00     0.010 A 
ATOM     86  C   UNL     1       1.812  15.662 -14.308  1.00  0.00     0.010 A 
ATOM     87  C   UNL     1      -0.172  17.535 -14.729  1.00  0.00     0.020 A 
ATOM     88  C   UNL     1       1.787  16.369 -15.512  1.00  0.00     0.020 A 
ATOM     89  C   UNL     1       0.776  17.292 -15.724  1.00  0.00     0.054 A 
BRANCH  89  90
ATOM     90  S   UNL     1       0.727  18.240 -17.264  1.00  0.00     0.124 S 
ATOM     91  O   UNL     1      -0.254  17.492 -18.046  1.00  0.00    -0.237 OA
ATOM     92  O   UNL     1       0.296  19.562 -16.816  1.00  0.00    -0.237 OA
ATOM     93  O   UNL     1       2.102  18.175 -17.753  1.00  0.00    -0.744 OA
ENDBRANCH  89  90
ENDBRANCH  63  84
ENDBRANCH  37  38
ENDBRANCH  29  32
ENDBRANCH  27  28
ENDBRANCH  26  27
ENDBRANCH  25  26
ENDBRANCH   1  25
TORSDOF 19
