REMARK SMILES Cc1cc(C)cc(C(=O)N2CC[C@H](C(=O)NCCCCNC(=O)c3ccc(-c4c5nc(c(-c6ccc(S(=O)(=O)[O-])cc6)c6ccc([nH]6)c(-c6ccc(S(=O)(=O)[O-])cc6)c6nc(c(-c7ccc(S(=O)(=O)[O-])cc7)c7ccc4[nH]7)C=C6)C=C5)cc3)[C@@H]2C)c1
REMARK SMILES IDX 19 1 18 2 17 3 16 4 14 5 15 6 13 8 10 9 11 10 84 11 12 12
REMARK SMILES IDX 85 13 8 14 9 15 7 16 1 17 2 18 3 19 86 20 4 21 5 22 6 23
REMARK SMILES IDX 20 24 21 25 22 26 23 28 24 29 25 30 83 31 26 32 82 33 27 34
REMARK SMILES IDX 28 35 29 36 76 37 30 38 81 39 75 40 77 41 31 42 80 43 74 44
REMARK SMILES IDX 73 45 32 47 62 48 43 49 61 50 44 51 47 52 60 53 78 54 45 55
REMARK SMILES IDX 46 56 59 58 79 59 48 60 33 61 34 62 42 63 35 64 41 65 36 66
REMARK SMILES IDX 37 67 38 68 39 69 40 70 63 71 64 72 72 73 65 74 71 75 66 76
REMARK SMILES IDX 67 77 68 78 69 79 70 80 49 81 50 82 58 83 51 84 57 85 52 86
REMARK SMILES IDX 53 87 54 88 55 89 56 90
REMARK H PARENT 16 7 21 27 77 46 47 57
REMARK Flexibility Score: inf
ROOT
ATOM      1  C   UNL     1       5.958  -5.724   4.794  1.00  0.00     0.023 C 
ENDROOT
BRANCH   1   2
ATOM      2  C   UNL     1       5.663  -4.587   3.814  1.00  0.00     0.023 C 
BRANCH   2   3
ATOM      3  C   UNL     1       5.747  -4.963   2.338  1.00  0.00     0.116 C 
BRANCH   3   4
ATOM      4  N   UNL     1       4.818  -6.021   1.986  1.00  0.00    -0.356 N 
ATOM      5  C   UNL     1       3.796  -6.041   1.087  1.00  0.00     0.225 C 
ATOM      6  O   UNL     1       3.191  -7.101   0.924  1.00  0.00    -0.275 OA
ATOM      7  H   UNL     1       4.948  -6.863   2.479  1.00  0.00     0.163 HD
BRANCH   5   8
ATOM      8  C   UNL     1       3.425  -4.779   0.328  1.00  0.00     0.102 C 
ATOM      9  N   UNL     1       1.224  -3.989  -0.129  1.00  0.00    -0.335 N 
ATOM     10  C   UNL     1       1.455  -5.107  -1.016  1.00  0.00     0.121 C 
ATOM     11  C   UNL     1       2.247  -3.968   0.929  1.00  0.00     0.094 C 
ATOM     12  C   UNL     1       2.966  -5.138  -1.099  1.00  0.00     0.037 C 
ATOM     13  C   UNL     1       1.669  -4.508   2.239  1.00  0.00     0.032 C 
BRANCH   9  14
ATOM     14  C   UNL     1       0.086  -3.223  -0.299  1.00  0.00     0.254 C 
ATOM     15  O   UNL     1      -0.927  -3.689  -0.823  1.00  0.00    -0.269 OA
BRANCH  14  16
ATOM     16  C   UNL     1       0.103  -1.760  -0.007  1.00  0.00     0.040 A 
ATOM     17  C   UNL     1       2.501   1.204  -0.035  1.00  0.00     0.044 C 
ATOM     18  C   UNL     1       1.238   0.396   0.029  1.00  0.00    -0.050 A 
ATOM     19  C   UNL     1      -0.000   1.040   0.136  1.00  0.00     0.006 A 
ATOM     20  C   UNL     1       1.276  -1.000  -0.082  1.00  0.00     0.017 A 
ATOM     21  C   UNL     1      -1.191   0.303   0.154  1.00  0.00    -0.050 A 
ATOM     22  C   UNL     1      -2.512   1.016   0.146  1.00  0.00     0.044 C 
ATOM     23  C   UNL     1      -1.129  -1.096   0.106  1.00  0.00     0.017 A 
ENDBRANCH  14  16
ENDBRANCH   9  14
ENDBRANCH   5   8
ENDBRANCH   3   4
ENDBRANCH   2   3
ENDBRANCH   1   2
BRANCH   1  24
ATOM     24  C   UNL     1       7.295  -6.433   4.597  1.00  0.00     0.116 C 
BRANCH  24  25
ATOM     25  N   UNL     1       8.435  -5.542   4.745  1.00  0.00    -0.352 N 
ATOM     26  C   UNL     1       9.561  -5.689   5.520  1.00  0.00     0.251 C 
ATOM     27  H   UNL     1       8.395  -4.715   4.213  1.00  0.00     0.163 HD
ATOM     28  O   UNL     1      10.354  -4.756   5.621  1.00  0.00    -0.269 OA
BRANCH  26  29
ATOM     29  C   UNL     1       9.801  -6.952   6.255  1.00  0.00     0.039 A 
ATOM     30  C   UNL     1      10.210  -6.888   7.589  1.00  0.00     0.014 A 
ATOM     31  C   UNL     1       9.618  -8.193   5.638  1.00  0.00     0.014 A 
ATOM     32  C   UNL     1      10.362  -8.067   8.325  1.00  0.00     0.010 A 
ATOM     33  C   UNL     1       9.697  -9.361   6.394  1.00  0.00     0.010 A 
ATOM     34  C   UNL     1      10.066  -9.312   7.747  1.00  0.00    -0.014 A 
BRANCH  34  35
ATOM     35  C   UNL     1      10.125 -10.567   8.543  1.00  0.00     0.031 A 
ATOM     36  C   UNL     1      11.100 -11.656   8.175  1.00  0.00     0.074 A 
ATOM     37  C   UNL     1       9.261 -10.754   9.562  1.00  0.00     0.049 A 
ATOM     38  N   UNL     1      11.252 -12.841   8.710  1.00  0.00    -0.248 NA
ATOM     39  C   UNL     1      12.008 -11.387   7.048  1.00  0.00     0.031 C 
ATOM     40  C   UNL     1       8.243  -9.794   9.998  1.00  0.00     0.029 A 
ATOM     41  N   UNL     1       9.095 -11.819  10.414  1.00  0.00    -0.354 N 
ATOM     42  C   UNL     1      12.261 -13.460   7.981  1.00  0.00     0.074 A 
ATOM     43  C   UNL     1      12.650 -12.541   6.934  1.00  0.00     0.031 C 
ATOM     44  C   UNL     1       7.578 -10.303  11.048  1.00  0.00     0.029 A 
ATOM     45  C   UNL     1       8.087 -11.640  11.333  1.00  0.00     0.049 A 
ATOM     46  H   UNL     1       9.646 -12.633  10.370  1.00  0.00     0.167 HD
ATOM     47  C   UNL     1      12.829 -14.674   8.179  1.00  0.00     0.031 A 
ATOM     48  C   UNL     1       7.615 -12.463  12.290  1.00  0.00     0.031 A 
ATOM     49  C   UNL     1      12.447 -15.584   9.226  1.00  0.00     0.049 A 
ATOM     50  C   UNL     1       8.245 -13.819  12.469  1.00  0.00     0.074 A 
ATOM     51  C   UNL     1      12.995 -16.818   9.532  1.00  0.00     0.029 A 
ATOM     52  N   UNL     1      11.427 -15.363  10.138  1.00  0.00    -0.354 N 
ATOM     53  N   UNL     1       9.241 -14.359  11.807  1.00  0.00    -0.248 NA
ATOM     54  C   UNL     1       7.696 -14.672  13.532  1.00  0.00     0.031 C 
ATOM     55  C   UNL     1      12.270 -17.367  10.594  1.00  0.00     0.029 A 
ATOM     56  C   UNL     1      11.314 -16.447  10.992  1.00  0.00     0.049 A 
ATOM     57  H   UNL     1      10.866 -14.555  10.173  1.00  0.00     0.167 HD
ATOM     58  C   UNL     1       9.457 -15.601  12.397  1.00  0.00     0.074 A 
ATOM     59  C   UNL     1       8.502 -15.723  13.478  1.00  0.00     0.031 C 
ATOM     60  C   UNL     1      10.365 -16.553  12.071  1.00  0.00     0.031 A 
BRANCH  47  61
ATOM     61  C   UNL     1      13.934 -15.092   7.244  1.00  0.00    -0.014 A 
ATOM     62  C   UNL     1      15.196 -14.471   7.292  1.00  0.00     0.010 A 
ATOM     63  C   UNL     1      13.734 -16.166   6.357  1.00  0.00     0.010 A 
ATOM     64  C   UNL     1      16.227 -14.898   6.452  1.00  0.00     0.020 A 
ATOM     65  C   UNL     1      14.773 -16.614   5.535  1.00  0.00     0.020 A 
ATOM     66  C   UNL     1      16.010 -15.969   5.581  1.00  0.00     0.054 A 
BRANCH  66  67
ATOM     67  S   UNL     1      17.384 -16.529   4.538  1.00  0.00     0.124 S 
ATOM     68  O   UNL     1      17.502 -15.433   3.580  1.00  0.00    -0.237 OA
ATOM     69  O   UNL     1      18.482 -16.648   5.494  1.00  0.00    -0.237 OA
ATOM     70  O   UNL     1      16.906 -17.793   3.982  1.00  0.00    -0.744 OA
ENDBRANCH  66  67
ENDBRANCH  47  61
BRANCH  48  71
ATOM     71  C   UNL     1       6.481 -12.037  13.158  1.00  0.00    -0.014 A 
ATOM     72  C   UNL     1       6.675 -11.807  14.532  1.00  0.00     0.010 A 
ATOM     73  C   UNL     1       5.191 -11.882  12.617  1.00  0.00     0.010 A 
ATOM     74  C   UNL     1       5.596 -11.468  15.354  1.00  0.00     0.020 A 
ATOM     75  C   UNL     1       4.116 -11.510  13.430  1.00  0.00     0.020 A 
ATOM     76  C   UNL     1       4.322 -11.324  14.798  1.00  0.00     0.054 A 
BRANCH  76  77
ATOM     77  S   UNL     1       2.940 -10.866  15.880  1.00  0.00     0.124 S 
ATOM     78  O   UNL     1       2.713 -12.103  16.621  1.00  0.00    -0.237 OA
ATOM     79  O   UNL     1       3.498  -9.759  16.652  1.00  0.00    -0.237 OA
ATOM     80  O   UNL     1       1.883 -10.492  14.944  1.00  0.00    -0.744 OA
ENDBRANCH  76  77
ENDBRANCH  48  71
BRANCH  60  81
ATOM     81  C   UNL     1      10.405 -17.797  12.920  1.00  0.00    -0.014 A 
ATOM     82  C   UNL     1       9.378 -18.756  12.865  1.00  0.00     0.010 A 
ATOM     83  C   UNL     1      11.518 -18.033  13.748  1.00  0.00     0.010 A 
ATOM     84  C   UNL     1       9.448 -19.912  13.647  1.00  0.00     0.020 A 
ATOM     85  C   UNL     1      11.607 -19.202  14.508  1.00  0.00     0.020 A 
ATOM     86  C   UNL     1      10.563 -20.128  14.463  1.00  0.00     0.054 A 
BRANCH  86  87
ATOM     87  S   UNL     1      10.650 -21.657  15.434  1.00  0.00     0.124 S 
ATOM     88  O   UNL     1       9.655 -21.415  16.474  1.00  0.00    -0.237 OA
ATOM     89  O   UNL     1      10.297 -22.680  14.452  1.00  0.00    -0.237 OA
ATOM     90  O   UNL     1      12.036 -21.697  15.895  1.00  0.00    -0.744 OA
ENDBRANCH  86  87
ENDBRANCH  60  81
ENDBRANCH  34  35
ENDBRANCH  26  29
ENDBRANCH  24  25
ENDBRANCH   1  24
TORSDOF 16
