REMARK SMILES CC(C)Cc1noc(C[NH+]2CCC(CC(=O)NCCCCNC(=O)c3ccc(-c4c5nc(c(-c6ccc(S(=O)(=O)[O-])cc6)c6ccc([nH]6)c(-c6ccc(S(=O)(=O)[O-])cc6)c6nc(c(-c7ccc(S(=O)(=O)[O-])cc7)c7ccc4[nH]7)C=C6)C=C5)cc3)CC2)n1
REMARK SMILES IDX 18 1 17 2 15 3 16 4 14 6 13 7 10 8 11 9 86 10 12 12 85 13
REMARK SMILES IDX 9 14 8 15 5 16 6 17 87 18 7 19 4 20 2 21 1 22 3 23 19 24
REMARK SMILES IDX 20 25 21 26 22 27 23 28 24 30 25 31 26 32 84 33 27 34 83 35
REMARK SMILES IDX 28 36 29 37 30 38 77 39 31 40 82 41 76 42 78 43 32 44 81 45
REMARK SMILES IDX 75 46 74 47 33 49 63 50 44 51 62 52 45 53 48 54 61 55 79 56
REMARK SMILES IDX 46 57 47 58 60 60 80 61 49 62 34 63 35 64 43 65 36 66 42 67
REMARK SMILES IDX 37 68 38 69 39 70 40 71 41 72 64 73 65 74 73 75 66 76 72 77
REMARK SMILES IDX 67 78 68 79 69 80 70 81 71 82 50 83 51 84 59 85 52 86 58 87
REMARK SMILES IDX 53 88 54 89 55 90 56 91 57 92
REMARK H PARENT 17 5 10 11 22 29 78 48 48 59
REMARK Flexibility Score: inf
ROOT
ATOM      1  C   UNL     1       1.792   2.076   6.649  1.00  0.00     0.116 C 
ENDROOT
BRANCH   1   2
ATOM      2  N   UNL     1       2.798   2.888   5.981  1.00  0.00    -0.356 N 
ATOM      3  C   UNL     1       2.707   4.099   5.356  1.00  0.00     0.220 C 
ATOM      4  O   UNL     1       3.727   4.567   4.844  1.00  0.00    -0.275 OA
ATOM      5  H   UNL     1       3.702   2.497   5.979  1.00  0.00     0.163 HD
BRANCH   3   6
ATOM      6  C   UNL     1       1.385   4.858   5.268  1.00  0.00     0.104 C 
BRANCH   6   7
ATOM      7  C   UNL     1       0.597   4.557   3.975  1.00  0.00     0.009 C 
ATOM      8  N   UNL     1      -1.997   3.611   2.942  1.00  0.00    -0.327 N 
ATOM      9  C   UNL     1      -0.845   2.709   2.920  1.00  0.00     0.262 C 
ATOM     10  C   UNL     1      -1.562   4.985   2.678  1.00  0.00     0.262 C 
ATOM     11  H   UNL     1      -2.418   3.613   3.871  1.00  0.00     0.348 HD
ATOM     12  C   UNL     1       0.163   3.101   3.972  1.00  0.00     0.066 C 
ATOM     13  C   UNL     1      -0.627   5.468   3.804  1.00  0.00     0.066 C 
BRANCH   8  14
ATOM     14  C   UNL     1      -3.060   3.130   2.027  1.00  0.00     0.364 C 
BRANCH  14  15
ATOM     15  C   UNL     1      -2.592   2.577   0.719  1.00  0.00     0.281 A 
ATOM     16  C   UNL     1      -1.695   1.493  -0.825  1.00  0.00     0.172 A 
ATOM     17  N   UNL     1      -1.795   2.728  -1.337  1.00  0.00    -0.062 NA
ATOM     18  N   UNL     1      -2.209   1.349   0.435  1.00  0.00    -0.191 NA
ATOM     19  O   UNL     1      -2.387   3.458  -0.301  1.00  0.00    -0.333 OA
BRANCH  16  20
ATOM     20  C   UNL     1      -1.069   0.360  -1.557  1.00  0.00     0.084 C 
BRANCH  20  21
ATOM     21  C   UNL     1       0.471   0.352  -1.491  1.00  0.00    -0.010 C 
ATOM     22  C   UNL     1       0.992   0.044  -0.084  1.00  0.00     0.008 C 
ATOM     23  C   UNL     1       1.028  -0.678  -2.477  1.00  0.00     0.008 C 
ENDBRANCH  20  21
ENDBRANCH  16  20
ENDBRANCH  14  15
ENDBRANCH   8  14
ENDBRANCH   6   7
ENDBRANCH   3   6
ENDBRANCH   1   2
BRANCH   1  24
ATOM     24  C   UNL     1       1.398   0.844   5.822  1.00  0.00     0.023 C 
BRANCH  24  25
ATOM     25  C   UNL     1       2.213  -0.413   6.066  1.00  0.00     0.023 C 
BRANCH  25  26
ATOM     26  C   UNL     1       1.986  -1.050   7.419  1.00  0.00     0.116 C 
BRANCH  26  27
ATOM     27  N   UNL     1       0.606  -1.459   7.653  1.00  0.00    -0.352 N 
ATOM     28  C   UNL     1       0.141  -2.639   8.192  1.00  0.00     0.251 C 
ATOM     29  H   UNL     1      -0.084  -0.806   7.391  1.00  0.00     0.163 HD
ATOM     30  O   UNL     1      -1.058  -2.872   8.247  1.00  0.00    -0.269 OA
BRANCH  28  31
ATOM     31  C   UNL     1       1.129  -3.636   8.654  1.00  0.00     0.039 A 
ATOM     32  C   UNL     1       1.022  -4.955   8.211  1.00  0.00     0.014 A 
ATOM     33  C   UNL     1       2.218  -3.231   9.428  1.00  0.00     0.014 A 
ATOM     34  C   UNL     1       2.062  -5.848   8.471  1.00  0.00     0.010 A 
ATOM     35  C   UNL     1       3.299  -4.085   9.582  1.00  0.00     0.010 A 
ATOM     36  C   UNL     1       3.231  -5.405   9.113  1.00  0.00    -0.014 A 
BRANCH  36  37
ATOM     37  C   UNL     1       4.392  -6.303   9.328  1.00  0.00     0.031 A 
ATOM     38  C   UNL     1       4.862  -6.585  10.729  1.00  0.00     0.074 A 
ATOM     39  C   UNL     1       5.071  -6.791   8.270  1.00  0.00     0.049 A 
ATOM     40  N   UNL     1       5.901  -7.271  11.128  1.00  0.00    -0.248 NA
ATOM     41  C   UNL     1       4.085  -5.981  11.826  1.00  0.00     0.031 C 
ATOM     42  C   UNL     1       4.754  -6.536   6.862  1.00  0.00     0.029 A 
ATOM     43  N   UNL     1       6.175  -7.603   8.217  1.00  0.00    -0.354 N 
ATOM     44  C   UNL     1       5.919  -7.152  12.513  1.00  0.00     0.074 A 
ATOM     45  C   UNL     1       4.827  -6.280  12.880  1.00  0.00     0.031 C 
ATOM     46  C   UNL     1       5.618  -7.211   6.086  1.00  0.00     0.029 A 
ATOM     47  C   UNL     1       6.571  -7.915   6.937  1.00  0.00     0.049 A 
ATOM     48  H   UNL     1       6.641  -7.931   9.020  1.00  0.00     0.167 HD
ATOM     49  C   UNL     1       6.752  -7.739  13.405  1.00  0.00     0.031 A 
ATOM     50  C   UNL     1       7.586  -8.685   6.500  1.00  0.00     0.031 A 
ATOM     51  C   UNL     1       7.812  -8.636  13.037  1.00  0.00     0.049 A 
ATOM     52  C   UNL     1       8.476  -9.359   7.508  1.00  0.00     0.074 A 
ATOM     53  C   UNL     1       8.665  -9.345  13.863  1.00  0.00     0.029 A 
ATOM     54  N   UNL     1       8.157  -8.954  11.732  1.00  0.00    -0.354 N 
ATOM     55  N   UNL     1       8.434  -9.291   8.817  1.00  0.00    -0.248 NA
ATOM     56  C   UNL     1       9.540 -10.223   6.979  1.00  0.00     0.031 C 
ATOM     57  C   UNL     1       9.553 -10.064  13.054  1.00  0.00     0.029 A 
ATOM     58  C   UNL     1       9.221  -9.838  11.727  1.00  0.00     0.049 A 
ATOM     59  H   UNL     1       7.711  -8.602  10.928  1.00  0.00     0.167 HD
ATOM     60  C   UNL     1       9.453 -10.121   9.271  1.00  0.00     0.074 A 
ATOM     61  C   UNL     1      10.082 -10.690   8.096  1.00  0.00     0.031 C 
ATOM     62  C   UNL     1       9.833 -10.389  10.545  1.00  0.00     0.031 A 
BRANCH  49  63
ATOM     63  C   UNL     1       6.534  -7.423  14.860  1.00  0.00    -0.014 A 
ATOM     64  C   UNL     1       5.393  -7.888  15.541  1.00  0.00     0.010 A 
ATOM     65  C   UNL     1       7.478  -6.649  15.557  1.00  0.00     0.010 A 
ATOM     66  C   UNL     1       5.170  -7.536  16.873  1.00  0.00     0.020 A 
ATOM     67  C   UNL     1       7.274  -6.319  16.901  1.00  0.00     0.020 A 
ATOM     68  C   UNL     1       6.109  -6.746  17.543  1.00  0.00     0.054 A 
BRANCH  68  69
ATOM     69  S   UNL     1       5.797  -6.300  19.273  1.00  0.00     0.124 S 
ATOM     70  O   UNL     1       4.782  -5.259  19.135  1.00  0.00    -0.237 OA
ATOM     71  O   UNL     1       5.331  -7.558  19.851  1.00  0.00    -0.237 OA
ATOM     72  O   UNL     1       7.098  -5.842  19.752  1.00  0.00    -0.744 OA
ENDBRANCH  68  69
ENDBRANCH  49  63
BRANCH  50  73
ATOM     73  C   UNL     1       7.782  -8.894   5.040  1.00  0.00    -0.014 A 
ATOM     74  C   UNL     1       7.442 -10.124   4.449  1.00  0.00     0.010 A 
ATOM     75  C   UNL     1       8.277  -7.859   4.227  1.00  0.00     0.010 A 
ATOM     76  C   UNL     1       7.601 -10.319   3.074  1.00  0.00     0.020 A 
ATOM     77  C   UNL     1       8.416  -8.042   2.848  1.00  0.00     0.020 A 
ATOM     78  C   UNL     1       8.084  -9.275   2.281  1.00  0.00     0.054 A 
BRANCH  78  79
ATOM     79  S   UNL     1       8.217  -9.527   0.488  1.00  0.00     0.124 S 
ATOM     80  O   UNL     1       9.404 -10.370   0.387  1.00  0.00    -0.237 OA
ATOM     81  O   UNL     1       6.949 -10.177   0.166  1.00  0.00    -0.237 OA
ATOM     82  O   UNL     1       8.363  -8.171  -0.036  1.00  0.00    -0.744 OA
ENDBRANCH  78  79
ENDBRANCH  50  73
BRANCH  62  83
ATOM     83  C   UNL     1      10.965 -11.359  10.736  1.00  0.00    -0.014 A 
ATOM     84  C   UNL     1      12.293 -10.985  10.467  1.00  0.00     0.010 A 
ATOM     85  C   UNL     1      10.700 -12.642  11.248  1.00  0.00     0.010 A 
ATOM     86  C   UNL     1      13.336 -11.889  10.681  1.00  0.00     0.020 A 
ATOM     87  C   UNL     1      11.743 -13.540  11.486  1.00  0.00     0.020 A 
ATOM     88  C   UNL     1      13.054 -13.162  11.188  1.00  0.00     0.054 A 
BRANCH  88  89
ATOM     89  S   UNL     1      14.428 -14.302  11.502  1.00  0.00     0.124 S 
ATOM     90  O   UNL     1      14.764 -14.751  10.153  1.00  0.00    -0.237 OA
ATOM     91  O   UNL     1      15.420 -13.443  12.143  1.00  0.00    -0.237 OA
ATOM     92  O   UNL     1      13.841 -15.320  12.370  1.00  0.00    -0.744 OA
ENDBRANCH  88  89
ENDBRANCH  62  83
ENDBRANCH  36  37
ENDBRANCH  28  31
ENDBRANCH  26  27
ENDBRANCH  25  26
ENDBRANCH  24  25
ENDBRANCH   1  24
TORSDOF 19
