REMARK SMILES CCc1cc(S(F)(F)(F)(F)F)cc2c1O[C@@H](C(F)(F)F)C(C(=O)NCCCCNC(=O)c1ccc(-c3c4nc(c(-c5ccc(S(=O)(=O)[O-])cc5)c5ccc([nH]5)c(-c5ccc(S(=O)(=O)[O-])cc5)c5nc(c(-c6ccc(S(=O)(=O)[O-])cc6)c6ccc3[nH]6)C=C5)C=C4)cc1)=C2
REMARK SMILES IDX 27 1 26 2 25 3 24 4 22 5 23 6 21 8 3 9 4 10 14 11 5 12 13 13
REMARK SMILES IDX 15 14 12 15 92 16 16 17 2 18 1 19 6 20 7 21 8 22 9 23 10 24
REMARK SMILES IDX 11 25 17 26 18 27 19 28 20 29 28 30 29 31 30 32 31 34 32 35
REMARK SMILES IDX 33 36 91 37 34 38 90 39 35 40 36 41 37 42 84 43 38 44 89 45
REMARK SMILES IDX 83 46 85 47 39 48 88 49 82 50 81 51 40 53 70 54 51 55 69 56
REMARK SMILES IDX 52 57 55 58 68 59 86 60 53 61 54 62 67 64 87 65 56 66 41 67
REMARK SMILES IDX 42 68 50 69 43 70 49 71 44 72 45 73 46 74 47 75 48 76 71 77
REMARK SMILES IDX 72 78 80 79 73 80 79 81 74 82 75 83 76 84 77 85 78 86 57 87
REMARK SMILES IDX 58 88 66 89 59 90 65 91 60 92 61 93 62 94 63 95 64 96
REMARK H PARENT 24 7 29 33 85 52 55 63
REMARK Flexibility Score: inf
ROOT
ATOM      1  C   UNL     1      -0.007  10.827  -1.581  1.00  0.00     0.023 C 
ENDROOT
BRANCH   1   2
ATOM      2  C   UNL     1       0.160   9.349  -1.891  1.00  0.00     0.023 C 
BRANCH   2   3
ATOM      3  C   UNL     1       0.797   8.650  -0.701  1.00  0.00     0.116 C 
BRANCH   3   4
ATOM      4  N   UNL     1      -0.065   8.808   0.479  1.00  0.00    -0.352 N 
ATOM      5  C   UNL     1      -0.611   7.623   1.155  1.00  0.00     0.251 C 
ATOM      6  O   UNL     1      -1.356   7.760   2.175  1.00  0.00    -0.270 OA
ATOM      7  H   UNL     1      -0.276   9.709   0.817  1.00  0.00     0.163 HD
BRANCH   5   8
ATOM      8  C   UNL     1      -0.284   6.233   0.634  1.00  0.00     0.067 C 
ATOM      9  C   UNL     1       0.968   2.392  -0.430  1.00  0.00    -0.004 A 
ATOM     10  C   UNL     1       1.610   2.185  -1.637  1.00  0.00     0.032 A 
ATOM     11  C   UNL     1       0.615   3.673  -0.081  1.00  0.00     0.131 A 
ATOM     12  C   UNL     1       1.896   3.233  -2.472  1.00  0.00     0.108 A 
ATOM     13  C   UNL     1       0.870   4.753  -0.907  1.00  0.00     0.019 A 
ATOM     14  O   UNL     1       0.080   3.877   1.167  1.00  0.00    -0.475 OA
ATOM     15  C   UNL     1       1.522   4.511  -2.111  1.00  0.00     0.036 A 
ATOM     16  C   UNL     1       0.493   6.073  -0.431  1.00  0.00     0.025 C 
ATOM     17  C   UNL     1      -0.841   4.993   1.321  1.00  0.00     0.314 C 
BRANCH   9  18
ATOM     18  C   UNL     1       0.461   1.268   0.459  1.00  0.00     0.036 C 
ATOM     19  C   UNL     1       0.968  -0.064  -0.070  1.00  0.00     0.009 C 
ENDBRANCH   9  18
BRANCH  12  20
ATOM     20  S   UNL     1       2.759   2.944  -4.036  1.00  0.00     0.310 S 
ATOM     21  F   UNL     1       4.178   2.810  -3.340  1.00  0.00    -0.094 F 
ATOM     22  F   UNL     1       3.035   4.491  -4.146  1.00  0.00    -0.094 F 
ATOM     23  F   UNL     1       3.471   2.692  -5.396  1.00  0.00    -0.094 F 
ATOM     24  F   UNL     1       2.597   1.385  -3.842  1.00  0.00    -0.094 F 
ATOM     25  F   UNL     1       2.134   3.173  -2.602  1.00  0.00    -0.094 F 
ENDBRANCH  12  20
BRANCH  17  26
ATOM     26  C   UNL     1      -1.023   5.286   2.801  1.00  0.00     0.429 C 
ATOM     27  F   UNL     1      -1.867   6.303   2.951  1.00  0.00    -0.167 F 
ATOM     28  F   UNL     1      -1.513   4.210   3.409  1.00  0.00    -0.167 F 
ATOM     29  F   UNL     1       0.152   5.602   3.338  1.00  0.00    -0.167 F 
ENDBRANCH  17  26
ENDBRANCH   5   8
ENDBRANCH   3   4
ENDBRANCH   2   3
ENDBRANCH   1   2
BRANCH   1  30
ATOM     30  C   UNL     1       1.353  11.443  -1.300  1.00  0.00     0.116 C 
BRANCH  30  31
ATOM     31  N   UNL     1       2.216  11.285  -2.480  1.00  0.00    -0.352 N 
ATOM     32  C   UNL     1       2.762  12.471  -3.156  1.00  0.00     0.251 C 
ATOM     33  H   UNL     1       2.427  10.385  -2.818  1.00  0.00     0.163 HD
ATOM     34  O   UNL     1       3.507  12.334  -4.176  1.00  0.00    -0.269 OA
BRANCH  32  35
ATOM     35  C   UNL     1       2.435  13.861  -2.635  1.00  0.00     0.039 A 
ATOM     36  C   UNL     1       2.183  14.874  -3.544  1.00  0.00     0.014 A 
ATOM     37  C   UNL     1       2.499  14.105  -1.331  1.00  0.00     0.014 A 
ATOM     38  C   UNL     1       2.300  16.175  -3.000  1.00  0.00     0.010 A 
ATOM     39  C   UNL     1       2.471  15.396  -0.859  1.00  0.00     0.010 A 
ATOM     40  C   UNL     1       2.285  16.451  -1.709  1.00  0.00    -0.014 A 
BRANCH  40  41
ATOM     41  C   UNL     1       2.072  17.865  -1.194  1.00  0.00     0.031 A 
ATOM     42  C   UNL     1       3.057  18.472  -0.413  1.00  0.00     0.074 A 
ATOM     43  C   UNL     1       0.926  18.508  -1.631  1.00  0.00     0.049 A 
ATOM     44  N   UNL     1       3.095  19.736   0.012  1.00  0.00    -0.248 NA
ATOM     45  C   UNL     1       4.257  17.782   0.082  1.00  0.00     0.031 C 
ATOM     46  C   UNL     1      -0.068  17.905  -2.427  1.00  0.00     0.029 A 
ATOM     47  N   UNL     1       0.541  19.807  -1.388  1.00  0.00    -0.354 N 
ATOM     48  C   UNL     1       4.205  19.951   0.720  1.00  0.00     0.074 A 
ATOM     49  C   UNL     1       4.966  18.696   0.780  1.00  0.00     0.031 C 
ATOM     50  C   UNL     1      -1.044  18.824  -2.651  1.00  0.00     0.029 A 
ATOM     51  C   UNL     1      -0.676  20.017  -1.999  1.00  0.00     0.049 A 
ATOM     52  H   UNL     1       1.047  20.472  -0.868  1.00  0.00     0.167 HD
ATOM     53  C   UNL     1       4.614  21.145   1.316  1.00  0.00     0.031 A 
ATOM     54  C   UNL     1      -1.438  21.175  -1.998  1.00  0.00     0.031 A 
ATOM     55  C   UNL     1       3.873  22.316   1.280  1.00  0.00     0.049 A 
ATOM     56  C   UNL     1      -1.056  22.353  -1.353  1.00  0.00     0.074 A 
ATOM     57  C   UNL     1       4.274  23.530   1.869  1.00  0.00     0.029 A 
ATOM     58  N   UNL     1       2.644  22.518   0.690  1.00  0.00    -0.354 N 
ATOM     59  N   UNL     1       0.072  22.579  -0.679  1.00  0.00    -0.248 NA
ATOM     60  C   UNL     1      -1.870  23.576  -1.318  1.00  0.00     0.031 C 
ATOM     61  C   UNL     1       3.297  24.450   1.645  1.00  0.00     0.029 A 
ATOM     62  C   UNL     1       2.270  23.824   0.913  1.00  0.00     0.049 A 
ATOM     63  H   UNL     1       2.124  21.845   0.193  1.00  0.00     0.167 HD
ATOM     64  C   UNL     1       0.090  23.832  -0.219  1.00  0.00     0.074 A 
ATOM     65  C   UNL     1      -1.162  24.489  -0.618  1.00  0.00     0.031 C 
ATOM     66  C   UNL     1       1.102  24.455   0.513  1.00  0.00     0.031 A 
BRANCH  53  67
ATOM     67  C   UNL     1       5.948  21.163   2.045  1.00  0.00    -0.014 A 
ATOM     68  C   UNL     1       7.107  20.867   1.348  1.00  0.00     0.010 A 
ATOM     69  C   UNL     1       5.979  21.463   3.338  1.00  0.00     0.010 A 
ATOM     70  C   UNL     1       8.229  20.629   2.176  1.00  0.00     0.020 A 
ATOM     71  C   UNL     1       7.143  21.337   4.057  1.00  0.00     0.020 A 
ATOM     72  C   UNL     1       8.315  20.990   3.443  1.00  0.00     0.054 A 
BRANCH  72  73
ATOM     73  S   UNL     1       9.897  21.025   4.321  1.00  0.00     0.124 S 
ATOM     74  O   UNL     1      10.511  19.623   4.321  1.00  0.00    -0.237 OA
ATOM     75  O   UNL     1      10.848  21.998   3.620  1.00  0.00    -0.237 OA
ATOM     76  O   UNL     1       9.644  21.536   5.933  1.00  0.00    -0.744 OA
ENDBRANCH  72  73
ENDBRANCH  53  67
BRANCH  54  77
ATOM     77  C   UNL     1      -2.763  21.161  -2.742  1.00  0.00    -0.014 A 
ATOM     78  C   UNL     1      -2.966  22.049  -3.785  1.00  0.00     0.010 A 
ATOM     79  C   UNL     1      -3.705  20.298  -2.379  1.00  0.00     0.010 A 
ATOM     80  C   UNL     1      -4.315  22.146  -4.201  1.00  0.00     0.020 A 
ATOM     81  C   UNL     1      -4.964  20.365  -2.926  1.00  0.00     0.020 A 
ATOM     82  C   UNL     1      -5.252  21.258  -3.920  1.00  0.00     0.054 A 
BRANCH  82  83
ATOM     83  S   UNL     1      -6.831  21.226  -4.804  1.00  0.00     0.124 S 
ATOM     84  O   UNL     1      -7.553  22.561  -4.608  1.00  0.00    -0.237 OA
ATOM     85  O   UNL     1      -6.576  20.997  -6.296  1.00  0.00    -0.237 OA
ATOM     86  O   UNL     1      -7.801  19.958  -4.191  1.00  0.00    -0.744 OA
ENDBRANCH  82  83
ENDBRANCH  54  77
BRANCH  66  87
ATOM     87  C   UNL     1       0.913  25.915   0.894  1.00  0.00    -0.014 A 
ATOM     88  C   UNL     1      -0.200  26.304   1.621  1.00  0.00     0.010 A 
ATOM     89  C   UNL     1       1.799  26.804   0.461  1.00  0.00     0.010 A 
ATOM     90  C   UNL     1      -0.443  27.698   1.594  1.00  0.00     0.020 A 
ATOM     91  C   UNL     1       1.558  28.151   0.590  1.00  0.00     0.020 A 
ATOM     92  C   UNL     1       0.448  28.607   1.246  1.00  0.00     0.054 A 
BRANCH  92  93
ATOM     93  S   UNL     1       0.214  30.363   1.615  1.00  0.00     0.124 S 
ATOM     94  O   UNL     1      -1.067  30.860   0.941  1.00  0.00    -0.237 OA
ATOM     95  O   UNL     1       0.100  30.555   3.129  1.00  0.00    -0.237 OA
ATOM     96  O   UNL     1       1.550  31.253   1.027  1.00  0.00    -0.744 OA
ENDBRANCH  92  93
ENDBRANCH  66  87
ENDBRANCH  40  41
ENDBRANCH  32  35
ENDBRANCH  30  31
ENDBRANCH   1  30
TORSDOF 17
