REMARK SMILES C[C@@H]1CC[C@@H](C(=O)NCCCCNC(=O)c2ccc(-c3c4nc(c(-c5ccc(S(=O)(=O)[O-])cc5)c5ccc([nH]5)c(-c5ccc(S(=O)(=O)[O-])cc5)c5nc(c(-c6ccc(S(=O)(=O)[O-])cc6)c6ccc3[nH]6)C=C5)C=C4)cc2)[C@H]2C(=O)N(c3ccccc3)C(=O)[C@@H]21
REMARK SMILES IDX 11 1 10 2 9 3 8 4 6 5 7 6 5 8 1 9 2 10 3 11 88 12 4 13 76 14
REMARK SMILES IDX 86 15 77 16 79 17 87 18 78 19 80 20 81 21 85 22 82 23 84 24
REMARK SMILES IDX 83 25 12 26 13 27 14 28 15 30 16 31 17 32 75 33 18 34 74 35
REMARK SMILES IDX 19 36 20 37 21 38 68 39 22 40 73 41 67 42 69 43 23 44 72 45
REMARK SMILES IDX 66 46 65 47 24 49 54 50 35 51 53 52 36 53 39 54 52 55 70 56
REMARK SMILES IDX 37 57 38 58 51 60 71 61 40 62 25 63 26 64 34 65 27 66 33 67
REMARK SMILES IDX 28 68 29 69 30 70 31 71 32 72 55 73 56 74 64 75 57 76 63 77
REMARK SMILES IDX 58 78 59 79 60 80 61 81 62 82 41 83 42 84 50 85 43 86 49 87
REMARK SMILES IDX 44 88 45 89 46 90 47 91 48 92
REMARK H PARENT 8 7 13 29 69 48 39 59
REMARK Flexibility Score: inf
ROOT
ATOM      1  C   UNL     1      -5.817   1.472  -3.168  1.00  0.00     0.023 C 
ENDROOT
BRANCH   1   2
ATOM      2  C   UNL     1      -5.109   0.427  -2.300  1.00  0.00     0.023 C 
BRANCH   2   3
ATOM      3  C   UNL     1      -4.258  -0.583  -3.073  1.00  0.00     0.116 C 
BRANCH   3   4
ATOM      4  N   UNL     1      -3.210   0.076  -3.828  1.00  0.00    -0.356 N 
ATOM      5  C   UNL     1      -1.866   0.113  -3.628  1.00  0.00     0.223 C 
ATOM      6  O   UNL     1      -1.192   0.805  -4.391  1.00  0.00    -0.275 OA
ATOM      7  H   UNL     1      -3.523   0.580  -4.613  1.00  0.00     0.163 HD
BRANCH   5   8
ATOM      8  C   UNL     1      -1.233  -0.703  -2.502  1.00  0.00     0.092 C 
ATOM      9  C   UNL     1       1.342   0.115   0.214  1.00  0.00     0.008 C 
ATOM     10  C   UNL     1       0.714   0.999  -0.864  1.00  0.00    -0.001 C 
ATOM     11  C   UNL     1      -0.816   1.100  -0.687  1.00  0.00     0.005 C 
ATOM     12  C   UNL     1       0.973   0.535  -2.290  1.00  0.00     0.095 C 
ATOM     13  C   UNL     1      -1.574  -0.177  -1.090  1.00  0.00     0.014 C 
ATOM     14  C   UNL     1       0.287  -0.778  -2.617  1.00  0.00     0.104 C 
ATOM     15  C   UNL     1       2.365   0.254  -2.786  1.00  0.00     0.237 C 
ATOM     16  C   UNL     1       0.930  -1.125  -3.936  1.00  0.00     0.238 C 
ATOM     17  N   UNL     1       2.205  -0.565  -3.898  1.00  0.00    -0.250 N 
ATOM     18  O   UNL     1       3.375   0.756  -2.316  1.00  0.00    -0.274 OA
ATOM     19  O   UNL     1       0.448  -1.917  -4.732  1.00  0.00    -0.274 OA
BRANCH  17  20
ATOM     20  C   UNL     1       3.218  -0.823  -4.857  1.00  0.00     0.052 A 
ATOM     21  C   UNL     1       4.575  -0.797  -4.506  1.00  0.00     0.027 A 
ATOM     22  C   UNL     1       2.886  -1.082  -6.195  1.00  0.00     0.027 A 
ATOM     23  C   UNL     1       5.570  -1.034  -5.460  1.00  0.00     0.002 A 
ATOM     24  C   UNL     1       3.882  -1.288  -7.155  1.00  0.00     0.002 A 
ATOM     25  C   UNL     1       5.223  -1.271  -6.786  1.00  0.00     0.000 A 
ENDBRANCH  17  20
ENDBRANCH   5   8
ENDBRANCH   3   4
ENDBRANCH   2   3
ENDBRANCH   1   2
BRANCH   1  26
ATOM     26  C   UNL     1      -6.711   0.907  -4.264  1.00  0.00     0.116 C 
BRANCH  26  27
ATOM     27  N   UNL     1      -7.787   0.082  -3.741  1.00  0.00    -0.352 N 
ATOM     28  C   UNL     1      -9.117   0.076  -4.089  1.00  0.00     0.251 C 
ATOM     29  H   UNL     1      -7.529  -0.560  -3.041  1.00  0.00     0.163 HD
ATOM     30  O   UNL     1      -9.915  -0.591  -3.439  1.00  0.00    -0.269 OA
BRANCH  28  31
ATOM     31  C   UNL     1      -9.583   0.900  -5.226  1.00  0.00     0.039 A 
ATOM     32  C   UNL     1     -10.729   1.683  -5.066  1.00  0.00     0.014 A 
ATOM     33  C   UNL     1      -8.889   0.911  -6.439  1.00  0.00     0.014 A 
ATOM     34  C   UNL     1     -11.144   2.525  -6.101  1.00  0.00     0.010 A 
ATOM     35  C   UNL     1      -9.264   1.799  -7.444  1.00  0.00     0.010 A 
ATOM     36  C   UNL     1     -10.396   2.614  -7.286  1.00  0.00    -0.014 A 
BRANCH  36  37
ATOM     37  C   UNL     1     -10.780   3.550  -8.374  1.00  0.00     0.031 A 
ATOM     38  C   UNL     1     -11.193   3.016  -9.719  1.00  0.00     0.074 A 
ATOM     39  C   UNL     1     -10.694   4.881  -8.174  1.00  0.00     0.049 A 
ATOM     40  N   UNL     1     -11.488   3.672 -10.812  1.00  0.00    -0.248 NA
ATOM     41  C   UNL     1     -11.260   1.552  -9.860  1.00  0.00     0.031 C 
ATOM     42  C   UNL     1     -10.275   5.527  -6.928  1.00  0.00     0.029 A 
ATOM     43  N   UNL     1     -10.947   5.931  -9.022  1.00  0.00    -0.354 N 
ATOM     44  C   UNL     1     -11.757   2.704 -11.773  1.00  0.00     0.074 A 
ATOM     45  C   UNL     1     -11.545   1.417 -11.147  1.00  0.00     0.031 C 
ATOM     46  C   UNL     1     -10.322   6.860  -7.086  1.00  0.00     0.029 A 
ATOM     47  C   UNL     1     -10.733   7.164  -8.453  1.00  0.00     0.049 A 
ATOM     48  H   UNL     1     -11.253   5.812  -9.950  1.00  0.00     0.167 HD
ATOM     49  C   UNL     1     -12.161   2.870 -13.055  1.00  0.00     0.031 A 
ATOM     50  C   UNL     1     -10.845   8.402  -8.974  1.00  0.00     0.031 A 
ATOM     51  C   UNL     1     -12.383   4.150 -13.673  1.00  0.00     0.049 A 
ATOM     52  C   UNL     1     -11.286   8.560 -10.404  1.00  0.00     0.074 A 
ATOM     53  C   UNL     1     -12.840   4.421 -14.951  1.00  0.00     0.029 A 
ATOM     54  N   UNL     1     -12.168   5.374 -13.058  1.00  0.00    -0.354 N 
ATOM     55  N   UNL     1     -11.588   7.632 -11.280  1.00  0.00    -0.248 NA
ATOM     56  C   UNL     1     -11.412   9.934 -10.911  1.00  0.00     0.031 C 
ATOM     57  C   UNL     1     -12.858   5.809 -15.124  1.00  0.00     0.029 A 
ATOM     58  C   UNL     1     -12.465   6.403 -13.935  1.00  0.00     0.049 A 
ATOM     59  H   UNL     1     -11.850   5.494 -12.134  1.00  0.00     0.167 HD
ATOM     60  C   UNL     1     -11.968   8.311 -12.433  1.00  0.00     0.074 A 
ATOM     61  C   UNL     1     -11.869   9.726 -12.138  1.00  0.00     0.031 C 
ATOM     62  C   UNL     1     -12.366   7.807 -13.627  1.00  0.00     0.031 A 
BRANCH  49  63
ATOM     63  C   UNL     1     -12.386   1.629 -13.879  1.00  0.00    -0.014 A 
ATOM     64  C   UNL     1     -13.475   0.777 -13.622  1.00  0.00     0.010 A 
ATOM     65  C   UNL     1     -11.520   1.331 -14.947  1.00  0.00     0.010 A 
ATOM     66  C   UNL     1     -13.669  -0.374 -14.390  1.00  0.00     0.020 A 
ATOM     67  C   UNL     1     -11.727   0.195 -15.735  1.00  0.00     0.020 A 
ATOM     68  C   UNL     1     -12.791  -0.660 -15.439  1.00  0.00     0.054 A 
BRANCH  68  69
ATOM     69  S   UNL     1     -13.079  -2.151 -16.432  1.00  0.00     0.124 S 
ATOM     70  O   UNL     1     -12.653  -3.207 -15.516  1.00  0.00    -0.237 OA
ATOM     71  O   UNL     1     -14.514  -2.090 -16.695  1.00  0.00    -0.237 OA
ATOM     72  O   UNL     1     -12.225  -1.959 -17.601  1.00  0.00    -0.744 OA
ENDBRANCH  68  69
ENDBRANCH  49  63
BRANCH  50  73
ATOM     73  C   UNL     1     -10.550   9.594  -8.132  1.00  0.00    -0.014 A 
ATOM     74  C   UNL     1     -11.589  10.438  -7.703  1.00  0.00     0.010 A 
ATOM     75  C   UNL     1      -9.228   9.887  -7.750  1.00  0.00     0.010 A 
ATOM     76  C   UNL     1     -11.311  11.565  -6.925  1.00  0.00     0.020 A 
ATOM     77  C   UNL     1      -8.949  10.999  -6.950  1.00  0.00     0.020 A 
ATOM     78  C   UNL     1      -9.992  11.838  -6.553  1.00  0.00     0.054 A 
BRANCH  78  79
ATOM     79  S   UNL     1      -9.659  13.280  -5.503  1.00  0.00     0.124 S 
ATOM     80  O   UNL     1      -9.807  14.383  -6.446  1.00  0.00    -0.237 OA
ATOM     81  O   UNL     1     -10.699  13.175  -4.482  1.00  0.00    -0.237 OA
ATOM     82  O   UNL     1      -8.300  13.044  -5.021  1.00  0.00    -0.744 OA
ENDBRANCH  78  79
ENDBRANCH  50  73
BRANCH  62  83
ATOM     83  C   UNL     1     -12.766   8.788 -14.696  1.00  0.00    -0.014 A 
ATOM     84  C   UNL     1     -11.806   9.556 -15.378  1.00  0.00     0.010 A 
ATOM     85  C   UNL     1     -14.120   8.898 -15.062  1.00  0.00     0.010 A 
ATOM     86  C   UNL     1     -12.198  10.438 -16.389  1.00  0.00     0.020 A 
ATOM     87  C   UNL     1     -14.512   9.759 -16.090  1.00  0.00     0.020 A 
ATOM     88  C   UNL     1     -13.549  10.534 -16.738  1.00  0.00     0.054 A 
BRANCH  88  89
ATOM     89  S   UNL     1     -14.027  11.650 -18.086  1.00  0.00     0.124 S 
ATOM     90  O   UNL     1     -13.915  12.960 -17.451  1.00  0.00    -0.237 OA
ATOM     91  O   UNL     1     -13.027  11.362 -19.112  1.00  0.00    -0.237 OA
ATOM     92  O   UNL     1     -15.387  11.231 -18.417  1.00  0.00    -0.744 OA
ENDBRANCH  88  89
ENDBRANCH  62  83
ENDBRANCH  36  37
ENDBRANCH  28  31
ENDBRANCH  26  27
ENDBRANCH   1  26
TORSDOF 15
