REMARK SMILES COc1ccc(-c2ccc(/C=C3\SC(=S)N([C@H](Cc4ccccc4)C(=O)NCCCCNC(=O)c4ccc(-c5c6nc(c(-c7ccc(S(=O)(=O)[O-])cc7)c7ccc([nH]7)c(-c7ccc(S(=O)(=O)[O-])cc7)c7nc(c(-c8ccc(S(=O)(=O)[O-])cc8)c8ccc5[nH]8)C=C7)C=C6)cc4)C3=O)o2)cc1
REMARK SMILES IDX 29 1 28 2 27 3 25 4 26 5 17 7 16 8 11 9 12 10 13 11 95 12
REMARK SMILES IDX 14 13 96 14 15 15 10 16 7 17 8 18 97 19 9 20 6 21 3 22 4 23
REMARK SMILES IDX 99 24 5 25 98 26 2 27 1 28 18 29 19 30 20 31 24 32 21 33
REMARK SMILES IDX 23 34 22 35 30 36 31 37 32 38 33 39 34 41 35 42 36 43 94 44
REMARK SMILES IDX 37 45 93 46 38 47 39 48 40 49 87 50 41 51 92 52 86 53 88 54
REMARK SMILES IDX 42 55 91 56 85 57 84 58 43 60 73 61 54 62 72 63 55 64 58 65
REMARK SMILES IDX 71 66 89 67 56 68 57 69 70 71 90 72 59 73 44 74 45 75 53 76
REMARK SMILES IDX 46 77 52 78 47 79 48 80 49 81 50 82 51 83 74 84 75 85 83 86
REMARK SMILES IDX 76 87 82 88 77 89 78 90 79 91 80 92 81 93 60 94 61 95 69 96
REMARK SMILES IDX 62 97 68 98 63 99 64 100 65 101 66 102 67 103
REMARK H PARENT 27 6 32 40 88 59 58 70
REMARK Flexibility Score: inf
ROOT
ATOM      1  C   UNL     1       2.256  -7.914   9.985  1.00  0.00     0.023 C 
ENDROOT
BRANCH   1   2
ATOM      2  C   UNL     1       1.456  -8.517  11.139  1.00  0.00     0.116 C 
BRANCH   2   3
ATOM      3  N   UNL     1       1.898  -8.006  12.420  1.00  0.00    -0.354 N 
ATOM      4  C   UNL     1       1.282  -7.165  13.302  1.00  0.00     0.243 C 
ATOM      5  O   UNL     1       1.946  -6.775  14.267  1.00  0.00    -0.273 OA
ATOM      6  H   UNL     1       2.788  -8.317  12.702  1.00  0.00     0.163 HD
BRANCH   4   7
ATOM      7  C   UNL     1      -0.117  -6.557  13.036  1.00  0.00     0.185 C 
BRANCH   7   8
ATOM      8  N   UNL     1      -1.225  -7.494  12.707  1.00  0.00    -0.280 N 
ATOM      9  C   UNL     1      -4.562  -7.598  11.390  1.00  0.00     0.068 C 
ATOM     10  C   UNL     1      -3.425  -7.963  11.989  1.00  0.00     0.084 C 
ATOM     11  S   UNL     1      -2.878  -9.487  12.520  1.00  0.00    -0.054 SA
ATOM     12  C   UNL     1      -2.457  -6.933  12.427  1.00  0.00     0.267 C 
ATOM     13  C   UNL     1      -1.397  -8.778  13.196  1.00  0.00     0.149 C 
ATOM     14  O   UNL     1      -2.815  -5.801  12.728  1.00  0.00    -0.268 OA
ATOM     15  S   UNL     1      -0.481  -9.651  14.283  1.00  0.00    -0.052 S 
BRANCH   9  16
ATOM     16  C   UNL     1      -5.667  -8.463  11.194  1.00  0.00     0.128 A 
ATOM     17  C   UNL     1      -7.091  -9.866  10.232  1.00  0.00     0.134 A 
ATOM     18  C   UNL     1      -7.704  -9.426  11.384  1.00  0.00     0.051 A 
ATOM     19  O   UNL     1      -5.849  -9.309  10.120  1.00  0.00    -0.457 OA
ATOM     20  C   UNL     1      -6.798  -8.540  11.997  1.00  0.00     0.051 A 
BRANCH  17  21
ATOM     21  C   UNL     1      -7.551 -10.731   9.158  1.00  0.00     0.017 A 
ATOM     22  C   UNL     1      -8.599 -12.494   7.220  1.00  0.00     0.118 A 
ATOM     23  C   UNL     1      -7.316 -12.686   7.744  1.00  0.00     0.047 A 
ATOM     24  C   UNL     1      -9.350 -11.403   7.651  1.00  0.00     0.047 A 
ATOM     25  C   UNL     1      -6.789 -11.807   8.700  1.00  0.00     0.016 A 
ATOM     26  C   UNL     1      -8.831 -10.534   8.617  1.00  0.00     0.016 A 
BRANCH  22  27
ATOM     27  O   UNL     1      -9.003 -13.434   6.313  1.00  0.00    -0.497 OA
ATOM     28  C   UNL     1     -10.295 -13.265   5.743  1.00  0.00     0.278 C 
ENDBRANCH  22  27
ENDBRANCH  17  21
ENDBRANCH   9  16
ENDBRANCH   7   8
BRANCH   7  29
ATOM     29  C   UNL     1       0.188  -5.398  12.004  1.00  0.00     0.071 C 
BRANCH  29  30
ATOM     30  C   UNL     1      -0.769  -5.020  10.896  1.00  0.00    -0.045 A 
ATOM     31  C   UNL     1      -0.922  -5.816   9.753  1.00  0.00     0.004 A 
ATOM     32  C   UNL     1      -1.525  -3.842  10.994  1.00  0.00     0.004 A 
ATOM     33  C   UNL     1      -1.842  -5.471   8.760  1.00  0.00     0.000 A 
ATOM     34  C   UNL     1      -2.445  -3.498  10.002  1.00  0.00     0.000 A 
ATOM     35  C   UNL     1      -2.609  -4.317   8.888  1.00  0.00     0.000 A 
ENDBRANCH  29  30
ENDBRANCH   7  29
ENDBRANCH   4   7
ENDBRANCH   2   3
ENDBRANCH   1   2
BRANCH   1  36
ATOM     36  C   UNL     1       3.661  -8.493   9.806  1.00  0.00     0.023 C 
BRANCH  36  37
ATOM     37  C   UNL     1       3.713  -9.983   9.478  1.00  0.00     0.116 C 
BRANCH  37  38
ATOM     38  N   UNL     1       2.952 -10.338   8.289  1.00  0.00    -0.352 N 
ATOM     39  C   UNL     1       3.221 -11.311   7.356  1.00  0.00     0.251 C 
ATOM     40  H   UNL     1       2.136  -9.810   8.132  1.00  0.00     0.163 HD
ATOM     41  O   UNL     1       2.522 -11.410   6.353  1.00  0.00    -0.269 OA
BRANCH  39  42
ATOM     42  C   UNL     1       4.383 -12.202   7.549  1.00  0.00     0.039 A 
ATOM     43  C   UNL     1       5.297 -12.347   6.502  1.00  0.00     0.014 A 
ATOM     44  C   UNL     1       4.588 -12.859   8.766  1.00  0.00     0.014 A 
ATOM     45  C   UNL     1       6.462 -13.090   6.701  1.00  0.00     0.010 A 
ATOM     46  C   UNL     1       5.772 -13.559   8.978  1.00  0.00     0.010 A 
ATOM     47  C   UNL     1       6.724 -13.667   7.954  1.00  0.00    -0.014 A 
BRANCH  47  48
ATOM     48  C   UNL     1       8.007 -14.358   8.226  1.00  0.00     0.031 A 
ATOM     49  C   UNL     1       8.034 -15.839   8.465  1.00  0.00     0.074 A 
ATOM     50  C   UNL     1       9.136 -13.631   8.341  1.00  0.00     0.049 A 
ATOM     51  N   UNL     1       9.041 -16.597   8.812  1.00  0.00    -0.248 NA
ATOM     52  C   UNL     1       6.759 -16.557   8.316  1.00  0.00     0.031 C 
ATOM     53  C   UNL     1       9.232 -12.179   8.172  1.00  0.00     0.029 A 
ATOM     54  N   UNL     1      10.417 -14.016   8.641  1.00  0.00    -0.354 N 
ATOM     55  C   UNL     1       8.520 -17.877   8.949  1.00  0.00     0.074 A 
ATOM     56  C   UNL     1       7.102 -17.789   8.668  1.00  0.00     0.031 C 
ATOM     57  C   UNL     1      10.507 -11.799   8.358  1.00  0.00     0.029 A 
ATOM     58  C   UNL     1      11.309 -12.972   8.687  1.00  0.00     0.049 A 
ATOM     59  H   UNL     1      10.674 -14.952   8.809  1.00  0.00     0.167 HD
ATOM     60  C   UNL     1       9.164 -19.024   9.270  1.00  0.00     0.031 A 
ATOM     61  C   UNL     1      12.625 -12.959   8.970  1.00  0.00     0.031 A 
ATOM     62  C   UNL     1      10.574 -19.118   9.530  1.00  0.00     0.049 A 
ATOM     63  C   UNL     1      13.322 -14.246   9.301  1.00  0.00     0.074 A 
ATOM     64  C   UNL     1      11.326 -20.245   9.813  1.00  0.00     0.029 A 
ATOM     65  N   UNL     1      11.448 -18.042   9.536  1.00  0.00    -0.354 N 
ATOM     66  N   UNL     1      12.819 -15.454   9.384  1.00  0.00    -0.248 NA
ATOM     67  C   UNL     1      14.764 -14.169   9.572  1.00  0.00     0.031 C 
ATOM     68  C   UNL     1      12.654 -19.847  10.011  1.00  0.00     0.029 A 
ATOM     69  C   UNL     1      12.730 -18.475   9.826  1.00  0.00     0.049 A 
ATOM     70  H   UNL     1      11.194 -17.107   9.360  1.00  0.00     0.167 HD
ATOM     71  C   UNL     1      13.885 -16.284   9.706  1.00  0.00     0.074 A 
ATOM     72  C   UNL     1      15.062 -15.443   9.792  1.00  0.00     0.031 C 
ATOM     73  C   UNL     1      13.887 -17.623   9.911  1.00  0.00     0.031 A 
BRANCH  60  74
ATOM     74  C   UNL     1       8.330 -20.270   9.364  1.00  0.00    -0.014 A 
ATOM     75  C   UNL     1       7.877 -20.922   8.203  1.00  0.00     0.010 A 
ATOM     76  C   UNL     1       8.000 -20.798  10.624  1.00  0.00     0.010 A 
ATOM     77  C   UNL     1       7.067 -22.056   8.302  1.00  0.00     0.020 A 
ATOM     78  C   UNL     1       7.205 -21.943  10.726  1.00  0.00     0.020 A 
ATOM     79  C   UNL     1       6.726 -22.552   9.564  1.00  0.00     0.054 A 
BRANCH  79  80
ATOM     80  S   UNL     1       5.670 -24.024   9.674  1.00  0.00     0.124 S 
ATOM     81  O   UNL     1       4.338 -23.449   9.501  1.00  0.00    -0.237 OA
ATOM     82  O   UNL     1       6.145 -24.851   8.568  1.00  0.00    -0.237 OA
ATOM     83  O   UNL     1       5.955 -24.551  11.006  1.00  0.00    -0.744 OA
ENDBRANCH  79  80
ENDBRANCH  60  74
BRANCH  61  84
ATOM     84  C   UNL     1      13.371 -11.675   8.936  1.00  0.00    -0.014 A 
ATOM     85  C   UNL     1      14.174 -11.356   7.828  1.00  0.00     0.010 A 
ATOM     86  C   UNL     1      13.253 -10.754   9.991  1.00  0.00     0.010 A 
ATOM     87  C   UNL     1      14.854 -10.137   7.777  1.00  0.00     0.020 A 
ATOM     88  C   UNL     1      13.919  -9.527   9.936  1.00  0.00     0.020 A 
ATOM     89  C   UNL     1      14.722  -9.229   8.832  1.00  0.00     0.054 A 
BRANCH  89  90
ATOM     90  S   UNL     1      15.550  -7.618   8.720  1.00  0.00     0.124 S 
ATOM     91  O   UNL     1      16.899  -7.939   9.175  1.00  0.00    -0.237 OA
ATOM     92  O   UNL     1      15.422  -7.287   7.302  1.00  0.00    -0.237 OA
ATOM     93  O   UNL     1      14.766  -6.774   9.619  1.00  0.00    -0.744 OA
ENDBRANCH  89  90
ENDBRANCH  61  84
BRANCH  73  94
ATOM     94  C   UNL     1      15.207 -18.262  10.234  1.00  0.00    -0.014 A 
ATOM     95  C   UNL     1      15.740 -18.194  11.533  1.00  0.00     0.010 A 
ATOM     96  C   UNL     1      15.897 -18.977   9.239  1.00  0.00     0.010 A 
ATOM     97  C   UNL     1      16.956 -18.815  11.828  1.00  0.00     0.020 A 
ATOM     98  C   UNL     1      17.106 -19.611   9.535  1.00  0.00     0.020 A 
ATOM     99  C   UNL     1      17.634 -19.516  10.825  1.00  0.00     0.054 A 
BRANCH  99 100
ATOM    100  S   UNL     1      19.188 -20.359  11.235  1.00  0.00     0.124 S 
ATOM    101  O   UNL     1      20.155 -19.268  11.150  1.00  0.00    -0.237 OA
ATOM    102  O   UNL     1      18.937 -20.872  12.580  1.00  0.00    -0.237 OA
ATOM    103  O   UNL     1      19.305 -21.382  10.198  1.00  0.00    -0.744 OA
ENDBRANCH  99 100
ENDBRANCH  73  94
ENDBRANCH  47  48
ENDBRANCH  39  42
ENDBRANCH  37  38
ENDBRANCH  36  37
ENDBRANCH   1  36
TORSDOF 20
