REMARK SMILES CC(C)[C@@H]1CSC[C@@H](C(=O)NCCCCNC(=O)c2ccc(-c3c4nc(c(-c5ccc(S(=O)(=O)[O-])cc5)c5ccc([nH]5)c(-c5ccc(S(=O)(=O)[O-])cc5)c5nc(c(-c6ccc(S(=O)(=O)[O-])cc6)c6ccc3[nH]6)C=C5)C=C4)cc2)[NH2+]1
REMARK SMILES IDX 14 1 13 2 12 3 11 4 9 5 10 6 8 8 4 9 5 10 79 11 6 12 7 15
REMARK SMILES IDX 2 16 1 17 3 18 15 19 16 20 17 21 18 23 19 24 20 25 78 26
REMARK SMILES IDX 21 27 77 28 22 29 23 30 24 31 71 32 25 33 76 34 70 35 72 36
REMARK SMILES IDX 26 37 75 38 69 39 68 40 27 42 57 43 38 44 56 45 39 46 42 47
REMARK SMILES IDX 55 48 73 49 40 50 41 51 54 53 74 54 43 55 28 56 29 57 37 58
REMARK SMILES IDX 30 59 36 60 31 61 32 62 33 63 34 64 35 65 58 66 59 67 67 68
REMARK SMILES IDX 60 69 66 70 61 71 62 72 63 73 64 74 65 75 44 76 45 77 53 78
REMARK SMILES IDX 46 79 52 80 47 81 48 82 49 83 50 84 51 85
REMARK H PARENT 11 7 79 13 79 14 16 22 72 41 42 52
REMARK Flexibility Score: inf
ROOT
ATOM      1  C   UNL     1      -5.737   0.067   3.763  1.00  0.00     0.023 C 
ENDROOT
BRANCH   1   2
ATOM      2  C   UNL     1      -4.918  -0.356   2.544  1.00  0.00     0.023 C 
BRANCH   2   3
ATOM      3  C   UNL     1      -4.153   0.777   1.869  1.00  0.00     0.116 C 
BRANCH   3   4
ATOM      4  N   UNL     1      -3.161   1.367   2.751  1.00  0.00    -0.351 N 
ATOM      5  C   UNL     1      -1.806   1.448   2.596  1.00  0.00     0.279 C 
ATOM      6  O   UNL     1      -1.144   1.956   3.505  1.00  0.00    -0.268 OA
ATOM      7  H   UNL     1      -3.515   1.766   3.578  1.00  0.00     0.163 HD
BRANCH   5   8
ATOM      8  C   UNL     1      -1.123   0.923   1.317  1.00  0.00     0.282 C 
ATOM      9  C   UNL     1      -0.858  -1.175   0.005  1.00  0.00     0.195 C 
ATOM     10  C   UNL     1      -1.433  -0.551  -1.284  1.00  0.00     0.135 C 
ATOM     11  N   UNL     1      -1.389  -0.524   1.207  1.00  0.00    -0.332 N 
ATOM     12  S   UNL     1      -1.089   1.221  -1.522  1.00  0.00    -0.149 SA
ATOM     13  H   UNL     1      -0.977  -0.982   2.020  1.00  0.00     0.347 HD
ATOM     14  H   UNL     1      -2.403  -0.618   1.150  1.00  0.00     0.347 HD
ATOM     15  C   UNL     1      -1.527   1.828   0.140  1.00  0.00     0.145 C 
BRANCH   9  16
ATOM     16  C   UNL     1       0.676  -1.481  -0.027  1.00  0.00     0.042 C 
ATOM     17  C   UNL     1       1.636  -0.320  -0.293  1.00  0.00     0.014 C 
ATOM     18  C   UNL     1       1.130  -2.214   1.244  1.00  0.00     0.014 C 
ENDBRANCH   9  16
ENDBRANCH   5   8
ENDBRANCH   3   4
ENDBRANCH   2   3
ENDBRANCH   1   2
BRANCH   1  19
ATOM     19  C   UNL     1      -6.649   1.269   3.546  1.00  0.00     0.116 C 
BRANCH  19  20
ATOM     20  N   UNL     1      -7.581   1.079   2.446  1.00  0.00    -0.352 N 
ATOM     21  C   UNL     1      -8.932   1.327   2.400  1.00  0.00     0.251 C 
ATOM     22  H   UNL     1      -7.189   0.722   1.617  1.00  0.00     0.163 HD
ATOM     23  O   UNL     1      -9.584   0.965   1.428  1.00  0.00    -0.269 OA
BRANCH  21  24
ATOM     24  C   UNL     1      -9.595   1.999   3.538  1.00  0.00     0.039 A 
ATOM     25  C   UNL     1     -10.807   1.486   4.003  1.00  0.00     0.014 A 
ATOM     26  C   UNL     1      -9.023   3.117   4.153  1.00  0.00     0.014 A 
ATOM     27  C   UNL     1     -11.416   2.062   5.118  1.00  0.00     0.010 A 
ATOM     28  C   UNL     1      -9.588   3.635   5.316  1.00  0.00     0.010 A 
ATOM     29  C   UNL     1     -10.795   3.118   5.808  1.00  0.00    -0.014 A 
BRANCH  29  30
ATOM     30  C   UNL     1     -11.406   3.675   7.042  1.00  0.00     0.031 A 
ATOM     31  C   UNL     1     -11.866   5.108   7.091  1.00  0.00     0.074 A 
ATOM     32  C   UNL     1     -11.533   2.888   8.130  1.00  0.00     0.049 A 
ATOM     33  N   UNL     1     -12.452   5.750   8.069  1.00  0.00    -0.248 NA
ATOM     34  C   UNL     1     -11.617   5.934   5.898  1.00  0.00     0.031 C 
ATOM     35  C   UNL     1     -11.071   1.500   8.229  1.00  0.00     0.029 A 
ATOM     36  N   UNL     1     -12.096   3.136   9.357  1.00  0.00    -0.354 N 
ATOM     37  C   UNL     1     -12.649   7.047   7.609  1.00  0.00     0.074 A 
ATOM     38  C   UNL     1     -12.054   7.121   6.293  1.00  0.00     0.031 C 
ATOM     39  C   UNL     1     -11.404   1.010   9.434  1.00  0.00     0.029 A 
ATOM     40  C   UNL     1     -12.068   2.054  10.206  1.00  0.00     0.049 A 
ATOM     41  H   UNL     1     -12.483   4.006   9.605  1.00  0.00     0.167 HD
ATOM     42  C   UNL     1     -13.293   8.075   8.211  1.00  0.00     0.031 A 
ATOM     43  C   UNL     1     -12.527   1.916  11.465  1.00  0.00     0.031 A 
ATOM     44  C   UNL     1     -13.879   8.001   9.524  1.00  0.00     0.049 A 
ATOM     45  C   UNL     1     -13.230   3.076  12.117  1.00  0.00     0.074 A 
ATOM     46  C   UNL     1     -14.580   8.977  10.210  1.00  0.00     0.029 A 
ATOM     47  N   UNL     1     -13.833   6.888  10.350  1.00  0.00    -0.354 N 
ATOM     48  N   UNL     1     -13.466   4.273  11.634  1.00  0.00    -0.248 NA
ATOM     49  C   UNL     1     -13.747   2.859  13.474  1.00  0.00     0.031 C 
ATOM     50  C   UNL     1     -14.912   8.472  11.472  1.00  0.00     0.029 A 
ATOM     51  C   UNL     1     -14.477   7.159  11.546  1.00  0.00     0.049 A 
ATOM     52  H   UNL     1     -13.406   6.031  10.120  1.00  0.00     0.167 HD
ATOM     53  C   UNL     1     -14.180   4.944  12.622  1.00  0.00     0.074 A 
ATOM     54  C   UNL     1     -14.362   4.008  13.713  1.00  0.00     0.031 C 
ATOM     55  C   UNL     1     -14.641   6.220  12.627  1.00  0.00     0.031 A 
BRANCH  42  56
ATOM     56  C   UNL     1     -13.410   9.368   7.444  1.00  0.00    -0.014 A 
ATOM     57  C   UNL     1     -14.221   9.454   6.296  1.00  0.00     0.010 A 
ATOM     58  C   UNL     1     -12.746  10.521   7.898  1.00  0.00     0.010 A 
ATOM     59  C   UNL     1     -14.336  10.659   5.598  1.00  0.00     0.020 A 
ATOM     60  C   UNL     1     -12.884  11.737   7.220  1.00  0.00     0.020 A 
ATOM     61  C   UNL     1     -13.668  11.793   6.065  1.00  0.00     0.054 A 
BRANCH  61  62
ATOM     62  S   UNL     1     -13.867  13.351   5.157  1.00  0.00     0.124 S 
ATOM     63  O   UNL     1     -13.118  13.083   3.932  1.00  0.00    -0.237 OA
ATOM     64  O   UNL     1     -15.316  13.444   4.998  1.00  0.00    -0.237 OA
ATOM     65  O   UNL     1     -13.274  14.349   6.043  1.00  0.00    -0.744 OA
ENDBRANCH  61  62
ENDBRANCH  42  56
BRANCH  43  66
ATOM     66  C   UNL     1     -12.338   0.629  12.191  1.00  0.00    -0.014 A 
ATOM     67  C   UNL     1     -13.436  -0.187  12.518  1.00  0.00     0.010 A 
ATOM     68  C   UNL     1     -11.046   0.215  12.567  1.00  0.00     0.010 A 
ATOM     69  C   UNL     1     -13.249  -1.374  13.233  1.00  0.00     0.020 A 
ATOM     70  C   UNL     1     -10.852  -0.988  13.252  1.00  0.00     0.020 A 
ATOM     71  C   UNL     1     -11.957  -1.766  13.596  1.00  0.00     0.054 A 
BRANCH  71  72
ATOM     72  S   UNL     1     -11.734  -3.325  14.497  1.00  0.00     0.124 S 
ATOM     73  O   UNL     1     -12.243  -2.986  15.822  1.00  0.00    -0.237 OA
ATOM     74  O   UNL     1     -12.552  -4.256  13.723  1.00  0.00    -0.237 OA
ATOM     75  O   UNL     1     -10.294  -3.561  14.420  1.00  0.00    -0.744 OA
ENDBRANCH  71  72
ENDBRANCH  43  66
BRANCH  55  76
ATOM     76  C   UNL     1     -15.414   6.666  13.842  1.00  0.00    -0.014 A 
ATOM     77  C   UNL     1     -14.784   6.840  15.088  1.00  0.00     0.010 A 
ATOM     78  C   UNL     1     -16.791   6.933  13.729  1.00  0.00     0.010 A 
ATOM     79  C   UNL     1     -15.527   7.220  16.209  1.00  0.00     0.020 A 
ATOM     80  C   UNL     1     -17.531   7.347  14.839  1.00  0.00     0.020 A 
ATOM     81  C   UNL     1     -16.898   7.466  16.078  1.00  0.00     0.054 A 
BRANCH  81  82
ATOM     82  S   UNL     1     -17.838   7.966  17.545  1.00  0.00     0.124 S 
ATOM     83  O   UNL     1     -17.907   6.719  18.301  1.00  0.00    -0.237 OA
ATOM     84  O   UNL     1     -16.995   9.008  18.126  1.00  0.00    -0.237 OA
ATOM     85  O   UNL     1     -19.110   8.434  17.000  1.00  0.00    -0.744 OA
ENDBRANCH  81  82
ENDBRANCH  55  76
ENDBRANCH  29  30
ENDBRANCH  21  24
ENDBRANCH  19  20
ENDBRANCH   1  19
TORSDOF 15
