REMARK SMILES O=C(NCCCCNC(=O)[C@H]1CCC(=O)N(C2CCCCC2)[C@H]1c1ccccc1)c1ccc(-c2c3nc(c(-c4ccc(S(=O)(=O)[O-])cc4)c4ccc([nH]4)c(-c4ccc(S(=O)(=O)[O-])cc4)c4nc(c(-c5ccc(S(=O)(=O)[O-])cc5)c5ccc2[nH]5)C=C4)C=C3)cc1
REMARK SMILES IDX 4 1 3 2 1 3 2 4 30 6 31 7 89 8 32 9 88 10 33 11 34 12 35 13
REMARK SMILES IDX 82 14 36 15 87 16 81 17 83 18 37 19 86 20 80 21 79 22 38 24
REMARK SMILES IDX 68 25 49 26 67 27 50 28 53 29 66 30 84 31 51 32 52 33 65 35
REMARK SMILES IDX 85 36 54 37 39 38 40 39 48 40 41 41 47 42 42 43 43 44 44 45
REMARK SMILES IDX 45 46 46 47 69 48 70 49 78 50 71 51 77 52 72 53 73 54 74 55
REMARK SMILES IDX 75 56 76 57 55 58 56 59 64 60 57 61 63 62 58 63 59 64 60 65
REMARK SMILES IDX 61 66 62 67 5 68 6 69 7 70 8 71 9 72 10 74 11 75 12 76 23 77
REMARK SMILES IDX 13 78 16 79 14 80 15 81 24 82 25 83 29 84 26 85 28 86 27 87
REMARK SMILES IDX 17 88 18 89 22 90 19 91 21 92 20 93
REMARK H PARENT 3 5 83 23 53 34 8 73
REMARK Flexibility Score: inf
ROOT
ATOM      1  C   UNL     1      11.610  -7.735  -4.913  1.00  0.00     0.116 C 
ENDROOT
BRANCH   1   2
ATOM      2  N   UNL     1      12.060  -6.713  -5.848  1.00  0.00    -0.352 N 
ATOM      3  O   UNL     1      13.472  -5.732  -7.314  1.00  0.00    -0.269 OA
ATOM      4  C   UNL     1      13.148  -6.738  -6.690  1.00  0.00     0.251 C 
ATOM      5  H   UNL     1      11.513  -5.896  -5.883  1.00  0.00     0.163 HD
BRANCH   4   6
ATOM      6  C   UNL     1      13.937  -7.980  -6.799  1.00  0.00     0.039 A 
ATOM      7  C   UNL     1      13.290  -9.206  -6.968  1.00  0.00     0.014 A 
ATOM      8  C   UNL     1      15.325  -7.924  -6.664  1.00  0.00     0.014 A 
ATOM      9  C   UNL     1      14.009 -10.384  -6.818  1.00  0.00     0.010 A 
ATOM     10  C   UNL     1      16.060  -9.112  -6.620  1.00  0.00     0.010 A 
ATOM     11  C   UNL     1      15.403 -10.352  -6.649  1.00  0.00    -0.014 A 
BRANCH  11  12
ATOM     12  C   UNL     1      16.150 -11.631  -6.540  1.00  0.00     0.031 A 
ATOM     13  C   UNL     1      16.914 -11.986  -5.292  1.00  0.00     0.074 A 
ATOM     14  C   UNL     1      16.106 -12.495  -7.574  1.00  0.00     0.049 A 
ATOM     15  N   UNL     1      17.588 -13.075  -5.023  1.00  0.00    -0.248 NA
ATOM     16  C   UNL     1      16.932 -10.990  -4.209  1.00  0.00     0.031 C 
ATOM     17  C   UNL     1      15.393 -12.264  -8.834  1.00  0.00     0.029 A 
ATOM     18  N   UNL     1      16.646 -13.745  -7.723  1.00  0.00    -0.354 N 
ATOM     19  C   UNL     1      18.136 -12.886  -3.759  1.00  0.00     0.074 A 
ATOM     20  C   UNL     1      17.733 -11.566  -3.323  1.00  0.00     0.031 C 
ATOM     21  C   UNL     1      15.486 -13.360  -9.599  1.00  0.00     0.029 A 
ATOM     22  C   UNL     1      16.326 -14.340  -8.921  1.00  0.00     0.049 A 
ATOM     23  H   UNL     1      17.208 -14.176  -7.039  1.00  0.00     0.167 HD
ATOM     24  C   UNL     1      18.904 -13.733  -3.030  1.00  0.00     0.031 A 
ATOM     25  C   UNL     1      16.678 -15.535  -9.428  1.00  0.00     0.031 A 
ATOM     26  C   UNL     1      19.301 -15.046  -3.474  1.00  0.00     0.049 A 
ATOM     27  C   UNL     1      17.555 -16.441  -8.614  1.00  0.00     0.074 A 
ATOM     28  C   UNL     1      20.046 -15.995  -2.795  1.00  0.00     0.029 A 
ATOM     29  N   UNL     1      18.996 -15.591  -4.713  1.00  0.00    -0.354 N 
ATOM     30  N   UNL     1      18.037 -16.255  -7.409  1.00  0.00    -0.248 NA
ATOM     31  C   UNL     1      17.931 -17.720  -9.229  1.00  0.00     0.031 C 
ATOM     32  C   UNL     1      20.244 -17.087  -3.646  1.00  0.00     0.029 A 
ATOM     33  C   UNL     1      19.561 -16.852  -4.829  1.00  0.00     0.049 A 
ATOM     34  H   UNL     1      18.457 -15.149  -5.407  1.00  0.00     0.167 HD
ATOM     35  C   UNL     1      18.747 -17.410  -7.105  1.00  0.00     0.074 A 
ATOM     36  C   UNL     1      18.622 -18.289  -8.251  1.00  0.00     0.031 C 
ATOM     37  C   UNL     1      19.434 -17.716  -5.976  1.00  0.00     0.031 A 
BRANCH  24  38
ATOM     38  C   UNL     1      19.406 -13.247  -1.692  1.00  0.00    -0.014 A 
ATOM     39  C   UNL     1      18.536 -13.048  -0.604  1.00  0.00     0.010 A 
ATOM     40  C   UNL     1      20.782 -13.008  -1.515  1.00  0.00     0.010 A 
ATOM     41  C   UNL     1      19.025 -12.566   0.615  1.00  0.00     0.020 A 
ATOM     42  C   UNL     1      21.279 -12.557  -0.288  1.00  0.00     0.020 A 
ATOM     43  C   UNL     1      20.393 -12.316   0.762  1.00  0.00     0.054 A 
BRANCH  43  44
ATOM     44  S   UNL     1      20.997 -11.681   2.351  1.00  0.00     0.124 S 
ATOM     45  O   UNL     1      20.506 -10.306   2.331  1.00  0.00    -0.237 OA
ATOM     46  O   UNL     1      20.349 -12.565   3.317  1.00  0.00    -0.237 OA
ATOM     47  O   UNL     1      22.448 -11.826   2.254  1.00  0.00    -0.744 OA
ENDBRANCH  43  44
ENDBRANCH  24  38
BRANCH  25  48
ATOM     48  C   UNL     1      16.184 -15.937 -10.772  1.00  0.00    -0.014 A 
ATOM     49  C   UNL     1      15.235 -16.964 -10.905  1.00  0.00     0.010 A 
ATOM     50  C   UNL     1      16.630 -15.262 -11.925  1.00  0.00     0.010 A 
ATOM     51  C   UNL     1      14.747 -17.317 -12.166  1.00  0.00     0.020 A 
ATOM     52  C   UNL     1      16.121 -15.591 -13.183  1.00  0.00     0.020 A 
ATOM     53  C   UNL     1      15.189 -16.623 -13.296  1.00  0.00     0.054 A 
BRANCH  53  54
ATOM     54  S   UNL     1      14.491 -17.057 -14.913  1.00  0.00     0.124 S 
ATOM     55  O   UNL     1      15.114 -18.350 -15.175  1.00  0.00    -0.237 OA
ATOM     56  O   UNL     1      13.057 -17.087 -14.639  1.00  0.00    -0.237 OA
ATOM     57  O   UNL     1      14.929 -15.964 -15.779  1.00  0.00    -0.744 OA
ENDBRANCH  53  54
ENDBRANCH  25  48
BRANCH  37  58
ATOM     58  C   UNL     1      20.062 -19.083  -5.903  1.00  0.00    -0.014 A 
ATOM     59  C   UNL     1      21.175 -19.427  -6.690  1.00  0.00     0.010 A 
ATOM     60  C   UNL     1      19.540 -20.031  -5.003  1.00  0.00     0.010 A 
ATOM     61  C   UNL     1      21.729 -20.708  -6.608  1.00  0.00     0.020 A 
ATOM     62  C   UNL     1      20.111 -21.301  -4.895  1.00  0.00     0.020 A 
ATOM     63  C   UNL     1      21.191 -21.638  -5.712  1.00  0.00     0.054 A 
BRANCH  63  64
ATOM     64  S   UNL     1      21.944 -23.284  -5.602  1.00  0.00     0.124 S 
ATOM     65  O   UNL     1      21.494 -23.907  -6.844  1.00  0.00    -0.237 OA
ATOM     66  O   UNL     1      23.371 -22.980  -5.532  1.00  0.00    -0.237 OA
ATOM     67  O   UNL     1      21.372 -23.846  -4.381  1.00  0.00    -0.744 OA
ENDBRANCH  63  64
ENDBRANCH  37  58
ENDBRANCH  11  12
ENDBRANCH   4   6
ENDBRANCH   1   2
BRANCH   1  68
ATOM     68  C   UNL     1      11.423  -7.204  -3.498  1.00  0.00     0.023 C 
BRANCH  68  69
ATOM     69  C   UNL     1      10.427  -6.055  -3.375  1.00  0.00     0.023 C 
BRANCH  69  70
ATOM     70  C   UNL     1       9.070  -6.338  -4.010  1.00  0.00     0.116 C 
BRANCH  70  71
ATOM     71  N   UNL     1       8.375  -7.418  -3.326  1.00  0.00    -0.356 N 
ATOM     72  C   UNL     1       7.201  -7.379  -2.621  1.00  0.00     0.225 C 
ATOM     73  H   UNL     1       8.809  -8.300  -3.378  1.00  0.00     0.163 HD
ATOM     74  O   UNL     1       6.891  -8.369  -1.968  1.00  0.00    -0.275 OA
BRANCH  72  75
ATOM     75  C   UNL     1       6.385  -6.100  -2.694  1.00  0.00     0.106 C 
ATOM     76  C   UNL     1       5.836  -5.872  -4.099  1.00  0.00     0.026 C 
ATOM     77  C   UNL     1       5.242  -5.860  -1.688  1.00  0.00     0.128 C 
ATOM     78  C   UNL     1       5.536  -4.399  -4.239  1.00  0.00     0.101 C 
ATOM     79  N   UNL     1       4.787  -4.437  -1.838  1.00  0.00    -0.332 N 
ATOM     80  C   UNL     1       4.847  -3.749  -3.053  1.00  0.00     0.223 C 
ATOM     81  O   UNL     1       4.430  -2.597  -3.197  1.00  0.00    -0.275 OA
BRANCH  77  82
ATOM     82  C   UNL     1       4.063  -6.838  -1.736  1.00  0.00    -0.025 A 
ATOM     83  C   UNL     1       2.864  -6.551  -2.410  1.00  0.00     0.006 A 
ATOM     84  C   UNL     1       4.149  -8.078  -1.079  1.00  0.00     0.006 A 
ATOM     85  C   UNL     1       1.800  -7.457  -2.422  1.00  0.00     0.000 A 
ATOM     86  C   UNL     1       3.104  -9.004  -1.126  1.00  0.00     0.000 A 
ATOM     87  C   UNL     1       1.924  -8.690  -1.791  1.00  0.00     0.000 A 
ENDBRANCH  77  82
BRANCH  79  88
ATOM     88  C   UNL     1       4.196  -3.764  -0.654  1.00  0.00     0.085 C 
ATOM     89  C   UNL     1       5.067  -2.572  -0.204  1.00  0.00     0.025 C 
ATOM     90  C   UNL     1       2.713  -3.394  -0.873  1.00  0.00     0.025 C 
ATOM     91  C   UNL     1       4.413  -1.727   0.885  1.00  0.00     0.002 C 
ATOM     92  C   UNL     1       2.134  -2.510   0.225  1.00  0.00     0.002 C 
ATOM     93  C   UNL     1       3.010  -1.294   0.481  1.00  0.00     0.000 C 
ENDBRANCH  79  88
ENDBRANCH  72  75
ENDBRANCH  70  71
ENDBRANCH  69  70
ENDBRANCH  68  69
ENDBRANCH   1  68
TORSDOF 16
