REMARK SMILES C[C@@H](C(=O)NCCCCNC(=O)c1ccc(-c2c3nc(c(-c4ccc(S(=O)(=O)[O-])cc4)c4ccc([nH]4)c(-c4ccc(S(=O)(=O)[O-])cc4)c4nc(c(-c5ccc(S(=O)(=O)[O-])cc5)c5ccc2[nH]5)C=C4)C=C3)cc1)[C@@H](C)C(=O)c1ccc(Br)cc1
REMARK SMILES IDX 7 1 6 2 5 3 3 4 4 5 2 7 1 8 73 9 74 10 75 11 76 12 77 13
REMARK SMILES IDX 78 14 83 15 79 16 82 17 80 18 81 19 8 20 9 21 10 22 11 23
REMARK SMILES IDX 12 25 13 26 14 27 72 28 15 29 71 30 16 31 17 32 18 33 65 34
REMARK SMILES IDX 19 35 70 36 64 37 66 38 20 39 69 40 63 41 62 42 21 44 51 45
REMARK SMILES IDX 32 46 50 47 33 48 36 49 49 50 67 51 34 52 35 53 48 55 68 56
REMARK SMILES IDX 37 57 22 58 23 59 31 60 24 61 30 62 25 63 26 64 27 65 28 66
REMARK SMILES IDX 29 67 52 68 53 69 61 70 54 71 60 72 55 73 56 74 57 75 58 76
REMARK SMILES IDX 59 77 38 78 39 79 47 80 40 81 46 82 41 83 42 84 43 85 44 86
REMARK SMILES IDX 45 87
REMARK H PARENT 5 6 10 24 66 43 36 54
REMARK Flexibility Score: inf
ROOT
ATOM      1  C   UNL     1       4.275  -0.799   0.957  1.00  0.00     0.023 C 
ENDROOT
BRANCH   1   2
ATOM      2  C   UNL     1       3.445  -1.810   0.164  1.00  0.00     0.116 C 
BRANCH   2   3
ATOM      3  N   UNL     1       2.376  -2.364   0.973  1.00  0.00    -0.356 N 
ATOM      4  C   UNL     1       1.040  -2.102   0.965  1.00  0.00     0.223 C 
ATOM      5  O   UNL     1       0.357  -2.597   1.858  1.00  0.00    -0.275 OA
ATOM      6  H   UNL     1       2.662  -3.036   1.632  1.00  0.00     0.163 HD
BRANCH   4   7
ATOM      7  C   UNL     1       0.439  -1.230  -0.138  1.00  0.00     0.086 C 
ATOM      8  C   UNL     1       0.722   0.245   0.174  1.00  0.00     0.019 C 
BRANCH   7   9
ATOM      9  C   UNL     1      -1.079  -1.486  -0.287  1.00  0.00     0.070 C 
ATOM     10  C   UNL     1      -1.699  -0.714  -1.457  1.00  0.00     0.017 C 
BRANCH   9  11
ATOM     11  C   UNL     1      -1.534  -2.952  -0.383  1.00  0.00     0.166 C 
ATOM     12  O   UNL     1      -2.377  -3.407   0.392  1.00  0.00    -0.294 OA
BRANCH  11  13
ATOM     13  C   UNL     1      -1.170  -3.793  -1.557  1.00  0.00     0.018 A 
ATOM     14  C   UNL     1      -2.221  -4.434  -2.231  1.00  0.00     0.013 A 
ATOM     15  C   UNL     1       0.142  -3.982  -1.995  1.00  0.00     0.013 A 
ATOM     16  C   UNL     1      -1.968  -5.216  -3.359  1.00  0.00     0.016 A 
ATOM     17  C   UNL     1       0.397  -4.761  -3.130  1.00  0.00     0.016 A 
ATOM     18  C   UNL     1      -0.659  -5.366  -3.810  1.00  0.00     0.018 A 
ATOM     19  Br  UNL     1      -0.311  -6.408  -5.348  1.00  0.00    -0.051 Br
ENDBRANCH  11  13
ENDBRANCH   9  11
ENDBRANCH   7   9
ENDBRANCH   4   7
ENDBRANCH   2   3
ENDBRANCH   1   2
BRANCH   1  20
ATOM     20  C   UNL     1       5.059  -1.389   2.132  1.00  0.00     0.023 C 
BRANCH  20  21
ATOM     21  C   UNL     1       6.027  -2.511   1.775  1.00  0.00     0.116 C 
BRANCH  21  22
ATOM     22  N   UNL     1       6.994  -2.119   0.763  1.00  0.00    -0.352 N 
ATOM     23  C   UNL     1       8.345  -2.345   0.710  1.00  0.00     0.251 C 
ATOM     24  H   UNL     1       6.623  -1.615   0.003  1.00  0.00     0.163 HD
ATOM     25  O   UNL     1       9.010  -1.797  -0.170  1.00  0.00    -0.269 OA
BRANCH  23  26
ATOM     26  C   UNL     1       9.007  -3.212   1.709  1.00  0.00     0.039 A 
ATOM     27  C   UNL     1      10.246  -2.815   2.217  1.00  0.00     0.014 A 
ATOM     28  C   UNL     1       8.430  -4.412   2.138  1.00  0.00     0.014 A 
ATOM     29  C   UNL     1      10.879  -3.593   3.188  1.00  0.00     0.010 A 
ATOM     30  C   UNL     1       9.025  -5.145   3.164  1.00  0.00     0.010 A 
ATOM     31  C   UNL     1      10.259  -4.748   3.696  1.00  0.00    -0.014 A 
BRANCH  31  32
ATOM     32  C   UNL     1      10.900  -5.524   4.790  1.00  0.00     0.031 A 
ATOM     33  C   UNL     1      11.353  -6.943   4.568  1.00  0.00     0.074 A 
ATOM     34  C   UNL     1      11.065  -4.945   5.997  1.00  0.00     0.049 A 
ATOM     35  N   UNL     1      11.976  -7.745   5.394  1.00  0.00    -0.248 NA
ATOM     36  C   UNL     1      11.051  -7.548   3.261  1.00  0.00     0.031 C 
ATOM     37  C   UNL     1      10.611  -3.599   6.358  1.00  0.00     0.029 A 
ATOM     38  N   UNL     1      11.666  -5.409   7.140  1.00  0.00    -0.354 N 
ATOM     39  C   UNL     1      12.147  -8.941   4.707  1.00  0.00     0.074 A 
ATOM     40  C   UNL     1      11.501  -8.784   3.423  1.00  0.00     0.031 C 
ATOM     41  C   UNL     1      10.985  -3.332   7.619  1.00  0.00     0.029 A 
ATOM     42  C   UNL     1      11.674  -4.495   8.168  1.00  0.00     0.049 A 
ATOM     43  H   UNL     1      12.055  -6.310   7.216  1.00  0.00     0.167 HD
ATOM     44  C   UNL     1      12.806 -10.059   5.097  1.00  0.00     0.031 A 
ATOM     45  C   UNL     1      12.183  -4.580   9.412  1.00  0.00     0.031 A 
ATOM     46  C   UNL     1      13.442 -10.217   6.379  1.00  0.00     0.049 A 
ATOM     47  C   UNL     1      12.911  -5.830   9.820  1.00  0.00     0.074 A 
ATOM     48  C   UNL     1      14.163 -11.298   6.856  1.00  0.00     0.029 A 
ATOM     49  N   UNL     1      13.433  -9.268   7.390  1.00  0.00    -0.354 N 
ATOM     50  N   UNL     1      13.124  -6.924   9.127  1.00  0.00    -0.248 NA
ATOM     51  C   UNL     1      13.488  -5.849  11.171  1.00  0.00     0.031 C 
ATOM     52  C   UNL     1      14.547 -11.023   8.173  1.00  0.00     0.029 A 
ATOM     53  C   UNL     1      14.120  -9.745   8.495  1.00  0.00     0.049 A 
ATOM     54  H   UNL     1      13.001  -8.385   7.332  1.00  0.00     0.167 HD
ATOM     55  C   UNL     1      13.875  -7.754   9.952  1.00  0.00     0.074 A 
ATOM     56  C   UNL     1      14.106  -7.021  11.181  1.00  0.00     0.031 C 
ATOM     57  C   UNL     1      14.328  -9.011   9.718  1.00  0.00     0.031 A 
BRANCH  44  58
ATOM     58  C   UNL     1      12.882 -11.200   4.113  1.00  0.00    -0.014 A 
ATOM     59  C   UNL     1      13.655 -11.091   2.942  1.00  0.00     0.010 A 
ATOM     60  C   UNL     1      12.219 -12.411   4.382  1.00  0.00     0.010 A 
ATOM     61  C   UNL     1      13.734 -12.156   2.042  1.00  0.00     0.020 A 
ATOM     62  C   UNL     1      12.320 -13.491   3.498  1.00  0.00     0.020 A 
ATOM     63  C   UNL     1      13.066 -13.350   2.325  1.00  0.00     0.054 A 
BRANCH  63  64
ATOM     64  S   UNL     1      13.215 -14.727   1.153  1.00  0.00     0.124 S 
ATOM     65  O   UNL     1      12.418 -14.249   0.025  1.00  0.00    -0.237 OA
ATOM     66  O   UNL     1      14.655 -14.793   0.920  1.00  0.00    -0.237 OA
ATOM     67  O   UNL     1      12.651 -15.863   1.877  1.00  0.00    -0.744 OA
ENDBRANCH  63  64
ENDBRANCH  44  58
BRANCH  45  68
ATOM     68  C   UNL     1      12.029  -3.439  10.358  1.00  0.00    -0.014 A 
ATOM     69  C   UNL     1      13.139  -2.676  10.758  1.00  0.00     0.010 A 
ATOM     70  C   UNL     1      10.757  -3.109  10.862  1.00  0.00     0.010 A 
ATOM     71  C   UNL     1      12.986  -1.623  11.666  1.00  0.00     0.020 A 
ATOM     72  C   UNL     1      10.594  -2.037  11.743  1.00  0.00     0.020 A 
ATOM     73  C   UNL     1      11.713  -1.310  12.152  1.00  0.00     0.054 A 
BRANCH  73  74
ATOM     74  S   UNL     1      11.530   0.085  13.297  1.00  0.00     0.124 S 
ATOM     75  O   UNL     1      12.090  -0.459  14.530  1.00  0.00    -0.237 OA
ATOM     76  O   UNL     1      12.318   1.130  12.650  1.00  0.00    -0.237 OA
ATOM     77  O   UNL     1      10.089   0.324  13.316  1.00  0.00    -0.744 OA
ENDBRANCH  73  74
ENDBRANCH  45  68
BRANCH  57  78
ATOM     78  C   UNL     1      15.139  -9.661  10.809  1.00  0.00    -0.014 A 
ATOM     79  C   UNL     1      14.547 -10.050  12.025  1.00  0.00     0.010 A 
ATOM     80  C   UNL     1      16.512  -9.893  10.612  1.00  0.00     0.010 A 
ATOM     81  C   UNL     1      15.326 -10.604  13.045  1.00  0.00     0.020 A 
ATOM     82  C   UNL     1      17.287 -10.479  11.616  1.00  0.00     0.020 A 
ATOM     83  C   UNL     1      16.693 -10.808  12.836  1.00  0.00     0.054 A 
BRANCH  83  84
ATOM     84  S   UNL     1      17.683 -11.527  14.174  1.00  0.00     0.124 S 
ATOM     85  O   UNL     1      17.785 -10.410  15.110  1.00  0.00    -0.237 OA
ATOM     86  O   UNL     1      16.856 -12.646  14.619  1.00  0.00    -0.237 OA
ATOM     87  O   UNL     1      18.932 -11.906  13.517  1.00  0.00    -0.744 OA
ENDBRANCH  83  84
ENDBRANCH  57  78
ENDBRANCH  31  32
ENDBRANCH  23  26
ENDBRANCH  21  22
ENDBRANCH  20  21
ENDBRANCH   1  20
TORSDOF 17
