REMARK SMILES COC(=O)C[C@H](NC(=O)N1CC[N@@H+]2CCC[C@@H]2C1)C(=O)NCCCCNC(=O)c1ccc(-c2c3nc(c(-c4ccc(S(=O)(=O)[O-])cc4)c4ccc([nH]4)c(-c4ccc(S(=O)(=O)[O-])cc4)c4nc(c(-c5ccc(S(=O)(=O)[O-])cc5)c5ccc2[nH]5)C=C4)C=C3)cc1
REMARK SMILES IDX 23 1 22 2 21 3 19 4 20 5 6 7 5 8 3 9 4 10 2 11 1 12 7 13
REMARK SMILES IDX 8 14 9 16 10 17 11 18 18 19 12 20 17 21 13 22 16 23 14 24
REMARK SMILES IDX 15 26 24 27 25 28 26 29 27 30 28 32 29 33 30 34 88 35 31 36
REMARK SMILES IDX 87 37 32 38 33 39 34 40 81 41 35 42 86 43 80 44 82 45 36 46
REMARK SMILES IDX 85 47 79 48 78 49 37 51 67 52 48 53 66 54 49 55 52 56 65 57
REMARK SMILES IDX 83 58 50 59 51 60 64 62 84 63 53 64 38 65 39 66 47 67 40 68
REMARK SMILES IDX 46 69 41 70 42 71 43 72 44 73 45 74 68 75 69 76 77 77 70 78
REMARK SMILES IDX 76 79 71 80 72 81 73 82 74 83 75 84 54 85 55 86 63 87 56 88
REMARK SMILES IDX 62 89 57 90 58 91 59 92 60 93 61 94
REMARK H PARENT 21 6 7 15 13 25 26 31 82 50 52 61
REMARK Flexibility Score: inf
ROOT
ATOM      1  C   UNL     1      -2.923   0.932   5.143  1.00  0.00     0.023 C 
ENDROOT
BRANCH   1   2
ATOM      2  C   UNL     1      -2.181   2.084   4.477  1.00  0.00     0.116 C 
BRANCH   2   3
ATOM      3  N   UNL     1      -1.129   2.631   5.316  1.00  0.00    -0.354 N 
ATOM      4  C   UNL     1       0.227   2.582   5.168  1.00  0.00     0.243 C 
ATOM      5  O   UNL     1       0.916   3.263   5.934  1.00  0.00    -0.273 OA
ATOM      6  H   UNL     1      -1.443   3.113   6.115  1.00  0.00     0.163 HD
BRANCH   4   7
ATOM      7  C   UNL     1       0.877   1.844   3.986  1.00  0.00     0.184 C 
BRANCH   7   8
ATOM      8  C   UNL     1       0.676   2.723   2.750  1.00  0.00     0.157 C 
BRANCH   8   9
ATOM      9  C   UNL     1       1.137   2.058   1.493  1.00  0.00     0.308 C 
ATOM     10  O   UNL     1       0.370   1.647   0.629  1.00  0.00    -0.252 OA
BRANCH   9  11
ATOM     11  O   UNL     1       2.492   1.997   1.439  1.00  0.00    -0.469 OA
ATOM     12  C   UNL     1       2.986   1.396   0.241  1.00  0.00     0.282 C 
ENDBRANCH   9  11
ENDBRANCH   8   9
ENDBRANCH   7   8
BRANCH   7  13
ATOM     13  N   UNL     1       0.366   0.478   3.858  1.00  0.00    -0.326 N 
ATOM     14  C   UNL     1       0.767  -0.703   4.377  1.00  0.00     0.318 C 
ATOM     15  H   UNL     1      -0.426   0.405   3.278  1.00  0.00     0.166 HD
ATOM     16  O   UNL     1       0.297  -1.703   3.829  1.00  0.00    -0.249 OA
BRANCH  14  17
ATOM     17  N   UNL     1       1.673  -0.786   5.397  1.00  0.00    -0.313 N 
ATOM     18  C   UNL     1       1.910   0.221   6.437  1.00  0.00     0.183 C 
ATOM     19  C   UNL     1       2.346  -2.070   5.616  1.00  0.00     0.186 C 
ATOM     20  C   UNL     1       2.795  -0.243   7.614  1.00  0.00     0.284 C 
ATOM     21  C   UNL     1       2.227  -2.576   7.066  1.00  0.00     0.204 C 
ATOM     22  N   UNL     1       2.489  -1.580   8.128  1.00  0.00    -0.330 N 
ATOM     23  C   UNL     1       3.185  -3.736   7.343  1.00  0.00     0.073 C 
ATOM     24  C   UNL     1       3.544  -2.093   9.008  1.00  0.00     0.262 C 
ATOM     25  H   UNL     1       1.630  -1.454   8.663  1.00  0.00     0.348 HD
ATOM     26  C   UNL     1       3.504  -3.597   8.818  1.00  0.00     0.068 C 
ENDBRANCH  14  17
ENDBRANCH   7  13
ENDBRANCH   4   7
ENDBRANCH   2   3
ENDBRANCH   1   2
BRANCH   1  27
ATOM     27  C   UNL     1      -3.732   1.326   6.378  1.00  0.00     0.023 C 
BRANCH  27  28
ATOM     28  C   UNL     1      -4.689   2.499   6.186  1.00  0.00     0.116 C 
BRANCH  28  29
ATOM     29  N   UNL     1      -5.637   2.295   5.103  1.00  0.00    -0.352 N 
ATOM     30  C   UNL     1      -6.989   2.535   5.074  1.00  0.00     0.251 C 
ATOM     31  H   UNL     1      -5.255   1.932   4.271  1.00  0.00     0.163 HD
ATOM     32  O   UNL     1      -7.649   2.178   4.102  1.00  0.00    -0.269 OA
BRANCH  30  33
ATOM     33  C   UNL     1      -7.651   3.189   6.224  1.00  0.00     0.039 A 
ATOM     34  C   UNL     1      -8.862   2.667   6.682  1.00  0.00     0.014 A 
ATOM     35  C   UNL     1      -7.084   4.300   6.854  1.00  0.00     0.014 A 
ATOM     36  C   UNL     1      -9.472   3.223   7.808  1.00  0.00     0.010 A 
ATOM     37  C   UNL     1      -7.650   4.799   8.026  1.00  0.00     0.010 A 
ATOM     38  C   UNL     1      -8.853   4.270   8.513  1.00  0.00    -0.014 A 
BRANCH  38  39
ATOM     39  C   UNL     1      -9.461   4.803   9.761  1.00  0.00     0.031 A 
ATOM     40  C   UNL     1      -9.921   6.235   9.840  1.00  0.00     0.074 A 
ATOM     41  C   UNL     1      -9.582   3.997  10.835  1.00  0.00     0.049 A 
ATOM     42  N   UNL     1     -10.498   6.860  10.836  1.00  0.00    -0.248 NA
ATOM     43  C   UNL     1      -9.687   7.082   8.659  1.00  0.00     0.031 C 
ATOM     44  C   UNL     1      -9.120   2.607  10.907  1.00  0.00     0.029 A 
ATOM     45  N   UNL     1     -10.134   4.224  12.071  1.00  0.00    -0.354 N 
ATOM     46  C   UNL     1     -10.700   8.164  10.400  1.00  0.00     0.074 A 
ATOM     47  C   UNL     1     -10.120   8.261   9.078  1.00  0.00     0.031 C 
ATOM     48  C   UNL     1      -9.444   2.097  12.106  1.00  0.00     0.029 A 
ATOM     49  C   UNL     1     -10.099   3.129  12.902  1.00  0.00     0.049 A 
ATOM     50  H   UNL     1     -10.520   5.090  12.337  1.00  0.00     0.167 HD
ATOM     51  C   UNL     1     -11.338   9.182  11.027  1.00  0.00     0.031 A 
ATOM     52  C   UNL     1     -10.543   2.970  14.164  1.00  0.00     0.031 A 
ATOM     53  C   UNL     1     -11.910   9.086  12.344  1.00  0.00     0.049 A 
ATOM     54  C   UNL     1     -11.236   4.119  14.844  1.00  0.00     0.074 A 
ATOM     55  C   UNL     1     -12.603  10.051  13.055  1.00  0.00     0.029 A 
ATOM     56  N   UNL     1     -11.856   7.959  13.152  1.00  0.00    -0.354 N 
ATOM     57  N   UNL     1     -11.477   5.325  14.386  1.00  0.00    -0.248 NA
ATOM     58  C   UNL     1     -11.736   3.879  16.204  1.00  0.00     0.031 C 
ATOM     59  C   UNL     1     -12.921   9.525  14.312  1.00  0.00     0.029 A 
ATOM     60  C   UNL     1     -12.486   8.211  14.359  1.00  0.00     0.049 A 
ATOM     61  H   UNL     1     -11.431   7.106  12.903  1.00  0.00     0.167 HD
ATOM     62  C   UNL     1     -12.179   5.979  15.394  1.00  0.00     0.074 A 
ATOM     63  C   UNL     1     -12.348   5.025  16.471  1.00  0.00     0.031 C 
ATOM     64  C   UNL     1     -12.639   7.254  15.427  1.00  0.00     0.031 A 
BRANCH  51  65
ATOM     65  C   UNL     1     -11.464  10.488  10.284  1.00  0.00    -0.014 A 
ATOM     66  C   UNL     1     -12.287  10.595   9.147  1.00  0.00     0.010 A 
ATOM     67  C   UNL     1     -10.796  11.634  10.751  1.00  0.00     0.010 A 
ATOM     68  C   UNL     1     -12.411  11.812   8.471  1.00  0.00     0.020 A 
ATOM     69  C   UNL     1     -10.942  12.862  10.097  1.00  0.00     0.020 A 
ATOM     70  C   UNL     1     -11.738  12.938   8.952  1.00  0.00     0.054 A 
BRANCH  70  71
ATOM     71  S   UNL     1     -11.947  14.511   8.073  1.00  0.00     0.124 S 
ATOM     72  O   UNL     1     -11.212  14.265   6.835  1.00  0.00    -0.237 OA
ATOM     73  O   UNL     1     -13.398  14.608   7.933  1.00  0.00    -0.237 OA
ATOM     74  O   UNL     1     -11.344  15.494   8.970  1.00  0.00    -0.744 OA
ENDBRANCH  70  71
ENDBRANCH  51  65
BRANCH  52  75
ATOM     75  C   UNL     1     -10.347   1.670  14.867  1.00  0.00    -0.014 A 
ATOM     76  C   UNL     1     -11.443   0.852  15.195  1.00  0.00     0.010 A 
ATOM     77  C   UNL     1      -9.052   1.248  15.220  1.00  0.00     0.010 A 
ATOM     78  C   UNL     1     -11.250  -0.345  15.893  1.00  0.00     0.020 A 
ATOM     79  C   UNL     1      -8.852   0.036  15.886  1.00  0.00     0.020 A 
ATOM     80  C   UNL     1      -9.955  -0.745  16.234  1.00  0.00     0.054 A 
BRANCH  80  81
ATOM     81  S   UNL     1      -9.724  -2.314  17.114  1.00  0.00     0.124 S 
ATOM     82  O   UNL     1     -10.219  -1.989  18.448  1.00  0.00    -0.237 OA
ATOM     83  O   UNL     1     -10.551  -3.235  16.339  1.00  0.00    -0.237 OA
ATOM     84  O   UNL     1      -8.285  -2.551  17.020  1.00  0.00    -0.744 OA
ENDBRANCH  80  81
ENDBRANCH  52  75
BRANCH  64  85
ATOM     85  C   UNL     1     -13.399   7.680  16.657  1.00  0.00    -0.014 A 
ATOM     86  C   UNL     1     -12.756   7.832  17.899  1.00  0.00     0.010 A 
ATOM     87  C   UNL     1     -14.776   7.952  16.563  1.00  0.00     0.010 A 
ATOM     88  C   UNL     1     -13.487   8.195  19.034  1.00  0.00     0.020 A 
ATOM     89  C   UNL     1     -15.504   8.349  17.687  1.00  0.00     0.020 A 
ATOM     90  C   UNL     1     -14.858   8.446  18.921  1.00  0.00     0.054 A 
BRANCH  90  91
ATOM     91  S   UNL     1     -15.781   8.925  20.406  1.00  0.00     0.124 S 
ATOM     92  O   UNL     1     -15.843   7.667  21.145  1.00  0.00    -0.237 OA
ATOM     93  O   UNL     1     -14.931   9.958  20.993  1.00  0.00    -0.237 OA
ATOM     94  O   UNL     1     -17.059   9.402  19.882  1.00  0.00    -0.744 OA
ENDBRANCH  90  91
ENDBRANCH  64  85
ENDBRANCH  38  39
ENDBRANCH  30  33
ENDBRANCH  28  29
ENDBRANCH  27  28
ENDBRANCH   1  27
TORSDOF 19
