REMARK SMILES O=C(NCCCCNC(=O)[C@]1([NH2+]C2CC2)CC[C@@H](SCCCO)C1)c1ccc(-c2c3nc(c(-c4ccc(S(=O)(=O)[O-])cc4)c4ccc([nH]4)c(-c4ccc(S(=O)(=O)[O-])cc4)c4nc(c(-c5ccc(S(=O)(=O)[O-])cc5)c5ccc2[nH]5)C=C4)C=C3)cc1
REMARK SMILES IDX 6 1 5 2 4 3 3 4 1 5 2 6 25 8 26 9 84 10 27 11 83 12 28 13
REMARK SMILES IDX 29 14 30 15 77 16 31 17 82 18 76 19 78 20 32 21 81 22 75 23
REMARK SMILES IDX 74 24 33 26 63 27 44 28 62 29 45 30 48 31 61 32 79 33 46 34
REMARK SMILES IDX 47 35 60 37 80 38 49 39 34 40 35 41 43 42 36 43 42 44 37 45
REMARK SMILES IDX 38 46 39 47 40 48 41 49 64 50 65 51 73 52 66 53 72 54 67 55
REMARK SMILES IDX 68 56 69 57 70 58 71 59 50 60 51 61 59 62 52 63 58 64 53 65
REMARK SMILES IDX 54 66 55 67 56 68 57 69 7 70 8 71 9 72 10 74 11 75 16 76
REMARK SMILES IDX 24 77 17 78 18 79 12 80 13 83 14 84 15 85 19 86 20 87 21 88
REMARK SMILES IDX 22 89 23 90
REMARK H PARENT 3 7 78 25 48 36 8 73 12 81 12 82 23 91
REMARK Flexibility Score: inf
ROOT
ATOM      1  C   UNL     1      10.057   1.931   5.234  1.00  0.00     0.023 C 
ENDROOT
BRANCH   1   2
ATOM      2  C   UNL     1      11.002   1.504   6.344  1.00  0.00     0.023 C 
BRANCH   2   3
ATOM      3  C   UNL     1      11.120   0.003   6.479  1.00  0.00     0.116 C 
BRANCH   3   4
ATOM      4  N   UNL     1      11.629  -0.618   5.262  1.00  0.00    -0.352 N 
ATOM      5  O   UNL     1      13.201  -1.645   4.000  1.00  0.00    -0.269 OA
ATOM      6  C   UNL     1      12.770  -1.373   5.107  1.00  0.00     0.251 C 
ATOM      7  H   UNL     1      11.090  -0.481   4.450  1.00  0.00     0.163 HD
BRANCH   6   8
ATOM      8  C   UNL     1      13.450  -1.837   6.332  1.00  0.00     0.039 A 
ATOM      9  C   UNL     1      12.673  -2.338   7.378  1.00  0.00     0.014 A 
ATOM     10  C   UNL     1      14.835  -1.722   6.456  1.00  0.00     0.014 A 
ATOM     11  C   UNL     1      13.252  -2.566   8.609  1.00  0.00     0.010 A 
ATOM     12  C   UNL     1      15.440  -2.100   7.655  1.00  0.00     0.010 A 
ATOM     13  C   UNL     1      14.648  -2.523   8.735  1.00  0.00    -0.014 A 
BRANCH  13  14
ATOM     14  C   UNL     1      15.242  -3.123   9.948  1.00  0.00     0.031 A 
ATOM     15  C   UNL     1      16.052  -2.316  10.912  1.00  0.00     0.074 A 
ATOM     16  C   UNL     1      14.999  -4.435  10.150  1.00  0.00     0.049 A 
ATOM     17  N   UNL     1      16.654  -2.720  11.998  1.00  0.00    -0.248 NA
ATOM     18  C   UNL     1      16.222  -0.881  10.626  1.00  0.00     0.031 C 
ATOM     19  C   UNL     1      14.221  -5.297   9.247  1.00  0.00     0.029 A 
ATOM     20  N   UNL     1      15.350  -5.272  11.172  1.00  0.00    -0.354 N 
ATOM     21  C   UNL     1      17.309  -1.606  12.507  1.00  0.00     0.074 A 
ATOM     22  C   UNL     1      17.025  -0.503  11.615  1.00  0.00     0.031 C 
ATOM     23  C   UNL     1      14.105  -6.516   9.783  1.00  0.00     0.029 A 
ATOM     24  C   UNL     1      14.891  -6.558  11.005  1.00  0.00     0.049 A 
ATOM     25  H   UNL     1      15.878  -4.984  11.951  1.00  0.00     0.167 HD
ATOM     26  C   UNL     1      18.086  -1.533  13.613  1.00  0.00     0.031 A 
ATOM     27  C   UNL     1      15.125  -7.670  11.721  1.00  0.00     0.031 A 
ATOM     28  C   UNL     1      18.336  -2.653  14.484  1.00  0.00     0.049 A 
ATOM     29  C   UNL     1      16.017  -7.556  12.917  1.00  0.00     0.074 A 
ATOM     30  C   UNL     1      19.057  -2.676  15.665  1.00  0.00     0.029 A 
ATOM     31  N   UNL     1      17.886  -3.947  14.263  1.00  0.00    -0.354 N 
ATOM     32  N   UNL     1      16.582  -6.481  13.415  1.00  0.00    -0.248 NA
ATOM     33  C   UNL     1      16.321  -8.796  13.636  1.00  0.00     0.031 C 
ATOM     34  C   UNL     1      19.100  -3.997  16.121  1.00  0.00     0.029 A 
ATOM     35  C   UNL     1      18.356  -4.787  15.259  1.00  0.00     0.049 A 
ATOM     36  H   UNL     1      17.317  -4.227  13.510  1.00  0.00     0.167 HD
ATOM     37  C   UNL     1      17.316  -6.918  14.507  1.00  0.00     0.074 A 
ATOM     38  C   UNL     1      17.090  -8.346  14.618  1.00  0.00     0.031 C 
ATOM     39  C   UNL     1      18.117  -6.206  15.334  1.00  0.00     0.031 A 
BRANCH  26  40
ATOM     40  C   UNL     1      18.764  -0.228  13.931  1.00  0.00    -0.014 A 
ATOM     41  C   UNL     1      18.053   0.862  14.462  1.00  0.00     0.010 A 
ATOM     42  C   UNL     1      20.162  -0.131  13.795  1.00  0.00     0.010 A 
ATOM     43  C   UNL     1      18.728   2.027  14.844  1.00  0.00     0.020 A 
ATOM     44  C   UNL     1      20.843   1.022  14.195  1.00  0.00     0.020 A 
ATOM     45  C   UNL     1      20.119   2.097  14.713  1.00  0.00     0.054 A 
BRANCH  45  46
ATOM     46  S   UNL     1      20.975   3.593  15.283  1.00  0.00     0.124 S 
ATOM     47  O   UNL     1      20.580   4.570  14.271  1.00  0.00    -0.237 OA
ATOM     48  O   UNL     1      20.404   3.800  16.611  1.00  0.00    -0.237 OA
ATOM     49  O   UNL     1      22.386   3.216  15.266  1.00  0.00    -0.744 OA
ENDBRANCH  45  46
ENDBRANCH  26  40
BRANCH  27  50
ATOM     50  C   UNL     1      14.586  -8.977  11.261  1.00  0.00    -0.014 A 
ATOM     51  C   UNL     1      13.619  -9.667  12.010  1.00  0.00     0.010 A 
ATOM     52  C   UNL     1      15.033  -9.530  10.044  1.00  0.00     0.010 A 
ATOM     53  C   UNL     1      13.131 -10.899  11.564  1.00  0.00     0.020 A 
ATOM     54  C   UNL     1      14.520 -10.741   9.578  1.00  0.00     0.020 A 
ATOM     55  C   UNL     1      13.587 -11.429  10.353  1.00  0.00     0.054 A 
BRANCH  55  56
ATOM     56  S   UNL     1      12.927 -13.019   9.784  1.00  0.00     0.124 S 
ATOM     57  O   UNL     1      13.624 -13.961  10.654  1.00  0.00    -0.237 OA
ATOM     58  O   UNL     1      11.494 -12.873  10.026  1.00  0.00    -0.237 OA
ATOM     59  O   UNL     1      13.311 -13.064   8.375  1.00  0.00    -0.744 OA
ENDBRANCH  55  56
ENDBRANCH  27  50
BRANCH  39  60
ATOM     60  C   UNL     1      18.801  -6.969  16.431  1.00  0.00    -0.014 A 
ATOM     61  C   UNL     1      19.888  -7.814  16.146  1.00  0.00     0.010 A 
ATOM     62  C   UNL     1      18.388  -6.795  17.763  1.00  0.00     0.010 A 
ATOM     63  C   UNL     1      20.540  -8.489  17.178  1.00  0.00     0.020 A 
ATOM     64  C   UNL     1      19.057  -7.446  18.800  1.00  0.00     0.020 A 
ATOM     65  C   UNL     1      20.123  -8.296  18.499  1.00  0.00     0.054 A 
BRANCH  65  66
ATOM     66  S   UNL     1      21.031  -9.133  19.826  1.00  0.00     0.124 S 
ATOM     67  O   UNL     1      20.597 -10.518  19.664  1.00  0.00    -0.237 OA
ATOM     68  O   UNL     1      22.424  -8.866  19.477  1.00  0.00    -0.237 OA
ATOM     69  O   UNL     1      20.560  -8.470  21.039  1.00  0.00    -0.744 OA
ENDBRANCH  65  66
ENDBRANCH  39  60
ENDBRANCH  13  14
ENDBRANCH   6   8
ENDBRANCH   3   4
ENDBRANCH   2   3
ENDBRANCH   1   2
BRANCH   1  70
ATOM     70  C   UNL     1       8.614   1.457   5.384  1.00  0.00     0.116 C 
BRANCH  70  71
ATOM     71  N   UNL     1       7.950   2.038   6.537  1.00  0.00    -0.351 N 
ATOM     72  C   UNL     1       7.138   3.118   6.702  1.00  0.00     0.281 C 
ATOM     73  H   UNL     1       8.123   1.550   7.374  1.00  0.00     0.163 HD
ATOM     74  O   UNL     1       6.705   3.275   7.854  1.00  0.00    -0.268 OA
BRANCH  72  75
ATOM     75  C   UNL     1       6.682   4.098   5.566  1.00  0.00     0.176 C 
ATOM     76  C   UNL     1       6.737   5.533   6.137  1.00  0.00     0.080 C 
ATOM     77  C   UNL     1       5.181   3.852   5.284  1.00  0.00     0.093 C 
ATOM     78  C   UNL     1       5.357   5.866   6.697  1.00  0.00     0.022 C 
ATOM     79  C   UNL     1       4.404   4.772   6.223  1.00  0.00     0.053 C 
BRANCH  75  80
ATOM     80  N   UNL     1       7.449   3.884   4.325  1.00  0.00    -0.331 N 
ATOM     81  H   UNL     1       6.783   3.572   3.618  1.00  0.00     0.347 HD
ATOM     82  H   UNL     1       8.175   3.228   4.612  1.00  0.00     0.347 HD
BRANCH  80  83
ATOM     83  C   UNL     1       8.208   4.977   3.731  1.00  0.00     0.183 C 
ATOM     84  C   UNL     1       9.481   5.444   4.374  1.00  0.00     0.071 C 
ATOM     85  C   UNL     1       9.530   4.654   3.096  1.00  0.00     0.071 C 
ENDBRANCH  80  83
ENDBRANCH  75  80
BRANCH  79  86
ATOM     86  S   UNL     1       2.780   5.449   5.668  1.00  0.00    -0.158 SA
BRANCH  86  87
ATOM     87  C   UNL     1       2.866   5.617   3.844  1.00  0.00     0.072 C 
BRANCH  87  88
ATOM     88  C   UNL     1       3.470   6.918   3.312  1.00  0.00     0.039 C 
BRANCH  88  89
ATOM     89  C   UNL     1       4.960   6.867   3.037  1.00  0.00     0.157 C 
BRANCH  89  90
ATOM     90  O   UNL     1       5.255   5.919   2.020  1.00  0.00    -0.396 OA
ATOM     91  H   UNL     1       4.970   5.038   2.307  1.00  0.00     0.210 HD
ENDBRANCH  89  90
ENDBRANCH  88  89
ENDBRANCH  87  88
ENDBRANCH  86  87
ENDBRANCH  79  86
ENDBRANCH  72  75
ENDBRANCH  70  71
ENDBRANCH   1  70
TORSDOF 21
