REMARK SMILES Cc1cc(C)n(C)c(=O)c1C(=O)N1CCC2(CC1)C[NH2+][C@@H](C(=O)NCCCCNC(=O)c1ccc(-c3c4nc(c(-c5ccc(S(=O)(=O)[O-])cc5)c5ccc([nH]5)c(-c5ccc(S(=O)(=O)[O-])cc5)c5nc(c(-c6ccc(S(=O)(=O)[O-])cc6)c6ccc3[nH]6)C=C5)C=C4)cc1)C2
REMARK SMILES IDX 27 1 26 2 25 3 24 4 22 5 23 6 21 8 11 9 12 10 13 11 14 12
REMARK SMILES IDX 18 13 15 14 17 15 16 16 19 17 92 18 20 19 10 22 1 23 2 24
REMARK SMILES IDX 3 25 4 26 8 27 5 28 6 29 9 30 7 31 28 32 29 33 30 34 31 36
REMARK SMILES IDX 32 37 33 38 91 39 34 40 90 41 35 42 36 43 37 44 84 45 38 46
REMARK SMILES IDX 89 47 83 48 85 49 39 50 88 51 82 52 81 53 40 55 70 56 51 57
REMARK SMILES IDX 69 58 52 59 55 60 68 61 86 62 53 63 54 64 67 66 87 67 56 68
REMARK SMILES IDX 41 69 42 70 50 71 43 72 49 73 44 74 45 75 46 76 47 77 48 78
REMARK SMILES IDX 71 79 72 80 80 81 73 82 79 83 74 84 75 85 76 86 77 87 78 88
REMARK SMILES IDX 57 89 58 90 66 91 59 92 65 93 60 94 61 95 62 96 63 97 64 98
REMARK H PARENT 24 7 20 20 20 21 29 35 85 54 55 65
REMARK Flexibility Score: inf
ROOT
ATOM      1  C   UNL     1       1.665  -4.355  -6.391  1.00  0.00     0.023 C 
ENDROOT
BRANCH   1   2
ATOM      2  C   UNL     1       1.779  -3.699  -5.019  1.00  0.00     0.023 C 
BRANCH   2   3
ATOM      3  C   UNL     1       2.351  -4.606  -3.935  1.00  0.00     0.116 C 
BRANCH   3   4
ATOM      4  N   UNL     1       3.741  -4.943  -4.183  1.00  0.00    -0.351 N 
ATOM      5  C   UNL     1       4.858  -4.612  -3.472  1.00  0.00     0.278 C 
ATOM      6  O   UNL     1       5.946  -5.045  -3.863  1.00  0.00    -0.268 OA
ATOM      7  H   UNL     1       3.902  -5.492  -4.984  1.00  0.00     0.163 HD
BRANCH   5   8
ATOM      8  C   UNL     1       4.785  -3.706  -2.237  1.00  0.00     0.273 C 
ATOM      9  C   UNL     1       2.409   2.205  -0.586  1.00  0.00     0.259 C 
ATOM     10  O   UNL     1       3.263   3.084  -0.428  1.00  0.00    -0.269 OA
ATOM     11  N   UNL     1       2.769   1.012  -1.200  1.00  0.00    -0.338 N 
ATOM     12  C   UNL     1       4.180   0.660  -1.190  1.00  0.00     0.120 C 
ATOM     13  C   UNL     1       1.950   0.158  -2.053  1.00  0.00     0.120 C 
ATOM     14  C   UNL     1       4.321  -0.706  -0.543  1.00  0.00     0.034 C 
ATOM     15  C   UNL     1       2.134  -1.345  -1.756  1.00  0.00     0.034 C 
ATOM     16  C   UNL     1       3.561  -1.802  -1.317  1.00  0.00     0.029 C 
ATOM     17  C   UNL     1       3.496  -3.059  -0.410  1.00  0.00     0.268 C 
ATOM     18  C   UNL     1       4.385  -2.267  -2.541  1.00  0.00     0.088 C 
ATOM     19  N   UNL     1       3.785  -4.191  -1.270  1.00  0.00    -0.336 N 
ATOM     20  H   UNL     1       2.941  -4.497  -1.754  1.00  0.00     0.346 HD
ATOM     21  H   UNL     1       4.129  -4.992  -0.739  1.00  0.00     0.346 HD
BRANCH   9  22
ATOM     22  C   UNL     1       1.057   2.410   0.056  1.00  0.00     0.108 A 
ATOM     23  C   UNL     1       0.698   0.013   0.899  1.00  0.00     0.045 C 
ATOM     24  C   UNL     1       0.364   1.461   0.729  1.00  0.00    -0.031 A 
ATOM     25  C   UNL     1      -0.796   1.814   1.524  1.00  0.00     0.026 A 
ATOM     26  C   UNL     1      -1.084   3.083   1.834  1.00  0.00     0.018 A 
ATOM     27  C   UNL     1       0.596   3.849   0.234  1.00  0.00     0.263 A 
ATOM     28  C   UNL     1      -2.198   3.351   2.808  1.00  0.00     0.064 C 
ATOM     29  N   UNL     1      -0.358   4.104   1.238  1.00  0.00    -0.315 N 
ATOM     30  O   UNL     1       1.052   4.751  -0.470  1.00  0.00    -0.268 OA
ATOM     31  C   UNL     1      -0.608   5.495   1.594  1.00  0.00     0.153 C 
ENDBRANCH   9  22
ENDBRANCH   5   8
ENDBRANCH   3   4
ENDBRANCH   2   3
ENDBRANCH   1   2
BRANCH   1  32
ATOM     32  C   UNL     1       0.861  -5.648  -6.411  1.00  0.00     0.116 C 
BRANCH  32  33
ATOM     33  N   UNL     1      -0.506  -5.469  -5.949  1.00  0.00    -0.352 N 
ATOM     34  C   UNL     1      -1.670  -5.950  -6.506  1.00  0.00     0.251 C 
ATOM     35  H   UNL     1      -0.614  -4.934  -5.130  1.00  0.00     0.163 HD
ATOM     36  O   UNL     1      -2.754  -5.585  -6.080  1.00  0.00    -0.269 OA
BRANCH  34  37
ATOM     37  C   UNL     1      -1.582  -6.890  -7.645  1.00  0.00     0.039 A 
ATOM     38  C   UNL     1      -2.363  -6.655  -8.778  1.00  0.00     0.014 A 
ATOM     39  C   UNL     1      -0.707  -7.979  -7.600  1.00  0.00     0.014 A 
ATOM     40  C   UNL     1      -2.220  -7.481  -9.894  1.00  0.00     0.010 A 
ATOM     41  C   UNL     1      -0.514  -8.755  -8.737  1.00  0.00     0.010 A 
ATOM     42  C   UNL     1      -1.272  -8.518  -9.893  1.00  0.00    -0.014 A 
BRANCH  42  43
ATOM     43  C   UNL     1      -1.077  -9.391 -11.077  1.00  0.00     0.031 A 
ATOM     44  C   UNL     1      -1.411 -10.855 -10.982  1.00  0.00     0.074 A 
ATOM     45  C   UNL     1      -0.567  -8.881 -12.216  1.00  0.00     0.049 A 
ATOM     46  N   UNL     1      -1.229 -11.802 -11.866  1.00  0.00    -0.248 NA
ATOM     47  C   UNL     1      -2.018 -11.321  -9.722  1.00  0.00     0.031 C 
ATOM     48  C   UNL     1      -0.206  -7.477 -12.433  1.00  0.00     0.029 A 
ATOM     49  N   UNL     1      -0.267  -9.486 -13.410  1.00  0.00    -0.354 N 
ATOM     50  C   UNL     1      -1.701 -12.967 -11.274  1.00  0.00     0.074 A 
ATOM     51  C   UNL     1      -2.120 -12.625  -9.933  1.00  0.00     0.031 C 
ATOM     52  C   UNL     1       0.229  -7.325 -13.695  1.00  0.00     0.029 A 
ATOM     53  C   UNL     1       0.228  -8.623 -14.361  1.00  0.00     0.049 A 
ATOM     54  H   UNL     1      -0.394 -10.449 -13.572  1.00  0.00     0.167 HD
ATOM     55  C   UNL     1      -1.806 -14.206 -11.809  1.00  0.00     0.031 A 
ATOM     56  C   UNL     1       0.637  -8.856 -15.623  1.00  0.00     0.031 A 
ATOM     57  C   UNL     1      -1.395 -14.545 -13.145  1.00  0.00     0.049 A 
ATOM     58  C   UNL     1       0.582 -10.263 -16.161  1.00  0.00     0.074 A 
ATOM     59  C   UNL     1      -1.457 -15.775 -13.776  1.00  0.00     0.029 A 
ATOM     60  N   UNL     1      -0.863 -13.651 -14.060  1.00  0.00    -0.354 N 
ATOM     61  N   UNL     1       0.134 -11.352 -15.583  1.00  0.00    -0.248 NA
ATOM     62  C   UNL     1       1.083 -10.467 -17.528  1.00  0.00     0.031 C 
ATOM     63  C   UNL     1      -0.924 -15.634 -15.060  1.00  0.00     0.029 A 
ATOM     64  C   UNL     1      -0.586 -14.304 -15.249  1.00  0.00     0.049 A 
ATOM     65  H   UNL     1      -0.706 -12.694 -13.890  1.00  0.00     0.167 HD
ATOM     66  C   UNL     1       0.262 -12.361 -16.532  1.00  0.00     0.074 A 
ATOM     67  C   UNL     1       0.813 -11.750 -17.723  1.00  0.00     0.031 C 
ATOM     68  C   UNL     1      -0.049 -13.677 -16.429  1.00  0.00     0.031 A 
BRANCH  55  69
ATOM     69  C   UNL     1      -2.419 -15.287 -10.961  1.00  0.00    -0.014 A 
ATOM     70  C   UNL     1      -3.800 -15.289 -10.697  1.00  0.00     0.010 A 
ATOM     71  C   UNL     1      -1.632 -16.360 -10.504  1.00  0.00     0.010 A 
ATOM     72  C   UNL     1      -4.383 -16.339  -9.985  1.00  0.00     0.020 A 
ATOM     73  C   UNL     1      -2.216 -17.426  -9.814  1.00  0.00     0.020 A 
ATOM     74  C   UNL     1      -3.589 -17.406  -9.557  1.00  0.00     0.054 A 
BRANCH  74  75
ATOM     75  S   UNL     1      -4.392 -18.791  -8.704  1.00  0.00     0.124 S 
ATOM     76  O   UNL     1      -4.803 -18.174  -7.445  1.00  0.00    -0.237 OA
ATOM     77  O   UNL     1      -5.479 -19.137  -9.617  1.00  0.00    -0.237 OA
ATOM     78  O   UNL     1      -3.334 -19.791  -8.590  1.00  0.00    -0.744 OA
ENDBRANCH  74  75
ENDBRANCH  55  69
BRANCH  56  79
ATOM     79  C   UNL     1       1.124  -7.742 -16.484  1.00  0.00    -0.014 A 
ATOM     80  C   UNL     1       0.392  -7.357 -17.623  1.00  0.00     0.010 A 
ATOM     81  C   UNL     1       2.337  -7.089 -16.201  1.00  0.00     0.010 A 
ATOM     82  C   UNL     1       0.884  -6.373 -18.485  1.00  0.00     0.020 A 
ATOM     83  C   UNL     1       2.816  -6.080 -17.043  1.00  0.00     0.020 A 
ATOM     84  C   UNL     1       2.096  -5.744 -18.191  1.00  0.00     0.054 A 
BRANCH  84  85
ATOM     85  S   UNL     1       2.713  -4.469 -19.325  1.00  0.00     0.124 S 
ATOM     86  O   UNL     1       3.102  -5.260 -20.488  1.00  0.00    -0.237 OA
ATOM     87  O   UNL     1       1.543  -3.613 -19.502  1.00  0.00    -0.237 OA
ATOM     88  O   UNL     1       3.816  -3.859 -18.586  1.00  0.00    -0.744 OA
ENDBRANCH  84  85
ENDBRANCH  56  79
BRANCH  68  89
ATOM     89  C   UNL     1       0.149 -14.535 -17.650  1.00  0.00    -0.014 A 
ATOM     90  C   UNL     1       1.435 -14.865 -18.112  1.00  0.00     0.010 A 
ATOM     91  C   UNL     1      -0.975 -15.052 -18.322  1.00  0.00     0.010 A 
ATOM     92  C   UNL     1       1.593 -15.660 -19.249  1.00  0.00     0.020 A 
ATOM     93  C   UNL     1      -0.820 -15.874 -19.440  1.00  0.00     0.020 A 
ATOM     94  C   UNL     1       0.464 -16.159 -19.907  1.00  0.00     0.054 A 
BRANCH  94  95
ATOM     95  S   UNL     1       0.701 -17.206 -21.368  1.00  0.00     0.124 S 
ATOM     96  O   UNL     1       1.175 -16.244 -22.359  1.00  0.00    -0.237 OA
ATOM     97  O   UNL     1       1.692 -18.176 -20.908  1.00  0.00    -0.237 OA
ATOM     98  O   UNL     1      -0.629 -17.756 -21.621  1.00  0.00    -0.744 OA
ENDBRANCH  94  95
ENDBRANCH  68  89
ENDBRANCH  42  43
ENDBRANCH  34  37
ENDBRANCH  32  33
ENDBRANCH   1  32
TORSDOF 15
