REMARK SMILES CC(=O)NCCc1c[nH]c2ccc(C(=O)NCCCCNC(=O)c3ccc(-c4c5nc(c(-c6ccc(S(=O)(=O)[O-])cc6)c6ccc([nH]6)c(-c6ccc(S(=O)(=O)[O-])cc6)c6nc(c(-c7ccc(S(=O)(=O)[O-])cc7)c7ccc4[nH]7)C=C6)C=C5)cc3)cc12
REMARK SMILES IDX 18 1 17 2 16 3 14 4 15 5 13 7 7 8 8 9 85 10 9 11 10 12 84 13
REMARK SMILES IDX 11 15 12 16 6 17 5 18 4 19 1 20 2 21 3 22 19 24 20 25 21 26
REMARK SMILES IDX 22 27 23 29 24 30 25 31 83 32 26 33 82 34 27 35 28 36 29 37
REMARK SMILES IDX 76 38 30 39 81 40 75 41 77 42 31 43 80 44 74 45 73 46 32 48
REMARK SMILES IDX 62 49 43 50 61 51 44 52 47 53 60 54 78 55 45 56 46 57 59 59
REMARK SMILES IDX 79 60 48 61 33 62 34 63 42 64 35 65 41 66 36 67 37 68 38 69
REMARK SMILES IDX 39 70 40 71 63 72 64 73 72 74 65 75 71 76 66 77 67 78 68 79
REMARK SMILES IDX 69 80 70 81 49 82 50 83 58 84 51 85 57 86 52 87 53 88 54 89
REMARK SMILES IDX 55 90 56 91
REMARK H PARENT 16 6 9 14 4 23 21 28 77 47 47 58
REMARK Flexibility Score: inf
ROOT
ATOM      1  C   UNL     1       4.593   8.479   5.212  1.00  0.00     0.023 C 
ENDROOT
BRANCH   1   2
ATOM      2  C   UNL     1       3.460   8.027   4.287  1.00  0.00     0.116 C 
BRANCH   2   3
ATOM      3  N   UNL     1       3.956   7.129   3.266  1.00  0.00    -0.352 N 
ATOM      4  C   UNL     1       4.046   5.763   3.187  1.00  0.00     0.251 C 
ATOM      5  O   UNL     1       4.521   5.299   2.148  1.00  0.00    -0.269 OA
ATOM      6  H   UNL     1       4.297   7.592   2.467  1.00  0.00     0.163 HD
BRANCH   4   7
ATOM      7  C   UNL     1       3.586   4.817   4.250  1.00  0.00     0.040 A 
ATOM      8  C   UNL     1       2.734   1.091   4.681  1.00  0.00    -0.021 A 
ATOM      9  C   UNL     1       2.337   0.679   5.939  1.00  0.00     0.087 A 
ATOM     10  C   UNL     1       2.963   2.502   4.763  1.00  0.00     0.003 A 
ATOM     11  N   UNL     1       2.339   1.767   6.770  1.00  0.00    -0.361 N 
ATOM     12  C   UNL     1       2.755   2.884   6.085  1.00  0.00     0.046 A 
ATOM     13  C   UNL     1       3.361   3.488   3.837  1.00  0.00     0.024 A 
ATOM     14  H   UNL     1       2.081   1.752   7.720  1.00  0.00     0.166 HD
ATOM     15  C   UNL     1       2.978   4.186   6.536  1.00  0.00     0.027 A 
ATOM     16  C   UNL     1       3.426   5.131   5.601  1.00  0.00     0.016 A 
BRANCH   8  17
ATOM     17  C   UNL     1       2.932   0.221   3.477  1.00  0.00     0.059 C 
BRANCH  17  18
ATOM     18  C   UNL     1       1.623  -0.260   2.849  1.00  0.00     0.120 C 
BRANCH  18  19
ATOM     19  N   UNL     1       0.850   0.824   2.267  1.00  0.00    -0.356 N 
ATOM     20  C   UNL     1       1.056   0.079  -0.070  1.00  0.00     0.114 C 
ATOM     21  C   UNL     1       0.527   1.037   0.960  1.00  0.00     0.216 C 
ATOM     22  O   UNL     1      -0.193   1.986   0.656  1.00  0.00    -0.275 OA
ATOM     23  H   UNL     1       0.513   1.496   2.903  1.00  0.00     0.163 HD
ENDBRANCH  18  19
ENDBRANCH  17  18
ENDBRANCH   8  17
ENDBRANCH   4   7
ENDBRANCH   2   3
ENDBRANCH   1   2
BRANCH   1  24
ATOM     24  C   UNL     1       5.512   9.548   4.612  1.00  0.00     0.023 C 
BRANCH  24  25
ATOM     25  C   UNL     1       4.841  10.891   4.343  1.00  0.00     0.116 C 
BRANCH  25  26
ATOM     26  N   UNL     1       4.281  11.504   5.539  1.00  0.00    -0.352 N 
ATOM     27  C   UNL     1       4.055  12.842   5.770  1.00  0.00     0.251 C 
ATOM     28  H   UNL     1       4.036  10.890   6.269  1.00  0.00     0.163 HD
ATOM     29  O   UNL     1       3.665  13.234   6.862  1.00  0.00    -0.269 OA
BRANCH  27  30
ATOM     30  C   UNL     1       4.345  13.799   4.684  1.00  0.00     0.039 A 
ATOM     31  C   UNL     1       5.263  14.826   4.915  1.00  0.00     0.014 A 
ATOM     32  C   UNL     1       3.771  13.624   3.423  1.00  0.00     0.014 A 
ATOM     33  C   UNL     1       5.669  15.636   3.852  1.00  0.00     0.010 A 
ATOM     34  C   UNL     1       4.215  14.397   2.357  1.00  0.00     0.010 A 
ATOM     35  C   UNL     1       5.178  15.399   2.559  1.00  0.00    -0.014 A 
BRANCH  35  36
ATOM     36  C   UNL     1       5.658  16.168   1.385  1.00  0.00     0.031 A 
ATOM     37  C   UNL     1       4.701  17.051   0.636  1.00  0.00     0.074 A 
ATOM     38  C   UNL     1       6.913  15.983   0.930  1.00  0.00     0.049 A 
ATOM     39  N   UNL     1       4.864  17.657  -0.510  1.00  0.00    -0.248 NA
ATOM     40  C   UNL     1       3.376  17.253   1.246  1.00  0.00     0.031 C 
ATOM     41  C   UNL     1       7.928  15.132   1.555  1.00  0.00     0.029 A 
ATOM     42  N   UNL     1       7.540  16.483  -0.184  1.00  0.00    -0.354 N 
ATOM     43  C   UNL     1       3.652  18.281  -0.780  1.00  0.00     0.074 A 
ATOM     44  C   UNL     1       2.757  17.961   0.312  1.00  0.00     0.031 C 
ATOM     45  C   UNL     1       9.051  15.174   0.819  1.00  0.00     0.029 A 
ATOM     46  C   UNL     1       8.823  16.017  -0.350  1.00  0.00     0.049 A 
ATOM     47  H   UNL     1       7.112  17.116  -0.804  1.00  0.00     0.167 HD
ATOM     48  C   UNL     1       3.317  19.054  -1.839  1.00  0.00     0.031 A 
ATOM     49  C   UNL     1       9.708  16.226  -1.344  1.00  0.00     0.031 A 
ATOM     50  C   UNL     1       4.216  19.389  -2.909  1.00  0.00     0.049 A 
ATOM     51  C   UNL     1       9.318  17.099  -2.505  1.00  0.00     0.074 A 
ATOM     52  C   UNL     1       3.987  20.204  -4.003  1.00  0.00     0.029 A 
ATOM     53  N   UNL     1       5.521  18.932  -3.015  1.00  0.00    -0.354 N 
ATOM     54  N   UNL     1       8.178  17.708  -2.727  1.00  0.00    -0.248 NA
ATOM     55  C   UNL     1      10.332  17.316  -3.546  1.00  0.00     0.031 C 
ATOM     56  C   UNL     1       5.146  20.219  -4.786  1.00  0.00     0.029 A 
ATOM     57  C   UNL     1       6.108  19.442  -4.159  1.00  0.00     0.049 A 
ATOM     58  H   UNL     1       5.964  18.333  -2.371  1.00  0.00     0.167 HD
ATOM     59  C   UNL     1       8.347  18.401  -3.920  1.00  0.00     0.074 A 
ATOM     60  C   UNL     1       9.698  18.140  -4.371  1.00  0.00     0.031 C 
ATOM     61  C   UNL     1       7.461  19.185  -4.580  1.00  0.00     0.031 A 
BRANCH  48  62
ATOM     62  C   UNL     1       1.909  19.580  -1.891  1.00  0.00    -0.014 A 
ATOM     63  C   UNL     1       1.487  20.605  -1.026  1.00  0.00     0.010 A 
ATOM     64  C   UNL     1       1.002  19.053  -2.828  1.00  0.00     0.010 A 
ATOM     65  C   UNL     1       0.168  21.062  -1.064  1.00  0.00     0.020 A 
ATOM     66  C   UNL     1      -0.313  19.525  -2.885  1.00  0.00     0.020 A 
ATOM     67  C   UNL     1      -0.727  20.512  -1.988  1.00  0.00     0.054 A 
BRANCH  67  68
ATOM     68  S   UNL     1      -2.434  21.124  -2.021  1.00  0.00     0.124 S 
ATOM     69  O   UNL     1      -3.018  20.442  -0.869  1.00  0.00    -0.237 OA
ATOM     70  O   UNL     1      -2.264  22.567  -1.876  1.00  0.00    -0.237 OA
ATOM     71  O   UNL     1      -2.932  20.687  -3.323  1.00  0.00    -0.744 OA
ENDBRANCH  67  68
ENDBRANCH  48  62
BRANCH  49  72
ATOM     72  C   UNL     1      11.056  15.601  -1.279  1.00  0.00    -0.014 A 
ATOM     73  C   UNL     1      12.183  16.382  -0.970  1.00  0.00     0.010 A 
ATOM     74  C   UNL     1      11.217  14.222  -1.503  1.00  0.00     0.010 A 
ATOM     75  C   UNL     1      13.451  15.798  -0.898  1.00  0.00     0.020 A 
ATOM     76  C   UNL     1      12.481  13.630  -1.412  1.00  0.00     0.020 A 
ATOM     77  C   UNL     1      13.592  14.425  -1.119  1.00  0.00     0.054 A 
BRANCH  77  78
ATOM     78  S   UNL     1      15.237  13.675  -0.963  1.00  0.00     0.124 S 
ATOM     79  O   UNL     1      15.863  14.051  -2.226  1.00  0.00    -0.237 OA
ATOM     80  O   UNL     1      15.773  14.330   0.229  1.00  0.00    -0.237 OA
ATOM     81  O   UNL     1      14.948  12.252  -0.803  1.00  0.00    -0.744 OA
ENDBRANCH  77  78
ENDBRANCH  49  72
BRANCH  61  82
ATOM     82  C   UNL     1       7.929  19.861  -5.838  1.00  0.00    -0.014 A 
ATOM     83  C   UNL     1       8.008  19.157  -7.051  1.00  0.00     0.010 A 
ATOM     84  C   UNL     1       8.193  21.242  -5.821  1.00  0.00     0.010 A 
ATOM     85  C   UNL     1       8.347  19.826  -8.230  1.00  0.00     0.020 A 
ATOM     86  C   UNL     1       8.515  21.917  -7.000  1.00  0.00     0.020 A 
ATOM     87  C   UNL     1       8.595  21.203  -8.198  1.00  0.00     0.054 A 
BRANCH  87  88
ATOM     88  S   UNL     1       8.945  22.067  -9.754  1.00  0.00     0.124 S 
ATOM     89  O   UNL     1      10.339  21.705  -9.996  1.00  0.00    -0.237 OA
ATOM     90  O   UNL     1       7.975  21.481 -10.676  1.00  0.00    -0.237 OA
ATOM     91  O   UNL     1       8.714  23.473  -9.428  1.00  0.00    -0.744 OA
ENDBRANCH  87  88
ENDBRANCH  61  82
ENDBRANCH  35  36
ENDBRANCH  27  30
ENDBRANCH  25  26
ENDBRANCH  24  25
ENDBRANCH   1  24
TORSDOF 17
