REMARK SMILES COc1cc([C@H]2CC(=O)Nc3c(C(=O)NCCCCNC(=O)c4ccc(-c5c6nc(c(-c7ccc(S(=O)(=O)[O-])cc7)c7ccc([nH]7)c(-c7ccc(S(=O)(=O)[O-])cc7)c7nc(c(-c8ccc(S(=O)(=O)[O-])cc8)c8ccc5[nH]8)C=C7)C=C6)cc4)cn(-c4cccc(Cl)c4)c32)c(OC)c(O)c1O
REMARK SMILES IDX 18 1 17 2 16 3 15 4 13 5 14 6 12 8 6 9 7 10 92 11 8 12 11 13
REMARK SMILES IDX 84 14 9 15 10 16 83 17 5 19 3 20 4 21 98 22 96 23 93 24 2 25
REMARK SMILES IDX 1 26 99 27 97 29 94 31 95 32 85 33 86 34 91 35 87 36 89 37
REMARK SMILES IDX 88 38 90 39 19 40 20 41 21 42 22 44 23 45 24 46 82 47 25 48
REMARK SMILES IDX 81 49 26 50 27 51 28 52 75 53 29 54 80 55 74 56 76 57 30 58
REMARK SMILES IDX 79 59 73 60 72 61 31 63 61 64 42 65 60 66 43 67 46 68 59 69
REMARK SMILES IDX 77 70 44 71 45 72 58 74 78 75 47 76 32 77 33 78 41 79 34 80
REMARK SMILES IDX 40 81 35 82 36 83 37 84 38 85 39 86 62 87 63 88 71 89 64 90
REMARK SMILES IDX 70 91 65 92 66 93 67 94 68 95 69 96 48 97 49 98 57 99 50 100
REMARK SMILES IDX 56 101 51 102 52 103 53 104 54 105 55 106
REMARK H PARENT 15 7 10 18 99 28 97 30 20 43 76 62 46 73
REMARK Flexibility Score: inf
ROOT
ATOM      1  C   UNL     1       5.674   1.909  -6.344  1.00  0.00     0.023 C 
ENDROOT
BRANCH   1   2
ATOM      2  C   UNL     1       4.861   0.977  -5.429  1.00  0.00     0.023 C 
BRANCH   2   3
ATOM      3  C   UNL     1       3.364   1.310  -5.339  1.00  0.00     0.116 C 
BRANCH   3   4
ATOM      4  N   UNL     1       2.562   0.553  -6.275  1.00  0.00    -0.352 N 
ATOM      5  C   UNL     1       1.847  -0.615  -6.228  1.00  0.00     0.254 C 
ATOM      6  O   UNL     1       1.146  -0.816  -7.225  1.00  0.00    -0.269 OA
ATOM      7  H   UNL     1       2.519   0.981  -7.160  1.00  0.00     0.163 HD
BRANCH   5   8
ATOM      8  C   UNL     1       1.917  -1.644  -5.177  1.00  0.00     0.081 A 
ATOM      9  C   UNL     1       3.362  -4.008  -2.697  1.00  0.00     0.082 C 
ATOM     10  C   UNL     1       4.561  -3.158  -2.213  1.00  0.00     0.115 C 
ATOM     11  C   UNL     1       2.528  -3.250  -3.672  1.00  0.00     0.055 A 
ATOM     12  C   UNL     1       4.438  -1.671  -2.357  1.00  0.00     0.225 C 
ATOM     13  C   UNL     1       2.740  -1.936  -4.052  1.00  0.00     0.076 A 
ATOM     14  N   UNL     1       1.378  -3.689  -4.294  1.00  0.00    -0.317 N 
ATOM     15  O   UNL     1       5.112  -0.904  -1.671  1.00  0.00    -0.275 OA
ATOM     16  N   UNL     1       3.664  -1.193  -3.365  1.00  0.00    -0.324 N 
ATOM     17  C   UNL     1       1.052  -2.745  -5.242  1.00  0.00     0.107 A 
ATOM     18  H   UNL     1       3.774  -0.248  -3.620  1.00  0.00     0.170 HD
BRANCH   9  19
ATOM     19  C   UNL     1       3.982  -5.384  -3.023  1.00  0.00     0.012 A 
ATOM     20  C   UNL     1       5.260  -7.121  -1.779  1.00  0.00     0.165 A 
ATOM     21  C   UNL     1       4.369  -6.052  -1.815  1.00  0.00     0.059 A 
ATOM     22  C   UNL     1       5.690  -7.663  -2.978  1.00  0.00     0.204 A 
ATOM     23  C   UNL     1       5.242  -7.120  -4.178  1.00  0.00     0.204 A 
ATOM     24  C   UNL     1       4.407  -5.969  -4.232  1.00  0.00     0.168 A 
BRANCH  20  25
ATOM     25  O   UNL     1       5.779  -7.668  -0.633  1.00  0.00    -0.493 OA
ATOM     26  C   UNL     1       5.817  -6.788   0.492  1.00  0.00     0.278 C 
ENDBRANCH  20  25
BRANCH  22  27
ATOM     27  O   UNL     1       6.576  -8.708  -2.969  1.00  0.00    -0.502 OA
ATOM     28  H   UNL     1       6.871  -9.065  -2.154  1.00  0.00     0.293 HD
ENDBRANCH  22  27
BRANCH  23  29
ATOM     29  O   UNL     1       5.662  -7.698  -5.356  1.00  0.00    -0.502 OA
ATOM     30  H   UNL     1       5.374  -7.351  -6.177  1.00  0.00     0.293 HD
ENDBRANCH  23  29
BRANCH  24  31
ATOM     31  O   UNL     1       4.052  -5.703  -5.525  1.00  0.00    -0.492 OA
ATOM     32  C   UNL     1       4.077  -4.392  -6.050  1.00  0.00     0.278 C 
ENDBRANCH  24  31
ENDBRANCH   9  19
BRANCH  14  33
ATOM     33  C   UNL     1       0.795  -4.971  -4.154  1.00  0.00     0.047 A 
ATOM     34  C   UNL     1       0.501  -5.475  -2.881  1.00  0.00     0.027 A 
ATOM     35  C   UNL     1       0.672  -5.782  -5.286  1.00  0.00     0.047 A 
ATOM     36  C   UNL     1       0.151  -6.817  -2.733  1.00  0.00     0.004 A 
ATOM     37  C   UNL     1       0.373  -7.132  -5.119  1.00  0.00     0.043 A 
ATOM     38  C   UNL     1       0.120  -7.654  -3.850  1.00  0.00     0.020 A 
ATOM     39  Cl  UNL     1       0.391  -8.182  -6.483  1.00  0.00    -0.084 Cl
ENDBRANCH  14  33
ENDBRANCH   5   8
ENDBRANCH   3   4
ENDBRANCH   2   3
ENDBRANCH   1   2
BRANCH   1  40
ATOM     40  C   UNL     1       5.875   3.327  -5.804  1.00  0.00     0.116 C 
BRANCH  40  41
ATOM     41  N   UNL     1       6.694   3.372  -4.593  1.00  0.00    -0.352 N 
ATOM     42  C   UNL     1       6.774   4.397  -3.664  1.00  0.00     0.251 C 
ATOM     43  H   UNL     1       7.253   2.581  -4.417  1.00  0.00     0.163 HD
ATOM     44  O   UNL     1       7.767   4.542  -2.971  1.00  0.00    -0.269 OA
BRANCH  42  45
ATOM     45  C   UNL     1       5.617   5.301  -3.524  1.00  0.00     0.039 A 
ATOM     46  C   UNL     1       5.783   6.685  -3.433  1.00  0.00     0.014 A 
ATOM     47  C   UNL     1       4.347   4.728  -3.536  1.00  0.00     0.014 A 
ATOM     48  C   UNL     1       4.651   7.499  -3.449  1.00  0.00     0.010 A 
ATOM     49  C   UNL     1       3.241   5.532  -3.669  1.00  0.00     0.010 A 
ATOM     50  C   UNL     1       3.381   6.917  -3.593  1.00  0.00    -0.014 A 
BRANCH  50  51
ATOM     51  C   UNL     1       2.197   7.750  -3.795  1.00  0.00     0.031 A 
ATOM     52  C   UNL     1       2.270   8.685  -4.953  1.00  0.00     0.074 A 
ATOM     53  C   UNL     1       1.030   7.540  -3.151  1.00  0.00     0.049 A 
ATOM     54  N   UNL     1       2.326   9.975  -4.922  1.00  0.00    -0.248 NA
ATOM     55  C   UNL     1       2.420   8.119  -6.304  1.00  0.00     0.031 C 
ATOM     56  C   UNL     1       0.694   6.461  -2.213  1.00  0.00     0.029 A 
ATOM     57  N   UNL     1      -0.161   8.180  -3.304  1.00  0.00    -0.354 N 
ATOM     58  C   UNL     1       2.293  10.398  -6.248  1.00  0.00     0.074 A 
ATOM     59  C   UNL     1       2.538   9.223  -7.046  1.00  0.00     0.031 C 
ATOM     60  C   UNL     1      -0.648   6.373  -2.087  1.00  0.00     0.029 A 
ATOM     61  C   UNL     1      -1.253   7.492  -2.785  1.00  0.00     0.049 A 
ATOM     62  H   UNL     1      -0.243   9.057  -3.744  1.00  0.00     0.167 HD
ATOM     63  C   UNL     1       1.826  11.632  -6.595  1.00  0.00     0.031 A 
ATOM     64  C   UNL     1      -2.564   7.802  -2.946  1.00  0.00     0.031 A 
ATOM     65  C   UNL     1       1.668  12.482  -5.442  1.00  0.00     0.049 A 
ATOM     66  C   UNL     1      -2.628   9.237  -3.311  1.00  0.00     0.074 A 
ATOM     67  C   UNL     1       2.510  12.960  -4.458  1.00  0.00     0.029 A 
ATOM     68  N   UNL     1       0.391  12.631  -4.953  1.00  0.00    -0.354 N 
ATOM     69  N   UNL     1      -2.275  10.194  -2.500  1.00  0.00    -0.248 NA
ATOM     70  C   UNL     1      -2.655   9.594  -4.719  1.00  0.00     0.031 C 
ATOM     71  C   UNL     1       1.738  12.908  -3.260  1.00  0.00     0.029 A 
ATOM     72  C   UNL     1       0.450  12.480  -3.592  1.00  0.00     0.049 A 
ATOM     73  H   UNL     1      -0.418  12.813  -5.484  1.00  0.00     0.167 HD
ATOM     74  C   UNL     1      -1.607  11.107  -3.302  1.00  0.00     0.074 A 
ATOM     75  C   UNL     1      -1.972  10.742  -4.670  1.00  0.00     0.031 C 
ATOM     76  C   UNL     1      -0.604  11.887  -2.796  1.00  0.00     0.031 A 
BRANCH  63  77
ATOM     77  C   UNL     1       1.132  11.944  -7.901  1.00  0.00    -0.014 A 
ATOM     78  C   UNL     1       0.744  13.276  -8.162  1.00  0.00     0.010 A 
ATOM     79  C   UNL     1       0.601  10.949  -8.746  1.00  0.00     0.010 A 
ATOM     80  C   UNL     1      -0.187  13.582  -9.164  1.00  0.00     0.020 A 
ATOM     81  C   UNL     1      -0.292  11.249  -9.778  1.00  0.00     0.020 A 
ATOM     82  C   UNL     1      -0.709  12.561  -9.956  1.00  0.00     0.054 A 
BRANCH  82  83
ATOM     83  S   UNL     1      -1.989  12.950 -11.175  1.00  0.00     0.124 S 
ATOM     84  O   UNL     1      -3.104  13.349 -10.322  1.00  0.00    -0.237 OA
ATOM     85  O   UNL     1      -1.364  14.021 -11.947  1.00  0.00    -0.237 OA
ATOM     86  O   UNL     1      -2.167  11.691 -11.896  1.00  0.00    -0.744 OA
ENDBRANCH  82  83
ENDBRANCH  63  77
BRANCH  64  87
ATOM     87  C   UNL     1      -3.717   6.880  -3.103  1.00  0.00    -0.014 A 
ATOM     88  C   UNL     1      -5.038   7.367  -3.068  1.00  0.00     0.010 A 
ATOM     89  C   UNL     1      -3.514   5.573  -3.591  1.00  0.00     0.010 A 
ATOM     90  C   UNL     1      -6.102   6.609  -3.586  1.00  0.00     0.020 A 
ATOM     91  C   UNL     1      -4.571   4.809  -4.100  1.00  0.00     0.020 A 
ATOM     92  C   UNL     1      -5.856   5.344  -4.125  1.00  0.00     0.054 A 
BRANCH  92  93
ATOM     93  S   UNL     1      -7.190   4.465  -4.994  1.00  0.00     0.124 S 
ATOM     94  O   UNL     1      -8.055   4.048  -3.895  1.00  0.00    -0.237 OA
ATOM     95  O   UNL     1      -7.733   5.499  -5.870  1.00  0.00    -0.237 OA
ATOM     96  O   UNL     1      -6.492   3.380  -5.683  1.00  0.00    -0.744 OA
ENDBRANCH  92  93
ENDBRANCH  64  87
BRANCH  76  97
ATOM     97  C   UNL     1      -0.442  11.962  -1.294  1.00  0.00    -0.014 A 
ATOM     98  C   UNL     1      -0.195  10.847  -0.467  1.00  0.00     0.010 A 
ATOM     99  C   UNL     1      -0.418  13.241  -0.711  1.00  0.00     0.010 A 
ATOM    100  C   UNL     1       0.021  11.007   0.911  1.00  0.00     0.020 A 
ATOM    101  C   UNL     1      -0.183  13.409   0.655  1.00  0.00     0.020 A 
ATOM    102  C   UNL     1       0.018  12.291   1.464  1.00  0.00     0.054 A 
BRANCH 102 103
ATOM    103  S   UNL     1       0.303  12.499   3.244  1.00  0.00     0.124 S 
ATOM    104  O   UNL     1      -0.903  11.918   3.828  1.00  0.00    -0.237 OA
ATOM    105  O   UNL     1       1.536  11.747   3.467  1.00  0.00    -0.237 OA
ATOM    106  O   UNL     1       0.432  13.947   3.409  1.00  0.00    -0.744 OA
ENDBRANCH 102 103
ENDBRANCH  76  97
ENDBRANCH  50  51
ENDBRANCH  42  45
ENDBRANCH  40  41
ENDBRANCH   1  40
TORSDOF 20
