REMARK SMILES Cc1ccccc1OC1(C(=O)NCCCCNC(=O)c2ccc(-c3c4nc(c(-c5ccc(S(=O)(=O)[O-])cc5)c5ccc([nH]5)c(-c5ccc(S(=O)(=O)[O-])cc5)c5nc(c(-c6ccc(S(=O)(=O)[O-])cc6)c6ccc3[nH]6)C=C5)C=C4)cc2)CCN(c2ncc(C#N)c(N)n2)CC1
REMARK SMILES IDX 15 1 14 2 13 3 12 4 10 5 11 6 9 8 80 9 93 10 81 11 92 12
REMARK SMILES IDX 82 13 8 14 7 15 1 16 2 17 3 18 4 19 6 20 5 21 83 22 84 23
REMARK SMILES IDX 91 24 85 25 89 26 86 27 90 28 87 31 88 32 16 33 17 34 18 35
REMARK SMILES IDX 19 37 20 38 21 39 79 40 22 41 78 42 23 43 24 44 25 45 72 46
REMARK SMILES IDX 26 47 77 48 71 49 73 50 27 51 76 52 70 53 69 54 28 56 58 57
REMARK SMILES IDX 39 58 57 59 40 60 43 61 56 62 74 63 41 64 42 65 55 67 75 68
REMARK SMILES IDX 44 69 29 70 30 71 38 72 31 73 37 74 32 75 33 76 34 77 35 78
REMARK SMILES IDX 36 79 59 80 60 81 68 82 61 83 67 84 62 85 63 86 64 87 65 88
REMARK SMILES IDX 66 89 45 90 46 91 54 92 47 93 53 94 48 95 49 96 50 97 51 98
REMARK SMILES IDX 52 99
REMARK H PARENT 12 7 90 29 90 30 17 36 73 55 43 66
REMARK Flexibility Score: inf
ROOT
ATOM      1  C   UNL     1       6.707   4.321  -1.883  1.00  0.00     0.023 C 
ENDROOT
BRANCH   1   2
ATOM      2  C   UNL     1       6.042   3.043  -1.401  1.00  0.00     0.023 C 
BRANCH   2   3
ATOM      3  C   UNL     1       5.281   3.169  -0.075  1.00  0.00     0.116 C 
BRANCH   3   4
ATOM      4  N   UNL     1       4.027   3.921  -0.150  1.00  0.00    -0.353 N 
ATOM      5  C   UNL     1       2.707   3.520  -0.050  1.00  0.00     0.264 C 
ATOM      6  O   UNL     1       1.862   4.421  -0.042  1.00  0.00    -0.270 OA
ATOM      7  H   UNL     1       4.145   4.887  -0.299  1.00  0.00     0.163 HD
BRANCH   5   8
ATOM      8  C   UNL     1       2.306   1.982   0.031  1.00  0.00     0.190 C 
ATOM      9  C   UNL     1       2.809   1.411  -1.293  1.00  0.00     0.080 C 
ATOM     10  C   UNL     1       2.857   1.524   1.383  1.00  0.00     0.080 C 
ATOM     11  C   UNL     1       3.852   0.316  -1.223  1.00  0.00     0.124 C 
ATOM     12  C   UNL     1       3.703   0.272   1.375  1.00  0.00     0.124 C 
ATOM     13  N   UNL     1       4.348  -0.011   0.105  1.00  0.00    -0.340 N 
BRANCH   8  14
ATOM     14  O   UNL     1       0.850   1.929   0.061  1.00  0.00    -0.477 OA
BRANCH  14  15
ATOM     15  C   UNL     1      -0.049   0.895   0.033  1.00  0.00     0.123 A 
ATOM     16  C   UNL     1       1.296  -1.336  -0.011  1.00  0.00     0.048 C 
ATOM     17  C   UNL     1       0.067  -0.506   0.002  1.00  0.00    -0.009 A 
ATOM     18  C   UNL     1      -1.092  -1.326  -0.020  1.00  0.00     0.007 A 
ATOM     19  C   UNL     1      -2.366  -0.792  -0.023  1.00  0.00     0.001 A 
ATOM     20  C   UNL     1      -1.365   1.404   0.029  1.00  0.00     0.047 A 
ATOM     21  C   UNL     1      -2.503   0.583  -0.001  1.00  0.00     0.004 A 
ENDBRANCH  14  15
ENDBRANCH   8  14
BRANCH  13  22
ATOM     22  C   UNL     1       5.079  -1.192   0.078  1.00  0.00     0.227 A 
ATOM     23  N   UNL     1       6.175  -1.222  -0.682  1.00  0.00    -0.220 NA
ATOM     24  N   UNL     1       4.599  -2.267   0.729  1.00  0.00    -0.195 NA
ATOM     25  C   UNL     1       6.874  -2.369  -0.708  1.00  0.00     0.138 A 
ATOM     26  C   UNL     1       5.282  -3.417   0.641  1.00  0.00     0.147 A 
ATOM     27  C   UNL     1       6.468  -3.509  -0.060  1.00  0.00     0.113 A 
BRANCH  26  28
ATOM     28  N   UNL     1       4.653  -4.509   1.217  1.00  0.00    -0.382 N 
ATOM     29  H   UNL     1       5.086  -5.393   1.197  1.00  0.00     0.158 HD
ATOM     30  H   UNL     1       3.774  -4.401   1.646  1.00  0.00     0.158 HD
ENDBRANCH  26  28
BRANCH  27  31
ATOM     31  C   UNL     1       7.240  -4.705  -0.119  1.00  0.00     0.105 C 
ATOM     32  N   UNL     1       7.852  -5.685  -0.137  1.00  0.00    -0.192 NA
ENDBRANCH  27  31
ENDBRANCH  13  22
ENDBRANCH   5   8
ENDBRANCH   3   4
ENDBRANCH   2   3
ENDBRANCH   1   2
BRANCH   1  33
ATOM     33  C   UNL     1       7.819   4.808  -0.977  1.00  0.00     0.116 C 
BRANCH  33  34
ATOM     34  N   UNL     1       9.149   4.350  -1.341  1.00  0.00    -0.352 N 
ATOM     35  C   UNL     1      10.307   5.095  -1.133  1.00  0.00     0.251 C 
ATOM     36  H   UNL     1       9.237   3.463  -1.758  1.00  0.00     0.163 HD
ATOM     37  O   UNL     1      11.163   5.280  -1.986  1.00  0.00    -0.269 OA
BRANCH  35  38
ATOM     38  C   UNL     1      10.511   5.574   0.252  1.00  0.00     0.039 A 
ATOM     39  C   UNL     1      11.533   4.989   1.013  1.00  0.00     0.014 A 
ATOM     40  C   UNL     1       9.461   6.249   0.855  1.00  0.00     0.014 A 
ATOM     41  C   UNL     1      11.357   4.860   2.380  1.00  0.00     0.010 A 
ATOM     42  C   UNL     1       9.170   5.918   2.140  1.00  0.00     0.010 A 
ATOM     43  C   UNL     1      10.115   5.207   2.884  1.00  0.00    -0.014 A 
BRANCH  43  44
ATOM     44  C   UNL     1       9.692   5.060   4.252  1.00  0.00     0.031 A 
ATOM     45  C   UNL     1       9.880   6.283   5.055  1.00  0.00     0.074 A 
ATOM     46  C   UNL     1       8.900   3.989   4.481  1.00  0.00     0.049 A 
ATOM     47  N   UNL     1       9.809   6.346   6.328  1.00  0.00    -0.248 NA
ATOM     48  C   UNL     1      10.223   7.588   4.458  1.00  0.00     0.031 C 
ATOM     49  C   UNL     1       7.939   3.713   5.538  1.00  0.00     0.029 A 
ATOM     50  N   UNL     1       8.996   2.768   3.808  1.00  0.00    -0.354 N 
ATOM     51  C   UNL     1       9.630   7.681   6.640  1.00  0.00     0.074 A 
ATOM     52  C   UNL     1      10.075   8.418   5.493  1.00  0.00     0.031 C 
ATOM     53  C   UNL     1       7.791   2.376   5.653  1.00  0.00     0.029 A 
ATOM     54  C   UNL     1       8.746   1.752   4.742  1.00  0.00     0.049 A 
ATOM     55  H   UNL     1       9.203   2.644   2.853  1.00  0.00     0.167 HD
ATOM     56  C   UNL     1       8.899   7.973   7.748  1.00  0.00     0.031 A 
ATOM     57  C   UNL     1       9.812   0.991   5.143  1.00  0.00     0.031 A 
ATOM     58  C   UNL     1       8.558   6.724   8.432  1.00  0.00     0.049 A 
ATOM     59  C   UNL     1      10.241   1.377   6.548  1.00  0.00     0.074 A 
ATOM     60  C   UNL     1       7.413   5.945   8.425  1.00  0.00     0.029 A 
ATOM     61  N   UNL     1       9.596   5.901   8.851  1.00  0.00    -0.354 N 
ATOM     62  N   UNL     1      10.069   2.564   7.074  1.00  0.00    -0.248 NA
ATOM     63  C   UNL     1      10.764   0.411   7.508  1.00  0.00     0.031 C 
ATOM     64  C   UNL     1       7.806   4.608   8.727  1.00  0.00     0.029 A 
ATOM     65  C   UNL     1       9.180   4.583   8.913  1.00  0.00     0.049 A 
ATOM     66  H   UNL     1      10.502   6.213   9.074  1.00  0.00     0.167 HD
ATOM     67  C   UNL     1      10.344   2.514   8.416  1.00  0.00     0.074 A 
ATOM     68  C   UNL     1      10.800   1.149   8.631  1.00  0.00     0.031 C 
ATOM     69  C   UNL     1      10.137   3.549   9.286  1.00  0.00     0.031 A 
BRANCH  56  70
ATOM     70  C   UNL     1       8.242   9.296   8.063  1.00  0.00    -0.014 A 
ATOM     71  C   UNL     1       7.267   9.316   9.082  1.00  0.00     0.010 A 
ATOM     72  C   UNL     1       8.476  10.520   7.405  1.00  0.00     0.010 A 
ATOM     73  C   UNL     1       6.547  10.470   9.410  1.00  0.00     0.020 A 
ATOM     74  C   UNL     1       7.760  11.690   7.724  1.00  0.00     0.020 A 
ATOM     75  C   UNL     1       6.795  11.654   8.726  1.00  0.00     0.054 A 
BRANCH  75  76
ATOM     76  S   UNL     1       5.856  13.131   9.189  1.00  0.00     0.124 S 
ATOM     77  O   UNL     1       4.481  12.729   8.902  1.00  0.00    -0.237 OA
ATOM     78  O   UNL     1       6.185  13.281  10.604  1.00  0.00    -0.237 OA
ATOM     79  O   UNL     1       6.390  14.173   8.314  1.00  0.00    -0.744 OA
ENDBRANCH  75  76
ENDBRANCH  56  70
BRANCH  57  80
ATOM     80  C   UNL     1      10.693   0.623   3.977  1.00  0.00    -0.014 A 
ATOM     81  C   UNL     1      10.112  -0.222   2.996  1.00  0.00     0.010 A 
ATOM     82  C   UNL     1      11.775   1.434   3.590  1.00  0.00     0.010 A 
ATOM     83  C   UNL     1      10.448  -0.097   1.643  1.00  0.00     0.020 A 
ATOM     84  C   UNL     1      12.134   1.538   2.231  1.00  0.00     0.020 A 
ATOM     85  C   UNL     1      11.415   0.830   1.262  1.00  0.00     0.054 A 
BRANCH  85  86
ATOM     86  S   UNL     1      11.569   1.225  -0.510  1.00  0.00     0.124 S 
ATOM     87  O   UNL     1      12.007  -0.050  -1.071  1.00  0.00    -0.237 OA
ATOM     88  O   UNL     1      10.205   1.634  -0.857  1.00  0.00    -0.237 OA
ATOM     89  O   UNL     1      12.561   2.293  -0.534  1.00  0.00    -0.744 OA
ENDBRANCH  85  86
ENDBRANCH  57  80
BRANCH  69  90
ATOM     90  C   UNL     1      10.784   3.667  10.647  1.00  0.00    -0.014 A 
ATOM     91  C   UNL     1      11.886   2.903  11.053  1.00  0.00     0.010 A 
ATOM     92  C   UNL     1      10.370   4.705  11.521  1.00  0.00     0.010 A 
ATOM     93  C   UNL     1      12.477   3.095  12.304  1.00  0.00     0.020 A 
ATOM     94  C   UNL     1      11.009   4.964  12.731  1.00  0.00     0.020 A 
ATOM     95  C   UNL     1      12.032   4.122  13.135  1.00  0.00     0.054 A 
BRANCH  95  96
ATOM     96  S   UNL     1      12.819   4.353  14.740  1.00  0.00     0.124 S 
ATOM     97  O   UNL     1      12.221   3.271  15.518  1.00  0.00    -0.237 OA
ATOM     98  O   UNL     1      14.237   4.194  14.427  1.00  0.00    -0.237 OA
ATOM     99  O   UNL     1      12.420   5.702  15.132  1.00  0.00    -0.744 OA
ENDBRANCH  95  96
ENDBRANCH  69  90
ENDBRANCH  43  44
ENDBRANCH  35  38
ENDBRANCH  33  34
ENDBRANCH   1  33
TORSDOF 19
