REMARK SMILES CC1(C)O[C@@H]2C[C@@H]3[C@H]4CCC5=CC(=O)C=C[C@@]5(C)[C@]4(F)[C@H](O)C[C@]3(C)[C@]2(C(=O)NCCCCNC(=O)c2ccc(-c3c4nc(c(-c5ccc(S(=O)(=O)[O-])cc5)c5ccc([nH]5)c(-c5ccc(S(=O)(=O)[O-])cc5)c5nc(c(-c6ccc(S(=O)(=O)[O-])cc6)c6ccc3[nH]6)C=C5)C=C4)cc2)O1
REMARK SMILES IDX 32 1 31 2 30 3 29 4 27 5 28 6 26 8 1 9 2 10 4 11 97 12 3 13
REMARK SMILES IDX 5 14 6 15 24 16 7 17 23 18 25 19 8 20 21 21 9 22 19 23 10 24
REMARK SMILES IDX 17 25 20 26 11 27 16 28 18 29 12 30 15 31 13 32 14 33 22 34
REMARK SMILES IDX 33 36 34 37 35 38 36 40 37 41 38 42 96 43 39 44 95 45 40 46
REMARK SMILES IDX 41 47 42 48 89 49 43 50 94 51 88 52 90 53 44 54 93 55 87 56
REMARK SMILES IDX 86 57 45 59 75 60 56 61 74 62 57 63 60 64 73 65 91 66 58 67
REMARK SMILES IDX 59 68 72 70 92 71 61 72 46 73 47 74 55 75 48 76 54 77 49 78
REMARK SMILES IDX 50 79 51 80 52 81 53 82 76 83 77 84 85 85 78 86 84 87 79 88
REMARK SMILES IDX 80 89 81 90 82 91 83 92 62 93 63 94 71 95 64 96 70 97 65 98
REMARK SMILES IDX 66 99 67 100 68 101 69 102
REMARK H PARENT 29 7 22 35 34 39 90 58 60 69
REMARK Flexibility Score: inf
ROOT
ATOM      1  C   UNL     1      -1.818  -3.713  -0.758  1.00  0.00     0.023 C 
ENDROOT
BRANCH   1   2
ATOM      2  C   UNL     1      -1.268  -2.347  -0.351  1.00  0.00     0.023 C 
BRANCH   2   3
ATOM      3  C   UNL     1      -2.106  -1.165  -0.823  1.00  0.00     0.116 C 
BRANCH   3   4
ATOM      4  N   UNL     1      -3.108  -0.685   0.102  1.00  0.00    -0.353 N 
ATOM      5  C   UNL     1      -3.121   0.603   0.595  1.00  0.00     0.255 C 
ATOM      6  O   UNL     1      -4.186   1.220   0.537  1.00  0.00    -0.272 OA
ATOM      7  H   UNL     1      -3.813  -1.307   0.393  1.00  0.00     0.163 HD
BRANCH   5   8
ATOM      8  C   UNL     1      -1.868   1.165   1.336  1.00  0.00     0.181 C 
ATOM      9  C   UNL     1       0.543   0.838  -1.104  1.00  0.00     0.075 C 
ATOM     10  C   UNL     1       0.292   1.249   0.347  1.00  0.00     0.164 C 
ATOM     11  O   UNL     1      -0.193   2.588   0.295  1.00  0.00    -0.344 OA
ATOM     12  O   UNL     1      -0.652   0.404   1.061  1.00  0.00    -0.331 OA
ATOM     13  C   UNL     1       1.676   1.152   1.023  1.00  0.00     0.075 C 
ATOM     14  C   UNL     1      -1.445   2.649   1.004  1.00  0.00     0.164 C 
ATOM     15  C   UNL     1      -1.105   3.377   2.383  1.00  0.00     0.040 C 
ATOM     16  C   UNL     1      -2.196   1.309   2.929  1.00  0.00     0.014 C 
ATOM     17  C   UNL     1      -0.958   2.154   3.304  1.00  0.00     0.008 C 
ATOM     18  C   UNL     1      -2.384   0.099   3.860  1.00  0.00     0.046 C 
ATOM     19  C   UNL     1      -3.531   2.118   3.138  1.00  0.00     0.015 C 
ATOM     20  C   UNL     1       0.150   1.631   4.250  1.00  0.00     0.035 C 
ATOM     21  C   UNL     1      -1.131  -0.571   4.390  1.00  0.00     0.154 C 
ATOM     22  C   UNL     1       1.015   2.685   4.922  1.00  0.00     0.012 C 
ATOM     23  C   UNL     1      -0.162   0.413   5.130  1.00  0.00     0.152 C 
ATOM     24  C   UNL     1       2.396   2.064   5.162  1.00  0.00     0.032 C 
ATOM     25  C   UNL     1       1.213  -0.269   5.604  1.00  0.00     0.044 C 
ATOM     26  F   UNL     1      -0.820   0.895   6.234  1.00  0.00    -0.239 F 
ATOM     27  C   UNL     1       2.337   0.757   5.918  1.00  0.00    -0.053 C 
ATOM     28  C   UNL     1       0.999  -1.167   6.822  1.00  0.00    -0.009 C 
ATOM     29  C   UNL     1       1.813  -1.214   4.518  1.00  0.00     0.024 C 
ATOM     30  C   UNL     1       3.336   0.447   6.767  1.00  0.00     0.052 C 
ATOM     31  C   UNL     1       1.984  -1.461   7.685  1.00  0.00     0.048 C 
ATOM     32  C   UNL     1       3.308  -0.817   7.537  1.00  0.00     0.178 C 
ATOM     33  O   UNL     1       4.314  -1.267   8.066  1.00  0.00    -0.290 OA
BRANCH  21  34
ATOM     34  O   UNL     1      -0.568  -1.287   3.297  1.00  0.00    -0.390 OA
ATOM     35  H   UNL     1      -0.358  -0.669   2.580  1.00  0.00     0.211 HD
ENDBRANCH  21  34
ENDBRANCH   5   8
ENDBRANCH   3   4
ENDBRANCH   2   3
ENDBRANCH   1   2
BRANCH   1  36
ATOM     36  C   UNL     1      -2.143  -3.878  -2.242  1.00  0.00     0.116 C 
BRANCH  36  37
ATOM     37  N   UNL     1      -1.047  -3.539  -3.141  1.00  0.00    -0.352 N 
ATOM     38  C   UNL     1      -0.822  -4.023  -4.410  1.00  0.00     0.251 C 
ATOM     39  H   UNL     1      -0.391  -2.889  -2.800  1.00  0.00     0.163 HD
ATOM     40  O   UNL     1       0.195  -3.711  -5.025  1.00  0.00    -0.269 OA
BRANCH  38  41
ATOM     41  C   UNL     1      -1.797  -4.963  -4.998  1.00  0.00     0.039 A 
ATOM     42  C   UNL     1      -1.345  -6.192  -5.482  1.00  0.00     0.014 A 
ATOM     43  C   UNL     1      -3.162  -4.661  -4.997  1.00  0.00     0.014 A 
ATOM     44  C   UNL     1      -2.272  -7.152  -5.890  1.00  0.00     0.010 A 
ATOM     45  C   UNL     1      -4.085  -5.646  -5.332  1.00  0.00     0.010 A 
ATOM     46  C   UNL     1      -3.651  -6.904  -5.775  1.00  0.00    -0.014 A 
BRANCH  46  47
ATOM     47  C   UNL     1      -4.646  -7.962  -6.084  1.00  0.00     0.031 A 
ATOM     48  C   UNL     1      -5.627  -7.780  -7.209  1.00  0.00     0.074 A 
ATOM     49  C   UNL     1      -4.706  -9.060  -5.304  1.00  0.00     0.049 A 
ATOM     50  N   UNL     1      -6.573  -8.589  -7.614  1.00  0.00    -0.248 NA
ATOM     51  C   UNL     1      -5.557  -6.516  -7.959  1.00  0.00     0.031 C 
ATOM     52  C   UNL     1      -3.854  -9.321  -4.141  1.00  0.00     0.029 A 
ATOM     53  N   UNL     1      -5.523 -10.161  -5.368  1.00  0.00    -0.354 N 
ATOM     54  C   UNL     1      -7.218  -7.927  -8.652  1.00  0.00     0.074 A 
ATOM     55  C   UNL     1      -6.591  -6.630  -8.780  1.00  0.00     0.031 C 
ATOM     56  C   UNL     1      -4.172 -10.518  -3.622  1.00  0.00     0.029 A 
ATOM     57  C   UNL     1      -5.271 -11.094  -4.389  1.00  0.00     0.049 A 
ATOM     58  H   UNL     1      -6.224 -10.272  -6.051  1.00  0.00     0.167 HD
ATOM     59  C   UNL     1      -8.228  -8.367  -9.440  1.00  0.00     0.031 A 
ATOM     60  C   UNL     1      -5.858 -12.280  -4.136  1.00  0.00     0.031 A 
ATOM     61  C   UNL     1      -8.842  -9.662  -9.314  1.00  0.00     0.049 A 
ATOM     62  C   UNL     1      -6.965 -12.755  -5.035  1.00  0.00     0.074 A 
ATOM     63  C   UNL     1      -9.820 -10.232 -10.111  1.00  0.00     0.029 A 
ATOM     64  N   UNL     1      -8.545 -10.587  -8.324  1.00  0.00    -0.354 N 
ATOM     65  N   UNL     1      -7.497 -12.154  -6.073  1.00  0.00    -0.248 NA
ATOM     66  C   UNL     1      -7.538 -14.075  -4.740  1.00  0.00     0.031 C 
ATOM     67  C   UNL     1     -10.154 -11.477  -9.569  1.00  0.00     0.029 A 
ATOM     68  C   UNL     1      -9.341 -11.710  -8.471  1.00  0.00     0.049 A 
ATOM     69  H   UNL     1      -7.868 -10.463  -7.620  1.00  0.00     0.167 HD
ATOM     70  C   UNL     1      -8.457 -13.030  -6.565  1.00  0.00     0.074 A 
ATOM     71  C   UNL     1      -8.415 -14.211  -5.726  1.00  0.00     0.031 C 
ATOM     72  C   UNL     1      -9.298 -12.872  -7.618  1.00  0.00     0.031 A 
BRANCH  59  73
ATOM     73  C   UNL     1      -8.736  -7.431 -10.505  1.00  0.00    -0.014 A 
ATOM     74  C   UNL     1      -7.948  -7.103 -11.624  1.00  0.00     0.010 A 
ATOM     75  C   UNL     1     -10.033  -6.896 -10.404  1.00  0.00     0.010 A 
ATOM     76  C   UNL     1      -8.428  -6.221 -12.595  1.00  0.00     0.020 A 
ATOM     77  C   UNL     1     -10.529  -6.037 -11.389  1.00  0.00     0.020 A 
ATOM     78  C   UNL     1      -9.715  -5.689 -12.469  1.00  0.00     0.054 A 
BRANCH  78  79
ATOM     79  S   UNL     1     -10.319  -4.559 -13.753  1.00  0.00     0.124 S 
ATOM     80  O   UNL     1      -9.552  -3.348 -13.470  1.00  0.00    -0.237 OA
ATOM     81  O   UNL     1      -9.961  -5.255 -14.986  1.00  0.00    -0.237 OA
ATOM     82  O   UNL     1     -11.752  -4.465 -13.486  1.00  0.00    -0.744 OA
ENDBRANCH  78  79
ENDBRANCH  59  73
BRANCH  60  83
ATOM     83  C   UNL     1      -5.390 -13.105  -2.989  1.00  0.00    -0.014 A 
ATOM     84  C   UNL     1      -4.664 -14.289  -3.207  1.00  0.00     0.010 A 
ATOM     85  C   UNL     1      -5.643 -12.693  -1.668  1.00  0.00     0.010 A 
ATOM     86  C   UNL     1      -4.210 -15.052  -2.126  1.00  0.00     0.020 A 
ATOM     87  C   UNL     1      -5.168 -13.437  -0.585  1.00  0.00     0.020 A 
ATOM     88  C   UNL     1      -4.461 -14.618  -0.821  1.00  0.00     0.054 A 
BRANCH  88  89
ATOM     89  S   UNL     1      -3.805 -15.587   0.565  1.00  0.00     0.124 S 
ATOM     90  O   UNL     1      -4.691 -16.747   0.572  1.00  0.00    -0.237 OA
ATOM     91  O   UNL     1      -2.429 -15.844   0.147  1.00  0.00    -0.237 OA
ATOM     92  O   UNL     1      -3.943 -14.686   1.707  1.00  0.00    -0.744 OA
ENDBRANCH  88  89
ENDBRANCH  60  83
BRANCH  72  93
ATOM     93  C   UNL     1     -10.232 -14.010  -7.931  1.00  0.00    -0.014 A 
ATOM     94  C   UNL     1     -11.326 -14.305  -7.098  1.00  0.00     0.010 A 
ATOM     95  C   UNL     1     -10.037 -14.768  -9.101  1.00  0.00     0.010 A 
ATOM     96  C   UNL     1     -12.185 -15.362  -7.409  1.00  0.00     0.020 A 
ATOM     97  C   UNL     1     -10.911 -15.807  -9.430  1.00  0.00     0.020 A 
ATOM     98  C   UNL     1     -11.971 -16.108  -8.572  1.00  0.00     0.054 A 
BRANCH  98  99
ATOM     99  S   UNL     1     -13.119 -17.454  -8.970  1.00  0.00     0.124 S 
ATOM    100  O   UNL     1     -12.728 -18.480  -8.007  1.00  0.00    -0.237 OA
ATOM    101  O   UNL     1     -14.425 -16.841  -8.740  1.00  0.00    -0.237 OA
ATOM    102  O   UNL     1     -12.820 -17.764 -10.366  1.00  0.00    -0.744 OA
ENDBRANCH  98  99
ENDBRANCH  72  93
ENDBRANCH  46  47
ENDBRANCH  38  41
ENDBRANCH  36  37
ENDBRANCH   1  36
TORSDOF 15
