REMARK SMILES O=C(NCCCCNC(=O)c1c(C2CC2)nn(-c2ccc(Cl)c(F)c2)c1Cl)c1ccc(-c2c3nc(c(-c4ccc(S(=O)(=O)[O-])cc4)c4ccc([nH]4)c(-c4ccc(S(=O)(=O)[O-])cc4)c4nc(c(-c5ccc(S(=O)(=O)[O-])cc5)c5ccc2[nH]5)C=C4)C=C3)cc1
REMARK SMILES IDX 4 1 3 2 1 3 2 4 28 6 29 7 87 8 30 9 86 10 31 11 32 12 33 13
REMARK SMILES IDX 80 14 34 15 85 16 79 17 81 18 35 19 84 20 78 21 77 22 36 24
REMARK SMILES IDX 66 25 47 26 65 27 48 28 51 29 64 30 82 31 49 32 50 33 63 35
REMARK SMILES IDX 83 36 52 37 37 38 38 39 46 40 39 41 45 42 40 43 41 44 42 45
REMARK SMILES IDX 43 46 44 47 67 48 68 49 76 50 69 51 75 52 70 53 71 54 72 55
REMARK SMILES IDX 73 56 74 57 53 58 54 59 62 60 55 61 61 62 56 63 57 64 58 65
REMARK SMILES IDX 59 66 60 67 5 68 6 69 7 70 8 71 9 72 10 74 11 75 12 76 26 77
REMARK SMILES IDX 16 78 17 79 27 80 13 81 14 82 15 83 18 84 19 85 25 86 20 87
REMARK SMILES IDX 23 88 21 89 24 90 22 91
REMARK H PARENT 3 5 81 23 51 34 8 73
REMARK Flexibility Score: inf
ROOT
ATOM      1  C   UNL     1       4.820   0.965  -0.456  1.00  0.00     0.116 C 
ENDROOT
BRANCH   1   2
ATOM      2  N   UNL     1       3.426   1.095  -0.083  1.00  0.00    -0.352 N 
ATOM      3  O   UNL     1       1.319   0.714   0.432  1.00  0.00    -0.269 OA
ATOM      4  C   UNL     1       2.338   0.263  -0.098  1.00  0.00     0.251 C 
ATOM      5  H   UNL     1       3.211   1.992   0.262  1.00  0.00     0.163 HD
BRANCH   4   6
ATOM      6  C   UNL     1       2.286  -1.095  -0.717  1.00  0.00     0.039 A 
ATOM      7  C   UNL     1       3.365  -1.779  -1.274  1.00  0.00     0.014 A 
ATOM      8  C   UNL     1       1.023  -1.719  -0.748  1.00  0.00     0.014 A 
ATOM      9  C   UNL     1       3.183  -3.015  -1.899  1.00  0.00     0.010 A 
ATOM     10  C   UNL     1       0.840  -2.965  -1.350  1.00  0.00     0.010 A 
ATOM     11  C   UNL     1       1.919  -3.606  -1.954  1.00  0.00    -0.014 A 
BRANCH  11  12
ATOM     12  C   UNL     1       1.806  -4.915  -2.603  1.00  0.00     0.031 A 
ATOM     13  C   UNL     1       2.516  -6.062  -1.960  1.00  0.00     0.074 A 
ATOM     14  C   UNL     1       0.992  -5.181  -3.644  1.00  0.00     0.049 A 
ATOM     15  N   UNL     1       3.416  -6.845  -2.465  1.00  0.00    -0.248 NA
ATOM     16  C   UNL     1       2.176  -6.362  -0.562  1.00  0.00     0.031 C 
ATOM     17  C   UNL     1      -0.056  -4.325  -4.202  1.00  0.00     0.029 A 
ATOM     18  N   UNL     1       0.860  -6.346  -4.348  1.00  0.00    -0.354 N 
ATOM     19  C   UNL     1       3.650  -7.836  -1.511  1.00  0.00     0.074 A 
ATOM     20  C   UNL     1       2.923  -7.442  -0.329  1.00  0.00     0.031 C 
ATOM     21  C   UNL     1      -0.859  -5.074  -4.990  1.00  0.00     0.029 A 
ATOM     22  C   UNL     1      -0.301  -6.412  -5.099  1.00  0.00     0.049 A 
ATOM     23  H   UNL     1       1.528  -7.069  -4.322  1.00  0.00     0.167 HD
ATOM     24  C   UNL     1       4.301  -9.002  -1.784  1.00  0.00     0.031 A 
ATOM     25  C   UNL     1      -0.816  -7.506  -5.710  1.00  0.00     0.031 A 
ATOM     26  C   UNL     1       5.007  -8.973  -3.033  1.00  0.00     0.049 A 
ATOM     27  C   UNL     1       0.262  -8.508  -5.877  1.00  0.00     0.074 A 
ATOM     28  C   UNL     1       6.053  -8.244  -3.558  1.00  0.00     0.029 A 
ATOM     29  N   UNL     1       4.455  -9.659  -4.086  1.00  0.00    -0.354 N 
ATOM     30  N   UNL     1       1.285  -8.361  -6.670  1.00  0.00    -0.248 NA
ATOM     31  C   UNL     1       0.370  -9.599  -4.920  1.00  0.00     0.031 C 
ATOM     32  C   UNL     1       5.810  -8.192  -4.961  1.00  0.00     0.029 A 
ATOM     33  C   UNL     1       4.623  -8.886  -5.206  1.00  0.00     0.049 A 
ATOM     34  H   UNL     1       4.020 -10.541  -4.045  1.00  0.00     0.167 HD
ATOM     35  C   UNL     1       2.310  -9.077  -6.074  1.00  0.00     0.074 A 
ATOM     36  C   UNL     1       1.653  -9.926  -5.089  1.00  0.00     0.031 C 
ATOM     37  C   UNL     1       3.616  -8.715  -6.235  1.00  0.00     0.031 A 
BRANCH  24  38
ATOM     38  C   UNL     1       4.058 -10.302  -1.056  1.00  0.00    -0.014 A 
ATOM     39  C   UNL     1       4.931 -11.390  -1.275  1.00  0.00     0.010 A 
ATOM     40  C   UNL     1       2.848 -10.575  -0.386  1.00  0.00     0.010 A 
ATOM     41  C   UNL     1       4.582 -12.694  -0.895  1.00  0.00     0.020 A 
ATOM     42  C   UNL     1       2.511 -11.865   0.036  1.00  0.00     0.020 A 
ATOM     43  C   UNL     1       3.363 -12.923  -0.259  1.00  0.00     0.054 A 
BRANCH  43  44
ATOM     44  S   UNL     1       2.860 -14.625   0.109  1.00  0.00     0.124 S 
ATOM     45  O   UNL     1       2.568 -15.143  -1.224  1.00  0.00    -0.237 OA
ATOM     46  O   UNL     1       4.050 -15.173   0.754  1.00  0.00    -0.237 OA
ATOM     47  O   UNL     1       1.704 -14.457   0.986  1.00  0.00    -0.744 OA
ENDBRANCH  43  44
ENDBRANCH  24  38
BRANCH  25  48
ATOM     48  C   UNL     1      -2.248  -7.828  -5.910  1.00  0.00    -0.014 A 
ATOM     49  C   UNL     1      -2.652  -8.817  -6.824  1.00  0.00     0.010 A 
ATOM     50  C   UNL     1      -3.213  -7.332  -5.009  1.00  0.00     0.010 A 
ATOM     51  C   UNL     1      -3.963  -9.322  -6.806  1.00  0.00     0.020 A 
ATOM     52  C   UNL     1      -4.523  -7.819  -4.994  1.00  0.00     0.020 A 
ATOM     53  C   UNL     1      -4.886  -8.828  -5.880  1.00  0.00     0.054 A 
BRANCH  53  54
ATOM     54  S   UNL     1      -6.527  -9.596  -5.754  1.00  0.00     0.124 S 
ATOM     55  O   UNL     1      -7.179  -9.134  -6.975  1.00  0.00    -0.237 OA
ATOM     56  O   UNL     1      -6.208 -11.021  -5.707  1.00  0.00    -0.237 OA
ATOM     57  O   UNL     1      -7.070  -9.046  -4.514  1.00  0.00    -0.744 OA
ENDBRANCH  53  54
ENDBRANCH  25  48
BRANCH  37  58
ATOM     58  C   UNL     1       3.976  -7.786  -7.370  1.00  0.00    -0.014 A 
ATOM     59  C   UNL     1       3.477  -6.473  -7.466  1.00  0.00     0.010 A 
ATOM     60  C   UNL     1       4.986  -8.188  -8.263  1.00  0.00     0.010 A 
ATOM     61  C   UNL     1       3.970  -5.589  -8.434  1.00  0.00     0.020 A 
ATOM     62  C   UNL     1       5.495  -7.304  -9.219  1.00  0.00     0.020 A 
ATOM     63  C   UNL     1       4.984  -6.008  -9.300  1.00  0.00     0.054 A 
BRANCH  63  64
ATOM     64  S   UNL     1       5.694  -4.817 -10.472  1.00  0.00     0.124 S 
ATOM     65  O   UNL     1       4.639  -4.691 -11.474  1.00  0.00    -0.237 OA
ATOM     66  O   UNL     1       5.916  -3.635  -9.641  1.00  0.00    -0.237 OA
ATOM     67  O   UNL     1       6.916  -5.473 -10.936  1.00  0.00    -0.744 OA
ENDBRANCH  63  64
ENDBRANCH  37  58
ENDBRANCH  11  12
ENDBRANCH   4   6
ENDBRANCH   1   2
BRANCH   1  68
ATOM     68  C   UNL     1       5.104   1.159  -1.948  1.00  0.00     0.023 C 
BRANCH  68  69
ATOM     69  C   UNL     1       4.607   2.471  -2.561  1.00  0.00     0.023 C 
BRANCH  69  70
ATOM     70  C   UNL     1       5.064   3.749  -1.868  1.00  0.00     0.116 C 
BRANCH  70  71
ATOM     71  N   UNL     1       6.509   3.929  -1.873  1.00  0.00    -0.352 N 
ATOM     72  C   UNL     1       7.234   5.095  -1.975  1.00  0.00     0.256 C 
ATOM     73  H   UNL     1       7.040   3.104  -1.792  1.00  0.00     0.163 HD
ATOM     74  O   UNL     1       8.454   5.054  -1.858  1.00  0.00    -0.269 OA
BRANCH  72  75
ATOM     75  C   UNL     1       6.515   6.329  -2.184  1.00  0.00     0.100 A 
ATOM     76  C   UNL     1       6.485   7.229  -3.277  1.00  0.00     0.080 A 
ATOM     77  C   UNL     1       5.687   6.930  -1.258  1.00  0.00     0.145 A 
ATOM     78  N   UNL     1       5.551   8.178  -3.124  1.00  0.00    -0.170 NA
ATOM     79  N   UNL     1       5.054   7.982  -1.879  1.00  0.00    -0.221 N 
ATOM     80  Cl  UNL     1       5.292   6.419   0.328  1.00  0.00    -0.061 Cl
BRANCH  76  81
ATOM     81  C   UNL     1       7.298   7.244  -4.569  1.00  0.00     0.041 C 
ATOM     82  C   UNL     1       8.687   6.654  -4.653  1.00  0.00     0.011 C 
ATOM     83  C   UNL     1       7.552   5.967  -5.335  1.00  0.00     0.011 C 
ENDBRANCH  76  81
BRANCH  79  84
ATOM     84  C   UNL     1       3.952   8.762  -1.443  1.00  0.00     0.069 A 
ATOM     85  C   UNL     1       2.920   9.034  -2.357  1.00  0.00     0.030 A 
ATOM     86  C   UNL     1       3.858   9.222  -0.127  1.00  0.00     0.069 A 
ATOM     87  C   UNL     1       1.763   9.693  -1.930  1.00  0.00     0.026 A 
ATOM     88  C   UNL     1       2.715   9.907   0.277  1.00  0.00     0.143 A 
ATOM     89  C   UNL     1       1.660  10.126  -0.608  1.00  0.00     0.076 A 
ATOM     90  F   UNL     1       2.650  10.351   1.541  1.00  0.00    -0.205 F 
ATOM     91  Cl  UNL     1       0.228  10.925  -0.085  1.00  0.00    -0.081 Cl
ENDBRANCH  79  84
ENDBRANCH  72  75
ENDBRANCH  70  71
ENDBRANCH  69  70
ENDBRANCH  68  69
ENDBRANCH   1  68
TORSDOF 16
