REMARK SMILES CC[NH+](CC)C[C@H](F)C(=O)NCCCCNC(=O)c1ccc(-c2c3nc(c(-c4ccc(S(=O)(=O)[O-])cc4)c4ccc([nH]4)c(-c4ccc(S(=O)(=O)[O-])cc4)c4nc(c(-c5ccc(S(=O)(=O)[O-])cc5)c5ccc2[nH]5)C=C4)C=C3)cc1
REMARK SMILES IDX 13 1 12 2 11 3 9 4 10 5 7 7 8 8 6 9 3 10 2 12 1 13 4 14 5 15
REMARK SMILES IDX 14 16 15 17 16 18 17 19 18 21 19 22 20 23 78 24 21 25 77 26
REMARK SMILES IDX 22 27 23 28 24 29 71 30 25 31 76 32 70 33 72 34 26 35 75 36
REMARK SMILES IDX 69 37 68 38 27 40 57 41 38 42 56 43 39 44 42 45 55 46 73 47
REMARK SMILES IDX 40 48 41 49 54 51 74 52 43 53 28 54 29 55 37 56 30 57 36 58
REMARK SMILES IDX 31 59 32 60 33 61 34 62 35 63 58 64 59 65 67 66 60 67 66 68
REMARK SMILES IDX 61 69 62 70 63 71 64 72 65 73 44 74 45 75 53 76 46 77 52 78
REMARK SMILES IDX 47 79 48 80 49 81 50 82 51 83
REMARK H PARENT 11 6 3 11 16 20 72 39 42 50
REMARK Flexibility Score: inf
ROOT
ATOM      1  C   UNL     1       4.785  -1.864   0.094  1.00  0.00     0.023 C 
ENDROOT
BRANCH   1   2
ATOM      2  C   UNL     1       4.237  -0.520  -0.374  1.00  0.00     0.116 C 
BRANCH   2   3
ATOM      3  N   UNL     1       4.824  -0.119  -1.637  1.00  0.00    -0.353 N 
ATOM      4  C   UNL     1       4.211   0.377  -2.749  1.00  0.00     0.260 C 
ATOM      5  O   UNL     1       4.903   0.546  -3.759  1.00  0.00    -0.271 OA
ATOM      6  H   UNL     1       5.802  -0.218  -1.700  1.00  0.00     0.163 HD
BRANCH   4   7
ATOM      7  C   UNL     1       2.740   0.763  -2.728  1.00  0.00     0.309 C 
ATOM      8  F   UNL     1       1.958  -0.262  -2.252  1.00  0.00    -0.230 F 
BRANCH   7   9
ATOM      9  C   UNL     1       2.417   2.020  -1.894  1.00  0.00     0.310 C 
BRANCH   9  10
ATOM     10  N   UNL     1       3.018   3.344  -2.144  1.00  0.00    -0.333 N 
ATOM     11  H   UNL     1       2.630   3.873  -1.363  1.00  0.00     0.348 HD
BRANCH  10  12
ATOM     12  C   UNL     1       4.467   3.460  -1.949  1.00  0.00     0.258 C 
ATOM     13  C   UNL     1       4.911   3.270  -0.501  1.00  0.00     0.071 C 
ENDBRANCH  10  12
BRANCH  10  14
ATOM     14  C   UNL     1       2.549   4.024  -3.356  1.00  0.00     0.258 C 
ATOM     15  C   UNL     1       2.928   3.414  -4.699  1.00  0.00     0.071 C 
ENDBRANCH  10  14
ENDBRANCH   9  10
ENDBRANCH   7   9
ENDBRANCH   4   7
ENDBRANCH   2   3
ENDBRANCH   1   2
BRANCH   1  16
ATOM     16  C   UNL     1       6.288  -1.873   0.386  1.00  0.00     0.023 C 
BRANCH  16  17
ATOM     17  C   UNL     1       6.763  -0.806   1.369  1.00  0.00     0.116 C 
BRANCH  17  18
ATOM     18  N   UNL     1       6.125  -0.928   2.670  1.00  0.00    -0.352 N 
ATOM     19  C   UNL     1       6.694  -1.160   3.901  1.00  0.00     0.251 C 
ATOM     20  H   UNL     1       5.146  -0.831   2.670  1.00  0.00     0.163 HD
ATOM     21  O   UNL     1       5.987  -1.426   4.864  1.00  0.00    -0.269 OA
BRANCH  19  22
ATOM     22  C   UNL     1       8.165  -1.109   4.044  1.00  0.00     0.039 A 
ATOM     23  C   UNL     1       8.817  -2.143   4.720  1.00  0.00     0.014 A 
ATOM     24  C   UNL     1       8.897  -0.052   3.497  1.00  0.00     0.014 A 
ATOM     25  C   UNL     1      10.212  -2.151   4.784  1.00  0.00     0.010 A 
ATOM     26  C   UNL     1      10.288  -0.105   3.492  1.00  0.00     0.010 A 
ATOM     27  C   UNL     1      10.961  -1.154   4.136  1.00  0.00    -0.014 A 
BRANCH  27  28
ATOM     28  C   UNL     1      12.446  -1.198   4.114  1.00  0.00     0.031 A 
ATOM     29  C   UNL     1      13.246  -0.097   4.758  1.00  0.00     0.074 A 
ATOM     30  C   UNL     1      13.075  -2.195   3.460  1.00  0.00     0.049 A 
ATOM     31  N   UNL     1      14.544   0.065   4.793  1.00  0.00    -0.248 NA
ATOM     32  C   UNL     1      12.490   0.973   5.428  1.00  0.00     0.031 C 
ATOM     33  C   UNL     1      12.413  -3.298   2.759  1.00  0.00     0.029 A 
ATOM     34  N   UNL     1      14.413  -2.441   3.273  1.00  0.00    -0.354 N 
ATOM     35  C   UNL     1      14.759   1.256   5.476  1.00  0.00     0.074 A 
ATOM     36  C   UNL     1      13.457   1.804   5.787  1.00  0.00     0.031 C 
ATOM     37  C   UNL     1      13.346  -4.114   2.242  1.00  0.00     0.029 A 
ATOM     38  C   UNL     1      14.669  -3.572   2.534  1.00  0.00     0.049 A 
ATOM     39  H   UNL     1      15.122  -1.861   3.633  1.00  0.00     0.167 HD
ATOM     40  C   UNL     1      15.932   1.833   5.833  1.00  0.00     0.031 A 
ATOM     41  C   UNL     1      15.836  -4.110   2.127  1.00  0.00     0.031 A 
ATOM     42  C   UNL     1      17.226   1.284   5.523  1.00  0.00     0.049 A 
ATOM     43  C   UNL     1      17.127  -3.442   2.518  1.00  0.00     0.074 A 
ATOM     44  C   UNL     1      18.472   1.768   5.880  1.00  0.00     0.029 A 
ATOM     45  N   UNL     1      17.442   0.133   4.779  1.00  0.00    -0.354 N 
ATOM     46  N   UNL     1      17.308  -2.349   3.221  1.00  0.00    -0.248 NA
ATOM     47  C   UNL     1      18.369  -4.085   2.070  1.00  0.00     0.031 C 
ATOM     48  C   UNL     1      19.443   0.942   5.303  1.00  0.00     0.029 A 
ATOM     49  C   UNL     1      18.801  -0.095   4.645  1.00  0.00     0.049 A 
ATOM     50  H   UNL     1      16.733  -0.437   4.402  1.00  0.00     0.167 HD
ATOM     51  C   UNL     1      18.686  -2.191   3.325  1.00  0.00     0.074 A 
ATOM     52  C   UNL     1      19.289  -3.308   2.626  1.00  0.00     0.031 C 
ATOM     53  C   UNL     1      19.389  -1.210   3.944  1.00  0.00     0.031 A 
BRANCH  40  54
ATOM     54  C   UNL     1      15.866   3.130   6.597  1.00  0.00    -0.014 A 
ATOM     55  C   UNL     1      15.379   3.173   7.917  1.00  0.00     0.010 A 
ATOM     56  C   UNL     1      16.329   4.318   6.002  1.00  0.00     0.010 A 
ATOM     57  C   UNL     1      15.314   4.384   8.610  1.00  0.00     0.020 A 
ATOM     58  C   UNL     1      16.296   5.527   6.704  1.00  0.00     0.020 A 
ATOM     59  C   UNL     1      15.771   5.555   7.998  1.00  0.00     0.054 A 
BRANCH  59  60
ATOM     60  S   UNL     1      15.691   7.109   8.929  1.00  0.00     0.124 S 
ATOM     61  O   UNL     1      14.255   7.377   8.944  1.00  0.00    -0.237 OA
ATOM     62  O   UNL     1      16.274   6.740  10.217  1.00  0.00    -0.237 OA
ATOM     63  O   UNL     1      16.489   8.035   8.129  1.00  0.00    -0.744 OA
ENDBRANCH  59  60
ENDBRANCH  40  54
BRANCH  41  64
ATOM     64  C   UNL     1      15.835  -5.354   1.309  1.00  0.00    -0.014 A 
ATOM     65  C   UNL     1      16.299  -6.567   1.847  1.00  0.00     0.010 A 
ATOM     66  C   UNL     1      15.353  -5.335  -0.013  1.00  0.00     0.010 A 
ATOM     67  C   UNL     1      16.298  -7.732   1.074  1.00  0.00     0.020 A 
ATOM     68  C   UNL     1      15.321  -6.503  -0.779  1.00  0.00     0.020 A 
ATOM     69  C   UNL     1      15.805  -7.694  -0.234  1.00  0.00     0.054 A 
BRANCH  69  70
ATOM     70  S   UNL     1      15.764  -9.229  -1.199  1.00  0.00     0.124 S 
ATOM     71  O   UNL     1      17.178  -9.442  -1.492  1.00  0.00    -0.237 OA
ATOM     72  O   UNL     1      15.162 -10.174  -0.262  1.00  0.00    -0.237 OA
ATOM     73  O   UNL     1      14.930  -8.887  -2.349  1.00  0.00    -0.744 OA
ENDBRANCH  69  70
ENDBRANCH  41  64
BRANCH  53  74
ATOM     74  C   UNL     1      20.891  -1.314   3.928  1.00  0.00    -0.014 A 
ATOM     75  C   UNL     1      21.628  -1.100   2.750  1.00  0.00     0.010 A 
ATOM     76  C   UNL     1      21.579  -1.575   5.128  1.00  0.00     0.010 A 
ATOM     77  C   UNL     1      23.024  -1.177   2.766  1.00  0.00     0.020 A 
ATOM     78  C   UNL     1      22.975  -1.623   5.154  1.00  0.00     0.020 A 
ATOM     79  C   UNL     1      23.689  -1.437   3.969  1.00  0.00     0.054 A 
BRANCH  79  80
ATOM     80  S   UNL     1      25.502  -1.487   3.971  1.00  0.00     0.124 S 
ATOM     81  O   UNL     1      25.772  -2.746   3.283  1.00  0.00    -0.237 OA
ATOM     82  O   UNL     1      25.855  -0.277   3.232  1.00  0.00    -0.237 OA
ATOM     83  O   UNL     1      25.848  -1.466   5.391  1.00  0.00    -0.744 OA
ENDBRANCH  79  80
ENDBRANCH  53  74
ENDBRANCH  27  28
ENDBRANCH  19  22
ENDBRANCH  17  18
ENDBRANCH  16  17
ENDBRANCH   1  16
TORSDOF 18
