REMARK SMILES O=C(CCN1C(=O)/C(=C2\C(=O)N(Cc3ccc(Cl)cc3)c3ccccc32)SC1=S)NCCCCNC(=O)c1ccc(-c2c3nc(c(-c4ccc(S(=O)(=O)[O-])cc4)c4ccc([nH]4)c(-c4ccc(S(=O)(=O)[O-])cc4)c4nc(c(-c5ccc(S(=O)(=O)[O-])cc5)c5ccc2[nH]5)C=C4)C=C3)cc1
REMARK SMILES IDX 32 1 31 2 30 3 1 4 2 5 3 7 4 8 5 9 6 10 28 11 7 12 8 13
REMARK SMILES IDX 27 14 29 15 9 16 10 17 26 18 11 19 12 20 21 21 25 22 22 23
REMARK SMILES IDX 24 24 23 25 13 26 14 27 15 28 20 29 16 30 19 31 17 32 18 33
REMARK SMILES IDX 33 34 34 35 35 36 36 37 37 39 38 40 39 41 97 42 40 43 96 44
REMARK SMILES IDX 41 45 42 46 43 47 90 48 44 49 95 50 89 51 91 52 45 53 94 54
REMARK SMILES IDX 88 55 87 56 46 58 76 59 57 60 75 61 58 62 61 63 74 64 92 65
REMARK SMILES IDX 59 66 60 67 73 69 93 70 62 71 47 72 48 73 56 74 49 75 55 76
REMARK SMILES IDX 50 77 51 78 52 79 53 80 54 81 77 82 78 83 86 84 79 85 85 86
REMARK SMILES IDX 80 87 81 88 82 89 83 90 84 91 63 92 64 93 72 94 65 95 71 96
REMARK SMILES IDX 66 97 67 98 68 99 69 100 70 101
REMARK H PARENT 30 6 35 38 91 57 61 68
REMARK Flexibility Score: inf
ROOT
ATOM      1  C   UNL     1       1.803  -0.337  -3.978  1.00  0.00     0.023 C 
ENDROOT
BRANCH   1   2
ATOM      2  C   UNL     1       1.984  -1.064  -2.632  1.00  0.00     0.116 C 
BRANCH   2   3
ATOM      3  N   UNL     1       2.597  -0.244  -1.584  1.00  0.00    -0.356 N 
ATOM      4  O   UNL     1       1.055  -0.776   0.042  1.00  0.00    -0.275 OA
ATOM      5  C   UNL     1       2.067  -0.173  -0.307  1.00  0.00     0.221 C 
ATOM      6  H   UNL     1       3.408   0.272  -1.795  1.00  0.00     0.163 HD
BRANCH   5   7
ATOM      7  C   UNL     1       2.817   0.711   0.672  1.00  0.00     0.122 C 
BRANCH   7   8
ATOM      8  C   UNL     1       3.801  -0.081   1.532  1.00  0.00     0.137 C 
BRANCH   8   9
ATOM      9  N   UNL     1       5.104  -0.345   0.916  1.00  0.00    -0.292 N 
ATOM     10  C   UNL     1       5.868   0.711   0.414  1.00  0.00     0.267 C 
ATOM     11  C   UNL     1       5.765  -1.554   1.026  1.00  0.00     0.148 C 
ATOM     12  O   UNL     1       5.625   1.893   0.571  1.00  0.00    -0.268 OA
ATOM     13  C   UNL     1       7.048   0.144  -0.309  1.00  0.00     0.093 C 
ATOM     14  S   UNL     1       7.434  -1.321   0.545  1.00  0.00    -0.053 SA
ATOM     15  S   UNL     1       5.179  -3.034   1.516  1.00  0.00    -0.052 S 
ATOM     16  C   UNL     1       7.225   0.386  -1.626  1.00  0.00     0.069 C 
ATOM     17  C   UNL     1       6.716   1.616  -2.372  1.00  0.00     0.260 C 
ATOM     18  C   UNL     1       7.319  -0.699  -2.626  1.00  0.00     0.012 A 
ATOM     19  O   UNL     1       6.501   2.703  -1.911  1.00  0.00    -0.269 OA
ATOM     20  N   UNL     1       6.460   1.184  -3.687  1.00  0.00    -0.303 N 
ATOM     21  C   UNL     1       6.689  -0.198  -3.773  1.00  0.00     0.052 A 
ATOM     22  C   UNL     1       7.572  -2.061  -2.479  1.00  0.00     0.011 A 
ATOM     23  C   UNL     1       6.157  -1.073  -4.679  1.00  0.00     0.027 A 
ATOM     24  C   UNL     1       6.899  -2.940  -3.301  1.00  0.00     0.001 A 
ATOM     25  C   UNL     1       6.129  -2.429  -4.330  1.00  0.00     0.002 A 
BRANCH  20  26
ATOM     26  C   UNL     1       5.764   2.021  -4.662  1.00  0.00     0.161 C 
BRANCH  26  27
ATOM     27  C   UNL     1       6.496   2.409  -5.936  1.00  0.00    -0.028 A 
ATOM     28  C   UNL     1       6.260   1.740  -7.149  1.00  0.00     0.007 A 
ATOM     29  C   UNL     1       7.336   3.535  -5.964  1.00  0.00     0.007 A 
ATOM     30  C   UNL     1       6.883   2.149  -8.337  1.00  0.00     0.021 A 
ATOM     31  C   UNL     1       7.937   3.962  -7.159  1.00  0.00     0.021 A 
ATOM     32  C   UNL     1       7.728   3.252  -8.337  1.00  0.00     0.041 A 
ATOM     33  Cl  UNL     1       8.519   3.716  -9.791  1.00  0.00    -0.084 Cl
ENDBRANCH  26  27
ENDBRANCH  20  26
ENDBRANCH   8   9
ENDBRANCH   7   8
ENDBRANCH   5   7
ENDBRANCH   2   3
ENDBRANCH   1   2
BRANCH   1  34
ATOM     34  C   UNL     1       2.915  -0.535  -5.038  1.00  0.00     0.023 C 
BRANCH  34  35
ATOM     35  C   UNL     1       3.020  -1.917  -5.737  1.00  0.00     0.116 C 
BRANCH  35  36
ATOM     36  N   UNL     1       3.429  -1.900  -7.174  1.00  0.00    -0.352 N 
ATOM     37  C   UNL     1       4.469  -2.129  -8.063  1.00  0.00     0.251 C 
ATOM     38  H   UNL     1       2.649  -1.611  -7.700  1.00  0.00     0.163 HD
ATOM     39  O   UNL     1       4.135  -2.119  -9.255  1.00  0.00    -0.269 OA
BRANCH  37  40
ATOM     40  C   UNL     1       5.942  -2.257  -7.818  1.00  0.00     0.039 A 
ATOM     41  C   UNL     1       6.572  -3.247  -7.085  1.00  0.00     0.014 A 
ATOM     42  C   UNL     1       6.802  -1.392  -8.511  1.00  0.00     0.014 A 
ATOM     43  C   UNL     1       7.960  -3.129  -6.752  1.00  0.00     0.010 A 
ATOM     44  C   UNL     1       8.203  -1.350  -8.271  1.00  0.00     0.010 A 
ATOM     45  C   UNL     1       8.814  -2.142  -7.289  1.00  0.00    -0.014 A 
BRANCH  45  46
ATOM     46  C   UNL     1      10.266  -1.894  -6.842  1.00  0.00     0.031 A 
ATOM     47  C   UNL     1      10.834  -0.470  -6.702  1.00  0.00     0.074 A 
ATOM     48  C   UNL     1      11.139  -2.867  -6.479  1.00  0.00     0.049 A 
ATOM     49  N   UNL     1      12.083  -0.055  -6.624  1.00  0.00    -0.248 NA
ATOM     50  C   UNL     1       9.863   0.625  -6.627  1.00  0.00     0.031 C 
ATOM     51  C   UNL     1      10.860  -4.297  -6.408  1.00  0.00     0.029 A 
ATOM     52  N   UNL     1      12.463  -2.784  -6.068  1.00  0.00    -0.354 N 
ATOM     53  C   UNL     1      12.039   1.342  -6.600  1.00  0.00     0.074 A 
ATOM     54  C   UNL     1      10.642   1.698  -6.648  1.00  0.00     0.031 C 
ATOM     55  C   UNL     1      11.919  -4.934  -5.888  1.00  0.00     0.029 A 
ATOM     56  C   UNL     1      13.027  -3.995  -5.731  1.00  0.00     0.049 A 
ATOM     57  H   UNL     1      12.955  -1.933  -6.022  1.00  0.00     0.167 HD
ATOM     58  C   UNL     1      13.040   2.259  -6.531  1.00  0.00     0.031 A 
ATOM     59  C   UNL     1      14.286  -4.359  -5.391  1.00  0.00     0.031 A 
ATOM     60  C   UNL     1      14.434   1.952  -6.324  1.00  0.00     0.049 A 
ATOM     61  C   UNL     1      15.412  -3.360  -5.366  1.00  0.00     0.074 A 
ATOM     62  C   UNL     1      15.506   2.831  -6.254  1.00  0.00     0.029 A 
ATOM     63  N   UNL     1      14.946   0.691  -6.087  1.00  0.00    -0.354 N 
ATOM     64  N   UNL     1      15.368  -2.064  -5.544  1.00  0.00    -0.248 NA
ATOM     65  C   UNL     1      16.770  -3.883  -5.128  1.00  0.00     0.031 C 
ATOM     66  C   UNL     1      16.670   2.098  -6.017  1.00  0.00     0.029 A 
ATOM     67  C   UNL     1      16.314   0.769  -5.875  1.00  0.00     0.049 A 
ATOM     68  H   UNL     1      14.418  -0.140  -6.069  1.00  0.00     0.167 HD
ATOM     69  C   UNL     1      16.684  -1.620  -5.436  1.00  0.00     0.074 A 
ATOM     70  C   UNL     1      17.503  -2.776  -5.152  1.00  0.00     0.031 C 
ATOM     71  C   UNL     1      17.158  -0.359  -5.578  1.00  0.00     0.031 A 
BRANCH  58  72
ATOM     72  C   UNL     1      12.709   3.731  -6.697  1.00  0.00    -0.014 A 
ATOM     73  C   UNL     1      13.168   4.405  -7.849  1.00  0.00     0.010 A 
ATOM     74  C   UNL     1      12.109   4.482  -5.672  1.00  0.00     0.010 A 
ATOM     75  C   UNL     1      13.069   5.795  -7.958  1.00  0.00     0.020 A 
ATOM     76  C   UNL     1      11.975   5.872  -5.792  1.00  0.00     0.020 A 
ATOM     77  C   UNL     1      12.479   6.522  -6.923  1.00  0.00     0.054 A 
BRANCH  77  78
ATOM     78  S   UNL     1      12.372   8.330  -7.068  1.00  0.00     0.124 S 
ATOM     79  O   UNL     1      13.727   8.750  -6.728  1.00  0.00    -0.237 OA
ATOM     80  O   UNL     1      11.984   8.519  -8.464  1.00  0.00    -0.237 OA
ATOM     81  O   UNL     1      11.341   8.686  -6.095  1.00  0.00    -0.744 OA
ENDBRANCH  77  78
ENDBRANCH  58  72
BRANCH  59  82
ATOM     82  C   UNL     1      14.562  -5.794  -5.080  1.00  0.00    -0.014 A 
ATOM     83  C   UNL     1      14.441  -6.777  -6.081  1.00  0.00     0.010 A 
ATOM     84  C   UNL     1      14.880  -6.192  -3.769  1.00  0.00     0.010 A 
ATOM     85  C   UNL     1      14.536  -8.132  -5.761  1.00  0.00     0.020 A 
ATOM     86  C   UNL     1      15.019  -7.547  -3.453  1.00  0.00     0.020 A 
ATOM     87  C   UNL     1      14.803  -8.509  -4.443  1.00  0.00     0.054 A 
BRANCH  87  88
ATOM     88  S   UNL     1      14.839 -10.275  -4.034  1.00  0.00     0.124 S 
ATOM     89  O   UNL     1      13.415 -10.591  -3.963  1.00  0.00    -0.237 OA
ATOM     90  O   UNL     1      15.556 -10.853  -5.167  1.00  0.00    -0.237 OA
ATOM     91  O   UNL     1      15.554 -10.316  -2.761  1.00  0.00    -0.744 OA
ENDBRANCH  87  88
ENDBRANCH  59  82
BRANCH  71  92
ATOM     92  C   UNL     1      18.637  -0.105  -5.423  1.00  0.00    -0.014 A 
ATOM     93  C   UNL     1      19.109   0.647  -4.330  1.00  0.00     0.010 A 
ATOM     94  C   UNL     1      19.543  -0.484  -6.429  1.00  0.00     0.010 A 
ATOM     95  C   UNL     1      20.449   1.045  -4.262  1.00  0.00     0.020 A 
ATOM     96  C   UNL     1      20.890  -0.108  -6.353  1.00  0.00     0.020 A 
ATOM     97  C   UNL     1      21.328   0.676  -5.282  1.00  0.00     0.054 A 
BRANCH  97  98
ATOM     98  S   UNL     1      23.052   1.240  -5.201  1.00  0.00     0.124 S 
ATOM     99  O   UNL     1      22.936   2.646  -5.574  1.00  0.00    -0.237 OA
ATOM    100  O   UNL     1      23.409   0.985  -3.807  1.00  0.00    -0.237 OA
ATOM    101  O   UNL     1      23.737   0.391  -6.175  1.00  0.00    -0.744 OA
ENDBRANCH  97  98
ENDBRANCH  71  92
ENDBRANCH  45  46
ENDBRANCH  37  40
ENDBRANCH  35  36
ENDBRANCH  34  35
ENDBRANCH   1  34
TORSDOF 18
