REMARK SMILES CC[C@@H](C)N(C)C(=O)N1[C@@H](C(=O)NCCCCNC(=O)c2ccc(-c3c4nc(c(-c5ccc(S(=O)(=O)[O-])cc5)c5ccc([nH]5)c(-c5ccc(S(=O)(=O)[O-])cc5)c5nc(c(-c6ccc(S(=O)(=O)[O-])cc6)c6ccc3[nH]6)C=C5)C=C4)cc2)CC[C@H]2CCCC[C@H]21
REMARK SMILES IDX 15 1 14 2 13 3 11 4 12 5 10 7 9 8 88 9 81 10 83 11 87 12
REMARK SMILES IDX 82 13 84 14 86 15 85 16 7 17 8 18 5 19 6 20 3 21 4 22 2 23
REMARK SMILES IDX 1 24 16 25 17 26 18 27 19 28 20 30 21 31 22 32 80 33 23 34
REMARK SMILES IDX 79 35 24 36 25 37 26 38 73 39 27 40 78 41 72 42 74 43 28 44
REMARK SMILES IDX 77 45 71 46 70 47 29 49 59 50 40 51 58 52 41 53 44 54 57 55
REMARK SMILES IDX 75 56 42 57 43 58 56 60 76 61 45 62 30 63 31 64 39 65 32 66
REMARK SMILES IDX 38 67 33 68 34 69 35 70 36 71 37 72 60 73 61 74 69 75 62 76
REMARK SMILES IDX 68 77 63 78 64 79 65 80 66 81 67 82 46 83 47 84 55 85 48 86
REMARK SMILES IDX 54 87 49 88 50 89 51 90 52 91 53 92
REMARK H PARENT 13 6 18 29 74 48 44 59
REMARK Flexibility Score: inf
ROOT
ATOM      1  C   UNL     1      -2.007   3.326   6.380  1.00  0.00     0.023 C 
ENDROOT
BRANCH   1   2
ATOM      2  C   UNL     1      -1.408   2.153   5.614  1.00  0.00     0.116 C 
BRANCH   2   3
ATOM      3  N   UNL     1      -0.189   1.678   6.239  1.00  0.00    -0.354 N 
ATOM      4  C   UNL     1       0.141   0.416   6.634  1.00  0.00     0.242 C 
ATOM      5  O   UNL     1       1.193   0.266   7.264  1.00  0.00    -0.273 OA
ATOM      6  H   UNL     1       0.498   2.364   6.401  1.00  0.00     0.163 HD
BRANCH   4   7
ATOM      7  C   UNL     1      -0.830  -0.774   6.453  1.00  0.00     0.176 C 
ATOM      8  N   UNL     1      -1.400  -0.981   5.099  1.00  0.00    -0.309 N 
ATOM      9  C   UNL     1      -2.495  -1.967   5.011  1.00  0.00     0.091 C 
ATOM     10  C   UNL     1      -1.925  -0.595   7.536  1.00  0.00     0.036 C 
ATOM     11  C   UNL     1      -3.632  -1.683   6.002  1.00  0.00     0.012 C 
ATOM     12  C   UNL     1      -3.105  -2.277   3.632  1.00  0.00     0.025 C 
ATOM     13  C   UNL     1      -3.083  -1.577   7.426  1.00  0.00     0.008 C 
ATOM     14  C   UNL     1      -4.504  -0.481   5.600  1.00  0.00     0.006 C 
ATOM     15  C   UNL     1      -4.231  -1.338   3.187  1.00  0.00     0.002 C 
ATOM     16  C   UNL     1      -4.507  -0.155   4.108  1.00  0.00     0.000 C 
BRANCH   8  17
ATOM     17  C   UNL     1      -0.854  -0.477   3.934  1.00  0.00     0.320 C 
ATOM     18  O   UNL     1      -1.607   0.012   3.090  1.00  0.00    -0.248 OA
BRANCH  17  19
ATOM     19  N   UNL     1       0.508  -0.515   3.714  1.00  0.00    -0.325 N 
ATOM     20  C   UNL     1       1.460  -1.360   4.422  1.00  0.00     0.149 C 
BRANCH  19  21
ATOM     21  C   UNL     1       1.049   0.149   2.497  1.00  0.00     0.083 C 
ATOM     22  C   UNL     1       0.749   1.653   2.457  1.00  0.00     0.031 C 
BRANCH  21  23
ATOM     23  C   UNL     1       0.622  -0.605   1.216  1.00  0.00     0.021 C 
ATOM     24  C   UNL     1       1.178  -0.021  -0.073  1.00  0.00     0.006 C 
ENDBRANCH  21  23
ENDBRANCH  19  21
ENDBRANCH  17  19
ENDBRANCH   8  17
ENDBRANCH   4   7
ENDBRANCH   2   3
ENDBRANCH   1   2
BRANCH   1  25
ATOM     25  C   UNL     1      -1.167   4.601   6.328  1.00  0.00     0.023 C 
BRANCH  25  26
ATOM     26  C   UNL     1      -0.822   5.084   4.923  1.00  0.00     0.116 C 
BRANCH  26  27
ATOM     27  N   UNL     1      -2.000   5.337   4.109  1.00  0.00    -0.352 N 
ATOM     28  C   UNL     1      -2.278   6.430   3.319  1.00  0.00     0.251 C 
ATOM     29  H   UNL     1      -2.689   4.634   4.124  1.00  0.00     0.163 HD
ATOM     30  O   UNL     1      -3.380   6.570   2.813  1.00  0.00    -0.269 OA
BRANCH  28  31
ATOM     31  C   UNL     1      -1.224   7.448   3.122  1.00  0.00     0.039 A 
ATOM     32  C   UNL     1      -1.529   8.790   3.355  1.00  0.00     0.014 A 
ATOM     33  C   UNL     1       0.069   7.066   2.753  1.00  0.00     0.014 A 
ATOM     34  C   UNL     1      -0.514   9.746   3.285  1.00  0.00     0.010 A 
ATOM     35  C   UNL     1       1.091   8.009   2.752  1.00  0.00     0.010 A 
ATOM     36  C   UNL     1       0.810   9.358   3.020  1.00  0.00    -0.014 A 
BRANCH  36  37
ATOM     37  C   UNL     1       1.917  10.348   3.024  1.00  0.00     0.031 A 
ATOM     38  C   UNL     1       2.681  10.628   1.758  1.00  0.00     0.074 A 
ATOM     39  C   UNL     1       2.274  10.946   4.178  1.00  0.00     0.049 A 
ATOM     40  N   UNL     1       3.715  11.408   1.577  1.00  0.00    -0.248 NA
ATOM     41  C   UNL     1       2.241   9.921   0.544  1.00  0.00     0.031 C 
ATOM     42  C   UNL     1       1.640  10.725   5.481  1.00  0.00     0.029 A 
ATOM     43  N   UNL     1       3.265  11.857   4.444  1.00  0.00    -0.354 N 
ATOM     44  C   UNL     1       4.058  11.275   0.237  1.00  0.00     0.074 A 
ATOM     45  C   UNL     1       3.153  10.304  -0.338  1.00  0.00     0.031 C 
ATOM     46  C   UNL     1       2.242  11.498   6.400  1.00  0.00     0.029 A 
ATOM     47  C   UNL     1       3.326  12.239   5.764  1.00  0.00     0.049 A 
ATOM     48  H   UNL     1       3.875  12.206   3.754  1.00  0.00     0.167 HD
ATOM     49  C   UNL     1       5.024  11.920  -0.459  1.00  0.00     0.031 A 
ATOM     50  C   UNL     1       4.165  13.084   6.394  1.00  0.00     0.031 A 
ATOM     51  C   UNL     1       5.912  12.898   0.110  1.00  0.00     0.049 A 
ATOM     52  C   UNL     1       5.233  13.785   5.598  1.00  0.00     0.074 A 
ATOM     53  C   UNL     1       6.890  13.643  -0.524  1.00  0.00     0.029 A 
ATOM     54  N   UNL     1       5.929  13.269   1.446  1.00  0.00    -0.354 N 
ATOM     55  N   UNL     1       5.500  13.692   4.317  1.00  0.00    -0.248 NA
ATOM     56  C   UNL     1       6.104  14.714   6.331  1.00  0.00     0.031 C 
ATOM     57  C   UNL     1       7.529  14.434   0.436  1.00  0.00     0.029 A 
ATOM     58  C   UNL     1       6.913  14.219   1.659  1.00  0.00     0.049 A 
ATOM     59  H   UNL     1       5.331  12.909   2.140  1.00  0.00     0.167 HD
ATOM     60  C   UNL     1       6.553  14.571   4.087  1.00  0.00     0.074 A 
ATOM     61  C   UNL     1       6.862  15.197   5.355  1.00  0.00     0.031 C 
ATOM     62  C   UNL     1       7.204  14.836   2.928  1.00  0.00     0.031 A 
BRANCH  49  63
ATOM     63  C   UNL     1       5.168  11.590  -1.921  1.00  0.00    -0.014 A 
ATOM     64  C   UNL     1       4.200  12.005  -2.854  1.00  0.00     0.010 A 
ATOM     65  C   UNL     1       6.307  10.902  -2.376  1.00  0.00     0.010 A 
ATOM     66  C   UNL     1       4.351  11.707  -4.210  1.00  0.00     0.020 A 
ATOM     67  C   UNL     1       6.475  10.626  -3.736  1.00  0.00     0.020 A 
ATOM     68  C   UNL     1       5.488  11.018  -4.643  1.00  0.00     0.054 A 
BRANCH  68  69
ATOM     69  S   UNL     1       5.675  10.676  -6.414  1.00  0.00     0.124 S 
ATOM     70  O   UNL     1       4.694   9.614  -6.621  1.00  0.00    -0.237 OA
ATOM     71  O   UNL     1       5.347  11.961  -7.025  1.00  0.00    -0.237 OA
ATOM     72  O   UNL     1       7.072  10.267  -6.543  1.00  0.00    -0.744 OA
ENDBRANCH  68  69
ENDBRANCH  49  63
BRANCH  50  73
ATOM     73  C   UNL     1       4.026  13.325   7.856  1.00  0.00    -0.014 A 
ATOM     74  C   UNL     1       3.564  14.563   8.336  1.00  0.00     0.010 A 
ATOM     75  C   UNL     1       4.363  12.318   8.779  1.00  0.00     0.010 A 
ATOM     76  C   UNL     1       3.468  14.800   9.710  1.00  0.00     0.020 A 
ATOM     77  C   UNL     1       4.241  12.541  10.153  1.00  0.00     0.020 A 
ATOM     78  C   UNL     1       3.809  13.787  10.611  1.00  0.00     0.054 A 
BRANCH  78  79
ATOM     79  S   UNL     1       3.646  14.104  12.390  1.00  0.00     0.124 S 
ATOM     80  O   UNL     1       4.801  14.956  12.653  1.00  0.00    -0.237 OA
ATOM     81  O   UNL     1       2.342  14.758  12.477  1.00  0.00    -0.237 OA
ATOM     82  O   UNL     1       3.704  12.768  12.980  1.00  0.00    -0.744 OA
ENDBRANCH  78  79
ENDBRANCH  50  73
BRANCH  62  83
ATOM     83  C   UNL     1       8.293  15.874   2.967  1.00  0.00    -0.014 A 
ATOM     84  C   UNL     1       9.534  15.606   3.571  1.00  0.00     0.010 A 
ATOM     85  C   UNL     1       8.088  17.117   2.341  1.00  0.00     0.010 A 
ATOM     86  C   UNL     1      10.541  16.574   3.574  1.00  0.00     0.020 A 
ATOM     87  C   UNL     1       9.102  18.078   2.319  1.00  0.00     0.020 A 
ATOM     88  C   UNL     1      10.318  17.805   2.948  1.00  0.00     0.054 A 
BRANCH  88  89
ATOM     89  S   UNL     1      11.656  19.029   2.926  1.00  0.00     0.124 S 
ATOM     90  O   UNL     1      11.637  19.525   4.300  1.00  0.00    -0.237 OA
ATOM     91  O   UNL     1      12.821  18.226   2.564  1.00  0.00    -0.237 OA
ATOM     92  O   UNL     1      11.230  19.990   1.911  1.00  0.00    -0.744 OA
ENDBRANCH  88  89
ENDBRANCH  62  83
ENDBRANCH  36  37
ENDBRANCH  28  31
ENDBRANCH  26  27
ENDBRANCH  25  26
ENDBRANCH   1  25
TORSDOF 18
