REMARK SMILES COc1ccc(C2=NN(C(=O)CCC(=O)NCCCCNC(=O)c3ccc(-c4c5nc(c(-c6ccc(S(=O)(=O)[O-])cc6)c6ccc([nH]6)c(-c6ccc(S(=O)(=O)[O-])cc6)c6nc(c(-c7ccc(S(=O)(=O)[O-])cc7)c7ccc4[nH]7)C=C6)C=C5)cc3)[C@H](c3ccc(Cl)cc3Cl)C2)cc1
REMARK SMILES IDX 17 1 16 2 14 3 15 4 13 6 12 7 10 8 11 9 9 10 7 11 8 12 93 13
REMARK SMILES IDX 84 14 6 15 3 16 4 17 95 18 5 19 94 20 2 21 1 22 85 23 86 24
REMARK SMILES IDX 91 25 87 26 90 27 92 28 88 29 89 30 18 31 19 32 20 33 21 34
REMARK SMILES IDX 22 35 23 37 24 38 25 39 83 40 26 41 82 42 27 43 28 44 29 45
REMARK SMILES IDX 76 46 30 47 81 48 75 49 77 50 31 51 80 52 74 53 73 54 32 56
REMARK SMILES IDX 62 57 43 58 61 59 44 60 47 61 60 62 78 63 45 64 46 65 59 67
REMARK SMILES IDX 79 68 48 69 33 70 34 71 42 72 35 73 41 74 36 75 37 76 38 77
REMARK SMILES IDX 39 78 40 79 63 80 64 81 72 82 65 83 71 84 66 85 67 86 68 87
REMARK SMILES IDX 69 88 70 89 49 90 50 91 58 92 51 93 57 94 52 95 53 96 54 97
REMARK SMILES IDX 55 98 56 99
REMARK H PARENT 16 5 21 36 77 55 47 66
REMARK Flexibility Score: inf
ROOT
ATOM      1  C   UNL     1       1.820  -3.096  -7.563  1.00  0.00     0.116 C 
ENDROOT
BRANCH   1   2
ATOM      2  N   UNL     1       2.960  -3.069  -8.642  1.00  0.00    -0.356 N 
ATOM      3  C   UNL     1       2.940  -3.204  -9.993  1.00  0.00     0.220 C 
ATOM      4  O   UNL     1       4.028  -3.186 -10.572  1.00  0.00    -0.275 OA
ATOM      5  H   UNL     1       3.860  -2.928  -8.268  1.00  0.00     0.163 HD
BRANCH   3   6
ATOM      6  C   UNL     1       1.640  -3.334 -10.747  1.00  0.00     0.110 C 
BRANCH   6   7
ATOM      7  C   UNL     1       0.709  -4.497 -10.415  1.00  0.00     0.112 C 
BRANCH   7   8
ATOM      8  C   UNL     1      -0.137  -4.316  -9.178  1.00  0.00     0.243 C 
ATOM      9  O   UNL     1      -1.267  -3.835  -9.272  1.00  0.00    -0.273 OA
BRANCH   8  10
ATOM     10  N   UNL     1       0.522  -4.534  -7.956  1.00  0.00    -0.225 N 
ATOM     11  C   UNL     1       1.176  -2.817  -5.730  1.00  0.00     0.071 C 
ATOM     12  N   UNL     1       0.027  -3.226  -6.741  1.00  0.00    -0.174 NA
ATOM     13  C   UNL     1       2.948  -3.847  -6.262  1.00  0.00     0.091 C 
ATOM     14  C   UNL     1       2.312  -5.144  -7.685  1.00  0.00     0.149 C 
BRANCH  11  15
ATOM     15  C   UNL     1       0.441  -2.230  -4.367  1.00  0.00    -0.002 A 
ATOM     16  C   UNL     1      -1.320  -1.579  -2.140  1.00  0.00     0.118 A 
ATOM     17  C   UNL     1      -1.719  -1.388  -3.455  1.00  0.00     0.047 A 
ATOM     18  C   UNL     1      -0.100  -2.166  -1.923  1.00  0.00     0.047 A 
ATOM     19  C   UNL     1      -0.853  -1.696  -4.543  1.00  0.00     0.014 A 
ATOM     20  C   UNL     1       0.740  -2.462  -3.012  1.00  0.00     0.014 A 
BRANCH  16  21
ATOM     21  O   UNL     1      -2.175  -1.294  -1.116  1.00  0.00    -0.497 OA
ATOM     22  C   UNL     1      -1.599  -0.435  -0.125  1.00  0.00     0.278 C 
ENDBRANCH  16  21
ENDBRANCH  11  15
BRANCH  14  23
ATOM     23  C   UNL     1       2.330  -6.764  -7.620  1.00  0.00    -0.004 A 
ATOM     24  C   UNL     1       2.162  -7.510  -6.434  1.00  0.00     0.009 A 
ATOM     25  C   UNL     1       2.296  -7.537  -8.805  1.00  0.00     0.047 A 
ATOM     26  C   UNL     1       1.693  -8.833  -6.434  1.00  0.00     0.021 A 
ATOM     27  C   UNL     1       1.796  -8.851  -8.820  1.00  0.00     0.041 A 
ATOM     28  Cl  UNL     1       3.079  -7.040 -10.269  1.00  0.00    -0.084 Cl
ATOM     29  C   UNL     1       1.447  -9.476  -7.634  1.00  0.00     0.042 A 
ATOM     30  Cl  UNL     1       0.775 -11.057  -7.648  1.00  0.00    -0.084 Cl
ENDBRANCH  14  23
ENDBRANCH   8  10
ENDBRANCH   7   8
ENDBRANCH   6   7
ENDBRANCH   3   6
ENDBRANCH   1   2
BRANCH   1  31
ATOM     31  C   UNL     1       1.289  -4.630  -6.043  1.00  0.00     0.023 C 
BRANCH  31  32
ATOM     32  C   UNL     1       2.135  -4.669  -4.342  1.00  0.00     0.023 C 
BRANCH  32  33
ATOM     33  C   UNL     1       3.385  -3.557  -3.819  1.00  0.00     0.116 C 
BRANCH  33  34
ATOM     34  N   UNL     1       3.385  -2.128  -4.338  1.00  0.00    -0.352 N 
ATOM     35  C   UNL     1       3.280  -0.883  -3.763  1.00  0.00     0.251 C 
ATOM     36  H   UNL     1       3.483  -2.083  -5.316  1.00  0.00     0.163 HD
ATOM     37  O   UNL     1       3.031   0.104  -4.442  1.00  0.00    -0.269 OA
BRANCH  35  38
ATOM     38  C   UNL     1       3.507  -0.790  -2.334  1.00  0.00     0.039 A 
ATOM     39  C   UNL     1       2.542  -0.251  -1.479  1.00  0.00     0.014 A 
ATOM     40  C   UNL     1       4.659  -1.419  -1.880  1.00  0.00     0.014 A 
ATOM     41  C   UNL     1       2.661  -0.504  -0.121  1.00  0.00     0.010 A 
ATOM     42  C   UNL     1       4.755  -1.704  -0.545  1.00  0.00     0.010 A 
ATOM     43  C   UNL     1       3.745  -1.266   0.328  1.00  0.00    -0.014 A 
BRANCH  43  44
ATOM     44  C   UNL     1       4.001  -1.506   1.747  1.00  0.00     0.031 A 
ATOM     45  C   UNL     1       5.088  -0.690   2.360  1.00  0.00     0.074 A 
ATOM     46  C   UNL     1       3.415  -2.541   2.368  1.00  0.00     0.049 A 
ATOM     47  N   UNL     1       5.729  -0.883   3.474  1.00  0.00    -0.248 NA
ATOM     48  C   UNL     1       5.552   0.468   1.570  1.00  0.00     0.031 C 
ATOM     49  C   UNL     1       2.354  -3.385   1.815  1.00  0.00     0.029 A 
ATOM     50  N   UNL     1       3.666  -3.079   3.599  1.00  0.00    -0.354 N 
ATOM     51  C   UNL     1       6.694   0.112   3.508  1.00  0.00     0.074 A 
ATOM     52  C   UNL     1       6.587   0.873   2.285  1.00  0.00     0.031 C 
ATOM     53  C   UNL     1       2.039  -4.335   2.713  1.00  0.00     0.029 A 
ATOM     54  C   UNL     1       2.914  -4.196   3.873  1.00  0.00     0.049 A 
ATOM     55  H   UNL     1       4.321  -2.702   4.229  1.00  0.00     0.167 HD
ATOM     56  C   UNL     1       7.587   0.367   4.487  1.00  0.00     0.031 A 
ATOM     57  C   UNL     1       2.963  -5.015   4.940  1.00  0.00     0.031 A 
ATOM     58  C   UNL     1       7.679  -0.422   5.679  1.00  0.00     0.049 A 
ATOM     59  C   UNL     1       3.984  -4.722   6.010  1.00  0.00     0.074 A 
ATOM     60  C   UNL     1       8.536  -0.272   6.751  1.00  0.00     0.029 A 
ATOM     61  N   UNL     1       6.873  -1.520   5.951  1.00  0.00    -0.354 N 
ATOM     62  N   UNL     1       4.882  -3.764   6.053  1.00  0.00    -0.248 NA
ATOM     63  C   UNL     1       3.999  -5.617   7.173  1.00  0.00     0.031 C 
ATOM     64  C   UNL     1       8.269  -1.304   7.657  1.00  0.00     0.029 A 
ATOM     65  C   UNL     1       7.213  -2.063   7.173  1.00  0.00     0.049 A 
ATOM     66  H   UNL     1       6.163  -1.860   5.359  1.00  0.00     0.167 HD
ATOM     67  C   UNL     1       5.548  -3.920   7.264  1.00  0.00     0.074 A 
ATOM     68  C   UNL     1       4.939  -5.060   7.924  1.00  0.00     0.031 C 
ATOM     69  C   UNL     1       6.567  -3.195   7.790  1.00  0.00     0.031 A 
BRANCH  56  70
ATOM     70  C   UNL     1       8.518   1.520   4.261  1.00  0.00    -0.014 A 
ATOM     71  C   UNL     1       8.039   2.843   4.255  1.00  0.00     0.010 A 
ATOM     72  C   UNL     1       9.874   1.277   3.984  1.00  0.00     0.010 A 
ATOM     73  C   UNL     1       8.887   3.900   3.922  1.00  0.00     0.020 A 
ATOM     74  C   UNL     1      10.733   2.336   3.680  1.00  0.00     0.020 A 
ATOM     75  C   UNL     1      10.228   3.638   3.629  1.00  0.00     0.054 A 
BRANCH  75  76
ATOM     76  S   UNL     1      11.307   5.027   3.194  1.00  0.00     0.124 S 
ATOM     77  O   UNL     1      10.868   5.332   1.835  1.00  0.00    -0.237 OA
ATOM     78  O   UNL     1      10.967   6.025   4.204  1.00  0.00    -0.237 OA
ATOM     79  O   UNL     1      12.652   4.466   3.303  1.00  0.00    -0.744 OA
ENDBRANCH  75  76
ENDBRANCH  56  70
BRANCH  57  80
ATOM     80  C   UNL     1       2.028  -6.167   5.057  1.00  0.00    -0.014 A 
ATOM     81  C   UNL     1       1.014  -6.157   6.032  1.00  0.00     0.010 A 
ATOM     82  C   UNL     1       2.145  -7.282   4.208  1.00  0.00     0.010 A 
ATOM     83  C   UNL     1       0.156  -7.251   6.177  1.00  0.00     0.020 A 
ATOM     84  C   UNL     1       1.271  -8.367   4.332  1.00  0.00     0.020 A 
ATOM     85  C   UNL     1       0.291  -8.351   5.327  1.00  0.00     0.054 A 
BRANCH  85  86
ATOM     86  S   UNL     1      -0.850  -9.749   5.518  1.00  0.00     0.124 S 
ATOM     87  O   UNL     1      -0.367 -10.369   6.748  1.00  0.00    -0.237 OA
ATOM     88  O   UNL     1      -2.148  -9.086   5.609  1.00  0.00    -0.237 OA
ATOM     89  O   UNL     1      -0.640 -10.528   4.299  1.00  0.00    -0.744 OA
ENDBRANCH  85  86
ENDBRANCH  57  80
BRANCH  69  90
ATOM     90  C   UNL     1       7.047  -3.584   9.160  1.00  0.00    -0.014 A 
ATOM     91  C   UNL     1       7.817  -4.742   9.361  1.00  0.00     0.010 A 
ATOM     92  C   UNL     1       6.780  -2.731  10.246  1.00  0.00     0.010 A 
ATOM     93  C   UNL     1       8.289  -5.056  10.636  1.00  0.00     0.020 A 
ATOM     94  C   UNL     1       7.275  -3.026  11.516  1.00  0.00     0.020 A 
ATOM     95  C   UNL     1       8.015  -4.195  11.705  1.00  0.00     0.054 A 
BRANCH  95  96
ATOM     96  S   UNL     1       8.684  -4.596  13.341  1.00  0.00     0.124 S 
ATOM     97  O   UNL     1       7.805  -5.681  13.769  1.00  0.00    -0.237 OA
ATOM     98  O   UNL     1      10.060  -4.983  13.039  1.00  0.00    -0.237 OA
ATOM     99  O   UNL     1       8.544  -3.348  14.087  1.00  0.00    -0.744 OA
ENDBRANCH  95  96
ENDBRANCH  69  90
ENDBRANCH  43  44
ENDBRANCH  35  38
ENDBRANCH  33  34
ENDBRANCH  32  33
ENDBRANCH  31  32
ENDBRANCH   1  31
TORSDOF 20
