REMARK SMILES COc1ccc2[nH]c(C(=O)c3cc(C)ccn3)c(CC(=O)NCCCCNC(=O)c3ccc(-c4c5nc(c(-c6ccc(S(=O)(=O)[O-])cc6)c6ccc([nH]6)c(-c6ccc(S(=O)(=O)[O-])cc6)c6nc(c(-c7ccc(S(=O)(=O)[O-])cc7)c7ccc4[nH]7)C=C6)C=C5)cc3)c2c1
REMARK SMILES IDX 24 1 23 2 22 3 20 4 21 5 19 7 18 8 3 9 4 10 91 11 5 12 90 13
REMARK SMILES IDX 6 14 7 15 8 16 2 18 1 19 9 20 10 21 11 22 12 23 17 24 13 25
REMARK SMILES IDX 16 26 14 27 15 28 25 29 26 30 27 31 28 32 29 34 30 35 31 36
REMARK SMILES IDX 89 37 32 38 88 39 33 40 34 41 35 42 82 43 36 44 87 45 81 46
REMARK SMILES IDX 83 47 37 48 86 49 80 50 79 51 38 53 68 54 49 55 67 56 50 57
REMARK SMILES IDX 53 58 66 59 84 60 51 61 52 62 65 64 85 65 54 66 39 67 40 68
REMARK SMILES IDX 48 69 41 70 47 71 42 72 43 73 44 74 45 75 46 76 69 77 70 78
REMARK SMILES IDX 78 79 71 80 77 81 72 82 73 83 74 84 75 85 76 86 55 87 56 88
REMARK SMILES IDX 64 89 57 90 63 91 58 92 59 93 60 94 61 95 62 96
REMARK H PARENT 22 6 7 17 27 33 83 52 53 63
REMARK Flexibility Score: inf
ROOT
ATOM      1  C   UNL     1      -1.074   2.066  -5.239  1.00  0.00     0.023 C 
ENDROOT
BRANCH   1   2
ATOM      2  C   UNL     1      -2.255   1.178  -4.851  1.00  0.00     0.116 C 
BRANCH   2   3
ATOM      3  N   UNL     1      -2.902   0.576  -5.997  1.00  0.00    -0.356 N 
ATOM      4  C   UNL     1      -2.893  -0.724  -6.420  1.00  0.00     0.224 C 
ATOM      5  O   UNL     1      -3.707  -1.033  -7.294  1.00  0.00    -0.275 OA
ATOM      6  H   UNL     1      -3.427   1.194  -6.554  1.00  0.00     0.163 HD
BRANCH   4   7
ATOM      7  C   UNL     1      -2.016  -1.776  -5.746  1.00  0.00     0.138 C 
BRANCH   7   8
ATOM      8  C   UNL     1      -0.545  -1.453  -5.712  1.00  0.00    -0.002 A 
ATOM      9  C   UNL     1       0.933  -0.960  -2.211  1.00  0.00     0.119 A 
ATOM     10  C   UNL     1       2.197  -0.561  -2.640  1.00  0.00     0.048 A 
ATOM     11  C   UNL     1      -0.042  -1.332  -3.141  1.00  0.00     0.057 A 
ATOM     12  C   UNL     1       2.507  -0.499  -4.005  1.00  0.00     0.030 A 
ATOM     13  C   UNL     1       0.234  -1.251  -4.522  1.00  0.00     0.008 A 
ATOM     14  C   UNL     1       1.504  -0.847  -4.918  1.00  0.00     0.046 A 
ATOM     15  N   UNL     1       1.519  -0.860  -6.292  1.00  0.00    -0.352 N 
ATOM     16  C   UNL     1       0.319  -1.317  -6.800  1.00  0.00     0.093 A 
ATOM     17  H   UNL     1       2.285  -0.579  -6.843  1.00  0.00     0.167 HD
BRANCH   9  18
ATOM     18  O   UNL     1       0.563  -1.063  -0.896  1.00  0.00    -0.497 OA
ATOM     19  C   UNL     1       1.030   0.001  -0.071  1.00  0.00     0.278 C 
ENDBRANCH   9  18
BRANCH  16  20
ATOM     20  C   UNL     1       0.040  -1.567  -8.211  1.00  0.00     0.227 C 
ATOM     21  O   UNL     1      -1.021  -2.040  -8.614  1.00  0.00    -0.285 OA
BRANCH  20  22
ATOM     22  C   UNL     1       1.111  -1.330  -9.214  1.00  0.00     0.113 A 
ATOM     23  C   UNL     1       2.246  -2.136  -9.210  1.00  0.00     0.036 A 
ATOM     24  N   UNL     1       0.893  -0.334 -10.105  1.00  0.00    -0.253 NA
ATOM     25  C   UNL     1       3.224  -1.908 -10.179  1.00  0.00    -0.047 A 
ATOM     26  C   UNL     1       1.838  -0.153 -11.050  1.00  0.00     0.112 A 
ATOM     27  C   UNL     1       4.473  -2.734 -10.233  1.00  0.00     0.044 C 
ATOM     28  C   UNL     1       3.004  -0.901 -11.124  1.00  0.00     0.023 A 
ENDBRANCH  20  22
ENDBRANCH  16  20
ENDBRANCH   7   8
ENDBRANCH   4   7
ENDBRANCH   2   3
ENDBRANCH   1   2
BRANCH   1  29
ATOM     29  C   UNL     1      -1.452   3.360  -5.963  1.00  0.00     0.023 C 
BRANCH  29  30
ATOM     30  C   UNL     1      -2.438   4.265  -5.230  1.00  0.00     0.116 C 
BRANCH  30  31
ATOM     31  N   UNL     1      -1.975   4.672  -3.910  1.00  0.00    -0.352 N 
ATOM     32  C   UNL     1      -2.037   5.912  -3.319  1.00  0.00     0.251 C 
ATOM     33  H   UNL     1      -1.562   3.962  -3.367  1.00  0.00     0.163 HD
ATOM     34  O   UNL     1      -1.496   6.106  -2.232  1.00  0.00    -0.269 OA
BRANCH  32  35
ATOM     35  C   UNL     1      -2.717   7.021  -4.021  1.00  0.00     0.039 A 
ATOM     36  C   UNL     1      -2.038   8.232  -4.185  1.00  0.00     0.014 A 
ATOM     37  C   UNL     1      -3.993   6.848  -4.563  1.00  0.00     0.014 A 
ATOM     38  C   UNL     1      -2.598   9.234  -4.981  1.00  0.00     0.010 A 
ATOM     39  C   UNL     1      -4.522   7.824  -5.404  1.00  0.00     0.010 A 
ATOM     40  C   UNL     1      -3.818   9.015  -5.642  1.00  0.00    -0.014 A 
BRANCH  40  41
ATOM     41  C   UNL     1      -4.338   9.980  -6.644  1.00  0.00     0.031 A 
ATOM     42  C   UNL     1      -5.635  10.701  -6.410  1.00  0.00     0.074 A 
ATOM     43  C   UNL     1      -3.682  10.132  -7.812  1.00  0.00     0.049 A 
ATOM     44  N   UNL     1      -6.287  11.502  -7.214  1.00  0.00    -0.248 NA
ATOM     45  C   UNL     1      -6.295  10.479  -5.114  1.00  0.00     0.031 C 
ATOM     46  C   UNL     1      -2.431   9.460  -8.175  1.00  0.00     0.029 A 
ATOM     47  N   UNL     1      -3.983  10.886  -8.919  1.00  0.00    -0.354 N 
ATOM     48  C   UNL     1      -7.438  11.871  -6.529  1.00  0.00     0.074 A 
ATOM     49  C   UNL     1      -7.414  11.175  -5.260  1.00  0.00     0.031 C 
ATOM     50  C   UNL     1      -2.065   9.844  -9.408  1.00  0.00     0.029 A 
ATOM     51  C   UNL     1      -3.076  10.749  -9.945  1.00  0.00     0.049 A 
ATOM     52  H   UNL     1      -4.773  11.471  -8.974  1.00  0.00     0.167 HD
ATOM     53  C   UNL     1      -8.419  12.721  -6.917  1.00  0.00     0.031 A 
ATOM     54  C   UNL     1      -3.067  11.271 -11.187  1.00  0.00     0.031 A 
ATOM     55  C   UNL     1      -8.440  13.407  -8.182  1.00  0.00     0.049 A 
ATOM     56  C   UNL     1      -4.192  12.173 -11.612  1.00  0.00     0.074 A 
ATOM     57  C   UNL     1      -9.358  14.336  -8.641  1.00  0.00     0.029 A 
ATOM     58  N   UNL     1      -7.511  13.230  -9.197  1.00  0.00    -0.354 N 
ATOM     59  N   UNL     1      -5.233  12.571 -10.921  1.00  0.00    -0.248 NA
ATOM     60  C   UNL     1      -4.143  12.695 -12.985  1.00  0.00     0.031 C 
ATOM     61  C   UNL     1      -9.018  14.676  -9.954  1.00  0.00     0.029 A 
ATOM     62  C   UNL     1      -7.856  14.001 -10.294  1.00  0.00     0.049 A 
ATOM     63  H   UNL     1      -6.723  12.642  -9.145  1.00  0.00     0.167 HD
ATOM     64  C   UNL     1      -5.957  13.398 -11.771  1.00  0.00     0.074 A 
ATOM     65  C   UNL     1      -5.226  13.461 -13.020  1.00  0.00     0.031 C 
ATOM     66  C   UNL     1      -7.125  14.045 -11.537  1.00  0.00     0.031 A 
BRANCH  53  67
ATOM     67  C   UNL     1      -9.561  12.947  -5.963  1.00  0.00    -0.014 A 
ATOM     68  C   UNL     1      -9.379  13.674  -4.773  1.00  0.00     0.010 A 
ATOM     69  C   UNL     1     -10.844  12.463  -6.280  1.00  0.00     0.010 A 
ATOM     70  C   UNL     1     -10.448  13.876  -3.896  1.00  0.00     0.020 A 
ATOM     71  C   UNL     1     -11.922  12.686  -5.418  1.00  0.00     0.020 A 
ATOM     72  C   UNL     1     -11.713  13.376  -4.222  1.00  0.00     0.054 A 
BRANCH  72  73
ATOM     73  S   UNL     1     -13.085  13.666  -3.071  1.00  0.00     0.124 S 
ATOM     74  O   UNL     1     -12.760  12.750  -1.980  1.00  0.00    -0.237 OA
ATOM     75  O   UNL     1     -12.947  15.086  -2.760  1.00  0.00    -0.237 OA
ATOM     76  O   UNL     1     -14.270  13.314  -3.848  1.00  0.00    -0.744 OA
ENDBRANCH  72  73
ENDBRANCH  53  67
BRANCH  54  77
ATOM     77  C   UNL     1      -1.954  10.943 -12.120  1.00  0.00    -0.014 A 
ATOM     78  C   UNL     1      -0.997  11.915 -12.455  1.00  0.00     0.010 A 
ATOM     79  C   UNL     1      -1.831   9.648 -12.656  1.00  0.00     0.010 A 
ATOM     80  C   UNL     1       0.060  11.601 -13.315  1.00  0.00     0.020 A 
ATOM     81  C   UNL     1      -0.762   9.323 -13.495  1.00  0.00     0.020 A 
ATOM     82  C   UNL     1       0.174  10.305 -13.826  1.00  0.00     0.054 A 
BRANCH  82  83
ATOM     83  S   UNL     1       1.592   9.902 -14.884  1.00  0.00     0.124 S 
ATOM     84  O   UNL     1       1.237  10.564 -16.134  1.00  0.00    -0.237 OA
ATOM     85  O   UNL     1       2.710  10.490 -14.151  1.00  0.00    -0.237 OA
ATOM     86  O   UNL     1       1.585   8.441 -14.923  1.00  0.00    -0.744 OA
ENDBRANCH  82  83
ENDBRANCH  54  77
BRANCH  66  87
ATOM     87  C   UNL     1      -7.691  14.883 -12.652  1.00  0.00    -0.014 A 
ATOM     88  C   UNL     1      -8.298  14.282 -13.769  1.00  0.00     0.010 A 
ATOM     89  C   UNL     1      -7.684  16.285 -12.545  1.00  0.00     0.010 A 
ATOM     90  C   UNL     1      -8.876  15.070 -14.767  1.00  0.00     0.020 A 
ATOM     91  C   UNL     1      -8.284  17.076 -13.530  1.00  0.00     0.020 A 
ATOM     92  C   UNL     1      -8.870  16.462 -14.639  1.00  0.00     0.054 A 
BRANCH  92  93
ATOM     93  S   UNL     1      -9.690  17.459 -15.914  1.00  0.00     0.124 S 
ATOM     94  O   UNL     1      -8.759  17.346 -17.034  1.00  0.00    -0.237 OA
ATOM     95  O   UNL     1     -10.967  16.771 -16.086  1.00  0.00    -0.237 OA
ATOM     96  O   UNL     1      -9.780  18.787 -15.311  1.00  0.00    -0.744 OA
ENDBRANCH  92  93
ENDBRANCH  66  87
ENDBRANCH  40  41
ENDBRANCH  32  35
ENDBRANCH  30  31
ENDBRANCH  29  30
ENDBRANCH   1  29
TORSDOF 18
