REMARK SMILES CC[C@@H](C)[C@@H](NC(=O)Cn1nc(-c2ccc3ccccc3c2)ccc1=O)C(=O)NCCCCNC(=O)c1ccc(-c2c3nc(c(-c4ccc(S(=O)(=O)[O-])cc4)c4ccc([nH]4)c(-c4ccc(S(=O)(=O)[O-])cc4)c4nc(c(-c5ccc(S(=O)(=O)[O-])cc5)c5ccc2[nH]5)C=C4)C=C3)cc1
REMARK SMILES IDX 31 1 30 2 29 3 27 4 28 5 5 7 3 8 4 9 2 10 1 11 6 12 7 13
REMARK SMILES IDX 8 15 9 16 10 17 11 18 25 19 12 20 24 21 26 22 23 23 13 24
REMARK SMILES IDX 14 25 22 26 15 27 21 28 16 29 20 30 17 31 19 32 18 33 32 34
REMARK SMILES IDX 33 35 34 36 35 37 36 39 37 40 38 41 96 42 39 43 95 44 40 45
REMARK SMILES IDX 41 46 42 47 89 48 43 49 94 50 88 51 90 52 44 53 93 54 87 55
REMARK SMILES IDX 86 56 45 58 75 59 56 60 74 61 57 62 60 63 73 64 91 65 58 66
REMARK SMILES IDX 59 67 72 69 92 70 61 71 46 72 47 73 55 74 48 75 54 76 49 77
REMARK SMILES IDX 50 78 51 79 52 80 53 81 76 82 77 83 85 84 78 85 84 86 79 87
REMARK SMILES IDX 80 88 81 89 82 90 83 91 62 92 63 93 71 94 64 95 70 96 65 97
REMARK SMILES IDX 66 98 67 99 68 100 69 101
REMARK H PARENT 29 6 6 14 34 38 90 57 60 68
REMARK Flexibility Score: inf
ROOT
ATOM      1  C   UNL     1       4.806  -3.174  -2.845  1.00  0.00     0.023 C 
ENDROOT
BRANCH   1   2
ATOM      2  C   UNL     1       3.575  -2.182  -2.772  1.00  0.00     0.116 C 
BRANCH   2   3
ATOM      3  N   UNL     1       2.550  -2.185  -3.802  1.00  0.00    -0.354 N 
ATOM      4  C   UNL     1       1.468  -1.369  -4.049  1.00  0.00     0.242 C 
ATOM      5  O   UNL     1       0.887  -1.596  -5.122  1.00  0.00    -0.273 OA
ATOM      6  H   UNL     1       2.648  -2.916  -4.454  1.00  0.00     0.163 HD
BRANCH   4   7
ATOM      7  C   UNL     1       0.901  -0.188  -3.147  1.00  0.00     0.174 C 
BRANCH   7   8
ATOM      8  C   UNL     1       0.751  -0.554  -1.637  1.00  0.00     0.018 C 
ATOM      9  C   UNL     1      -0.090  -1.829  -1.473  1.00  0.00     0.010 C 
BRANCH   8  10
ATOM     10  C   UNL     1       0.088   0.564  -0.771  1.00  0.00     0.002 C 
ATOM     11  C   UNL     1       0.474   0.454   0.701  1.00  0.00     0.004 C 
ENDBRANCH   8  10
ENDBRANCH   7   8
BRANCH   7  12
ATOM     12  N   UNL     1       1.473   1.166  -3.288  1.00  0.00    -0.342 N 
ATOM     13  C   UNL     1       1.285   2.090  -4.293  1.00  0.00     0.242 C 
ATOM     14  H   UNL     1       2.073   1.449  -2.561  1.00  0.00     0.164 HD
ATOM     15  O   UNL     1       1.033   3.255  -3.971  1.00  0.00    -0.273 OA
BRANCH  13  16
ATOM     16  C   UNL     1       1.473   1.690  -5.747  1.00  0.00     0.248 C 
BRANCH  16  17
ATOM     17  N   UNL     1       2.798   1.114  -5.876  1.00  0.00    -0.220 N 
ATOM     18  N   UNL     1       3.716   1.411  -4.868  1.00  0.00    -0.169 NA
ATOM     19  C   UNL     1       2.986   0.168  -6.868  1.00  0.00     0.267 A 
ATOM     20  C   UNL     1       4.575   0.493  -4.551  1.00  0.00     0.091 A 
ATOM     21  C   UNL     1       3.951  -0.872  -6.514  1.00  0.00     0.075 A 
ATOM     22  O   UNL     1       2.308   0.047  -7.884  1.00  0.00    -0.268 OA
ATOM     23  C   UNL     1       4.587  -0.754  -5.348  1.00  0.00     0.036 A 
BRANCH  20  24
ATOM     24  C   UNL     1       5.524   0.720  -3.352  1.00  0.00     0.003 A 
ATOM     25  C   UNL     1       5.538   1.958  -2.721  1.00  0.00     0.011 A 
ATOM     26  C   UNL     1       6.442  -0.209  -2.839  1.00  0.00     0.019 A 
ATOM     27  C   UNL     1       6.543   2.284  -1.785  1.00  0.00     0.009 A 
ATOM     28  C   UNL     1       7.586   0.143  -2.093  1.00  0.00    -0.018 A 
ATOM     29  C   UNL     1       7.630   1.421  -1.538  1.00  0.00    -0.018 A 
ATOM     30  C   UNL     1       8.704  -0.719  -1.966  1.00  0.00     0.009 A 
ATOM     31  C   UNL     1       8.771   1.792  -0.798  1.00  0.00     0.009 A 
ATOM     32  C   UNL     1       9.863  -0.301  -1.313  1.00  0.00     0.001 A 
ATOM     33  C   UNL     1       9.886   0.949  -0.708  1.00  0.00     0.001 A 
ENDBRANCH  20  24
ENDBRANCH  16  17
ENDBRANCH  13  16
ENDBRANCH   7  12
ENDBRANCH   4   7
ENDBRANCH   2   3
ENDBRANCH   1   2
BRANCH   1  34
ATOM     34  C   UNL     1       5.854  -3.675  -3.941  1.00  0.00     0.023 C 
BRANCH  34  35
ATOM     35  C   UNL     1       6.794  -3.056  -5.074  1.00  0.00     0.116 C 
BRANCH  35  36
ATOM     36  N   UNL     1       7.349  -1.695  -4.991  1.00  0.00    -0.352 N 
ATOM     37  C   UNL     1       8.424  -1.046  -5.545  1.00  0.00     0.251 C 
ATOM     38  H   UNL     1       6.825  -1.112  -4.396  1.00  0.00     0.163 HD
ATOM     39  O   UNL     1       8.629   0.137  -5.389  1.00  0.00    -0.269 OA
BRANCH  37  40
ATOM     40  C   UNL     1       9.152  -1.807  -6.521  1.00  0.00     0.039 A 
ATOM     41  C   UNL     1       8.455  -1.968  -7.716  1.00  0.00     0.014 A 
ATOM     42  C   UNL     1      10.198  -2.612  -6.084  1.00  0.00     0.014 A 
ATOM     43  C   UNL     1       8.681  -3.122  -8.407  1.00  0.00     0.010 A 
ATOM     44  C   UNL     1      10.492  -3.719  -6.845  1.00  0.00     0.010 A 
ATOM     45  C   UNL     1       9.686  -3.997  -7.959  1.00  0.00    -0.014 A 
BRANCH  45  46
ATOM     46  C   UNL     1       9.891  -5.217  -8.728  1.00  0.00     0.031 A 
ATOM     47  C   UNL     1       9.454  -6.527  -8.173  1.00  0.00     0.074 A 
ATOM     48  C   UNL     1      10.378  -5.037  -9.964  1.00  0.00     0.049 A 
ATOM     49  N   UNL     1       9.486  -7.694  -8.748  1.00  0.00    -0.248 NA
ATOM     50  C   UNL     1       8.912  -6.545  -6.801  1.00  0.00     0.031 C 
ATOM     51  C   UNL     1      10.751  -3.730 -10.524  1.00  0.00     0.029 A 
ATOM     52  N   UNL     1      10.576  -5.912 -10.984  1.00  0.00    -0.354 N 
ATOM     53  C   UNL     1       9.010  -8.591  -7.803  1.00  0.00     0.074 A 
ATOM     54  C   UNL     1       8.686  -7.840  -6.614  1.00  0.00     0.031 C 
ATOM     55  C   UNL     1      11.037  -3.880 -11.820  1.00  0.00     0.029 A 
ATOM     56  C   UNL     1      10.972  -5.297 -12.145  1.00  0.00     0.049 A 
ATOM     57  H   UNL     1      10.448  -6.884 -10.900  1.00  0.00     0.167 HD
ATOM     58  C   UNL     1       8.886  -9.928  -7.944  1.00  0.00     0.031 A 
ATOM     59  C   UNL     1      11.268  -5.833 -13.339  1.00  0.00     0.031 A 
ATOM     60  C   UNL     1       9.233 -10.604  -9.167  1.00  0.00     0.049 A 
ATOM     61  C   UNL     1      11.143  -7.316 -13.459  1.00  0.00     0.074 A 
ATOM     62  C   UNL     1       9.156 -11.951  -9.455  1.00  0.00     0.029 A 
ATOM     63  N   UNL     1       9.727  -9.971 -10.305  1.00  0.00    -0.354 N 
ATOM     64  N   UNL     1      10.707  -8.167 -12.557  1.00  0.00    -0.248 NA
ATOM     65  C   UNL     1      11.564  -7.922 -14.721  1.00  0.00     0.031 C 
ATOM     66  C   UNL     1       9.668 -12.141 -10.741  1.00  0.00     0.029 A 
ATOM     67  C   UNL     1       9.998 -10.906 -11.285  1.00  0.00     0.049 A 
ATOM     68  H   UNL     1       9.864  -9.001 -10.397  1.00  0.00     0.167 HD
ATOM     69  C   UNL     1      10.816  -9.420 -13.134  1.00  0.00     0.074 A 
ATOM     70  C   UNL     1      11.332  -9.208 -14.477  1.00  0.00     0.031 C 
ATOM     71  C   UNL     1      10.529 -10.633 -12.602  1.00  0.00     0.031 A 
BRANCH  58  72
ATOM     72  C   UNL     1       8.427 -10.740  -6.764  1.00  0.00    -0.014 A 
ATOM     73  C   UNL     1       9.332 -11.618  -6.139  1.00  0.00     0.010 A 
ATOM     74  C   UNL     1       7.096 -10.700  -6.310  1.00  0.00     0.010 A 
ATOM     75  C   UNL     1       8.916 -12.456  -5.101  1.00  0.00     0.020 A 
ATOM     76  C   UNL     1       6.681 -11.521  -5.254  1.00  0.00     0.020 A 
ATOM     77  C   UNL     1       7.589 -12.407  -4.669  1.00  0.00     0.054 A 
BRANCH  77  78
ATOM     78  S   UNL     1       7.066 -13.500  -3.318  1.00  0.00     0.124 S 
ATOM     79  O   UNL     1       6.912 -14.781  -3.998  1.00  0.00    -0.237 OA
ATOM     80  O   UNL     1       8.183 -13.410  -2.381  1.00  0.00    -0.237 OA
ATOM     81  O   UNL     1       5.825 -12.886  -2.849  1.00  0.00    -0.744 OA
ENDBRANCH  77  78
ENDBRANCH  58  72
BRANCH  59  82
ATOM     82  C   UNL     1      11.686  -4.915 -14.429  1.00  0.00    -0.014 A 
ATOM     83  C   UNL     1      12.886  -4.184 -14.303  1.00  0.00     0.010 A 
ATOM     84  C   UNL     1      10.782  -4.575 -15.447  1.00  0.00     0.010 A 
ATOM     85  C   UNL     1      13.125  -3.067 -15.107  1.00  0.00     0.020 A 
ATOM     86  C   UNL     1      11.035  -3.477 -16.277  1.00  0.00     0.020 A 
ATOM     87  C   UNL     1      12.183  -2.705 -16.071  1.00  0.00     0.054 A 
BRANCH  87  88
ATOM     88  S   UNL     1      12.447  -1.177 -17.013  1.00  0.00     0.124 S 
ATOM     89  O   UNL     1      12.070  -0.157 -16.039  1.00  0.00    -0.237 OA
ATOM     90  O   UNL     1      13.869  -1.243 -17.338  1.00  0.00    -0.237 OA
ATOM     91  O   UNL     1      11.543  -1.320 -18.152  1.00  0.00    -0.744 OA
ENDBRANCH  87  88
ENDBRANCH  59  82
BRANCH  71  92
ATOM     92  C   UNL     1      10.796 -11.832 -13.460  1.00  0.00    -0.014 A 
ATOM     93  C   UNL     1       9.716 -12.571 -13.972  1.00  0.00     0.010 A 
ATOM     94  C   UNL     1      12.107 -12.315 -13.606  1.00  0.00     0.010 A 
ATOM     95  C   UNL     1       9.938 -13.811 -14.568  1.00  0.00     0.020 A 
ATOM     96  C   UNL     1      12.335 -13.542 -14.227  1.00  0.00     0.020 A 
ATOM     97  C   UNL     1      11.246 -14.295 -14.674  1.00  0.00     0.054 A 
BRANCH  97  98
ATOM     98  S   UNL     1      11.506 -15.943 -15.380  1.00  0.00     0.124 S 
ATOM     99  O   UNL     1      11.099 -16.813 -14.280  1.00  0.00    -0.237 OA
ATOM    100  O   UNL     1      10.621 -15.937 -16.541  1.00  0.00    -0.237 OA
ATOM    101  O   UNL     1      12.934 -15.958 -15.694  1.00  0.00    -0.744 OA
ENDBRANCH  97  98
ENDBRANCH  71  92
ENDBRANCH  45  46
ENDBRANCH  37  40
ENDBRANCH  35  36
ENDBRANCH  34  35
ENDBRANCH   1  34
TORSDOF 20
