REMARK SMILES CNc1nc(C(=O)N2C[C@@H](C(=O)NCCCCNC(=O)c3ccc(-c4c5nc(c(-c6ccc(S(=O)(=O)[O-])cc6)c6ccc([nH]6)c(-c6ccc(S(=O)(=O)[O-])cc6)c6nc(c(-c7ccc(S(=O)(=O)[O-])cc7)c7ccc4[nH]7)C=C6)C=C5)cc3)[C@H](c3ccccc3C)C2)cs1
REMARK SMILES IDX 15 1 14 2 13 3 11 4 12 5 10 7 8 8 9 9 89 10 81 11 6 12 7 13
REMARK SMILES IDX 5 14 3 15 4 16 91 17 90 18 2 19 1 20 82 22 83 23 87 24 84 25
REMARK SMILES IDX 86 26 88 27 85 28 16 29 17 30 18 31 19 32 20 34 21 35 22 36
REMARK SMILES IDX 80 37 23 38 79 39 24 40 25 41 26 42 73 43 27 44 78 45 72 46
REMARK SMILES IDX 74 47 28 48 77 49 71 50 70 51 29 53 59 54 40 55 58 56 41 57
REMARK SMILES IDX 44 58 57 59 75 60 42 61 43 62 56 64 76 65 45 66 30 67 31 68
REMARK SMILES IDX 39 69 32 70 38 71 33 72 34 73 35 74 36 75 37 76 60 77 61 78
REMARK SMILES IDX 69 79 62 80 68 81 63 82 64 83 65 84 66 85 67 86 46 87 47 88
REMARK SMILES IDX 55 89 48 90 54 91 49 92 50 93 51 94 52 95 53 96
REMARK H PARENT 13 6 2 21 18 33 74 52 44 63
REMARK Flexibility Score: inf
ROOT
ATOM      1  C   UNL     1      -1.389   3.370   0.905  1.00  0.00     0.023 C 
ENDROOT
BRANCH   1   2
ATOM      2  C   UNL     1      -2.041   2.499   1.974  1.00  0.00     0.116 C 
BRANCH   2   3
ATOM      3  N   UNL     1      -3.446   2.261   1.699  1.00  0.00    -0.356 N 
ATOM      4  C   UNL     1      -4.190   1.140   1.905  1.00  0.00     0.225 C 
ATOM      5  O   UNL     1      -5.402   1.198   1.692  1.00  0.00    -0.275 OA
ATOM      6  H   UNL     1      -3.931   3.021   1.304  1.00  0.00     0.163 HD
BRANCH   4   7
ATOM      7  C   UNL     1      -3.527  -0.129   2.373  1.00  0.00     0.107 C 
ATOM      8  N   UNL     1      -3.598  -2.420   2.176  1.00  0.00    -0.336 N 
ATOM      9  C   UNL     1      -3.887  -1.235   1.402  1.00  0.00     0.134 C 
ATOM     10  C   UNL     1      -4.021  -2.213   3.551  1.00  0.00     0.129 C 
ATOM     11  C   UNL     1      -4.055  -0.659   3.734  1.00  0.00     0.053 C 
BRANCH   8  12
ATOM     12  C   UNL     1      -2.876  -3.525   1.772  1.00  0.00     0.273 C 
ATOM     13  O   UNL     1      -2.956  -4.607   2.356  1.00  0.00    -0.267 OA
BRANCH  12  14
ATOM     14  C   UNL     1      -1.940  -3.328   0.657  1.00  0.00     0.141 A 
ATOM     15  C   UNL     1      -0.357  -2.228  -0.473  1.00  0.00     0.183 A 
ATOM     16  N   UNL     1      -1.206  -2.144   0.521  1.00  0.00    -0.215 NA
ATOM     17  S   UNL     1      -0.433  -3.703  -1.359  1.00  0.00    -0.105 S 
ATOM     18  C   UNL     1      -1.615  -4.298  -0.271  1.00  0.00     0.102 A 
BRANCH  15  19
ATOM     19  N   UNL     1       0.544  -1.283  -0.801  1.00  0.00    -0.365 N 
ATOM     20  C   UNL     1       0.723  -0.104   0.008  1.00  0.00     0.142 C 
ATOM     21  H   UNL     1       1.093  -1.399  -1.611  1.00  0.00     0.162 HD
ENDBRANCH  15  19
ENDBRANCH  12  14
ENDBRANCH   8  12
BRANCH  11  22
ATOM     22  C   UNL     1      -3.272  -0.045   4.898  1.00  0.00    -0.039 A 
ATOM     23  C   UNL     1      -2.176  -0.727   5.467  1.00  0.00     0.004 A 
ATOM     24  C   UNL     1      -3.576   1.244   5.410  1.00  0.00    -0.048 A 
ATOM     25  C   UNL     1      -1.422  -0.177   6.508  1.00  0.00     0.000 A 
ATOM     26  C   UNL     1      -2.772   1.800   6.428  1.00  0.00     0.004 A 
ATOM     27  C   UNL     1      -4.699   2.122   4.922  1.00  0.00     0.044 C 
ATOM     28  C   UNL     1      -1.712   1.093   6.982  1.00  0.00     0.000 A 
ENDBRANCH  11  22
ENDBRANCH   4   7
ENDBRANCH   2   3
ENDBRANCH   1   2
BRANCH   1  29
ATOM     29  C   UNL     1      -1.965   4.781   0.776  1.00  0.00     0.023 C 
BRANCH  29  30
ATOM     30  C   UNL     1      -1.983   5.595   2.067  1.00  0.00     0.116 C 
BRANCH  30  31
ATOM     31  N   UNL     1      -0.652   5.786   2.621  1.00  0.00    -0.352 N 
ATOM     32  C   UNL     1       0.030   6.952   2.876  1.00  0.00     0.251 C 
ATOM     33  H   UNL     1      -0.168   4.959   2.848  1.00  0.00     0.163 HD
ATOM     34  O   UNL     1       1.220   6.909   3.174  1.00  0.00    -0.269 OA
BRANCH  32  35
ATOM     35  C   UNL     1      -0.664   8.254   2.769  1.00  0.00     0.039 A 
ATOM     36  C   UNL     1      -0.036   9.302   2.091  1.00  0.00     0.014 A 
ATOM     37  C   UNL     1      -1.927   8.442   3.336  1.00  0.00     0.014 A 
ATOM     38  C   UNL     1      -0.707  10.516   1.920  1.00  0.00     0.010 A 
ATOM     39  C   UNL     1      -2.621   9.627   3.106  1.00  0.00     0.010 A 
ATOM     40  C   UNL     1      -2.019  10.676   2.394  1.00  0.00    -0.014 A 
BRANCH  40  41
ATOM     41  C   UNL     1      -2.783  11.927   2.147  1.00  0.00     0.031 A 
ATOM     42  C   UNL     1      -3.213  12.793   3.300  1.00  0.00     0.074 A 
ATOM     43  C   UNL     1      -3.151  12.246   0.890  1.00  0.00     0.049 A 
ATOM     44  N   UNL     1      -3.943  13.879   3.287  1.00  0.00    -0.248 NA
ATOM     45  C   UNL     1      -2.787  12.372   4.644  1.00  0.00     0.031 C 
ATOM     46  C   UNL     1      -2.834  11.469  -0.310  1.00  0.00     0.029 A 
ATOM     47  N   UNL     1      -3.883  13.305   0.414  1.00  0.00    -0.354 N 
ATOM     48  C   UNL     1      -4.080  14.260   4.616  1.00  0.00     0.074 A 
ATOM     49  C   UNL     1      -3.394  13.265   5.412  1.00  0.00     0.031 C 
ATOM     50  C   UNL     1      -3.348  12.089  -1.385  1.00  0.00     0.029 A 
ATOM     51  C   UNL     1      -4.064  13.284  -0.949  1.00  0.00     0.049 A 
ATOM     52  H   UNL     1      -4.245  14.014   0.994  1.00  0.00     0.167 HD
ATOM     53  C   UNL     1      -4.704  15.348   5.129  1.00  0.00     0.031 A 
ATOM     54  C   UNL     1      -4.736  14.125  -1.758  1.00  0.00     0.031 A 
ATOM     55  C   UNL     1      -5.374  16.344   4.336  1.00  0.00     0.049 A 
ATOM     56  C   UNL     1      -5.423  15.325  -1.166  1.00  0.00     0.074 A 
ATOM     57  C   UNL     1      -5.987  17.510   4.760  1.00  0.00     0.029 A 
ATOM     58  N   UNL     1      -5.520  16.293   2.958  1.00  0.00    -0.354 N 
ATOM     59  N   UNL     1      -5.489  15.699   0.089  1.00  0.00    -0.248 NA
ATOM     60  C   UNL     1      -6.117  16.221  -2.102  1.00  0.00     0.031 C 
ATOM     61  C   UNL     1      -6.543  18.143   3.642  1.00  0.00     0.029 A 
ATOM     62  C   UNL     1      -6.230  17.397   2.517  1.00  0.00     0.049 A 
ATOM     63  H   UNL     1      -5.170  15.578   2.379  1.00  0.00     0.167 HD
ATOM     64  C   UNL     1      -6.210  16.889   0.091  1.00  0.00     0.074 A 
ATOM     65  C   UNL     1      -6.546  17.177  -1.288  1.00  0.00     0.031 C 
ATOM     66  C   UNL     1      -6.558  17.672   1.141  1.00  0.00     0.031 A 
BRANCH  53  67
ATOM     67  C   UNL     1      -4.694  15.512   6.626  1.00  0.00    -0.014 A 
ATOM     68  C   UNL     1      -3.512  15.845   7.311  1.00  0.00     0.010 A 
ATOM     69  C   UNL     1      -5.889  15.366   7.354  1.00  0.00     0.010 A 
ATOM     70  C   UNL     1      -3.515  15.984   8.701  1.00  0.00     0.020 A 
ATOM     71  C   UNL     1      -5.902  15.532   8.742  1.00  0.00     0.020 A 
ATOM     72  C   UNL     1      -4.709  15.821   9.409  1.00  0.00     0.054 A 
BRANCH  72  73
ATOM     73  S   UNL     1      -4.687  16.022  11.211  1.00  0.00     0.124 S 
ATOM     74  O   UNL     1      -4.040  14.786  11.642  1.00  0.00    -0.237 OA
ATOM     75  O   UNL     1      -3.899  17.239  11.390  1.00  0.00    -0.237 OA
ATOM     76  O   UNL     1      -6.100  16.141  11.564  1.00  0.00    -0.744 OA
ENDBRANCH  72  73
ENDBRANCH  53  67
BRANCH  54  77
ATOM     77  C   UNL     1      -4.776  13.870  -3.224  1.00  0.00    -0.014 A 
ATOM     78  C   UNL     1      -4.048  14.685  -4.108  1.00  0.00     0.010 A 
ATOM     79  C   UNL     1      -5.530  12.800  -3.741  1.00  0.00     0.010 A 
ATOM     80  C   UNL     1      -4.085  14.445  -5.485  1.00  0.00     0.020 A 
ATOM     81  C   UNL     1      -5.548  12.542  -5.114  1.00  0.00     0.020 A 
ATOM     82  C   UNL     1      -4.833  13.373  -5.979  1.00  0.00     0.054 A 
BRANCH  82  83
ATOM     83  S   UNL     1      -4.821  13.045  -7.764  1.00  0.00     0.124 S 
ATOM     84  O   UNL     1      -5.690  14.101  -8.272  1.00  0.00    -0.237 OA
ATOM     85  O   UNL     1      -3.405  13.173  -8.099  1.00  0.00    -0.237 OA
ATOM     86  O   UNL     1      -5.355  11.688  -7.864  1.00  0.00    -0.744 OA
ENDBRANCH  82  83
ENDBRANCH  54  77
BRANCH  66  87
ATOM     87  C   UNL     1      -7.317  18.936   0.840  1.00  0.00    -0.014 A 
ATOM     88  C   UNL     1      -8.671  18.902   0.462  1.00  0.00     0.010 A 
ATOM     89  C   UNL     1      -6.678  20.180   0.993  1.00  0.00     0.010 A 
ATOM     90  C   UNL     1      -9.364  20.089   0.214  1.00  0.00     0.020 A 
ATOM     91  C   UNL     1      -7.375  21.370   0.770  1.00  0.00     0.020 A 
ATOM     92  C   UNL     1      -8.712  21.316   0.369  1.00  0.00     0.054 A 
BRANCH  92  93
ATOM     93  S   UNL     1      -9.645  22.846   0.086  1.00  0.00     0.124 S 
ATOM     94  O   UNL     1      -9.730  22.884  -1.371  1.00  0.00    -0.237 OA
ATOM     95  O   UNL     1     -10.904  22.588   0.782  1.00  0.00    -0.237 OA
ATOM     96  O   UNL     1      -8.807  23.879   0.690  1.00  0.00    -0.744 OA
ENDBRANCH  92  93
ENDBRANCH  66  87
ENDBRANCH  40  41
ENDBRANCH  32  35
ENDBRANCH  30  31
ENDBRANCH  29  30
ENDBRANCH   1  29
TORSDOF 18
