REMARK SMILES C[N@H+]1[C@H]2CC[C@@H]1c1sc(=O)n(CCCC(=O)NCCCCNC(=O)c3ccc(-c4c5nc(c(-c6ccc(S(=O)(=O)[O-])cc6)c6ccc([nH]6)c(-c6ccc(S(=O)(=O)[O-])cc6)c6nc(c(-c7ccc(S(=O)(=O)[O-])cc7)c7ccc4[nH]7)C=C6)C=C5)cc3)c1C2
REMARK SMILES IDX 19 1 18 2 17 3 15 4 16 5 14 7 13 8 12 9 11 10 1 11 2 12 3 13
REMARK SMILES IDX 6 14 4 16 86 17 5 18 7 19 85 20 8 21 9 22 10 23 20 24 21 25
REMARK SMILES IDX 22 26 23 27 24 29 25 30 26 31 84 32 27 33 83 34 28 35 29 36
REMARK SMILES IDX 30 37 77 38 31 39 82 40 76 41 78 42 32 43 81 44 75 45 74 46
REMARK SMILES IDX 33 48 63 49 44 50 62 51 45 52 48 53 61 54 79 55 46 56 47 57
REMARK SMILES IDX 60 59 80 60 49 61 34 62 35 63 43 64 36 65 42 66 37 67 38 68
REMARK SMILES IDX 39 69 40 70 41 71 64 72 65 73 73 74 66 75 72 76 67 77 68 78
REMARK SMILES IDX 69 79 70 80 71 81 50 82 51 83 59 84 52 85 58 86 53 87 54 88
REMARK SMILES IDX 55 89 56 90 57 91
REMARK H PARENT 17 6 2 15 22 28 78 47 48 58
REMARK Flexibility Score: inf
ROOT
ATOM      1  C   UNL     1       2.502   6.004   2.220  1.00  0.00     0.023 C 
ENDROOT
BRANCH   1   2
ATOM      2  C   UNL     1       2.855   6.345   3.677  1.00  0.00     0.116 C 
BRANCH   2   3
ATOM      3  N   UNL     1       2.356   7.655   4.040  1.00  0.00    -0.356 N 
ATOM      4  C   UNL     1       1.352   8.043   4.869  1.00  0.00     0.220 C 
ATOM      5  O   UNL     1       1.106   9.252   4.923  1.00  0.00    -0.275 OA
ATOM      6  H   UNL     1       2.832   8.401   3.607  1.00  0.00     0.163 HD
BRANCH   4   7
ATOM      7  C   UNL     1       0.606   7.075   5.769  1.00  0.00     0.102 C 
BRANCH   7   8
ATOM      8  C   UNL     1      -0.488   6.169   5.202  1.00  0.00     0.032 C 
BRANCH   8   9
ATOM      9  C   UNL     1      -0.184   4.976   4.296  1.00  0.00     0.127 C 
BRANCH   9  10
ATOM     10  N   UNL     1       0.605   3.816   4.726  1.00  0.00    -0.302 N 
ATOM     11  C   UNL     1       2.241  -0.057   1.125  1.00  0.00     0.333 C 
ATOM     12  N   UNL     1       1.696   0.934   2.045  1.00  0.00    -0.328 N 
ATOM     13  C   UNL     1       0.233   1.114   1.946  1.00  0.00     0.190 C 
ATOM     14  C   UNL     1       1.875   0.560   3.477  1.00  0.00     0.227 C 
ATOM     15  H   UNL     1       2.210   1.772   1.774  1.00  0.00     0.348 HD
ATOM     16  C   UNL     1      -0.319  -0.110   2.688  1.00  0.00     0.072 C 
ATOM     17  C   UNL     1      -0.125   2.465   2.654  1.00  0.00     0.120 C 
ATOM     18  C   UNL     1       0.720  -0.413   3.772  1.00  0.00     0.077 C 
ATOM     19  C   UNL     1       1.622   1.805   4.276  1.00  0.00     0.087 A 
ATOM     20  C   UNL     1       0.705   2.704   3.894  1.00  0.00     0.047 A 
ATOM     21  S   UNL     1       2.408   2.248   5.736  1.00  0.00    -0.073 S 
ATOM     22  C   UNL     1       1.421   3.723   5.850  1.00  0.00     0.307 A 
ATOM     23  O   UNL     1       1.525   4.480   6.805  1.00  0.00    -0.257 OA
ENDBRANCH   9  10
ENDBRANCH   8   9
ENDBRANCH   7   8
ENDBRANCH   4   7
ENDBRANCH   2   3
ENDBRANCH   1   2
BRANCH   1  24
ATOM     24  C   UNL     1       3.423   6.613   1.156  1.00  0.00     0.023 C 
BRANCH  24  25
ATOM     25  C   UNL     1       4.830   6.032   1.136  1.00  0.00     0.116 C 
BRANCH  25  26
ATOM     26  N   UNL     1       4.877   4.636   0.703  1.00  0.00    -0.352 N 
ATOM     27  C   UNL     1       5.996   3.822   0.679  1.00  0.00     0.251 C 
ATOM     28  H   UNL     1       4.030   4.237   0.399  1.00  0.00     0.163 HD
ATOM     29  O   UNL     1       6.068   2.857  -0.071  1.00  0.00    -0.269 OA
BRANCH  27  30
ATOM     30  C   UNL     1       7.095   4.147   1.604  1.00  0.00     0.039 A 
ATOM     31  C   UNL     1       8.419   4.232   1.170  1.00  0.00     0.014 A 
ATOM     32  C   UNL     1       6.745   4.455   2.919  1.00  0.00     0.014 A 
ATOM     33  C   UNL     1       9.378   4.729   2.051  1.00  0.00     0.010 A 
ATOM     34  C   UNL     1       7.665   5.058   3.742  1.00  0.00     0.010 A 
ATOM     35  C   UNL     1       8.990   5.176   3.329  1.00  0.00    -0.014 A 
BRANCH  35  36
ATOM     36  C   UNL     1       9.909   5.973   4.148  1.00  0.00     0.031 A 
ATOM     37  C   UNL     1      10.463   7.144   3.411  1.00  0.00     0.074 A 
ATOM     38  C   UNL     1      10.049   5.825   5.487  1.00  0.00     0.049 A 
ATOM     39  N   UNL     1      11.650   7.270   2.916  1.00  0.00    -0.248 NA
ATOM     40  C   UNL     1       9.535   8.211   2.983  1.00  0.00     0.031 C 
ATOM     41  C   UNL     1       9.299   4.907   6.355  1.00  0.00     0.029 A 
ATOM     42  N   UNL     1      10.790   6.536   6.389  1.00  0.00    -0.354 N 
ATOM     43  C   UNL     1      11.702   8.569   2.418  1.00  0.00     0.074 A 
ATOM     44  C   UNL     1      10.335   8.979   2.237  1.00  0.00     0.031 C 
ATOM     45  C   UNL     1       9.420   5.292   7.644  1.00  0.00     0.029 A 
ATOM     46  C   UNL     1      10.398   6.361   7.719  1.00  0.00     0.049 A 
ATOM     47  H   UNL     1      11.537   7.121   6.124  1.00  0.00     0.167 HD
ATOM     48  C   UNL     1      12.821   9.326   2.603  1.00  0.00     0.031 A 
ATOM     49  C   UNL     1      10.837   7.039   8.812  1.00  0.00     0.031 A 
ATOM     50  C   UNL     1      13.914   8.510   3.067  1.00  0.00     0.049 A 
ATOM     51  C   UNL     1      12.157   7.606   8.464  1.00  0.00     0.074 A 
ATOM     52  C   UNL     1      14.738   7.527   2.568  1.00  0.00     0.029 A 
ATOM     53  N   UNL     1      13.970   8.441   4.435  1.00  0.00    -0.354 N 
ATOM     54  N   UNL     1      13.202   6.867   8.215  1.00  0.00    -0.248 NA
ATOM     55  C   UNL     1      12.243   8.989   8.014  1.00  0.00     0.031 C 
ATOM     56  C   UNL     1      15.159   6.759   3.696  1.00  0.00     0.029 A 
ATOM     57  C   UNL     1      14.637   7.331   4.857  1.00  0.00     0.049 A 
ATOM     58  H   UNL     1      13.575   9.112   5.038  1.00  0.00     0.167 HD
ATOM     59  C   UNL     1      13.861   7.543   7.207  1.00  0.00     0.074 A 
ATOM     60  C   UNL     1      13.335   8.903   7.249  1.00  0.00     0.031 C 
ATOM     61  C   UNL     1      14.513   6.861   6.221  1.00  0.00     0.031 A 
BRANCH  48  62
ATOM     62  C   UNL     1      12.793  10.804   2.976  1.00  0.00    -0.014 A 
ATOM     63  C   UNL     1      14.025  11.450   3.224  1.00  0.00     0.010 A 
ATOM     64  C   UNL     1      11.632  11.473   3.414  1.00  0.00     0.010 A 
ATOM     65  C   UNL     1      14.092  12.657   3.936  1.00  0.00     0.020 A 
ATOM     66  C   UNL     1      11.684  12.693   4.094  1.00  0.00     0.020 A 
ATOM     67  C   UNL     1      12.917  13.265   4.375  1.00  0.00     0.054 A 
BRANCH  67  68
ATOM     68  S   UNL     1      13.012  14.782   5.357  1.00  0.00     0.124 S 
ATOM     69  O   UNL     1      13.666  14.311   6.573  1.00  0.00    -0.237 OA
ATOM     70  O   UNL     1      13.811  15.651   4.498  1.00  0.00    -0.237 OA
ATOM     71  O   UNL     1      11.613  15.177   5.505  1.00  0.00    -0.744 OA
ENDBRANCH  67  68
ENDBRANCH  48  62
BRANCH  49  72
ATOM     72  C   UNL     1      10.118   7.412  10.060  1.00  0.00    -0.014 A 
ATOM     73  C   UNL     1      10.813   7.872  11.198  1.00  0.00     0.010 A 
ATOM     74  C   UNL     1       8.722   7.602  10.034  1.00  0.00     0.010 A 
ATOM     75  C   UNL     1      10.148   8.558  12.232  1.00  0.00     0.020 A 
ATOM     76  C   UNL     1       8.052   8.283  11.062  1.00  0.00     0.020 A 
ATOM     77  C   UNL     1       8.772   8.781  12.146  1.00  0.00     0.054 A 
BRANCH  77  78
ATOM     78  S   UNL     1       7.950   9.825  13.391  1.00  0.00     0.124 S 
ATOM     79  O   UNL     1       7.995   8.985  14.584  1.00  0.00    -0.237 OA
ATOM     80  O   UNL     1       8.798  11.013  13.425  1.00  0.00    -0.237 OA
ATOM     81  O   UNL     1       6.614  10.038  12.835  1.00  0.00    -0.744 OA
ENDBRANCH  77  78
ENDBRANCH  49  72
BRANCH  61  82
ATOM     82  C   UNL     1      15.040   5.491   6.532  1.00  0.00    -0.014 A 
ATOM     83  C   UNL     1      14.251   4.363   6.818  1.00  0.00     0.010 A 
ATOM     84  C   UNL     1      16.434   5.337   6.436  1.00  0.00     0.010 A 
ATOM     85  C   UNL     1      14.855   3.112   7.020  1.00  0.00     0.020 A 
ATOM     86  C   UNL     1      17.037   4.096   6.616  1.00  0.00     0.020 A 
ATOM     87  C   UNL     1      16.246   2.989   6.918  1.00  0.00     0.054 A 
BRANCH  87  88
ATOM     88  S   UNL     1      17.029   1.370   7.152  1.00  0.00     0.124 S 
ATOM     89  O   UNL     1      16.791   1.104   8.568  1.00  0.00    -0.237 OA
ATOM     90  O   UNL     1      16.296   0.518   6.219  1.00  0.00    -0.237 OA
ATOM     91  O   UNL     1      18.428   1.603   6.795  1.00  0.00    -0.744 OA
ENDBRANCH  87  88
ENDBRANCH  61  82
ENDBRANCH  35  36
ENDBRANCH  27  30
ENDBRANCH  25  26
ENDBRANCH  24  25
ENDBRANCH   1  24
TORSDOF 17
