REMARK SMILES CC(C)c1ccc([C@]2(C(=O)NCCCCNC(=O)c3ccc(-c4c5nc(c(-c6ccc(S(=O)(=O)[O-])cc6)c6ccc([nH]6)c(-c6ccc(S(=O)(=O)[O-])cc6)c6nc(c(-c7ccc(S(=O)(=O)[O-])cc7)c7ccc4[nH]7)C=C6)C=C5)cc3)CCC[C@@H]2C)cc1
REMARK SMILES IDX 14 1 13 2 12 3 11 4 9 5 10 6 8 8 79 9 82 10 80 11 81 12
REMARK SMILES IDX 83 13 7 14 4 15 5 16 85 17 6 18 84 19 2 20 1 21 3 22 15 23
REMARK SMILES IDX 16 24 17 25 18 27 19 28 20 29 78 30 21 31 77 32 22 33 23 34
REMARK SMILES IDX 24 35 71 36 25 37 76 38 70 39 72 40 26 41 75 42 69 43 68 44
REMARK SMILES IDX 27 46 57 47 38 48 56 49 39 50 42 51 55 52 73 53 40 54 41 55
REMARK SMILES IDX 54 57 74 58 43 59 28 60 29 61 37 62 30 63 36 64 31 65 32 66
REMARK SMILES IDX 33 67 34 68 35 69 58 70 59 71 67 72 60 73 66 74 61 75 62 76
REMARK SMILES IDX 63 77 64 78 65 79 44 80 45 81 53 82 46 83 52 84 47 85 48 86
REMARK SMILES IDX 49 87 50 88 51 89
REMARK H PARENT 11 7 16 26 72 45 42 56
REMARK Flexibility Score: inf
ROOT
ATOM      1  C   UNL     1      -9.657  -3.391   2.896  1.00  0.00     0.023 C 
ENDROOT
BRANCH   1   2
ATOM      2  C   UNL     1      -8.800  -2.563   1.942  1.00  0.00     0.023 C 
BRANCH   2   3
ATOM      3  C   UNL     1      -8.197  -1.303   2.546  1.00  0.00     0.116 C 
BRANCH   3   4
ATOM      4  N   UNL     1      -6.872  -1.462   3.086  1.00  0.00    -0.355 N 
ATOM      5  C   UNL     1      -5.692  -0.842   2.813  1.00  0.00     0.230 C 
ATOM      6  O   UNL     1      -4.936  -0.804   3.796  1.00  0.00    -0.274 OA
ATOM      7  H   UNL     1      -6.807  -2.152   3.785  1.00  0.00     0.163 HD
BRANCH   5   8
ATOM      8  C   UNL     1      -5.231  -0.245   1.406  1.00  0.00     0.077 C 
ATOM      9  C   UNL     1      -5.813  -1.032   0.204  1.00  0.00     0.022 C 
ATOM     10  C   UNL     1      -5.739   1.224   1.123  1.00  0.00     0.006 C 
ATOM     11  C   UNL     1      -6.973  -0.229  -0.391  1.00  0.00     0.002 C 
ATOM     12  C   UNL     1      -7.074   1.080   0.381  1.00  0.00     0.005 C 
ATOM     13  C   UNL     1      -4.892   2.119   0.190  1.00  0.00     0.009 C 
BRANCH   8  14
ATOM     14  C   UNL     1      -3.673  -0.351   1.440  1.00  0.00    -0.032 A 
ATOM     15  C   UNL     1      -0.822  -0.487   1.514  1.00  0.00    -0.045 A 
ATOM     16  C   UNL     1      -1.500   0.620   2.027  1.00  0.00     0.004 A 
ATOM     17  C   UNL     1      -1.587  -1.560   1.036  1.00  0.00     0.004 A 
ATOM     18  C   UNL     1      -2.897   0.660   2.034  1.00  0.00     0.005 A 
ATOM     19  C   UNL     1      -2.988  -1.496   1.004  1.00  0.00     0.005 A 
BRANCH  15  20
ATOM     20  C   UNL     1       0.694  -0.547   1.433  1.00  0.00     0.013 C 
ATOM     21  C   UNL     1       1.157  -0.030   0.067  1.00  0.00     0.012 C 
ATOM     22  C   UNL     1       1.418   0.210   2.552  1.00  0.00     0.012 C 
ENDBRANCH  15  20
ENDBRANCH   8  14
ENDBRANCH   5   8
ENDBRANCH   3   4
ENDBRANCH   2   3
ENDBRANCH   1   2
BRANCH   1  23
ATOM     23  C   UNL     1     -10.743  -2.628   3.650  1.00  0.00     0.116 C 
BRANCH  23  24
ATOM     24  N   UNL     1     -11.613  -1.820   2.808  1.00  0.00    -0.352 N 
ATOM     25  C   UNL     1     -12.933  -1.486   3.029  1.00  0.00     0.251 C 
ATOM     26  H   UNL     1     -11.210  -1.470   1.981  1.00  0.00     0.163 HD
ATOM     27  O   UNL     1     -13.562  -0.853   2.196  1.00  0.00    -0.269 OA
BRANCH  25  28
ATOM     28  C   UNL     1     -13.584  -1.952   4.274  1.00  0.00     0.039 A 
ATOM     29  C   UNL     1     -14.797  -2.637   4.188  1.00  0.00     0.014 A 
ATOM     30  C   UNL     1     -12.961  -1.768   5.511  1.00  0.00     0.014 A 
ATOM     31  C   UNL     1     -15.352  -3.197   5.340  1.00  0.00     0.010 A 
ATOM     32  C   UNL     1     -13.470  -2.401   6.639  1.00  0.00     0.010 A 
ATOM     33  C   UNL     1     -14.677  -3.113   6.569  1.00  0.00    -0.014 A 
BRANCH  33  34
ATOM     34  C   UNL     1     -15.231  -3.738   7.796  1.00  0.00     0.031 A 
ATOM     35  C   UNL     1     -15.623  -2.875   8.966  1.00  0.00     0.074 A 
ATOM     36  C   UNL     1     -15.331  -5.080   7.881  1.00  0.00     0.049 A 
ATOM     37  N   UNL     1     -16.117  -3.231  10.125  1.00  0.00    -0.248 NA
ATOM     38  C   UNL     1     -15.403  -1.426   8.830  1.00  0.00     0.031 C 
ATOM     39  C   UNL     1     -14.928  -6.030   6.840  1.00  0.00     0.029 A 
ATOM     40  N   UNL     1     -15.808  -5.879   8.889  1.00  0.00    -0.354 N 
ATOM     41  C   UNL     1     -16.239  -2.057  10.860  1.00  0.00     0.074 A 
ATOM     42  C   UNL     1     -15.716  -0.988  10.039  1.00  0.00     0.031 C 
ATOM     43  C   UNL     1     -15.219  -7.277   7.246  1.00  0.00     0.029 A 
ATOM     44  C   UNL     1     -15.798  -7.220   8.584  1.00  0.00     0.049 A 
ATOM     45  H   UNL     1     -16.128  -5.525   9.751  1.00  0.00     0.167 HD
ATOM     46  C   UNL     1     -16.763  -1.877  12.095  1.00  0.00     0.031 A 
ATOM     47  C   UNL     1     -16.222  -8.282   9.296  1.00  0.00     0.031 A 
ATOM     48  C   UNL     1     -17.311  -2.938  12.896  1.00  0.00     0.049 A 
ATOM     49  C   UNL     1     -16.834  -8.055  10.652  1.00  0.00     0.074 A 
ATOM     50  C   UNL     1     -17.935  -2.854  14.127  1.00  0.00     0.029 A 
ATOM     51  N   UNL     1     -17.303  -4.279  12.540  1.00  0.00    -0.354 N 
ATOM     52  N   UNL     1     -17.016  -6.927  11.297  1.00  0.00    -0.248 NA
ATOM     53  C   UNL     1     -17.316  -9.245  11.367  1.00  0.00     0.031 C 
ATOM     54  C   UNL     1     -18.268  -4.150  14.536  1.00  0.00     0.029 A 
ATOM     55  C   UNL     1     -17.898  -5.035  13.535  1.00  0.00     0.049 A 
ATOM     56  H   UNL     1     -16.930  -4.639  11.703  1.00  0.00     0.167 HD
ATOM     57  C   UNL     1     -17.666  -7.268  12.478  1.00  0.00     0.074 A 
ATOM     58  C   UNL     1     -17.854  -8.704  12.452  1.00  0.00     0.031 C 
ATOM     59  C   UNL     1     -18.077  -6.463  13.490  1.00  0.00     0.031 A 
BRANCH  46  60
ATOM     60  C   UNL     1     -16.762  -0.477  12.651  1.00  0.00    -0.014 A 
ATOM     61  C   UNL     1     -17.584   0.525  12.103  1.00  0.00     0.010 A 
ATOM     62  C   UNL     1     -15.934  -0.160  13.742  1.00  0.00     0.010 A 
ATOM     63  C   UNL     1     -17.537   1.830  12.599  1.00  0.00     0.020 A 
ATOM     64  C   UNL     1     -15.907   1.137  14.262  1.00  0.00     0.020 A 
ATOM     65  C   UNL     1     -16.693   2.130  13.672  1.00  0.00     0.054 A 
BRANCH  65  66
ATOM     66  S   UNL     1     -16.654   3.830  14.301  1.00  0.00     0.124 S 
ATOM     67  O   UNL     1     -15.882   4.515  13.267  1.00  0.00    -0.237 OA
ATOM     68  O   UNL     1     -18.070   4.183  14.363  1.00  0.00    -0.237 OA
ATOM     69  O   UNL     1     -15.988   3.706  15.595  1.00  0.00    -0.744 OA
ENDBRANCH  65  66
ENDBRANCH  46  60
BRANCH  47  70
ATOM     70  C   UNL     1     -16.139  -9.651   8.717  1.00  0.00    -0.014 A 
ATOM     71  C   UNL     1     -17.306 -10.315   8.300  1.00  0.00     0.010 A 
ATOM     72  C   UNL     1     -14.897 -10.294   8.569  1.00  0.00     0.010 A 
ATOM     73  C   UNL     1     -17.237 -11.604   7.765  1.00  0.00     0.020 A 
ATOM     74  C   UNL     1     -14.821 -11.574   8.011  1.00  0.00     0.020 A 
ATOM     75  C   UNL     1     -15.994 -12.226   7.623  1.00  0.00     0.054 A 
BRANCH  75  76
ATOM     76  S   UNL     1     -15.923 -13.880   6.879  1.00  0.00     0.124 S 
ATOM     77  O   UNL     1     -16.424 -14.721   7.960  1.00  0.00    -0.237 OA
ATOM     78  O   UNL     1     -16.804 -13.744   5.721  1.00  0.00    -0.237 OA
ATOM     79  O   UNL     1     -14.508 -14.048   6.557  1.00  0.00    -0.744 OA
ENDBRANCH  75  76
ENDBRANCH  47  70
BRANCH  59  80
ATOM     80  C   UNL     1     -18.811  -7.114  14.631  1.00  0.00    -0.014 A 
ATOM     81  C   UNL     1     -18.143  -7.925  15.565  1.00  0.00     0.010 A 
ATOM     82  C   UNL     1     -20.189  -6.875  14.790  1.00  0.00     0.010 A 
ATOM     83  C   UNL     1     -18.849  -8.521  16.613  1.00  0.00     0.020 A 
ATOM     84  C   UNL     1     -20.892  -7.447  15.853  1.00  0.00     0.020 A 
ATOM     85  C   UNL     1     -20.220  -8.282  16.747  1.00  0.00     0.054 A 
BRANCH  85  86
ATOM     86  S   UNL     1     -21.111  -9.046  18.129  1.00  0.00     0.124 S 
ATOM     87  O   UNL     1     -21.243 -10.429  17.677  1.00  0.00    -0.237 OA
ATOM     88  O   UNL     1     -20.203  -8.837  19.254  1.00  0.00    -0.237 OA
ATOM     89  O   UNL     1     -22.360  -8.290  18.196  1.00  0.00    -0.744 OA
ENDBRANCH  85  86
ENDBRANCH  59  80
ENDBRANCH  33  34
ENDBRANCH  25  28
ENDBRANCH  23  24
ENDBRANCH   1  23
TORSDOF 16
