REMARK SMILES O=C(NCCCCNC(=O)[C@@H](Cc1ccc(F)cc1)NC(=O)c1ccn(C2CCCC2)n1)c1ccc(-c2c3nc(c(-c4ccc(S(=O)(=O)[O-])cc4)c4ccc([nH]4)c(-c4ccc(S(=O)(=O)[O-])cc4)c4nc(c(-c5ccc(S(=O)(=O)[O-])cc5)c5ccc2[nH]5)C=C4)C=C3)cc1
REMARK SMILES IDX 5 1 4 2 3 3 1 4 2 5 33 7 34 8 92 9 35 10 91 11 36 12 37 13
REMARK SMILES IDX 38 14 85 15 39 16 90 17 84 18 86 19 40 20 89 21 83 22 82 23
REMARK SMILES IDX 41 25 71 26 52 27 70 28 53 29 56 30 69 31 87 32 54 33 55 34
REMARK SMILES IDX 68 36 88 37 57 38 42 39 43 40 51 41 44 42 50 43 45 44 46 45
REMARK SMILES IDX 47 46 48 47 49 48 72 49 73 50 81 51 74 52 80 53 75 54 76 55
REMARK SMILES IDX 77 56 78 57 79 58 58 59 59 60 67 61 60 62 66 63 61 64 62 65
REMARK SMILES IDX 63 66 64 67 65 68 6 69 7 70 8 71 9 72 10 74 11 75 12 76
REMARK SMILES IDX 13 77 14 78 19 79 15 80 18 81 16 82 17 83 20 84 21 85 22 87
REMARK SMILES IDX 23 88 24 89 32 90 25 91 26 92 27 93 28 94 31 95 29 96 30 97
REMARK H PARENT 3 6 86 24 56 35 8 73 20 86
REMARK Flexibility Score: inf
ROOT
ATOM      1  C   UNL     1       5.478  -1.610  -0.260  1.00  0.00     0.023 C 
ENDROOT
BRANCH   1   2
ATOM      2  C   UNL     1       4.791  -0.258  -0.485  1.00  0.00     0.116 C 
BRANCH   2   3
ATOM      3  N   UNL     1       3.379  -0.348  -0.793  1.00  0.00    -0.352 N 
ATOM      4  O   UNL     1       1.298   0.410  -0.733  1.00  0.00    -0.269 OA
ATOM      5  C   UNL     1       2.274   0.035  -0.079  1.00  0.00     0.251 C 
ATOM      6  H   UNL     1       3.178  -0.755  -1.667  1.00  0.00     0.163 HD
BRANCH   5   7
ATOM      7  C   UNL     1       2.159  -0.095   1.399  1.00  0.00     0.039 A 
ATOM      8  C   UNL     1       3.183  -0.517   2.247  1.00  0.00     0.014 A 
ATOM      9  C   UNL     1       0.872   0.100   1.937  1.00  0.00     0.014 A 
ATOM     10  C   UNL     1       2.915  -0.825   3.574  1.00  0.00     0.010 A 
ATOM     11  C   UNL     1       0.597  -0.206   3.264  1.00  0.00     0.010 A 
ATOM     12  C   UNL     1       1.615  -0.707   4.067  1.00  0.00    -0.014 A 
BRANCH  12  13
ATOM     13  C   UNL     1       1.405  -0.982   5.482  1.00  0.00     0.031 A 
ATOM     14  C   UNL     1       2.078  -0.012   6.389  1.00  0.00     0.074 A 
ATOM     15  C   UNL     1       0.586  -1.946   5.944  1.00  0.00     0.049 A 
ATOM     16  N   UNL     1       3.050  -0.228   7.213  1.00  0.00    -0.248 NA
ATOM     17  C   UNL     1       1.716   1.408   6.247  1.00  0.00     0.031 C 
ATOM     18  C   UNL     1      -0.347  -2.777   5.180  1.00  0.00     0.029 A 
ATOM     19  N   UNL     1       0.331  -2.305   7.234  1.00  0.00    -0.354 N 
ATOM     20  C   UNL     1       3.283   0.988   7.853  1.00  0.00     0.074 A 
ATOM     21  C   UNL     1       2.565   1.983   7.099  1.00  0.00     0.031 C 
ATOM     22  C   UNL     1      -1.227  -3.352   6.032  1.00  0.00     0.029 A 
ATOM     23  C   UNL     1      -0.837  -3.041   7.398  1.00  0.00     0.049 A 
ATOM     24  H   UNL     1       0.922  -2.064   7.983  1.00  0.00     0.167 HD
ATOM     25  C   UNL     1       3.843   1.053   9.094  1.00  0.00     0.031 A 
ATOM     26  C   UNL     1      -1.474  -3.302   8.569  1.00  0.00     0.031 A 
ATOM     27  C   UNL     1       4.491  -0.180   9.454  1.00  0.00     0.049 A 
ATOM     28  C   UNL     1      -0.492  -3.105   9.663  1.00  0.00     0.074 A 
ATOM     29  C   UNL     1       5.528  -0.930   8.937  1.00  0.00     0.029 A 
ATOM     30  N   UNL     1       3.814  -1.013  10.314  1.00  0.00    -0.354 N 
ATOM     31  N   UNL     1       0.551  -3.867   9.836  1.00  0.00    -0.248 NA
ATOM     32  C   UNL     1      -0.419  -1.796  10.294  1.00  0.00     0.031 C 
ATOM     33  C   UNL     1       5.136  -2.286   9.138  1.00  0.00     0.029 A 
ATOM     34  C   UNL     1       3.917  -2.285   9.819  1.00  0.00     0.049 A 
ATOM     35  H   UNL     1       3.342  -0.743  11.135  1.00  0.00     0.167 HD
ATOM     36  C   UNL     1       1.567  -2.999  10.212  1.00  0.00     0.074 A 
ATOM     37  C   UNL     1       0.887  -1.755  10.570  1.00  0.00     0.031 C 
ATOM     38  C   UNL     1       2.875  -3.281   9.937  1.00  0.00     0.031 A 
BRANCH  25  39
ATOM     39  C   UNL     1       3.418   2.060  10.142  1.00  0.00    -0.014 A 
ATOM     40  C   UNL     1       4.017   1.995  11.418  1.00  0.00     0.010 A 
ATOM     41  C   UNL     1       2.251   2.843  10.026  1.00  0.00     0.010 A 
ATOM     42  C   UNL     1       3.408   2.577  12.538  1.00  0.00     0.020 A 
ATOM     43  C   UNL     1       1.662   3.467  11.127  1.00  0.00     0.020 A 
ATOM     44  C   UNL     1       2.219   3.288  12.385  1.00  0.00     0.054 A 
BRANCH  44  45
ATOM     45  S   UNL     1       1.358   3.903  13.851  1.00  0.00     0.124 S 
ATOM     46  O   UNL     1       0.955   2.661  14.502  1.00  0.00    -0.237 OA
ATOM     47  O   UNL     1       2.405   4.665  14.527  1.00  0.00    -0.237 OA
ATOM     48  O   UNL     1       0.269   4.705  13.296  1.00  0.00    -0.744 OA
ENDBRANCH  44  45
ENDBRANCH  25  39
BRANCH  26  49
ATOM     49  C   UNL     1      -2.940  -3.360   8.812  1.00  0.00    -0.014 A 
ATOM     50  C   UNL     1      -3.464  -3.861  10.020  1.00  0.00     0.010 A 
ATOM     51  C   UNL     1      -3.820  -2.656   7.963  1.00  0.00     0.010 A 
ATOM     52  C   UNL     1      -4.800  -3.616  10.388  1.00  0.00     0.020 A 
ATOM     53  C   UNL     1      -5.152  -2.414   8.320  1.00  0.00     0.020 A 
ATOM     54  C   UNL     1      -5.630  -2.876   9.543  1.00  0.00     0.054 A 
BRANCH  54  55
ATOM     55  S   UNL     1      -7.299  -2.411  10.098  1.00  0.00     0.124 S 
ATOM     56  O   UNL     1      -8.007  -3.687  10.060  1.00  0.00    -0.237 OA
ATOM     57  O   UNL     1      -7.052  -1.864  11.429  1.00  0.00    -0.237 OA
ATOM     58  O   UNL     1      -7.733  -1.432   9.102  1.00  0.00    -0.744 OA
ENDBRANCH  54  55
ENDBRANCH  26  49
BRANCH  38  59
ATOM     59  C   UNL     1       3.236  -4.677   9.491  1.00  0.00    -0.014 A 
ATOM     60  C   UNL     1       2.746  -5.277   8.314  1.00  0.00     0.010 A 
ATOM     61  C   UNL     1       4.238  -5.344  10.217  1.00  0.00     0.010 A 
ATOM     62  C   UNL     1       3.233  -6.524   7.891  1.00  0.00     0.020 A 
ATOM     63  C   UNL     1       4.740  -6.575   9.792  1.00  0.00     0.020 A 
ATOM     64  C   UNL     1       4.229  -7.164   8.635  1.00  0.00     0.054 A 
BRANCH  64  65
ATOM     65  S   UNL     1       4.896  -8.750   8.058  1.00  0.00     0.124 S 
ATOM     66  O   UNL     1       3.770  -9.658   8.252  1.00  0.00    -0.237 OA
ATOM     67  O   UNL     1       5.245  -8.469   6.667  1.00  0.00    -0.237 OA
ATOM     68  O   UNL     1       6.041  -8.988   8.937  1.00  0.00    -0.744 OA
ENDBRANCH  64  65
ENDBRANCH  38  59
ENDBRANCH  12  13
ENDBRANCH   5   7
ENDBRANCH   2   3
ENDBRANCH   1   2
BRANCH   1  69
ATOM     69  C   UNL     1       5.325  -2.605  -1.411  1.00  0.00     0.023 C 
BRANCH  69  70
ATOM     70  C   UNL     1       5.894  -2.133  -2.748  1.00  0.00     0.116 C 
BRANCH  70  71
ATOM     71  N   UNL     1       7.114  -2.833  -3.079  1.00  0.00    -0.354 N 
ATOM     72  C   UNL     1       7.365  -3.877  -3.905  1.00  0.00     0.242 C 
ATOM     73  H   UNL     1       7.912  -2.486  -2.618  1.00  0.00     0.163 HD
ATOM     74  O   UNL     1       8.531  -4.293  -3.919  1.00  0.00    -0.273 OA
BRANCH  72  75
ATOM     75  C   UNL     1       6.308  -4.545  -4.816  1.00  0.00     0.176 C 
BRANCH  75  76
ATOM     76  C   UNL     1       5.262  -5.465  -4.143  1.00  0.00     0.070 C 
BRANCH  76  77
ATOM     77  C   UNL     1       3.992  -4.950  -3.493  1.00  0.00    -0.045 A 
ATOM     78  C   UNL     1       3.528  -5.605  -2.335  1.00  0.00     0.007 A 
ATOM     79  C   UNL     1       3.202  -3.913  -4.014  1.00  0.00     0.007 A 
ATOM     80  C   UNL     1       2.389  -5.160  -1.657  1.00  0.00     0.039 A 
ATOM     81  C   UNL     1       2.088  -3.437  -3.313  1.00  0.00     0.039 A 
ATOM     82  C   UNL     1       1.699  -4.057  -2.134  1.00  0.00     0.123 A 
ATOM     83  F   UNL     1       0.647  -3.585  -1.456  1.00  0.00    -0.207 F 
ENDBRANCH  76  77
ENDBRANCH  75  76
BRANCH  75  84
ATOM     84  N   UNL     1       5.772  -3.662  -5.842  1.00  0.00    -0.339 N 
ATOM     85  C   UNL     1       5.981  -3.618  -7.204  1.00  0.00     0.272 C 
ATOM     86  H   UNL     1       5.152  -2.976  -5.504  1.00  0.00     0.164 HD
ATOM     87  O   UNL     1       5.399  -2.736  -7.819  1.00  0.00    -0.267 OA
BRANCH  85  88
ATOM     88  C   UNL     1       6.912  -4.561  -7.849  1.00  0.00     0.150 A 
ATOM     89  C   UNL     1       7.065  -5.967  -7.700  1.00  0.00     0.056 A 
ATOM     90  N   UNL     1       7.786  -4.098  -8.761  1.00  0.00    -0.167 NA
ATOM     91  C   UNL     1       8.133  -6.312  -8.497  1.00  0.00     0.110 A 
ATOM     92  N   UNL     1       8.525  -5.160  -9.109  1.00  0.00    -0.269 N 
BRANCH  92  93
ATOM     93  C   UNL     1       9.606  -5.000 -10.057  1.00  0.00     0.107 C 
ATOM     94  C   UNL     1       9.152  -4.486 -11.423  1.00  0.00     0.027 C 
ATOM     95  C   UNL     1      10.657  -3.972  -9.636  1.00  0.00     0.027 C 
ATOM     96  C   UNL     1      10.444  -4.019 -12.076  1.00  0.00     0.002 C 
ATOM     97  C   UNL     1      11.351  -3.563 -10.933  1.00  0.00     0.002 C 
ENDBRANCH  92  93
ENDBRANCH  85  88
ENDBRANCH  75  84
ENDBRANCH  72  75
ENDBRANCH  70  71
ENDBRANCH  69  70
ENDBRANCH   1  69
TORSDOF 19
