REMARK SMILES CC(C)CCN(C(=O)N[C@H](C(=O)NCCCCNC(=O)c1ccc(-c2c3nc(c(-c4ccc(S(=O)(=O)[O-])cc4)c4ccc([nH]4)c(-c4ccc(S(=O)(=O)[O-])cc4)c4nc(c(-c5ccc(S(=O)(=O)[O-])cc5)c5ccc2[nH]5)C=C4)C=C3)cc1)[C@H](C)O)C1CCCC1
REMARK SMILES IDX 14 1 13 2 11 3 12 4 10 6 9 7 7 8 8 9 6 11 5 12 4 13 2 14
REMARK SMILES IDX 1 15 3 16 84 17 85 18 88 19 86 20 87 21 81 22 82 23 83 24
REMARK SMILES IDX 15 26 16 27 17 28 18 29 19 30 20 32 21 33 22 34 80 35 23 36
REMARK SMILES IDX 79 37 24 38 25 39 26 40 73 41 27 42 78 43 72 44 74 45 28 46
REMARK SMILES IDX 77 47 71 48 70 49 29 51 59 52 40 53 58 54 41 55 44 56 57 57
REMARK SMILES IDX 75 58 42 59 43 60 56 62 76 63 45 64 30 65 31 66 39 67 32 68
REMARK SMILES IDX 38 69 33 70 34 71 35 72 36 73 37 74 60 75 61 76 69 77 62 78
REMARK SMILES IDX 68 79 63 80 64 81 65 82 66 83 67 84 46 85 47 86 55 87 48 88
REMARK SMILES IDX 54 89 49 90 50 91 51 92 52 93 53 94
REMARK H PARENT 13 5 9 10 83 25 18 31 74 50 44 61
REMARK Flexibility Score: inf
ROOT
ATOM      1  C   UNL     1      -4.915   1.582   4.426  1.00  0.00     0.116 C 
ENDROOT
BRANCH   1   2
ATOM      2  N   UNL     1      -3.948   2.568   3.998  1.00  0.00    -0.354 N 
ATOM      3  C   UNL     1      -3.447   2.903   2.786  1.00  0.00     0.245 C 
ATOM      4  O   UNL     1      -2.448   3.639   2.834  1.00  0.00    -0.273 OA
ATOM      5  H   UNL     1      -3.580   3.104   4.738  1.00  0.00     0.163 HD
BRANCH   3   6
ATOM      6  C   UNL     1      -4.075   2.563   1.401  1.00  0.00     0.201 C 
BRANCH   6   7
ATOM      7  N   UNL     1      -2.949   2.750   0.444  1.00  0.00    -0.324 N 
ATOM      8  C   UNL     1      -2.861   2.771  -0.903  1.00  0.00     0.318 C 
ATOM      9  O   UNL     1      -1.796   2.433  -1.417  1.00  0.00    -0.249 OA
ATOM     10  H   UNL     1      -2.082   2.888   0.889  1.00  0.00     0.166 HD
BRANCH   8  11
ATOM     11  N   UNL     1      -3.990   3.055  -1.642  1.00  0.00    -0.322 N 
BRANCH  11  12
ATOM     12  C   UNL     1      -4.825   4.228  -1.308  1.00  0.00     0.122 C 
BRANCH  12  13
ATOM     13  C   UNL     1      -4.606   5.505  -2.138  1.00  0.00     0.024 C 
BRANCH  13  14
ATOM     14  C   UNL     1      -5.492   5.675  -3.384  1.00  0.00    -0.016 C 
ATOM     15  C   UNL     1      -6.980   5.790  -3.048  1.00  0.00     0.007 C 
ATOM     16  C   UNL     1      -5.049   6.900  -4.186  1.00  0.00     0.007 C 
ENDBRANCH  13  14
ENDBRANCH  12  13
ENDBRANCH  11  12
BRANCH  11  17
ATOM     17  C   UNL     1      -4.101   2.361  -2.935  1.00  0.00     0.087 C 
ATOM     18  C   UNL     1      -5.518   2.121  -3.448  1.00  0.00     0.025 C 
ATOM     19  C   UNL     1      -3.313   2.975  -4.098  1.00  0.00     0.025 C 
ATOM     20  C   UNL     1      -5.335   1.873  -4.936  1.00  0.00     0.002 C 
ATOM     21  C   UNL     1      -4.147   2.731  -5.355  1.00  0.00     0.002 C 
ENDBRANCH  11  17
ENDBRANCH   8  11
ENDBRANCH   6   7
BRANCH   6  22
ATOM     22  C   UNL     1      -4.780   1.207   1.185  1.00  0.00     0.143 C 
ATOM     23  C   UNL     1      -3.861   0.002   1.064  1.00  0.00     0.041 C 
BRANCH  22  24
ATOM     24  O   UNL     1      -5.609   1.251   0.011  1.00  0.00    -0.391 OA
ATOM     25  H   UNL     1      -5.052   1.376  -0.773  1.00  0.00     0.211 HD
ENDBRANCH  22  24
ENDBRANCH   6  22
ENDBRANCH   3   6
ENDBRANCH   1   2
BRANCH   1  26
ATOM     26  C   UNL     1      -4.254   0.205   4.527  1.00  0.00     0.023 C 
BRANCH  26  27
ATOM     27  C   UNL     1      -3.701  -0.128   5.913  1.00  0.00     0.023 C 
BRANCH  27  28
ATOM     28  C   UNL     1      -4.745  -0.185   7.018  1.00  0.00     0.116 C 
BRANCH  28  29
ATOM     29  N   UNL     1      -5.859  -1.074   6.726  1.00  0.00    -0.352 N 
ATOM     30  C   UNL     1      -6.654  -1.743   7.629  1.00  0.00     0.251 C 
ATOM     31  H   UNL     1      -6.069  -1.213   5.774  1.00  0.00     0.163 HD
ATOM     32  O   UNL     1      -7.516  -2.524   7.253  1.00  0.00    -0.269 OA
BRANCH  30  33
ATOM     33  C   UNL     1      -6.396  -1.527   9.066  1.00  0.00     0.039 A 
ATOM     34  C   UNL     1      -6.075  -2.626   9.863  1.00  0.00     0.014 A 
ATOM     35  C   UNL     1      -6.354  -0.228   9.579  1.00  0.00     0.014 A 
ATOM     36  C   UNL     1      -5.634  -2.413  11.169  1.00  0.00     0.010 A 
ATOM     37  C   UNL     1      -5.842  -0.016  10.852  1.00  0.00     0.010 A 
ATOM     38  C   UNL     1      -5.475  -1.105  11.657  1.00  0.00    -0.014 A 
BRANCH  38  39
ATOM     39  C   UNL     1      -4.931  -0.850  13.013  1.00  0.00     0.031 A 
ATOM     40  C   UNL     1      -5.794  -0.179  14.045  1.00  0.00     0.074 A 
ATOM     41  C   UNL     1      -3.647  -1.157  13.289  1.00  0.00     0.049 A 
ATOM     42  N   UNL     1      -5.481   0.211  15.253  1.00  0.00    -0.248 NA
ATOM     43  C   UNL     1      -7.182   0.124  13.656  1.00  0.00     0.031 C 
ATOM     44  C   UNL     1      -2.696  -1.766  12.355  1.00  0.00     0.029 A 
ATOM     45  N   UNL     1      -2.918  -0.991  14.440  1.00  0.00    -0.354 N 
ATOM     46  C   UNL     1      -6.622   0.820  15.759  1.00  0.00     0.074 A 
ATOM     47  C   UNL     1      -7.618   0.796  14.711  1.00  0.00     0.031 C 
ATOM     48  C   UNL     1      -1.520  -1.948  12.979  1.00  0.00     0.029 A 
ATOM     49  C   UNL     1      -1.621  -1.439  14.342  1.00  0.00     0.049 A 
ATOM     50  H   UNL     1      -3.289  -0.590  15.258  1.00  0.00     0.167 HD
ATOM     51  C   UNL     1      -6.833   1.330  16.995  1.00  0.00     0.031 A 
ATOM     52  C   UNL     1      -0.627  -1.438  15.251  1.00  0.00     0.031 A 
ATOM     53  C   UNL     1      -5.852   1.323  18.044  1.00  0.00     0.049 A 
ATOM     54  C   UNL     1      -0.894  -0.884  16.625  1.00  0.00     0.074 A 
ATOM     55  C   UNL     1      -5.982   1.772  19.347  1.00  0.00     0.029 A 
ATOM     56  N   UNL     1      -4.563   0.829  17.916  1.00  0.00    -0.354 N 
ATOM     57  N   UNL     1      -1.998  -0.355  17.099  1.00  0.00    -0.248 NA
ATOM     58  C   UNL     1       0.214  -0.937  17.588  1.00  0.00     0.031 C 
ATOM     59  C   UNL     1      -4.760   1.575  19.999  1.00  0.00     0.029 A 
ATOM     60  C   UNL     1      -3.885   0.965  19.114  1.00  0.00     0.049 A 
ATOM     61  H   UNL     1      -4.187   0.439  17.094  1.00  0.00     0.167 HD
ATOM     62  C   UNL     1      -1.724  -0.038  18.424  1.00  0.00     0.074 A 
ATOM     63  C   UNL     1      -0.358  -0.446  18.680  1.00  0.00     0.031 C 
ATOM     64  C   UNL     1      -2.530   0.540  19.348  1.00  0.00     0.031 A 
BRANCH  51  65
ATOM     65  C   UNL     1      -8.186   1.923  17.278  1.00  0.00    -0.014 A 
ATOM     66  C   UNL     1      -9.317   1.097  17.416  1.00  0.00     0.010 A 
ATOM     67  C   UNL     1      -8.325   3.312  17.441  1.00  0.00     0.010 A 
ATOM     68  C   UNL     1     -10.570   1.654  17.677  1.00  0.00     0.020 A 
ATOM     69  C   UNL     1      -9.574   3.871  17.728  1.00  0.00     0.020 A 
ATOM     70  C   UNL     1     -10.692   3.039  17.828  1.00  0.00     0.054 A 
BRANCH  70  71
ATOM     71  S   UNL     1     -12.327   3.732  18.196  1.00  0.00     0.124 S 
ATOM     72  O   UNL     1     -12.990   3.642  16.897  1.00  0.00    -0.237 OA
ATOM     73  O   UNL     1     -12.836   2.829  19.224  1.00  0.00    -0.237 OA
ATOM     74  O   UNL     1     -12.032   5.088  18.653  1.00  0.00    -0.744 OA
ENDBRANCH  70  71
ENDBRANCH  51  65
BRANCH  52  75
ATOM     75  C   UNL     1       0.708  -1.998  14.907  1.00  0.00    -0.014 A 
ATOM     76  C   UNL     1       1.132  -3.216  15.466  1.00  0.00     0.010 A 
ATOM     77  C   UNL     1       1.568  -1.309  14.034  1.00  0.00     0.010 A 
ATOM     78  C   UNL     1       2.406  -3.720  15.185  1.00  0.00     0.020 A 
ATOM     79  C   UNL     1       2.832  -1.822  13.730  1.00  0.00     0.020 A 
ATOM     80  C   UNL     1       3.250  -3.016  14.322  1.00  0.00     0.054 A 
BRANCH  80  81
ATOM     81  S   UNL     1       4.890  -3.697  13.949  1.00  0.00     0.124 S 
ATOM     82  O   UNL     1       5.641  -3.353  15.152  1.00  0.00    -0.237 OA
ATOM     83  O   UNL     1       4.610  -5.119  13.762  1.00  0.00    -0.237 OA
ATOM     84  O   UNL     1       5.285  -2.985  12.736  1.00  0.00    -0.744 OA
ENDBRANCH  80  81
ENDBRANCH  52  75
BRANCH  64  85
ATOM     85  C   UNL     1      -1.970   0.730  20.729  1.00  0.00    -0.014 A 
ATOM     86  C   UNL     1      -1.032   1.742  20.999  1.00  0.00     0.010 A 
ATOM     87  C   UNL     1      -2.434  -0.079  21.782  1.00  0.00     0.010 A 
ATOM     88  C   UNL     1      -0.548   1.924  22.297  1.00  0.00     0.020 A 
ATOM     89  C   UNL     1      -1.970   0.115  23.084  1.00  0.00     0.020 A 
ATOM     90  C   UNL     1      -1.019   1.108  23.331  1.00  0.00     0.054 A 
BRANCH  90  91
ATOM     91  S   UNL     1      -0.414   1.395  25.016  1.00  0.00     0.124 S 
ATOM     92  O   UNL     1       0.915   0.791  24.968  1.00  0.00    -0.237 OA
ATOM     93  O   UNL     1      -0.439   2.852  25.125  1.00  0.00    -0.237 OA
ATOM     94  O   UNL     1      -1.386   0.698  25.855  1.00  0.00    -0.744 OA
ENDBRANCH  90  91
ENDBRANCH  64  85
ENDBRANCH  38  39
ENDBRANCH  30  33
ENDBRANCH  28  29
ENDBRANCH  27  28
ENDBRANCH  26  27
ENDBRANCH   1  26
TORSDOF 22
