REMARK SMILES COc1ccc(-c2nc3cc(N4C[C@@H](C(=O)NCCCCNC(=O)c5ccc(-c6c7nc(c(-c8ccc(S(=O)(=O)[O-])cc8)c8ccc([nH]8)c(-c8ccc(S(=O)(=O)[O-])cc8)c8nc(c(-c9ccc(S(=O)(=O)[O-])cc9)c9ccc6[nH]9)C=C8)C=C7)cc5)CC4=O)ccc3o2)cc1
REMARK SMILES IDX 19 1 18 2 17 3 15 4 16 5 14 7 12 8 13 9 86 10 85 11 87 12
REMARK SMILES IDX 11 13 7 14 8 15 91 16 9 17 90 18 10 19 89 20 88 21 6 22 3 23
REMARK SMILES IDX 4 24 93 25 5 26 92 27 2 28 1 29 20 30 21 31 22 32 23 33
REMARK SMILES IDX 24 35 25 36 26 37 84 38 27 39 83 40 28 41 29 42 30 43 77 44
REMARK SMILES IDX 31 45 82 46 76 47 78 48 32 49 81 50 75 51 74 52 33 54 63 55
REMARK SMILES IDX 44 56 62 57 45 58 48 59 61 60 79 61 46 62 47 63 60 65 80 66
REMARK SMILES IDX 49 67 34 68 35 69 43 70 36 71 42 72 37 73 38 74 39 75 40 76
REMARK SMILES IDX 41 77 64 78 65 79 73 80 66 81 72 82 67 83 68 84 69 85 70 86
REMARK SMILES IDX 71 87 50 88 51 89 59 90 52 91 58 92 53 93 54 94 55 95 56 96
REMARK SMILES IDX 57 97
REMARK H PARENT 17 6 22 34 78 53 48 64
REMARK Flexibility Score: inf
ROOT
ATOM      1  C   UNL     1       7.957  -6.348 -13.473  1.00  0.00     0.023 C 
ENDROOT
BRANCH   1   2
ATOM      2  C   UNL     1       7.412  -6.609 -12.070  1.00  0.00     0.116 C 
BRANCH   2   3
ATOM      3  N   UNL     1       8.480  -6.912 -11.135  1.00  0.00    -0.356 N 
ATOM      4  C   UNL     1       8.992  -6.202 -10.099  1.00  0.00     0.225 C 
ATOM      5  O   UNL     1       9.923  -6.702  -9.464  1.00  0.00    -0.275 OA
ATOM      6  H   UNL     1       8.908  -7.787 -11.277  1.00  0.00     0.163 HD
BRANCH   4   7
ATOM      7  C   UNL     1       8.413  -4.877  -9.657  1.00  0.00     0.107 C 
ATOM      8  N   UNL     1       6.247  -3.949  -9.558  1.00  0.00    -0.312 N 
ATOM      9  C   UNL     1       7.030  -5.062  -9.075  1.00  0.00     0.139 C 
ATOM     10  C   UNL     1       6.891  -3.250 -10.580  1.00  0.00     0.227 C 
ATOM     11  C   UNL     1       8.299  -3.787 -10.709  1.00  0.00     0.116 C 
ATOM     12  O   UNL     1       6.472  -2.317 -11.238  1.00  0.00    -0.274 OA
BRANCH   8  13
ATOM     13  C   UNL     1       4.991  -3.613  -8.998  1.00  0.00     0.046 A 
ATOM     14  C   UNL     1       2.186  -2.702  -5.670  1.00  0.00     0.227 A 
ATOM     15  N   UNL     1       3.307  -3.392  -5.708  1.00  0.00    -0.209 NA
ATOM     16  O   UNL     1       1.696  -2.314  -6.894  1.00  0.00    -0.436 OA
ATOM     17  C   UNL     1       3.631  -3.394  -7.025  1.00  0.00     0.112 A 
ATOM     18  C   UNL     1       2.668  -2.737  -7.768  1.00  0.00     0.155 A 
ATOM     19  C   UNL     1       4.780  -3.884  -7.640  1.00  0.00     0.058 A 
ATOM     20  C   UNL     1       2.772  -2.528  -9.137  1.00  0.00     0.051 A 
ATOM     21  C   UNL     1       3.984  -2.953  -9.729  1.00  0.00     0.030 A 
BRANCH  14  22
ATOM     22  C   UNL     1       1.577  -2.166  -4.468  1.00  0.00     0.037 A 
ATOM     23  C   UNL     1       0.608  -1.315  -1.972  1.00  0.00     0.118 A 
ATOM     24  C   UNL     1      -0.257  -1.865  -2.927  1.00  0.00     0.047 A 
ATOM     25  C   UNL     1       1.962  -1.187  -2.268  1.00  0.00     0.047 A 
ATOM     26  C   UNL     1       0.218  -2.275  -4.180  1.00  0.00     0.017 A 
ATOM     27  C   UNL     1       2.439  -1.613  -3.505  1.00  0.00     0.017 A 
BRANCH  23  28
ATOM     28  O   UNL     1       0.035  -0.984  -0.775  1.00  0.00    -0.497 OA
ATOM     29  C   UNL     1       0.741  -0.020  -0.000  1.00  0.00     0.278 C 
ENDBRANCH  23  28
ENDBRANCH  14  22
ENDBRANCH   8  13
ENDBRANCH   4   7
ENDBRANCH   2   3
ENDBRANCH   1   2
BRANCH   1  30
ATOM     30  C   UNL     1       8.582  -7.570 -14.146  1.00  0.00     0.023 C 
BRANCH  30  31
ATOM     31  C   UNL     1       7.678  -8.795 -14.235  1.00  0.00     0.116 C 
BRANCH  31  32
ATOM     32  N   UNL     1       6.420  -8.522 -14.913  1.00  0.00    -0.352 N 
ATOM     33  C   UNL     1       5.801  -9.237 -15.910  1.00  0.00     0.251 C 
ATOM     34  H   UNL     1       5.946  -7.712 -14.616  1.00  0.00     0.163 HD
ATOM     35  O   UNL     1       4.802  -8.784 -16.460  1.00  0.00    -0.269 OA
BRANCH  33  36
ATOM     36  C   UNL     1       6.367 -10.533 -16.338  1.00  0.00     0.039 A 
ATOM     37  C   UNL     1       6.550 -10.770 -17.701  1.00  0.00     0.014 A 
ATOM     38  C   UNL     1       6.748 -11.493 -15.396  1.00  0.00     0.014 A 
ATOM     39  C   UNL     1       7.192 -11.938 -18.117  1.00  0.00     0.010 A 
ATOM     40  C   UNL     1       7.451 -12.621 -15.808  1.00  0.00     0.010 A 
ATOM     41  C   UNL     1       7.688 -12.851 -17.172  1.00  0.00    -0.014 A 
BRANCH  41  42
ATOM     42  C   UNL     1       8.492 -14.028 -17.589  1.00  0.00     0.031 A 
ATOM     43  C   UNL     1       7.996 -15.423 -17.328  1.00  0.00     0.074 A 
ATOM     44  C   UNL     1       9.710 -13.835 -18.135  1.00  0.00     0.049 A 
ATOM     45  N   UNL     1       8.586 -16.565 -17.573  1.00  0.00    -0.248 NA
ATOM     46  C   UNL     1       6.678 -15.552 -16.687  1.00  0.00     0.031 C 
ATOM     47  C   UNL     1      10.329 -12.531 -18.389  1.00  0.00     0.029 A 
ATOM     48  N   UNL     1      10.653 -14.737 -18.564  1.00  0.00    -0.354 N 
ATOM     49  C   UNL     1       7.723 -17.546 -17.100  1.00  0.00     0.074 A 
ATOM     50  C   UNL     1       6.589 -16.863 -16.515  1.00  0.00     0.031 C 
ATOM     51  C   UNL     1      11.535 -12.717 -18.949  1.00  0.00     0.029 A 
ATOM     52  C   UNL     1      11.795 -14.149 -19.055  1.00  0.00     0.049 A 
ATOM     53  H   UNL     1      10.523 -15.712 -18.523  1.00  0.00     0.167 HD
ATOM     54  C   UNL     1       7.854 -18.893 -17.161  1.00  0.00     0.031 A 
ATOM     55  C   UNL     1      12.930 -14.697 -19.530  1.00  0.00     0.031 A 
ATOM     56  C   UNL     1       8.980 -19.568 -17.752  1.00  0.00     0.049 A 
ATOM     57  C   UNL     1      13.053 -16.194 -19.588  1.00  0.00     0.074 A 
ATOM     58  C   UNL     1       9.171 -20.927 -17.928  1.00  0.00     0.029 A 
ATOM     59  N   UNL     1      10.109 -18.937 -18.253  1.00  0.00    -0.354 N 
ATOM     60  N   UNL     1      12.188 -17.106 -19.214  1.00  0.00    -0.248 NA
ATOM     61  C   UNL     1      14.302 -16.737 -20.142  1.00  0.00     0.031 C 
ATOM     62  C   UNL     1      10.440 -21.122 -18.483  1.00  0.00     0.029 A 
ATOM     63  C   UNL     1      11.015 -19.881 -18.708  1.00  0.00     0.049 A 
ATOM     64  H   UNL     1      10.246 -17.963 -18.281  1.00  0.00     0.167 HD
ATOM     65  C   UNL     1      12.780 -18.330 -19.503  1.00  0.00     0.074 A 
ATOM     66  C   UNL     1      14.067 -18.041 -20.101  1.00  0.00     0.031 C 
ATOM     67  C   UNL     1      12.300 -19.581 -19.290  1.00  0.00     0.031 A 
BRANCH  54  68
ATOM     68  C   UNL     1       6.753 -19.728 -16.560  1.00  0.00    -0.014 A 
ATOM     69  C   UNL     1       5.481 -19.793 -17.156  1.00  0.00     0.010 A 
ATOM     70  C   UNL     1       7.006 -20.487 -15.403  1.00  0.00     0.010 A 
ATOM     71  C   UNL     1       4.468 -20.566 -16.581  1.00  0.00     0.020 A 
ATOM     72  C   UNL     1       6.005 -21.284 -14.841  1.00  0.00     0.020 A 
ATOM     73  C   UNL     1       4.736 -21.303 -15.424  1.00  0.00     0.054 A 
BRANCH  73  74
ATOM     74  S   UNL     1       3.408 -22.309 -14.707  1.00  0.00     0.124 S 
ATOM     75  O   UNL     1       2.542 -21.289 -14.120  1.00  0.00    -0.237 OA
ATOM     76  O   UNL     1       2.863 -22.999 -15.873  1.00  0.00    -0.237 OA
ATOM     77  O   UNL     1       4.100 -23.165 -13.747  1.00  0.00    -0.744 OA
ENDBRANCH  73  74
ENDBRANCH  54  68
BRANCH  55  78
ATOM     78  C   UNL     1      14.037 -13.817 -19.993  1.00  0.00    -0.014 A 
ATOM     79  C   UNL     1      14.334 -13.700 -21.362  1.00  0.00     0.010 A 
ATOM     80  C   UNL     1      14.782 -13.065 -19.065  1.00  0.00     0.010 A 
ATOM     81  C   UNL     1      15.360 -12.855 -21.794  1.00  0.00     0.020 A 
ATOM     82  C   UNL     1      15.790 -12.199 -19.496  1.00  0.00     0.020 A 
ATOM     83  C   UNL     1      16.079 -12.106 -20.858  1.00  0.00     0.054 A 
BRANCH  83  84
ATOM     84  S   UNL     1      17.360 -10.964 -21.448  1.00  0.00     0.124 S 
ATOM     85  O   UNL     1      18.433 -11.880 -21.823  1.00  0.00    -0.237 OA
ATOM     86  O   UNL     1      16.691 -10.285 -22.555  1.00  0.00    -0.237 OA
ATOM     87  O   UNL     1      17.630 -10.124 -20.284  1.00  0.00    -0.744 OA
ENDBRANCH  83  84
ENDBRANCH  55  78
BRANCH  67  88
ATOM     88  C   UNL     1      13.164 -20.735 -19.719  1.00  0.00    -0.014 A 
ATOM     89  C   UNL     1      14.330 -21.074 -19.009  1.00  0.00     0.010 A 
ATOM     90  C   UNL     1      12.777 -21.525 -20.818  1.00  0.00     0.010 A 
ATOM     91  C   UNL     1      15.109 -22.164 -19.409  1.00  0.00     0.020 A 
ATOM     92  C   UNL     1      13.538 -22.631 -21.203  1.00  0.00     0.020 A 
ATOM     93  C   UNL     1      14.707 -22.935 -20.504  1.00  0.00     0.054 A 
BRANCH  93  94
ATOM     94  S   UNL     1      15.712 -24.370 -20.975  1.00  0.00     0.124 S 
ATOM     95  O   UNL     1      16.873 -23.737 -21.595  1.00  0.00    -0.237 OA
ATOM     96  O   UNL     1      15.962 -25.023 -19.692  1.00  0.00    -0.237 OA
ATOM     97  O   UNL     1      14.847 -25.114 -21.888  1.00  0.00    -0.744 OA
ENDBRANCH  93  94
ENDBRANCH  67  88
ENDBRANCH  41  42
ENDBRANCH  33  36
ENDBRANCH  31  32
ENDBRANCH  30  31
ENDBRANCH   1  30
TORSDOF 17
