REMARK SMILES CS(=O)(=O)c1ccc(C2=NN(c3ccc(C(=O)NCCCCNC(=O)c4ccc(-c5c6nc(c(-c7ccc(S(=O)(=O)[O-])cc7)c7ccc([nH]7)c(-c7ccc(S(=O)(=O)[O-])cc7)c7nc(c(-c8ccc(S(=O)(=O)[O-])cc8)c8ccc5[nH]8)C=C7)C=C6)cc4)cc3)[C@H](c3ccccc3)C2)cc1
REMARK SMILES IDX 20 1 19 2 18 3 16 4 17 5 15 7 12 8 13 9 87 10 14 11 86 12
REMARK SMILES IDX 11 13 9 14 10 15 95 16 88 17 8 18 5 19 6 20 97 21 7 22 96 23
REMARK SMILES IDX 2 24 1 25 3 26 4 27 89 28 90 29 94 30 91 31 93 32 92 33
REMARK SMILES IDX 21 34 22 35 23 36 24 37 25 39 26 40 27 41 85 42 28 43 84 44
REMARK SMILES IDX 29 45 30 46 31 47 78 48 32 49 83 50 77 51 79 52 33 53 82 54
REMARK SMILES IDX 76 55 75 56 34 58 64 59 45 60 63 61 46 62 49 63 62 64 80 65
REMARK SMILES IDX 47 66 48 67 61 69 81 70 50 71 35 72 36 73 44 74 37 75 43 76
REMARK SMILES IDX 38 77 39 78 40 79 41 80 42 81 65 82 66 83 74 84 67 85 73 86
REMARK SMILES IDX 68 87 69 88 70 89 71 90 72 91 51 92 52 93 60 94 53 95 59 96
REMARK SMILES IDX 54 97 55 98 56 99 57 100 58 101
REMARK H PARENT 18 6 23 38 79 57 49 68
REMARK Flexibility Score: inf
ROOT
ATOM      1  C   UNL     1       7.054   4.160  12.444  1.00  0.00     0.023 C 
ENDROOT
BRANCH   1   2
ATOM      2  C   UNL     1       6.970   5.592  11.910  1.00  0.00     0.116 C 
BRANCH   2   3
ATOM      3  N   UNL     1       7.969   5.829  10.885  1.00  0.00    -0.352 N 
ATOM      4  C   UNL     1       7.860   5.858   9.515  1.00  0.00     0.251 C 
ATOM      5  O   UNL     1       8.841   6.190   8.852  1.00  0.00    -0.269 OA
ATOM      6  H   UNL     1       8.877   5.998  11.228  1.00  0.00     0.163 HD
BRANCH   4   7
ATOM      7  C   UNL     1       6.582   5.557   8.818  1.00  0.00     0.039 A 
ATOM      8  C   UNL     1       4.153   5.129   7.456  1.00  0.00     0.060 A 
ATOM      9  C   UNL     1       5.083   6.054   6.971  1.00  0.00     0.029 A 
ATOM     10  C   UNL     1       4.479   4.379   8.585  1.00  0.00     0.029 A 
ATOM     11  C   UNL     1       6.289   6.269   7.648  1.00  0.00     0.016 A 
ATOM     12  C   UNL     1       5.689   4.574   9.246  1.00  0.00     0.016 A 
BRANCH   8  13
ATOM     13  N   UNL     1       2.924   4.922   6.848  1.00  0.00    -0.257 N 
ATOM     14  C   UNL     1       1.809   4.509   5.092  1.00  0.00     0.071 C 
ATOM     15  N   UNL     1       2.894   4.184   5.716  1.00  0.00    -0.176 NA
ATOM     16  C   UNL     1       0.980   5.591   5.725  1.00  0.00     0.091 C 
ATOM     17  C   UNL     1       1.805   5.857   6.999  1.00  0.00     0.144 C 
BRANCH  14  18
ATOM     18  C   UNL     1       1.414   3.834   3.849  1.00  0.00    -0.002 A 
ATOM     19  C   UNL     1       0.782   2.455   1.520  1.00  0.00     0.067 A 
ATOM     20  C   UNL     1       1.224   1.745   2.637  1.00  0.00     0.021 A 
ATOM     21  C   UNL     1       0.666   3.853   1.561  1.00  0.00     0.021 A 
ATOM     22  C   UNL     1       1.552   2.442   3.799  1.00  0.00     0.011 A 
ATOM     23  C   UNL     1       0.972   4.547   2.735  1.00  0.00     0.011 A 
BRANCH  19  24
ATOM     24  S   UNL     1       0.376   1.632  -0.002  1.00  0.00     0.175 S 
ATOM     25  C   UNL     1       1.132   0.030   0.052  1.00  0.00     0.163 C 
ATOM     26  O   UNL     1       1.024   2.376  -1.062  1.00  0.00    -0.224 OA
ATOM     27  O   UNL     1      -1.065   1.445   0.012  1.00  0.00    -0.224 OA
ENDBRANCH  19  24
ENDBRANCH  14  18
BRANCH  17  28
ATOM     28  C   UNL     1       1.129   5.661   8.354  1.00  0.00    -0.023 A 
ATOM     29  C   UNL     1      -0.014   4.873   8.558  1.00  0.00     0.006 A 
ATOM     30  C   UNL     1       1.723   6.253   9.489  1.00  0.00     0.006 A 
ATOM     31  C   UNL     1      -0.549   4.700   9.841  1.00  0.00     0.000 A 
ATOM     32  C   UNL     1       1.205   6.058  10.771  1.00  0.00     0.000 A 
ATOM     33  C   UNL     1       0.063   5.286  10.946  1.00  0.00     0.000 A 
ENDBRANCH  17  28
ENDBRANCH   8  13
ENDBRANCH   4   7
ENDBRANCH   2   3
ENDBRANCH   1   2
BRANCH   1  34
ATOM     34  C   UNL     1       8.193   3.915  13.432  1.00  0.00     0.023 C 
BRANCH  34  35
ATOM     35  C   UNL     1       8.097   4.709  14.727  1.00  0.00     0.116 C 
BRANCH  35  36
ATOM     36  N   UNL     1       6.867   4.462  15.464  1.00  0.00    -0.352 N 
ATOM     37  C   UNL     1       6.684   4.431  16.826  1.00  0.00     0.251 C 
ATOM     38  H   UNL     1       6.064   4.296  14.919  1.00  0.00     0.163 HD
ATOM     39  O   UNL     1       5.602   4.101  17.299  1.00  0.00    -0.269 OA
BRANCH  37  40
ATOM     40  C   UNL     1       7.822   4.758  17.710  1.00  0.00     0.039 A 
ATOM     41  C   UNL     1       8.145   3.881  18.747  1.00  0.00     0.014 A 
ATOM     42  C   UNL     1       8.597   5.898  17.477  1.00  0.00     0.014 A 
ATOM     43  C   UNL     1       9.289   4.115  19.513  1.00  0.00     0.010 A 
ATOM     44  C   UNL     1       9.775   6.086  18.190  1.00  0.00     0.010 A 
ATOM     45  C   UNL     1      10.132   5.199  19.216  1.00  0.00    -0.014 A 
BRANCH  45  46
ATOM     46  C   UNL     1      11.391   5.424  19.968  1.00  0.00     0.031 A 
ATOM     47  C   UNL     1      11.555   6.662  20.806  1.00  0.00     0.074 A 
ATOM     48  C   UNL     1      12.406   4.546  19.850  1.00  0.00     0.049 A 
ATOM     49  N   UNL     1      12.591   7.057  21.500  1.00  0.00    -0.248 NA
ATOM     50  C   UNL     1      10.413   7.590  20.849  1.00  0.00     0.031 C 
ATOM     51  C   UNL     1      12.382   3.325  19.041  1.00  0.00     0.029 A 
ATOM     52  N   UNL     1      13.657   4.546  20.413  1.00  0.00    -0.354 N 
ATOM     53  C   UNL     1      12.232   8.282  22.050  1.00  0.00     0.074 A 
ATOM     54  C   UNL     1      10.906   8.592  21.561  1.00  0.00     0.031 C 
ATOM     55  C   UNL     1      13.548   2.675  19.192  1.00  0.00     0.029 A 
ATOM     56  C   UNL     1      14.415   3.451  20.072  1.00  0.00     0.049 A 
ATOM     57  H   UNL     1      13.982   5.263  21.004  1.00  0.00     0.167 HD
ATOM     58  C   UNL     1      12.931   9.068  22.904  1.00  0.00     0.031 A 
ATOM     59  C   UNL     1      15.668   3.108  20.432  1.00  0.00     0.031 A 
ATOM     60  C   UNL     1      14.248   8.756  23.389  1.00  0.00     0.049 A 
ATOM     61  C   UNL     1      16.436   4.010  21.358  1.00  0.00     0.074 A 
ATOM     62  C   UNL     1      15.026   9.464  24.288  1.00  0.00     0.029 A 
ATOM     63  N   UNL     1      14.986   7.644  23.011  1.00  0.00    -0.354 N 
ATOM     64  N   UNL     1      16.058   5.137  21.913  1.00  0.00    -0.248 NA
ATOM     65  C   UNL     1      17.797   3.587  21.714  1.00  0.00     0.031 C 
ATOM     66  C   UNL     1      16.253   8.804  24.418  1.00  0.00     0.029 A 
ATOM     67  C   UNL     1      16.218   7.655  23.642  1.00  0.00     0.049 A 
ATOM     68  H   UNL     1      14.679   6.948  22.386  1.00  0.00     0.167 HD
ATOM     69  C   UNL     1      17.124   5.542  22.709  1.00  0.00     0.074 A 
ATOM     70  C   UNL     1      18.157   4.534  22.570  1.00  0.00     0.031 C 
ATOM     71  C   UNL     1      17.236   6.646  23.490  1.00  0.00     0.031 A 
BRANCH  58  72
ATOM     72  C   UNL     1      12.272  10.346  23.355  1.00  0.00    -0.014 A 
ATOM     73  C   UNL     1      11.145  10.323  24.198  1.00  0.00     0.010 A 
ATOM     74  C   UNL     1      12.780  11.586  22.928  1.00  0.00     0.010 A 
ATOM     75  C   UNL     1      10.501  11.511  24.552  1.00  0.00     0.020 A 
ATOM     76  C   UNL     1      12.157  12.779  23.307  1.00  0.00     0.020 A 
ATOM     77  C   UNL     1      11.005  12.731  24.095  1.00  0.00     0.054 A 
BRANCH  77  78
ATOM     78  S   UNL     1      10.141  14.257  24.556  1.00  0.00     0.124 S 
ATOM     79  O   UNL     1       8.963  14.206  23.694  1.00  0.00    -0.237 OA
ATOM     80  O   UNL     1       9.884  14.064  25.981  1.00  0.00    -0.237 OA
ATOM     81  O   UNL     1      11.101  15.310  24.236  1.00  0.00    -0.744 OA
ENDBRANCH  77  78
ENDBRANCH  58  72
BRANCH  59  82
ATOM     82  C   UNL     1      16.256   1.831  19.946  1.00  0.00    -0.014 A 
ATOM     83  C   UNL     1      16.434   0.754  20.832  1.00  0.00     0.010 A 
ATOM     84  C   UNL     1      16.622   1.674  18.597  1.00  0.00     0.010 A 
ATOM     85  C   UNL     1      16.979  -0.452  20.383  1.00  0.00     0.020 A 
ATOM     86  C   UNL     1      17.143   0.461  18.138  1.00  0.00     0.020 A 
ATOM     87  C   UNL     1      17.328  -0.592  19.037  1.00  0.00     0.054 A 
BRANCH  87  88
ATOM     88  S   UNL     1      17.978  -2.187  18.465  1.00  0.00     0.124 S 
ATOM     89  O   UNL     1      19.326  -2.183  19.024  1.00  0.00    -0.237 OA
ATOM     90  O   UNL     1      17.047  -3.140  19.064  1.00  0.00    -0.237 OA
ATOM     91  O   UNL     1      17.901  -2.084  17.009  1.00  0.00    -0.744 OA
ENDBRANCH  87  88
ENDBRANCH  59  82
BRANCH  71  92
ATOM     92  C   UNL     1      18.506   6.805  24.283  1.00  0.00    -0.014 A 
ATOM     93  C   UNL     1      19.718   7.150  23.660  1.00  0.00     0.010 A 
ATOM     94  C   UNL     1      18.471   6.654  25.681  1.00  0.00     0.010 A 
ATOM     95  C   UNL     1      20.880   7.311  24.419  1.00  0.00     0.020 A 
ATOM     96  C   UNL     1      19.624   6.842  26.447  1.00  0.00     0.020 A 
ATOM     97  C   UNL     1      20.826   7.155  25.808  1.00  0.00     0.054 A 
BRANCH  97  98
ATOM     98  S   UNL     1      22.337   7.413  26.776  1.00  0.00     0.124 S 
ATOM     99  O   UNL     1      23.094   6.198  26.488  1.00  0.00    -0.237 OA
ATOM    100  O   UNL     1      22.880   8.643  26.204  1.00  0.00    -0.237 OA
ATOM    101  O   UNL     1      21.853   7.535  28.150  1.00  0.00    -0.744 OA
ENDBRANCH  97  98
ENDBRANCH  71  92
ENDBRANCH  45  46
ENDBRANCH  37  40
ENDBRANCH  35  36
ENDBRANCH  34  35
ENDBRANCH   1  34
TORSDOF 18
