REMARK SMILES CN(C)S(=O)(=O)c1ccc(Cl)c(C(=O)N[C@H](CC2=c3ccccc3=NC2)C(=O)NCCCCNC(=O)c2ccc(-c3c4nc(c(-c5ccc(S(=O)(=O)[O-])cc5)c5ccc([nH]5)c(-c5ccc(S(=O)(=O)[O-])cc5)c5nc(c(-c6ccc(S(=O)(=O)[O-])cc6)c6ccc3[nH]6)C=C5)C=C4)cc2)c1
REMARK SMILES IDX 31 1 30 2 29 3 27 4 28 5 16 7 15 8 13 9 14 10 12 12 7 13
REMARK SMILES IDX 8 14 97 15 9 16 10 17 11 18 4 19 5 20 6 21 2 22 1 23 3 24
REMARK SMILES IDX 17 25 18 26 19 27 26 28 20 29 24 30 25 31 21 32 23 33 22 34
REMARK SMILES IDX 32 35 33 36 34 37 35 38 36 40 37 41 38 42 96 43 39 44 95 45
REMARK SMILES IDX 40 46 41 47 42 48 89 49 43 50 94 51 88 52 90 53 44 54 93 55
REMARK SMILES IDX 87 56 86 57 45 59 75 60 56 61 74 62 57 63 60 64 73 65 91 66
REMARK SMILES IDX 58 67 59 68 72 70 92 71 61 72 46 73 47 74 55 75 48 76 54 77
REMARK SMILES IDX 49 78 50 79 51 80 52 81 53 82 76 83 77 84 85 85 78 86 84 87
REMARK SMILES IDX 79 88 80 89 81 90 82 91 83 92 62 93 63 94 71 95 64 96 70 97
REMARK SMILES IDX 65 98 66 99 67 100 68 101 69 102
REMARK H PARENT 29 6 15 11 34 39 90 58 60 69
REMARK Flexibility Score: inf
ROOT
ATOM      1  C   UNL     1      -5.064   7.307  -6.464  1.00  0.00     0.023 C 
ENDROOT
BRANCH   1   2
ATOM      2  C   UNL     1      -4.041   8.362  -6.067  1.00  0.00     0.116 C 
BRANCH   2   3
ATOM      3  N   UNL     1      -3.755   8.432  -4.662  1.00  0.00    -0.354 N 
ATOM      4  C   UNL     1      -2.551   8.311  -4.040  1.00  0.00     0.242 C 
ATOM      5  O   UNL     1      -2.463   8.858  -2.933  1.00  0.00    -0.273 OA
ATOM      6  H   UNL     1      -4.529   8.588  -4.073  1.00  0.00     0.163 HD
BRANCH   4   7
ATOM      7  C   UNL     1      -1.308   7.579  -4.643  1.00  0.00     0.175 C 
BRANCH   7   8
ATOM      8  N   UNL     1      -0.180   8.368  -5.146  1.00  0.00    -0.340 N 
ATOM      9  C   UNL     1       0.737   9.200  -4.563  1.00  0.00     0.253 C 
ATOM     10  O   UNL     1       1.746   9.471  -5.220  1.00  0.00    -0.269 OA
ATOM     11  H   UNL     1      -0.053   8.279  -6.118  1.00  0.00     0.164 HD
BRANCH   9  12
ATOM     12  C   UNL     1       0.567   9.905  -3.274  1.00  0.00     0.059 A 
ATOM     13  C   UNL     1       0.928  12.042  -2.157  1.00  0.00     0.083 A 
ATOM     14  C   UNL     1       0.630  11.456  -0.927  1.00  0.00     0.023 A 
ATOM     15  C   UNL     1       0.824  11.295  -3.332  1.00  0.00     0.037 A 
ATOM     16  C   UNL     1       0.367  10.089  -0.862  1.00  0.00     0.023 A 
ATOM     17  C   UNL     1       0.425   9.298  -2.019  1.00  0.00     0.053 A 
ATOM     18  Cl  UNL     1       0.545   7.596  -1.751  1.00  0.00    -0.083 Cl
BRANCH  13  19
ATOM     19  S   UNL     1       1.611  13.685  -2.127  1.00  0.00     0.242 S 
ATOM     20  O   UNL     1       2.569  13.719  -1.039  1.00  0.00    -0.207 OA
ATOM     21  O   UNL     1       0.491  14.599  -2.165  1.00  0.00    -0.207 OA
BRANCH  19  22
ATOM     22  N   UNL     1       2.519  13.890  -3.570  1.00  0.00    -0.204 NA
ATOM     23  C   UNL     1       2.953  15.307  -3.736  1.00  0.00     0.124 C 
ATOM     24  C   UNL     1       3.684  12.987  -3.745  1.00  0.00     0.124 C 
ENDBRANCH  19  22
ENDBRANCH  13  19
ENDBRANCH   9  12
ENDBRANCH   7   8
BRANCH   7  25
ATOM     25  C   UNL     1      -1.539   6.290  -5.480  1.00  0.00     0.068 C 
BRANCH  25  26
ATOM     26  C   UNL     1      -1.482   6.181  -6.993  1.00  0.00    -0.037 C 
ATOM     27  C   UNL     1      -1.476   7.038  -8.021  1.00  0.00     0.001 A 
ATOM     28  C   UNL     1      -1.503   4.764  -7.523  1.00  0.00     0.174 C 
ATOM     29  C   UNL     1      -1.458   8.460  -8.204  1.00  0.00     0.010 A 
ATOM     30  C   UNL     1      -1.722   6.148  -9.180  1.00  0.00     0.065 A 
ATOM     31  N   UNL     1      -1.712   4.867  -8.977  1.00  0.00    -0.280 NA
ATOM     32  C   UNL     1      -1.780   8.979  -9.400  1.00  0.00     0.001 A 
ATOM     33  C   UNL     1      -2.053   6.793 -10.468  1.00  0.00     0.028 A 
ATOM     34  C   UNL     1      -2.111   8.132 -10.529  1.00  0.00     0.002 A 
ENDBRANCH  25  26
ENDBRANCH   7  25
ENDBRANCH   4   7
ENDBRANCH   2   3
ENDBRANCH   1   2
BRANCH   1  35
ATOM     35  C   UNL     1      -6.456   7.862  -6.755  1.00  0.00     0.023 C 
BRANCH  35  36
ATOM     36  C   UNL     1      -6.525   8.968  -7.804  1.00  0.00     0.116 C 
BRANCH  36  37
ATOM     37  N   UNL     1      -5.996   8.621  -9.118  1.00  0.00    -0.352 N 
ATOM     38  C   UNL     1      -6.376   9.179 -10.326  1.00  0.00     0.251 C 
ATOM     39  H   UNL     1      -5.301   7.925  -9.149  1.00  0.00     0.163 HD
ATOM     40  O   UNL     1      -5.885   8.814 -11.387  1.00  0.00    -0.269 OA
BRANCH  38  41
ATOM     41  C   UNL     1      -7.442  10.204 -10.290  1.00  0.00     0.039 A 
ATOM     42  C   UNL     1      -7.264  11.339  -9.498  1.00  0.00     0.014 A 
ATOM     43  C   UNL     1      -8.683   9.919 -10.864  1.00  0.00     0.014 A 
ATOM     44  C   UNL     1      -8.378  12.073  -9.111  1.00  0.00     0.010 A 
ATOM     45  C   UNL     1      -9.785  10.717 -10.543  1.00  0.00     0.010 A 
ATOM     46  C   UNL     1      -9.656  11.755  -9.606  1.00  0.00    -0.014 A 
BRANCH  46  47
ATOM     47  C   UNL     1     -10.839  12.502  -9.098  1.00  0.00     0.031 A 
ATOM     48  C   UNL     1     -11.917  11.810  -8.301  1.00  0.00     0.074 A 
ATOM     49  C   UNL     1     -10.903  13.834  -9.293  1.00  0.00     0.049 A 
ATOM     50  N   UNL     1     -12.984  12.326  -7.746  1.00  0.00    -0.248 NA
ATOM     51  C   UNL     1     -11.787  10.357  -8.100  1.00  0.00     0.031 C 
ATOM     52  C   UNL     1      -9.911  14.620 -10.027  1.00  0.00     0.029 A 
ATOM     53  N   UNL     1     -11.816  14.764  -8.863  1.00  0.00    -0.354 N 
ATOM     54  C   UNL     1     -13.665  11.265  -7.159  1.00  0.00     0.074 A 
ATOM     55  C   UNL     1     -12.901  10.070  -7.438  1.00  0.00     0.031 C 
ATOM     56  C   UNL     1     -10.230  15.918  -9.939  1.00  0.00     0.029 A 
ATOM     57  C   UNL     1     -11.487  16.053  -9.207  1.00  0.00     0.049 A 
ATOM     58  H   UNL     1     -12.627  14.530  -8.356  1.00  0.00     0.167 HD
ATOM     59  C   UNL     1     -14.818  11.288  -6.447  1.00  0.00     0.031 A 
ATOM     60  C   UNL     1     -12.120  17.220  -8.975  1.00  0.00     0.031 A 
ATOM     61  C   UNL     1     -15.559  12.486  -6.145  1.00  0.00     0.049 A 
ATOM     62  C   UNL     1     -13.406  17.219  -8.206  1.00  0.00     0.074 A 
ATOM     63  C   UNL     1     -16.712  12.608  -5.389  1.00  0.00     0.029 A 
ATOM     64  N   UNL     1     -15.229  13.761  -6.578  1.00  0.00    -0.354 N 
ATOM     65  N   UNL     1     -14.027  16.204  -7.654  1.00  0.00    -0.248 NA
ATOM     66  C   UNL     1     -14.082  18.510  -8.033  1.00  0.00     0.031 C 
ATOM     67  C   UNL     1     -17.114  13.945  -5.417  1.00  0.00     0.029 A 
ATOM     68  C   UNL     1     -16.176  14.669  -6.136  1.00  0.00     0.049 A 
ATOM     69  H   UNL     1     -14.438  13.986  -7.119  1.00  0.00     0.167 HD
ATOM     70  C   UNL     1     -15.172  16.733  -7.073  1.00  0.00     0.074 A 
ATOM     71  C   UNL     1     -15.145  18.161  -7.318  1.00  0.00     0.031 C 
ATOM     72  C   UNL     1     -16.158  16.086  -6.405  1.00  0.00     0.031 A 
BRANCH  59  73
ATOM     73  C   UNL     1     -15.378   9.982  -5.943  1.00  0.00    -0.014 A 
ATOM     74  C   UNL     1     -16.577   9.487  -6.490  1.00  0.00     0.010 A 
ATOM     75  C   UNL     1     -14.794   9.308  -4.856  1.00  0.00     0.010 A 
ATOM     76  C   UNL     1     -17.195   8.357  -5.947  1.00  0.00     0.020 A 
ATOM     77  C   UNL     1     -15.397   8.162  -4.325  1.00  0.00     0.020 A 
ATOM     78  C   UNL     1     -16.605   7.706  -4.861  1.00  0.00     0.054 A 
BRANCH  78  79
ATOM     79  S   UNL     1     -17.423   6.246  -4.161  1.00  0.00     0.124 S 
ATOM     80  O   UNL     1     -18.484   6.843  -3.356  1.00  0.00    -0.237 OA
ATOM     81  O   UNL     1     -17.864   5.522  -5.351  1.00  0.00    -0.237 OA
ATOM     82  O   UNL     1     -16.357   5.590  -3.406  1.00  0.00    -0.744 OA
ENDBRANCH  78  79
ENDBRANCH  59  73
BRANCH  60  83
ATOM     83  C   UNL     1     -11.504  18.472  -9.489  1.00  0.00    -0.014 A 
ATOM     84  C   UNL     1     -11.437  18.707 -10.876  1.00  0.00     0.010 A 
ATOM     85  C   UNL     1     -10.851  19.353  -8.611  1.00  0.00     0.010 A 
ATOM     86  C   UNL     1     -10.657  19.749 -11.380  1.00  0.00     0.020 A 
ATOM     87  C   UNL     1     -10.093  20.416  -9.112  1.00  0.00     0.020 A 
ATOM     88  C   UNL     1      -9.969  20.581 -10.494  1.00  0.00     0.054 A 
BRANCH  88  89
ATOM     89  S   UNL     1      -8.875  21.860 -11.170  1.00  0.00     0.124 S 
ATOM     90  O   UNL     1      -7.699  21.077 -11.541  1.00  0.00    -0.237 OA
ATOM     91  O   UNL     1      -9.653  22.393 -12.285  1.00  0.00    -0.237 OA
ATOM     92  O   UNL     1      -8.689  22.776 -10.049  1.00  0.00    -0.744 OA
ENDBRANCH  88  89
ENDBRANCH  60  83
BRANCH  72  93
ATOM     93  C   UNL     1     -17.322  16.898  -5.904  1.00  0.00    -0.014 A 
ATOM     94  C   UNL     1     -17.500  17.091  -4.522  1.00  0.00     0.010 A 
ATOM     95  C   UNL     1     -18.304  17.364  -6.795  1.00  0.00     0.010 A 
ATOM     96  C   UNL     1     -18.656  17.707  -4.037  1.00  0.00     0.020 A 
ATOM     97  C   UNL     1     -19.450  18.004  -6.315  1.00  0.00     0.020 A 
ATOM     98  C   UNL     1     -19.630  18.149  -4.936  1.00  0.00     0.054 A 
BRANCH  98  99
ATOM     99  S   UNL     1     -21.137  18.924  -4.289  1.00  0.00     0.124 S 
ATOM    100  O   UNL     1     -21.915  17.767  -3.857  1.00  0.00    -0.237 OA
ATOM    101  O   UNL     1     -20.628  19.776  -3.217  1.00  0.00    -0.237 OA
ATOM    102  O   UNL     1     -21.674  19.643  -5.442  1.00  0.00    -0.744 OA
ENDBRANCH  98  99
ENDBRANCH  72  93
ENDBRANCH  46  47
ENDBRANCH  38  41
ENDBRANCH  36  37
ENDBRANCH  35  36
ENDBRANCH   1  35
TORSDOF 20
