REMARK SMILES Cc1cccc(-c2cccc(C(=O)NCCCCNC(=O)c3ccc(-c4c5nc(c(-c6ccc(S(=O)(=O)[O-])cc6)c6ccc([nH]6)c(-c6ccc(S(=O)(=O)[O-])cc6)c6nc(c(-c7ccc(S(=O)(=O)[O-])cc7)c7ccc4[nH]7)C=C6)C=C5)cc3)c2)c1
REMARK SMILES IDX 17 1 16 2 15 3 14 4 12 5 13 6 11 8 7 9 8 10 82 11 9 12 10 13
REMARK SMILES IDX 6 14 1 15 2 16 3 17 83 18 4 19 5 20 18 21 19 22 20 23 21 25
REMARK SMILES IDX 22 26 23 27 81 28 24 29 80 30 25 31 26 32 27 33 74 34 28 35
REMARK SMILES IDX 79 36 73 37 75 38 29 39 78 40 72 41 71 42 30 44 60 45 41 46
REMARK SMILES IDX 59 47 42 48 45 49 58 50 76 51 43 52 44 53 57 55 77 56 46 57
REMARK SMILES IDX 31 58 32 59 40 60 33 61 39 62 34 63 35 64 36 65 37 66 38 67
REMARK SMILES IDX 61 68 62 69 70 70 63 71 69 72 64 73 65 74 66 75 67 76 68 77
REMARK SMILES IDX 47 78 48 79 56 80 49 81 55 82 50 83 51 84 52 85 53 86 54 87
REMARK H PARENT 14 7 19 24 75 43 45 54
REMARK Flexibility Score: inf
ROOT
ATOM      1  C   UNL     1      -7.820   6.728   0.871  1.00  0.00     0.023 C 
ENDROOT
BRANCH   1   2
ATOM      2  C   UNL     1      -6.585   6.599  -0.019  1.00  0.00     0.023 C 
BRANCH   2   3
ATOM      3  C   UNL     1      -5.232   6.739   0.686  1.00  0.00     0.116 C 
BRANCH   3   4
ATOM      4  N   UNL     1      -4.966   5.692   1.668  1.00  0.00    -0.352 N 
ATOM      5  C   UNL     1      -4.130   4.604   1.741  1.00  0.00     0.251 C 
ATOM      6  O   UNL     1      -4.234   3.891   2.743  1.00  0.00    -0.269 OA
ATOM      7  H   UNL     1      -5.521   5.788   2.475  1.00  0.00     0.163 HD
BRANCH   5   8
ATOM      8  C   UNL     1      -3.137   4.205   0.697  1.00  0.00     0.040 A 
ATOM      9  C   UNL     1      -1.698   2.413  -0.197  1.00  0.00    -0.018 A 
ATOM     10  C   UNL     1      -1.272   3.299  -1.198  1.00  0.00     0.009 A 
ATOM     11  C   UNL     1      -2.666   2.872   0.717  1.00  0.00     0.022 A 
ATOM     12  C   UNL     1      -1.691   4.625  -1.205  1.00  0.00     0.001 A 
ATOM     13  C   UNL     1      -2.571   5.083  -0.226  1.00  0.00     0.014 A 
BRANCH   9  14
ATOM     14  C   UNL     1      -1.058   1.090  -0.078  1.00  0.00    -0.018 A 
ATOM     15  C   UNL     1       2.517  -0.276   0.057  1.00  0.00     0.044 C 
ATOM     16  C   UNL     1       1.019  -0.224   0.040  1.00  0.00    -0.051 A 
ATOM     17  C   UNL     1       0.264  -1.398   0.088  1.00  0.00     0.003 A 
ATOM     18  C   UNL     1       0.350   1.004  -0.040  1.00  0.00     0.012 A 
ATOM     19  C   UNL     1      -1.131  -1.337   0.070  1.00  0.00     0.001 A 
ATOM     20  C   UNL     1      -1.788  -0.103  -0.009  1.00  0.00     0.009 A 
ENDBRANCH   9  14
ENDBRANCH   5   8
ENDBRANCH   3   4
ENDBRANCH   2   3
ENDBRANCH   1   2
BRANCH   1  21
ATOM     21  C   UNL     1      -7.957   8.067   1.585  1.00  0.00     0.116 C 
BRANCH  21  22
ATOM     22  N   UNL     1      -8.615   9.114   0.826  1.00  0.00    -0.352 N 
ATOM     23  C   UNL     1      -9.122  10.301   1.360  1.00  0.00     0.251 C 
ATOM     24  H   UNL     1      -8.713   8.977  -0.144  1.00  0.00     0.163 HD
ATOM     25  O   UNL     1     -10.109  10.849   0.938  1.00  0.00    -0.269 OA
BRANCH  23  26
ATOM     26  C   UNL     1      -8.262  10.959   2.379  1.00  0.00     0.039 A 
ATOM     27  C   UNL     1      -7.611  12.143   2.013  1.00  0.00     0.014 A 
ATOM     28  C   UNL     1      -7.914  10.285   3.543  1.00  0.00     0.014 A 
ATOM     29  C   UNL     1      -6.487  12.559   2.729  1.00  0.00     0.010 A 
ATOM     30  C   UNL     1      -6.742  10.635   4.182  1.00  0.00     0.010 A 
ATOM     31  C   UNL     1      -6.003  11.747   3.752  1.00  0.00    -0.014 A 
BRANCH  31  32
ATOM     32  C   UNL     1      -4.705  11.912   4.402  1.00  0.00     0.031 A 
ATOM     33  C   UNL     1      -4.630  12.348   5.816  1.00  0.00     0.074 A 
ATOM     34  C   UNL     1      -3.579  11.495   3.781  1.00  0.00     0.049 A 
ATOM     35  N   UNL     1      -3.559  12.776   6.399  1.00  0.00    -0.248 NA
ATOM     36  C   UNL     1      -5.802  12.378   6.683  1.00  0.00     0.031 C 
ATOM     37  C   UNL     1      -2.293  11.201   4.409  1.00  0.00     0.029 A 
ATOM     38  N   UNL     1      -3.297  11.462   2.415  1.00  0.00    -0.354 N 
ATOM     39  C   UNL     1      -3.810  12.793   7.754  1.00  0.00     0.074 A 
ATOM     40  C   UNL     1      -5.244  12.650   7.864  1.00  0.00     0.031 C 
ATOM     41  C   UNL     1      -1.329  11.327   3.486  1.00  0.00     0.029 A 
ATOM     42  C   UNL     1      -1.953  11.860   2.288  1.00  0.00     0.049 A 
ATOM     43  H   UNL     1      -3.912  11.211   1.688  1.00  0.00     0.167 HD
ATOM     44  C   UNL     1      -2.768  12.772   8.635  1.00  0.00     0.031 A 
ATOM     45  C   UNL     1      -1.558  12.988   1.625  1.00  0.00     0.031 A 
ATOM     46  C   UNL     1      -1.472  12.927   7.966  1.00  0.00     0.049 A 
ATOM     47  C   UNL     1      -0.804  13.979   2.495  1.00  0.00     0.074 A 
ATOM     48  C   UNL     1      -0.393  12.094   7.715  1.00  0.00     0.029 A 
ATOM     49  N   UNL     1      -1.250  14.068   7.209  1.00  0.00    -0.354 N 
ATOM     50  N   UNL     1      -0.524  13.793   3.756  1.00  0.00    -0.248 NA
ATOM     51  C   UNL     1      -0.401  15.309   2.034  1.00  0.00     0.031 C 
ATOM     52  C   UNL     1       0.472  12.749   6.788  1.00  0.00     0.029 A 
ATOM     53  C   UNL     1      -0.077  13.980   6.485  1.00  0.00     0.049 A 
ATOM     54  H   UNL     1      -1.855  14.844   7.190  1.00  0.00     0.167 HD
ATOM     55  C   UNL     1       0.002  14.940   4.284  1.00  0.00     0.074 A 
ATOM     56  C   UNL     1       0.081  15.858   3.163  1.00  0.00     0.031 C 
ATOM     57  C   UNL     1       0.284  15.083   5.610  1.00  0.00     0.031 A 
BRANCH  44  58
ATOM     58  C   UNL     1      -2.912  12.365  10.092  1.00  0.00    -0.014 A 
ATOM     59  C   UNL     1      -1.797  11.864  10.795  1.00  0.00     0.010 A 
ATOM     60  C   UNL     1      -4.123  12.386  10.810  1.00  0.00     0.010 A 
ATOM     61  C   UNL     1      -1.907  11.317  12.085  1.00  0.00     0.020 A 
ATOM     62  C   UNL     1      -4.260  11.813  12.084  1.00  0.00     0.020 A 
ATOM     63  C   UNL     1      -3.150  11.265  12.710  1.00  0.00     0.054 A 
BRANCH  63  64
ATOM     64  S   UNL     1      -3.305  10.474  14.332  1.00  0.00     0.124 S 
ATOM     65  O   UNL     1      -2.788   9.132  14.079  1.00  0.00    -0.237 OA
ATOM     66  O   UNL     1      -2.471  11.324  15.176  1.00  0.00    -0.237 OA
ATOM     67  O   UNL     1      -4.738  10.538  14.613  1.00  0.00    -0.744 OA
ENDBRANCH  63  64
ENDBRANCH  44  58
BRANCH  45  68
ATOM     68  C   UNL     1      -2.443  13.351   0.482  1.00  0.00    -0.014 A 
ATOM     69  C   UNL     1      -2.422  12.493  -0.638  1.00  0.00     0.010 A 
ATOM     70  C   UNL     1      -3.559  14.180   0.689  1.00  0.00     0.010 A 
ATOM     71  C   UNL     1      -3.572  12.310  -1.408  1.00  0.00     0.020 A 
ATOM     72  C   UNL     1      -4.710  14.005  -0.091  1.00  0.00     0.020 A 
ATOM     73  C   UNL     1      -4.731  13.011  -1.074  1.00  0.00     0.054 A 
BRANCH  73  74
ATOM     74  S   UNL     1      -6.305  12.449  -1.791  1.00  0.00     0.124 S 
ATOM     75  O   UNL     1      -6.018  12.449  -3.222  1.00  0.00    -0.237 OA
ATOM     76  O   UNL     1      -6.459  11.128  -1.179  1.00  0.00    -0.237 OA
ATOM     77  O   UNL     1      -7.256  13.459  -1.338  1.00  0.00    -0.744 OA
ENDBRANCH  73  74
ENDBRANCH  45  68
BRANCH  57  78
ATOM     78  C   UNL     1       0.897  16.323   6.198  1.00  0.00    -0.014 A 
ATOM     79  C   UNL     1       1.972  16.988   5.585  1.00  0.00     0.010 A 
ATOM     80  C   UNL     1       0.485  16.784   7.467  1.00  0.00     0.010 A 
ATOM     81  C   UNL     1       2.570  18.104   6.187  1.00  0.00     0.020 A 
ATOM     82  C   UNL     1       1.087  17.883   8.085  1.00  0.00     0.020 A 
ATOM     83  C   UNL     1       2.117  18.550   7.430  1.00  0.00     0.054 A 
BRANCH  83  84
ATOM     84  S   UNL     1       2.925  19.969   8.213  1.00  0.00     0.124 S 
ATOM     85  O   UNL     1       4.341  19.722   7.945  1.00  0.00    -0.237 OA
ATOM     86  O   UNL     1       2.337  21.090   7.484  1.00  0.00    -0.237 OA
ATOM     87  O   UNL     1       2.535  19.862   9.616  1.00  0.00    -0.744 OA
ENDBRANCH  83  84
ENDBRANCH  57  78
ENDBRANCH  31  32
ENDBRANCH  23  26
ENDBRANCH  21  22
ENDBRANCH   1  21
TORSDOF 15
