REMARK SMILES CC(C)c1s/c(=N/C(=O)CCC(=O)NC2CCCCCCC2)[nH]c1C(=O)NCCCCNC(=O)c1ccc(-c2c3nc(c(-c4ccc(S(=O)(=O)[O-])cc4)c4ccc([nH]4)c(-c4ccc(S(=O)(=O)[O-])cc4)c4nc(c(-c5ccc(S(=O)(=O)[O-])cc5)c5ccc2[nH]5)C=C4)C=C3)cc1
REMARK SMILES IDX 4 1 5 2 6 3 7 4 23 5 24 6 2 8 1 9 3 10 25 11 26 12 27 13
REMARK SMILES IDX 28 15 29 16 30 17 31 18 32 19 33 20 34 22 35 23 36 24 94 25
REMARK SMILES IDX 37 26 93 27 38 28 39 29 40 30 87 31 41 32 92 33 86 34 88 35
REMARK SMILES IDX 42 36 91 37 85 38 84 39 43 41 73 42 54 43 72 44 55 45 58 46
REMARK SMILES IDX 71 47 89 48 56 49 57 50 70 52 90 53 59 54 44 55 45 56 53 57
REMARK SMILES IDX 46 58 52 59 47 60 48 61 49 62 50 63 51 64 74 65 75 66 83 67
REMARK SMILES IDX 76 68 82 69 77 70 78 71 79 72 80 73 81 74 60 75 61 76 69 77
REMARK SMILES IDX 62 78 68 79 63 80 64 81 65 82 66 83 67 84 8 85 9 86 10 87
REMARK SMILES IDX 11 88 12 89 13 90 14 91 15 93 16 94 17 95 18 96 22 98 21 99
REMARK SMILES IDX 20 100 19 101
REMARK H PARENT 23 7 27 14 32 21 88 40 58 51 14 92
REMARK Flexibility Score: 80.00
ROOT
ATOM      1  C   UNL     1      -1.274   2.107  -0.830  1.00  0.00     0.040 A 
ATOM      2  S   UNL     1      -2.239   3.411  -1.611  1.00  0.00    -0.101 S 
ATOM      3  C   UNL     1      -3.642   2.349  -1.762  1.00  0.00     0.190 A 
ATOM      4  N   UNL     1      -4.771   2.898  -2.014  1.00  0.00    -0.185 NA
ATOM      5  N   UNL     1      -3.216   1.087  -1.478  1.00  0.00    -0.326 N 
ATOM      6  C   UNL     1      -1.932   0.922  -0.921  1.00  0.00     0.120 A 
ATOM      7  H   UNL     1      -3.791   0.308  -1.656  1.00  0.00     0.169 HD
ENDROOT
BRANCH   1   8
ATOM      8  C   UNL     1      -0.051   2.617  -0.104  1.00  0.00     0.026 C 
ATOM      9  C   UNL     1       0.173   2.002   1.275  1.00  0.00     0.013 C 
ATOM     10  C   UNL     1       1.177   2.667  -1.020  1.00  0.00     0.013 C 
ENDBRANCH   1   8
BRANCH   6  11
ATOM     11  C   UNL     1      -1.711  -0.472  -0.382  1.00  0.00     0.268 C 
ATOM     12  O   UNL     1      -2.728  -1.104  -0.060  1.00  0.00    -0.268 OA
ATOM     13  N   UNL     1      -0.548  -1.155  -0.289  1.00  0.00    -0.351 N 
ATOM     14  H   UNL     1      -0.670  -2.045   0.113  1.00  0.00     0.163 HD
BRANCH  13  15
ATOM     15  C   UNL     1       0.836  -0.894  -0.639  1.00  0.00     0.116 C 
BRANCH  15  16
ATOM     16  C   UNL     1       1.709  -0.782   0.619  1.00  0.00     0.023 C 
BRANCH  16  17
ATOM     17  C   UNL     1       2.729  -1.899   0.827  1.00  0.00     0.023 C 
BRANCH  17  18
ATOM     18  C   UNL     1       3.859  -1.947  -0.190  1.00  0.00     0.116 C 
BRANCH  18  19
ATOM     19  N   UNL     1       4.685  -0.748  -0.225  1.00  0.00    -0.352 N 
ATOM     20  C   UNL     1       6.040  -0.647  -0.471  1.00  0.00     0.251 C 
ATOM     21  H   UNL     1       4.216   0.100  -0.051  1.00  0.00     0.163 HD
ATOM     22  O   UNL     1       6.598   0.440  -0.414  1.00  0.00    -0.269 OA
BRANCH  20  23
ATOM     23  C   UNL     1       6.816  -1.879  -0.742  1.00  0.00     0.039 A 
ATOM     24  C   UNL     1       7.982  -2.118  -0.011  1.00  0.00     0.014 A 
ATOM     25  C   UNL     1       6.345  -2.834  -1.645  1.00  0.00     0.014 A 
ATOM     26  C   UNL     1       8.614  -3.361  -0.106  1.00  0.00     0.010 A 
ATOM     27  C   UNL     1       6.922  -4.098  -1.672  1.00  0.00     0.010 A 
ATOM     28  C   UNL     1       8.053  -4.382  -0.891  1.00  0.00    -0.014 A 
BRANCH  28  29
ATOM     29  C   UNL     1       8.608  -5.761  -0.894  1.00  0.00     0.031 A 
ATOM     30  C   UNL     1       9.113  -6.368  -2.175  1.00  0.00     0.074 A 
ATOM     31  C   UNL     1       8.563  -6.504   0.231  1.00  0.00     0.049 A 
ATOM     32  N   UNL     1       9.522  -7.589  -2.404  1.00  0.00    -0.248 NA
ATOM     33  C   UNL     1       9.123  -5.498  -3.363  1.00  0.00     0.031 C 
ATOM     34  C   UNL     1       8.040  -6.059   1.526  1.00  0.00     0.029 A 
ATOM     35  N   UNL     1       8.954  -7.799   0.464  1.00  0.00    -0.354 N 
ATOM     36  C   UNL     1       9.804  -7.644  -3.764  1.00  0.00     0.074 A 
ATOM     37  C   UNL     1       9.478  -6.347  -4.316  1.00  0.00     0.031 C 
ATOM     38  C   UNL     1       8.170  -7.053   2.421  1.00  0.00     0.029 A 
ATOM     39  C   UNL     1       8.749  -8.216   1.759  1.00  0.00     0.049 A 
ATOM     40  H   UNL     1       9.346  -8.376  -0.231  1.00  0.00     0.167 HD
ATOM     41  C   UNL     1      10.308  -8.673  -4.486  1.00  0.00     0.031 A 
ATOM     42  C   UNL     1       8.996  -9.402   2.348  1.00  0.00     0.031 A 
ATOM     43  C   UNL     1      10.671  -9.948  -3.931  1.00  0.00     0.049 A 
ATOM     44  C   UNL     1       9.603 -10.514   1.537  1.00  0.00     0.074 A 
ATOM     45  C   UNL     1      11.252 -11.030  -4.567  1.00  0.00     0.029 A 
ATOM     46  N   UNL     1      10.498 -10.308  -2.603  1.00  0.00    -0.354 N 
ATOM     47  N   UNL     1       9.916 -10.525   0.263  1.00  0.00    -0.248 NA
ATOM     48  C   UNL     1       9.902 -11.767   2.244  1.00  0.00     0.031 C 
ATOM     49  C   UNL     1      11.408 -12.056  -3.629  1.00  0.00     0.029 A 
ATOM     50  C   UNL     1      10.959 -11.597  -2.401  1.00  0.00     0.049 A 
ATOM     51  H   UNL     1      10.107  -9.732  -1.908  1.00  0.00     0.167 HD
ATOM     52  C   UNL     1      10.474 -11.775   0.024  1.00  0.00     0.074 A 
ATOM     53  C   UNL     1      10.464 -12.489   1.284  1.00  0.00     0.031 C 
ATOM     54  C   UNL     1      10.951 -12.287  -1.137  1.00  0.00     0.031 A 
BRANCH  41  55
ATOM     55  C   UNL     1      10.505  -8.449  -5.961  1.00  0.00    -0.014 A 
ATOM     56  C   UNL     1      11.521  -7.600  -6.434  1.00  0.00     0.010 A 
ATOM     57  C   UNL     1       9.679  -9.112  -6.887  1.00  0.00     0.010 A 
ATOM     58  C   UNL     1      11.677  -7.378  -7.804  1.00  0.00     0.020 A 
ATOM     59  C   UNL     1       9.849  -8.913  -8.260  1.00  0.00     0.020 A 
ATOM     60  C   UNL     1      10.834  -8.030  -8.709  1.00  0.00     0.054 A 
BRANCH  60  61
ATOM     61  S   UNL     1      11.063  -7.733 -10.483  1.00  0.00     0.124 S 
ATOM     62  O   UNL     1      10.452  -6.416 -10.646  1.00  0.00    -0.237 OA
ATOM     63  O   UNL     1      12.515  -7.774 -10.633  1.00  0.00    -0.237 OA
ATOM     64  O   UNL     1      10.344  -8.837 -11.114  1.00  0.00    -0.744 OA
ENDBRANCH  60  61
ENDBRANCH  41  55
BRANCH  42  65
ATOM     65  C   UNL     1       8.700  -9.593   3.793  1.00  0.00    -0.014 A 
ATOM     66  C   UNL     1       9.749  -9.642   4.730  1.00  0.00     0.010 A 
ATOM     67  C   UNL     1       7.374  -9.718   4.243  1.00  0.00     0.010 A 
ATOM     68  C   UNL     1       9.478  -9.834   6.087  1.00  0.00     0.020 A 
ATOM     69  C   UNL     1       7.098  -9.887   5.604  1.00  0.00     0.020 A 
ATOM     70  C   UNL     1       8.154  -9.957   6.516  1.00  0.00     0.054 A 
BRANCH  70  71
ATOM     71  S   UNL     1       7.819 -10.156   8.288  1.00  0.00     0.124 S 
ATOM     72  O   UNL     1       8.138 -11.564   8.500  1.00  0.00    -0.237 OA
ATOM     73  O   UNL     1       8.742  -9.200   8.896  1.00  0.00    -0.237 OA
ATOM     74  O   UNL     1       6.405  -9.806   8.408  1.00  0.00    -0.744 OA
ENDBRANCH  70  71
ENDBRANCH  42  65
BRANCH  54  75
ATOM     75  C   UNL     1      11.540 -13.669  -1.094  1.00  0.00    -0.014 A 
ATOM     76  C   UNL     1      10.718 -14.806  -1.015  1.00  0.00     0.010 A 
ATOM     77  C   UNL     1      12.933 -13.832  -1.198  1.00  0.00     0.010 A 
ATOM     78  C   UNL     1      11.282 -16.084  -1.017  1.00  0.00     0.020 A 
ATOM     79  C   UNL     1      13.499 -15.108  -1.222  1.00  0.00     0.020 A 
ATOM     80  C   UNL     1      12.670 -16.227  -1.119  1.00  0.00     0.054 A 
BRANCH  80  81
ATOM     81  S   UNL     1      13.377 -17.896  -1.176  1.00  0.00     0.124 S 
ATOM     82  O   UNL     1      13.319 -18.297   0.227  1.00  0.00    -0.237 OA
ATOM     83  O   UNL     1      12.465 -18.604  -2.070  1.00  0.00    -0.237 OA
ATOM     84  O   UNL     1      14.721 -17.684  -1.709  1.00  0.00    -0.744 OA
ENDBRANCH  80  81
ENDBRANCH  54  75
ENDBRANCH  28  29
ENDBRANCH  20  23
ENDBRANCH  18  19
ENDBRANCH  17  18
ENDBRANCH  16  17
ENDBRANCH  15  16
ENDBRANCH  13  15
ENDBRANCH   6  11
BRANCH   4  85
ATOM     85  C   UNL     1      -5.893   2.122  -2.012  1.00  0.00     0.248 C 
ATOM     86  O   UNL     1      -5.925   0.929  -2.302  1.00  0.00    -0.273 OA
BRANCH  85  87
ATOM     87  C   UNL     1      -7.141   2.874  -1.587  1.00  0.00     0.112 C 
BRANCH  87  88
ATOM     88  C   UNL     1      -7.364   2.907  -0.080  1.00  0.00     0.110 C 
BRANCH  88  89
ATOM     89  C   UNL     1      -6.286   3.637   0.680  1.00  0.00     0.220 C 
ATOM     90  O   UNL     1      -6.218   4.869   0.603  1.00  0.00    -0.275 OA
ATOM     91  N   UNL     1      -5.411   3.026   1.514  1.00  0.00    -0.353 N 
ATOM     92  H   UNL     1      -4.998   3.677   2.126  1.00  0.00     0.163 HD
BRANCH  91  93
ATOM     93  C   UNL     1      -4.896   1.661   1.772  1.00  0.00     0.082 C 
BRANCH  93  94
ATOM     94  C   UNL     1      -4.686   1.494   3.289  1.00  0.00     0.025 C 
BRANCH  94  95
ATOM     95  C   UNL     1      -3.795   0.327   3.722  1.00  0.00     0.002 C 
BRANCH  95  96
ATOM     96  C   UNL     1      -4.261  -1.104   3.447  1.00  0.00     0.000 CG0
ATOM     97  G   UNL     1      -5.737  -1.390   3.730  1.00  0.00     0.000 G0
ENDBRANCH  95  96
ENDBRANCH  94  95
ENDBRANCH  93  94
BRANCH  93  98
ATOM     98  C   UNL     1      -5.615   0.489   1.107  1.00  0.00     0.025 C 
BRANCH  98  99
ATOM     99  C   UNL     1      -6.857  -0.047   1.819  1.00  0.00     0.002 C 
BRANCH  99 100
ATOM    100  C   UNL     1      -6.638  -1.398   2.494  1.00  0.00     0.000 C 
BRANCH 100 101
ATOM    101  C   UNL     1      -5.737  -1.390   3.730  1.00  0.00     0.000 CG0
ATOM    102  G   UNL     1      -4.261  -1.104   3.447  1.00  0.00     0.000 G0
ENDBRANCH 100 101
ENDBRANCH  99 100
ENDBRANCH  98  99
ENDBRANCH  93  98
ENDBRANCH  91  93
ENDBRANCH  88  89
ENDBRANCH  87  88
ENDBRANCH  85  87
ENDBRANCH   4  85
TORSDOF 20
