REMARK SMILES Cc1cc([C@@H](C)NC(=O)N[C@H]2C=C[C@@H](C(=O)NCCCCNC(=O)c3ccc(-c4c5nc(c(-c6ccc(S(=O)(=O)[O-])cc6)c6ccc([nH]6)c(-c6ccc(S(=O)(=O)[O-])cc6)c6nc(c(-c7ccc(S(=O)(=O)[O-])cc7)c7ccc4[nH]7)C=C6)C=C5)cc3)C2)c(C)s1
REMARK SMILES IDX 19 1 18 2 17 3 15 4 16 5 14 7 11 8 12 9 85 10 13 11 10 12
REMARK SMILES IDX 7 13 8 14 9 16 5 18 6 19 4 20 1 21 2 22 3 23 88 24 86 25
REMARK SMILES IDX 87 26 20 27 21 28 22 29 23 30 24 32 25 33 26 34 84 35 27 36
REMARK SMILES IDX 83 37 28 38 29 39 30 40 77 41 31 42 82 43 76 44 78 45 32 46
REMARK SMILES IDX 81 47 75 48 74 49 33 51 63 52 44 53 62 54 45 55 48 56 61 57
REMARK SMILES IDX 79 58 46 59 47 60 60 62 80 63 49 64 34 65 35 66 43 67 36 68
REMARK SMILES IDX 42 69 37 70 38 71 39 72 40 73 41 74 64 75 65 76 73 77 66 78
REMARK SMILES IDX 72 79 67 80 68 81 69 82 70 83 71 84 50 85 51 86 59 87 52 88
REMARK SMILES IDX 58 89 53 90 54 91 55 92 56 93 57 94
REMARK H PARENT 17 6 7 15 10 17 22 31 78 50 48 61
REMARK Flexibility Score: inf
ROOT
ATOM      1  C   UNL     1      -1.094  -3.481   4.253  1.00  0.00     0.023 C 
ENDROOT
BRANCH   1   2
ATOM      2  C   UNL     1      -1.837  -4.563   3.478  1.00  0.00     0.116 C 
BRANCH   2   3
ATOM      3  N   UNL     1      -2.923  -4.036   2.678  1.00  0.00    -0.356 N 
ATOM      4  C   UNL     1      -3.215  -4.230   1.364  1.00  0.00     0.227 C 
ATOM      5  O   UNL     1      -4.245  -3.708   0.926  1.00  0.00    -0.274 OA
ATOM      6  H   UNL     1      -3.546  -3.446   3.160  1.00  0.00     0.163 HD
BRANCH   4   7
ATOM      7  C   UNL     1      -2.281  -4.984   0.409  1.00  0.00     0.103 C 
ATOM      8  C   UNL     1       0.191  -5.205   0.316  1.00  0.00     0.107 C 
ATOM      9  C   UNL     1      -0.499  -6.486   0.689  1.00  0.00    -0.006 C 
ATOM     10  C   UNL     1      -0.977  -4.225   0.176  1.00  0.00     0.047 C 
ATOM     11  C   UNL     1      -1.830  -6.359   0.772  1.00  0.00    -0.016 C 
BRANCH   8  12
ATOM     12  N   UNL     1       1.113  -4.864   1.379  1.00  0.00    -0.332 N 
ATOM     13  N   UNL     1       2.155  -2.803   0.830  1.00  0.00    -0.332 N 
ATOM     14  C   UNL     1       1.956  -3.858   1.620  1.00  0.00     0.315 C 
ATOM     15  H   UNL     1       2.781  -2.158   1.231  1.00  0.00     0.165 HD
ATOM     16  O   UNL     1       2.599  -3.907   2.672  1.00  0.00    -0.249 OA
ATOM     17  H   UNL     1       1.119  -5.537   2.098  1.00  0.00     0.165 HD
BRANCH  13  18
ATOM     18  C   UNL     1       1.685  -2.362  -0.472  1.00  0.00     0.112 C 
ATOM     19  C   UNL     1       2.822  -2.330  -1.488  1.00  0.00     0.036 C 
BRANCH  18  20
ATOM     20  C   UNL     1       0.965  -1.034  -0.292  1.00  0.00    -0.012 A 
ATOM     21  C   UNL     1      -2.381   0.766  -0.057  1.00  0.00     0.056 C 
ATOM     22  C   UNL     1      -0.955   0.336  -0.118  1.00  0.00     0.002 A 
ATOM     23  C   UNL     1      -0.461  -0.902  -0.456  1.00  0.00     0.021 A 
ATOM     24  S   UNL     1       0.303   1.415   0.243  1.00  0.00    -0.146 S 
ATOM     25  C   UNL     1       1.507   0.201   0.054  1.00  0.00     0.007 A 
ATOM     26  C   UNL     1       2.927   0.612   0.272  1.00  0.00     0.057 C 
ENDBRANCH  18  20
ENDBRANCH  13  18
ENDBRANCH   8  12
ENDBRANCH   4   7
ENDBRANCH   2   3
ENDBRANCH   1   2
BRANCH   1  27
ATOM     27  C   UNL     1      -1.890  -2.834   5.386  1.00  0.00     0.023 C 
BRANCH  27  28
ATOM     28  C   UNL     1      -2.553  -3.802   6.361  1.00  0.00     0.116 C 
BRANCH  28  29
ATOM     29  N   UNL     1      -1.630  -4.764   6.943  1.00  0.00    -0.352 N 
ATOM     30  C   UNL     1      -1.592  -5.255   8.226  1.00  0.00     0.251 C 
ATOM     31  H   UNL     1      -0.938  -5.111   6.335  1.00  0.00     0.163 HD
ATOM     32  O   UNL     1      -0.684  -6.007   8.571  1.00  0.00    -0.269 OA
BRANCH  30  33
ATOM     33  C   UNL     1      -2.623  -4.839   9.199  1.00  0.00     0.039 A 
ATOM     34  C   UNL     1      -2.215  -4.389  10.457  1.00  0.00     0.014 A 
ATOM     35  C   UNL     1      -3.980  -4.859   8.863  1.00  0.00     0.014 A 
ATOM     36  C   UNL     1      -3.163  -3.893  11.353  1.00  0.00     0.010 A 
ATOM     37  C   UNL     1      -4.914  -4.297   9.729  1.00  0.00     0.010 A 
ATOM     38  C   UNL     1      -4.516  -3.807  10.982  1.00  0.00    -0.014 A 
BRANCH  38  39
ATOM     39  C   UNL     1      -5.518  -3.192  11.889  1.00  0.00     0.031 A 
ATOM     40  C   UNL     1      -6.643  -4.017  12.452  1.00  0.00     0.074 A 
ATOM     41  C   UNL     1      -5.441  -1.875  12.166  1.00  0.00     0.049 A 
ATOM     42  N   UNL     1      -7.617  -3.649  13.245  1.00  0.00    -0.248 NA
ATOM     43  C   UNL     1      -6.695  -5.433  12.055  1.00  0.00     0.031 C 
ATOM     44  C   UNL     1      -4.428  -0.955  11.642  1.00  0.00     0.029 A 
ATOM     45  N   UNL     1      -6.231  -1.078  12.957  1.00  0.00    -0.354 N 
ATOM     46  C   UNL     1      -8.402  -4.780  13.431  1.00  0.00     0.074 A 
ATOM     47  C   UNL     1      -7.821  -5.834  12.627  1.00  0.00     0.031 C 
ATOM     48  C   UNL     1      -4.637   0.269  12.152  1.00  0.00     0.029 A 
ATOM     49  C   UNL     1      -5.818   0.232  13.009  1.00  0.00     0.049 A 
ATOM     50  H   UNL     1      -7.020  -1.414  13.442  1.00  0.00     0.167 HD
ATOM     51  C   UNL     1      -9.494  -4.936  14.217  1.00  0.00     0.031 A 
ATOM     52  C   UNL     1      -6.329   1.287  13.673  1.00  0.00     0.031 A 
ATOM     53  C   UNL     1     -10.066  -3.889  15.022  1.00  0.00     0.049 A 
ATOM     54  C   UNL     1      -7.542   1.088  14.540  1.00  0.00     0.074 A 
ATOM     55  C   UNL     1     -11.138  -3.961  15.894  1.00  0.00     0.029 A 
ATOM     56  N   UNL     1      -9.613  -2.578  15.053  1.00  0.00    -0.354 N 
ATOM     57  N   UNL     1      -8.228  -0.008  14.758  1.00  0.00    -0.248 NA
ATOM     58  C   UNL     1      -8.039   2.267  15.262  1.00  0.00     0.031 C 
ATOM     59  C   UNL     1     -11.365  -2.683  16.415  1.00  0.00     0.029 A 
ATOM     60  C   UNL     1     -10.398  -1.827  15.912  1.00  0.00     0.049 A 
ATOM     61  H   UNL     1      -8.847  -2.233  14.540  1.00  0.00     0.167 HD
ATOM     62  C   UNL     1      -9.225   0.344  15.661  1.00  0.00     0.074 A 
ATOM     63  C   UNL     1      -9.038   1.749  15.963  1.00  0.00     0.031 C 
ATOM     64  C   UNL     1     -10.206  -0.427  16.194  1.00  0.00     0.031 A 
BRANCH  51  65
ATOM     65  C   UNL     1     -10.145  -6.295  14.240  1.00  0.00    -0.014 A 
ATOM     66  C   UNL     1      -9.507  -7.395  14.845  1.00  0.00     0.010 A 
ATOM     67  C   UNL     1     -11.423  -6.471  13.681  1.00  0.00     0.010 A 
ATOM     68  C   UNL     1     -10.116  -8.652  14.851  1.00  0.00     0.020 A 
ATOM     69  C   UNL     1     -12.049  -7.721  13.710  1.00  0.00     0.020 A 
ATOM     70  C   UNL     1     -11.383  -8.808  14.280  1.00  0.00     0.054 A 
BRANCH  70  71
ATOM     71  S   UNL     1     -12.158 -10.447  14.319  1.00  0.00     0.124 S 
ATOM     72  O   UNL     1     -11.380 -11.172  13.317  1.00  0.00    -0.237 OA
ATOM     73  O   UNL     1     -11.947 -10.869  15.701  1.00  0.00    -0.237 OA
ATOM     74  O   UNL     1     -13.548 -10.183  13.956  1.00  0.00    -0.744 OA
ENDBRANCH  70  71
ENDBRANCH  51  65
BRANCH  52  75
ATOM     75  C   UNL     1      -5.678   2.622  13.563  1.00  0.00    -0.014 A 
ATOM     76  C   UNL     1      -4.978   3.165  14.654  1.00  0.00     0.010 A 
ATOM     77  C   UNL     1      -5.746   3.351  12.362  1.00  0.00     0.010 A 
ATOM     78  C   UNL     1      -4.373   4.422  14.553  1.00  0.00     0.020 A 
ATOM     79  C   UNL     1      -5.120   4.595  12.248  1.00  0.00     0.020 A 
ATOM     80  C   UNL     1      -4.447   5.128  13.349  1.00  0.00     0.054 A 
BRANCH  80  81
ATOM     81  S   UNL     1      -3.612   6.735  13.224  1.00  0.00     0.124 S 
ATOM     82  O   UNL     1      -4.496   7.597  14.003  1.00  0.00    -0.237 OA
ATOM     83  O   UNL     1      -2.308   6.460  13.821  1.00  0.00    -0.237 OA
ATOM     84  O   UNL     1      -3.589   6.996  11.787  1.00  0.00    -0.744 OA
ENDBRANCH  80  81
ENDBRANCH  52  75
BRANCH  64  85
ATOM     85  C   UNL     1     -11.137   0.229  17.179  1.00  0.00    -0.014 A 
ATOM     86  C   UNL     1     -12.097   1.168  16.762  1.00  0.00     0.010 A 
ATOM     87  C   UNL     1     -11.071  -0.126  18.539  1.00  0.00     0.010 A 
ATOM     88  C   UNL     1     -12.944   1.773  17.694  1.00  0.00     0.020 A 
ATOM     89  C   UNL     1     -11.936   0.454  19.469  1.00  0.00     0.020 A 
ATOM     90  C   UNL     1     -12.856   1.415  19.043  1.00  0.00     0.054 A 
BRANCH  90  91
ATOM     91  S   UNL     1     -13.983   2.195  20.230  1.00  0.00     0.124 S 
ATOM     92  O   UNL     1     -13.408   3.531  20.362  1.00  0.00    -0.237 OA
ATOM     93  O   UNL     1     -15.270   2.130  19.542  1.00  0.00    -0.237 OA
ATOM     94  O   UNL     1     -13.875   1.350  21.417  1.00  0.00    -0.744 OA
ENDBRANCH  90  91
ENDBRANCH  64  85
ENDBRANCH  38  39
ENDBRANCH  30  33
ENDBRANCH  28  29
ENDBRANCH  27  28
ENDBRANCH   1  27
TORSDOF 17
