REMARK SMILES CS(=O)(=O)c1ccc(N2N=C(C(=O)NCCCCNC(=O)c3ccc(-c4c5nc(c(-c6ccc(S(=O)(=O)[O-])cc6)c6ccc([nH]6)c(-c6ccc(S(=O)(=O)[O-])cc6)c6nc(c(-c7ccc(S(=O)(=O)[O-])cc7)c7ccc4[nH]7)C=C6)C=C5)cc3)C[C@H]2c2cccs2)cc1
REMARK SMILES IDX 17 1 16 2 15 3 14 4 12 5 13 6 11 8 9 9 10 10 83 11 82 12
REMARK SMILES IDX 8 13 5 14 6 15 90 16 7 17 89 18 2 19 1 20 3 21 4 22 84 23
REMARK SMILES IDX 85 24 88 25 86 26 87 27 18 28 19 29 20 30 21 32 22 33 23 34
REMARK SMILES IDX 81 35 24 36 80 37 25 38 26 39 27 40 74 41 28 42 79 43 73 44
REMARK SMILES IDX 75 45 29 46 78 47 72 48 71 49 30 51 60 52 41 53 59 54 42 55
REMARK SMILES IDX 45 56 58 57 76 58 43 59 44 60 57 62 77 63 46 64 31 65 32 66
REMARK SMILES IDX 40 67 33 68 39 69 34 70 35 71 36 72 37 73 38 74 61 75 62 76
REMARK SMILES IDX 70 77 63 78 69 79 64 80 65 81 66 82 67 83 68 84 47 85 48 86
REMARK SMILES IDX 56 87 49 88 55 89 50 90 51 91 52 92 53 93 54 94
REMARK H PARENT 14 7 19 31 75 50 45 61
REMARK Flexibility Score: inf
ROOT
ATOM      1  C   UNL     1       4.001   0.524  13.272  1.00  0.00     0.023 C 
ENDROOT
BRANCH   1   2
ATOM      2  C   UNL     1       2.983   0.907  12.202  1.00  0.00     0.023 C 
BRANCH   2   3
ATOM      3  C   UNL     1       3.496   1.913  11.180  1.00  0.00     0.116 C 
BRANCH   3   4
ATOM      4  N   UNL     1       4.382   1.292  10.216  1.00  0.00    -0.351 N 
ATOM      5  C   UNL     1       4.325   1.068   8.864  1.00  0.00     0.267 C 
ATOM      6  O   UNL     1       5.239   0.422   8.356  1.00  0.00    -0.268 OA
ATOM      7  H   UNL     1       5.212   0.955  10.624  1.00  0.00     0.163 HD
BRANCH   5   8
ATOM      8  C   UNL     1       3.232   1.606   7.952  1.00  0.00     0.128 C 
ATOM      9  N   UNL     1       2.277   2.172   6.128  1.00  0.00    -0.256 N 
ATOM     10  N   UNL     1       3.300   1.454   6.662  1.00  0.00    -0.171 NA
ATOM     11  C   UNL     1       1.384   2.767   7.124  1.00  0.00     0.154 C 
ATOM     12  C   UNL     1       2.013   2.311   8.442  1.00  0.00     0.097 C 
BRANCH   9  13
ATOM     13  C   UNL     1       1.857   1.950   4.821  1.00  0.00     0.060 A 
ATOM     14  C   UNL     1       0.891   1.557   2.213  1.00  0.00     0.067 A 
ATOM     15  C   UNL     1       1.119   0.455   3.040  1.00  0.00     0.022 A 
ATOM     16  C   UNL     1       1.167   2.847   2.663  1.00  0.00     0.022 A 
ATOM     17  C   UNL     1       1.615   0.658   4.334  1.00  0.00     0.029 A 
ATOM     18  C   UNL     1       1.647   3.033   3.958  1.00  0.00     0.029 A 
BRANCH  14  19
ATOM     19  S   UNL     1       0.261   1.358   0.566  1.00  0.00     0.175 S 
ATOM     20  C   UNL     1       1.020  -0.105  -0.079  1.00  0.00     0.163 C 
ATOM     21  O   UNL     1       0.763   2.472  -0.224  1.00  0.00    -0.224 OA
ATOM     22  O   UNL     1      -1.161   1.118   0.689  1.00  0.00    -0.224 OA
ENDBRANCH  14  19
ENDBRANCH   9  13
BRANCH  11  23
ATOM     23  C   UNL     1       1.159   4.268   7.034  1.00  0.00     0.030 A 
ATOM     24  C   UNL     1       0.134   4.913   6.360  1.00  0.00     0.017 A 
ATOM     25  S   UNL     1       2.223   5.416   7.747  1.00  0.00    -0.147 S 
ATOM     26  C   UNL     1       0.204   6.331   6.470  1.00  0.00     0.012 A 
ATOM     27  C   UNL     1       1.263   6.733   7.249  1.00  0.00     0.065 A 
ENDBRANCH  11  23
ENDBRANCH   5   8
ENDBRANCH   3   4
ENDBRANCH   2   3
ENDBRANCH   1   2
BRANCH   1  28
ATOM     28  C   UNL     1       4.590   1.697  14.049  1.00  0.00     0.116 C 
BRANCH  28  29
ATOM     29  N   UNL     1       3.580   2.560  14.646  1.00  0.00    -0.352 N 
ATOM     30  C   UNL     1       3.533   3.075  15.920  1.00  0.00     0.251 C 
ATOM     31  H   UNL     1       2.831   2.809  14.058  1.00  0.00     0.163 HD
ATOM     32  O   UNL     1       2.541   3.687  16.302  1.00  0.00    -0.269 OA
BRANCH  30  33
ATOM     33  C   UNL     1       4.675   2.848  16.828  1.00  0.00     0.039 A 
ATOM     34  C   UNL     1       4.431   2.355  18.111  1.00  0.00     0.014 A 
ATOM     35  C   UNL     1       5.983   3.064  16.387  1.00  0.00     0.014 A 
ATOM     36  C   UNL     1       5.509   2.005  18.926  1.00  0.00     0.010 A 
ATOM     37  C   UNL     1       7.051   2.633  17.166  1.00  0.00     0.010 A 
ATOM     38  C   UNL     1       6.826   2.100  18.444  1.00  0.00    -0.014 A 
BRANCH  38  39
ATOM     39  C   UNL     1       7.978   1.637  19.259  1.00  0.00     0.031 A 
ATOM     40  C   UNL     1       9.040   2.613  19.687  1.00  0.00     0.074 A 
ATOM     41  C   UNL     1       8.096   0.330  19.564  1.00  0.00     0.049 A 
ATOM     42  N   UNL     1      10.134   2.391  20.371  1.00  0.00    -0.248 NA
ATOM     43  C   UNL     1       8.866   4.015  19.274  1.00  0.00     0.031 C 
ATOM     44  C   UNL     1       7.157  -0.723  19.167  1.00  0.00     0.029 A 
ATOM     45  N   UNL     1       9.057  -0.340  20.279  1.00  0.00    -0.354 N 
ATOM     46  C   UNL     1      10.779   3.619  20.459  1.00  0.00     0.074 A 
ATOM     47  C   UNL     1       9.988   4.568  19.709  1.00  0.00     0.031 C 
ATOM     48  C   UNL     1       7.568  -1.895  19.677  1.00  0.00     0.029 A 
ATOM     49  C   UNL     1       8.820  -1.689  20.397  1.00  0.00     0.049 A 
ATOM     50  H   UNL     1       9.843   0.105  20.672  1.00  0.00     0.167 HD
ATOM     51  C   UNL     1      11.915   3.935  21.126  1.00  0.00     0.031 A 
ATOM     52  C   UNL     1       9.531  -2.654  21.013  1.00  0.00     0.031 A 
ATOM     53  C   UNL     1      12.698   2.988  21.875  1.00  0.00     0.049 A 
ATOM     54  C   UNL     1      10.800  -2.282  21.730  1.00  0.00     0.074 A 
ATOM     55  C   UNL     1      13.838   3.218  22.625  1.00  0.00     0.029 A 
ATOM     56  N   UNL     1      12.425   1.631  21.967  1.00  0.00    -0.354 N 
ATOM     57  N   UNL     1      11.358  -1.102  21.859  1.00  0.00    -0.248 NA
ATOM     58  C   UNL     1      11.529  -3.371  22.395  1.00  0.00     0.031 C 
ATOM     59  C   UNL     1      14.287   1.991  23.123  1.00  0.00     0.029 A 
ATOM     60  C   UNL     1      13.389   1.007  22.741  1.00  0.00     0.049 A 
ATOM     61  H   UNL     1      11.659   1.179  21.545  1.00  0.00     0.167 HD
ATOM     62  C   UNL     1      12.488  -1.302  22.645  1.00  0.00     0.074 A 
ATOM     63  C   UNL     1      12.522  -2.712  22.975  1.00  0.00     0.031 C 
ATOM     64  C   UNL     1      13.413  -0.399  23.058  1.00  0.00     0.031 A 
BRANCH  51  65
ATOM     65  C   UNL     1      12.379   5.368  21.070  1.00  0.00    -0.014 A 
ATOM     66  C   UNL     1      11.655   6.391  21.708  1.00  0.00     0.010 A 
ATOM     67  C   UNL     1      13.575   5.691  20.404  1.00  0.00     0.010 A 
ATOM     68  C   UNL     1      12.094   7.716  21.644  1.00  0.00     0.020 A 
ATOM     69  C   UNL     1      14.035   7.011  20.365  1.00  0.00     0.020 A 
ATOM     70  C   UNL     1      13.281   8.018  20.972  1.00  0.00     0.054 A 
BRANCH  70  71
ATOM     71  S   UNL     1      13.838   9.743  20.927  1.00  0.00     0.124 S 
ATOM     72  O   UNL     1      12.869  10.348  20.016  1.00  0.00    -0.237 OA
ATOM     73  O   UNL     1      13.724  10.152  22.325  1.00  0.00    -0.237 OA
ATOM     74  O   UNL     1      15.203   9.655  20.415  1.00  0.00    -0.744 OA
ENDBRANCH  70  71
ENDBRANCH  51  65
BRANCH  52  75
ATOM     75  C   UNL     1       9.047  -4.063  20.996  1.00  0.00    -0.014 A 
ATOM     76  C   UNL     1       8.580  -4.672  22.174  1.00  0.00     0.010 A 
ATOM     77  C   UNL     1       9.044  -4.802  19.799  1.00  0.00     0.010 A 
ATOM     78  C   UNL     1       8.137  -5.998  22.160  1.00  0.00     0.020 A 
ATOM     79  C   UNL     1       8.574  -6.118  19.774  1.00  0.00     0.020 A 
ATOM     80  C   UNL     1       8.134  -6.712  20.958  1.00  0.00     0.054 A 
BRANCH  80  81
ATOM     81  S   UNL     1       7.509  -8.415  20.955  1.00  0.00     0.124 S 
ATOM     82  O   UNL     1       8.575  -9.132  21.648  1.00  0.00    -0.237 OA
ATOM     83  O   UNL     1       6.250  -8.290  21.685  1.00  0.00    -0.237 OA
ATOM     84  O   UNL     1       7.367  -8.724  19.533  1.00  0.00    -0.744 OA
ENDBRANCH  80  81
ENDBRANCH  52  75
BRANCH  64  85
ATOM     85  C   UNL     1      14.523  -0.901  23.943  1.00  0.00    -0.014 A 
ATOM     86  C   UNL     1      15.540  -1.734  23.443  1.00  0.00     0.010 A 
ATOM     87  C   UNL     1      14.573  -0.492  25.289  1.00  0.00     0.010 A 
ATOM     88  C   UNL     1      16.564  -2.180  24.283  1.00  0.00     0.020 A 
ATOM     89  C   UNL     1      15.613  -0.909  26.123  1.00  0.00     0.020 A 
ATOM     90  C   UNL     1      16.594  -1.765  25.618  1.00  0.00     0.054 A 
BRANCH  90  91
ATOM     91  S   UNL     1      17.953  -2.330  26.677  1.00  0.00     0.124 S 
ATOM     92  O   UNL     1      17.613  -3.735  26.884  1.00  0.00    -0.237 OA
ATOM     93  O   UNL     1      19.129  -2.084  25.846  1.00  0.00    -0.237 OA
ATOM     94  O   UNL     1      17.846  -1.482  27.862  1.00  0.00    -0.744 OA
ENDBRANCH  90  91
ENDBRANCH  64  85
ENDBRANCH  38  39
ENDBRANCH  30  33
ENDBRANCH  28  29
ENDBRANCH   1  28
TORSDOF 17
