REMARK SMILES CS(=O)(=O)Nc1ccc(-c2cc(Cl)cc3c2O[C@H](C(F)(F)F)C(C(=O)NCCCCNC(=O)c2ccc(-c4c5nc(c(-c6ccc(S(=O)(=O)[O-])cc6)c6ccc([nH]6)c(-c6ccc(S(=O)(=O)[O-])cc6)c6nc(c(-c7ccc(S(=O)(=O)[O-])cc7)c7ccc4[nH]7)C=C6)C=C5)cc2)=C3)cc1
REMARK SMILES IDX 28 1 27 2 26 3 24 4 25 5 23 7 10 8 11 9 16 10 12 11 15 12
REMARK SMILES IDX 17 13 13 14 14 15 94 16 18 17 9 18 6 19 7 20 96 21 8 22
REMARK SMILES IDX 95 23 5 24 2 26 1 27 3 28 4 29 19 30 20 31 21 32 22 33 29 34
REMARK SMILES IDX 30 35 31 36 32 37 33 39 34 40 35 41 93 42 36 43 92 44 37 45
REMARK SMILES IDX 38 46 39 47 86 48 40 49 91 50 85 51 87 52 41 53 90 54 84 55
REMARK SMILES IDX 83 56 42 58 72 59 53 60 71 61 54 62 57 63 70 64 88 65 55 66
REMARK SMILES IDX 56 67 69 69 89 70 58 71 43 72 44 73 52 74 45 75 51 76 46 77
REMARK SMILES IDX 47 78 48 79 49 80 50 81 73 82 74 83 82 84 75 85 81 86 76 87
REMARK SMILES IDX 77 88 78 89 79 90 80 91 59 92 60 93 68 94 61 95 67 96 62 97
REMARK SMILES IDX 63 98 64 99 65 100 66 101
REMARK H PARENT 26 6 5 25 31 38 87 57 57 68
REMARK Flexibility Score: inf
ROOT
ATOM      1  C   UNL     1      10.870   9.387  -5.149  1.00  0.00     0.023 C 
ENDROOT
BRANCH   1   2
ATOM      2  C   UNL     1      10.414   8.609  -3.906  1.00  0.00     0.116 C 
BRANCH   2   3
ATOM      3  N   UNL     1       8.982   8.748  -3.742  1.00  0.00    -0.352 N 
ATOM      4  C   UNL     1       8.047   7.796  -3.518  1.00  0.00     0.251 C 
ATOM      5  O   UNL     1       6.917   7.973  -3.961  1.00  0.00    -0.270 OA
ATOM      6  H   UNL     1       8.639   9.668  -3.803  1.00  0.00     0.163 HD
BRANCH   4   7
ATOM      7  C   UNL     1       8.400   6.631  -2.649  1.00  0.00     0.067 C 
ATOM      8  C   UNL     1       4.911   4.545  -2.950  1.00  0.00     0.026 A 
ATOM      9  C   UNL     1       3.864   5.492  -2.787  1.00  0.00     0.033 A 
ATOM     10  C   UNL     1       6.199   4.983  -2.596  1.00  0.00     0.135 A 
ATOM     11  C   UNL     1       4.045   6.717  -2.150  1.00  0.00     0.042 A 
ATOM     12  C   UNL     1       6.340   6.176  -1.840  1.00  0.00     0.019 A 
ATOM     13  O   UNL     1       7.362   4.345  -3.007  1.00  0.00    -0.475 OA
ATOM     14  Cl  UNL     1       2.730   7.815  -2.026  1.00  0.00    -0.084 Cl
ATOM     15  C   UNL     1       5.269   7.032  -1.599  1.00  0.00     0.032 A 
ATOM     16  C   UNL     1       7.709   6.618  -1.492  1.00  0.00     0.025 C 
ATOM     17  C   UNL     1       8.466   5.290  -3.372  1.00  0.00     0.314 C 
BRANCH   8  18
ATOM     18  C   UNL     1       4.443   3.161  -3.256  1.00  0.00    -0.014 A 
ATOM     19  C   UNL     1       2.525   1.069  -3.008  1.00  0.00     0.048 A 
ATOM     20  C   UNL     1       2.490   1.947  -4.094  1.00  0.00     0.027 A 
ATOM     21  C   UNL     1       3.623   1.124  -2.153  1.00  0.00     0.027 A 
ATOM     22  C   UNL     1       3.454   2.957  -4.238  1.00  0.00     0.011 A 
ATOM     23  C   UNL     1       4.578   2.157  -2.280  1.00  0.00     0.011 A 
BRANCH  19  24
ATOM     24  N   UNL     1       1.336   0.322  -2.761  1.00  0.00    -0.284 N 
ATOM     25  H   UNL     1       0.587   0.483  -3.380  1.00  0.00     0.180 HD
BRANCH  24  26
ATOM     26  S   UNL     1       1.061  -0.787  -1.557  1.00  0.00     0.229 S 
ATOM     27  C   UNL     1       0.985   0.193  -0.067  1.00  0.00     0.183 C 
ATOM     28  O   UNL     1       2.180  -1.701  -1.467  1.00  0.00    -0.207 OA
ATOM     29  O   UNL     1      -0.279  -1.279  -1.804  1.00  0.00    -0.207 OA
ENDBRANCH  24  26
ENDBRANCH  19  24
ENDBRANCH   8  18
BRANCH  17  30
ATOM     30  C   UNL     1       9.855   4.667  -3.108  1.00  0.00     0.429 C 
ATOM     31  F   UNL     1       9.796   3.583  -2.301  1.00  0.00    -0.167 F 
ATOM     32  F   UNL     1      10.451   4.285  -4.263  1.00  0.00    -0.167 F 
ATOM     33  F   UNL     1      10.713   5.539  -2.514  1.00  0.00    -0.167 F 
ENDBRANCH  17  30
ENDBRANCH   4   7
ENDBRANCH   2   3
ENDBRANCH   1   2
BRANCH   1  34
ATOM     34  C   UNL     1      10.588  10.897  -5.119  1.00  0.00     0.023 C 
BRANCH  34  35
ATOM     35  C   UNL     1      11.162  11.635  -3.916  1.00  0.00     0.116 C 
BRANCH  35  36
ATOM     36  N   UNL     1      12.615  11.603  -3.902  1.00  0.00    -0.352 N 
ATOM     37  C   UNL     1      13.507  12.649  -3.881  1.00  0.00     0.251 C 
ATOM     38  H   UNL     1      13.018  10.705  -3.910  1.00  0.00     0.163 HD
ATOM     39  O   UNL     1      14.700  12.436  -4.076  1.00  0.00    -0.269 OA
BRANCH  37  40
ATOM     40  C   UNL     1      13.024  14.028  -3.648  1.00  0.00     0.039 A 
ATOM     41  C   UNL     1      13.501  15.058  -4.462  1.00  0.00     0.014 A 
ATOM     42  C   UNL     1      12.101  14.304  -2.635  1.00  0.00     0.014 A 
ATOM     43  C   UNL     1      13.000  16.353  -4.303  1.00  0.00     0.010 A 
ATOM     44  C   UNL     1      11.548  15.578  -2.530  1.00  0.00     0.010 A 
ATOM     45  C   UNL     1      11.991  16.617  -3.362  1.00  0.00    -0.014 A 
BRANCH  45  46
ATOM     46  C   UNL     1      11.376  17.967  -3.251  1.00  0.00     0.031 A 
ATOM     47  C   UNL     1      11.502  18.759  -1.977  1.00  0.00     0.074 A 
ATOM     48  C   UNL     1      10.650  18.454  -4.278  1.00  0.00     0.049 A 
ATOM     49  N   UNL     1      10.996  19.930  -1.682  1.00  0.00    -0.248 NA
ATOM     50  C   UNL     1      12.276  18.148  -0.884  1.00  0.00     0.031 C 
ATOM     51  C   UNL     1      10.415  17.767  -5.551  1.00  0.00     0.029 A 
ATOM     52  N   UNL     1       9.971  19.640  -4.413  1.00  0.00    -0.354 N 
ATOM     53  C   UNL     1      11.378  20.189  -0.370  1.00  0.00     0.074 A 
ATOM     54  C   UNL     1      12.111  19.030   0.091  1.00  0.00     0.031 C 
ATOM     55  C   UNL     1       9.674  18.555  -6.346  1.00  0.00     0.029 A 
ATOM     56  C   UNL     1       9.341  19.781  -5.628  1.00  0.00     0.049 A 
ATOM     57  H   UNL     1       9.937  20.325  -3.707  1.00  0.00     0.167 HD
ATOM     58  C   UNL     1      11.155  21.296   0.377  1.00  0.00     0.031 A 
ATOM     59  C   UNL     1       8.575  20.780  -6.110  1.00  0.00     0.031 A 
ATOM     60  C   UNL     1      10.428  22.449  -0.086  1.00  0.00     0.049 A 
ATOM     61  C   UNL     1       8.327  21.992  -5.255  1.00  0.00     0.074 A 
ATOM     62  C   UNL     1      10.196  23.642   0.577  1.00  0.00     0.029 A 
ATOM     63  N   UNL     1       9.809  22.553  -1.323  1.00  0.00    -0.354 N 
ATOM     64  N   UNL     1       8.757  22.247  -4.043  1.00  0.00    -0.248 NA
ATOM     65  C   UNL     1       7.501  23.058  -5.839  1.00  0.00     0.031 C 
ATOM     66  C   UNL     1       9.387  24.443  -0.236  1.00  0.00     0.029 A 
ATOM     67  C   UNL     1       9.172  23.778  -1.432  1.00  0.00     0.049 A 
ATOM     68  H   UNL     1       9.822  21.858  -2.021  1.00  0.00     0.167 HD
ATOM     69  C   UNL     1       8.278  23.514  -3.729  1.00  0.00     0.074 A 
ATOM     70  C   UNL     1       7.539  23.979  -4.886  1.00  0.00     0.031 C 
ATOM     71  C   UNL     1       8.438  24.229  -2.588  1.00  0.00     0.031 A 
BRANCH  58  72
ATOM     72  C   UNL     1      11.698  21.311   1.784  1.00  0.00    -0.014 A 
ATOM     73  C   UNL     1      13.083  21.364   2.029  1.00  0.00     0.010 A 
ATOM     74  C   UNL     1      10.812  21.312   2.876  1.00  0.00     0.010 A 
ATOM     75  C   UNL     1      13.571  21.372   3.338  1.00  0.00     0.020 A 
ATOM     76  C   UNL     1      11.296  21.352   4.188  1.00  0.00     0.020 A 
ATOM     77  C   UNL     1      12.674  21.363   4.410  1.00  0.00     0.054 A 
BRANCH  77  78
ATOM     78  S   UNL     1      13.337  21.392   6.098  1.00  0.00     0.124 S 
ATOM     79  O   UNL     1      13.891  20.046   6.226  1.00  0.00    -0.237 OA
ATOM     80  O   UNL     1      14.319  22.472   6.037  1.00  0.00    -0.237 OA
ATOM     81  O   UNL     1      12.165  21.664   6.927  1.00  0.00    -0.744 OA
ENDBRANCH  77  78
ENDBRANCH  58  72
BRANCH  59  82
ATOM     82  C   UNL     1       8.000  20.679  -7.480  1.00  0.00    -0.014 A 
ATOM     83  C   UNL     1       8.466  21.508  -8.516  1.00  0.00     0.010 A 
ATOM     84  C   UNL     1       6.989  19.740  -7.761  1.00  0.00     0.010 A 
ATOM     85  C   UNL     1       7.922  21.413  -9.800  1.00  0.00     0.020 A 
ATOM     86  C   UNL     1       6.465  19.621  -9.051  1.00  0.00     0.020 A 
ATOM     87  C   UNL     1       6.927  20.467 -10.061  1.00  0.00     0.054 A 
BRANCH  87  88
ATOM     88  S   UNL     1       6.276  20.324 -11.748  1.00  0.00     0.124 S 
ATOM     89  O   UNL     1       5.474  21.538 -11.868  1.00  0.00    -0.237 OA
ATOM     90  O   UNL     1       7.494  20.288 -12.553  1.00  0.00    -0.237 OA
ATOM     91  O   UNL     1       5.521  19.074 -11.719  1.00  0.00    -0.744 OA
ENDBRANCH  87  88
ENDBRANCH  59  82
BRANCH  71  92
ATOM     92  C   UNL     1       7.834  25.609  -2.541  1.00  0.00    -0.014 A 
ATOM     93  C   UNL     1       6.443  25.797  -2.465  1.00  0.00     0.010 A 
ATOM     94  C   UNL     1       8.680  26.733  -2.515  1.00  0.00     0.010 A 
ATOM     95  C   UNL     1       5.907  27.087  -2.396  1.00  0.00     0.020 A 
ATOM     96  C   UNL     1       8.150  28.022  -2.416  1.00  0.00     0.020 A 
ATOM     97  C   UNL     1       6.765  28.191  -2.371  1.00  0.00     0.054 A 
BRANCH  97  98
ATOM     98  S   UNL     1       6.047  29.851  -2.236  1.00  0.00     0.124 S 
ATOM     99  O   UNL     1       5.471  30.042  -3.563  1.00  0.00    -0.237 OA
ATOM    100  O   UNL     1       5.084  29.695  -1.148  1.00  0.00    -0.237 OA
ATOM    101  O   UNL     1       7.194  30.702  -1.926  1.00  0.00    -0.744 OA
ENDBRANCH  97  98
ENDBRANCH  71  92
ENDBRANCH  45  46
ENDBRANCH  37  40
ENDBRANCH  35  36
ENDBRANCH  34  35
ENDBRANCH   1  34
TORSDOF 18
