REMARK SMILES O=C(NCCCCNC(=O)c1nccnc1C(=O)Nc1n[nH]c2ncccc12)c1ccc(-c2c3nc(c(-c4ccc(S(=O)(=O)[O-])cc4)c4ccc([nH]4)c(-c4ccc(S(=O)(=O)[O-])cc4)c4nc(c(-c5ccc(S(=O)(=O)[O-])cc5)c5ccc2[nH]5)C=C4)C=C3)cc1
REMARK SMILES IDX 5 1 4 2 3 3 1 4 2 5 29 7 30 8 88 9 31 10 87 11 32 12 33 13
REMARK SMILES IDX 34 14 81 15 35 16 86 17 80 18 82 19 36 20 85 21 79 22 78 23
REMARK SMILES IDX 37 25 67 26 48 27 66 28 49 29 52 30 65 31 83 32 50 33 51 34
REMARK SMILES IDX 64 36 84 37 53 38 38 39 39 40 47 41 40 42 46 43 41 44 42 45
REMARK SMILES IDX 43 46 44 47 45 48 68 49 69 50 77 51 70 52 76 53 71 54 72 55
REMARK SMILES IDX 73 56 74 57 75 58 54 59 55 60 63 61 56 62 62 63 57 64 58 65
REMARK SMILES IDX 59 66 60 67 61 68 6 69 7 70 8 71 9 72 10 74 11 75 12 76
REMARK SMILES IDX 16 77 13 78 15 79 14 80 17 81 18 82 19 83 20 85 21 86 28 87
REMARK SMILES IDX 22 88 23 89 27 90 24 92 26 93 25 94
REMARK H PARENT 3 6 82 24 52 35 8 73 19 84 22 91
REMARK Flexibility Score: inf
ROOT
ATOM      1  C   UNL     1       5.371  -1.537  -1.624  1.00  0.00     0.023 C 
ENDROOT
BRANCH   1   2
ATOM      2  C   UNL     1       4.597  -0.683  -0.627  1.00  0.00     0.116 C 
BRANCH   2   3
ATOM      3  N   UNL     1       3.147  -0.636  -0.772  1.00  0.00    -0.352 N 
ATOM      4  O   UNL     1       1.070   0.006  -0.091  1.00  0.00    -0.269 OA
ATOM      5  C   UNL     1       2.267  -0.096   0.146  1.00  0.00     0.251 C 
ATOM      6  H   UNL     1       2.763  -1.022  -1.592  1.00  0.00     0.163 HD
BRANCH   5   7
ATOM      7  C   UNL     1       2.826   0.245   1.470  1.00  0.00     0.039 A 
ATOM      8  C   UNL     1       3.897   1.133   1.557  1.00  0.00     0.014 A 
ATOM      9  C   UNL     1       2.463  -0.553   2.557  1.00  0.00     0.014 A 
ATOM     10  C   UNL     1       4.741   1.056   2.654  1.00  0.00     0.010 A 
ATOM     11  C   UNL     1       3.235  -0.517   3.718  1.00  0.00     0.010 A 
ATOM     12  C   UNL     1       4.407   0.253   3.760  1.00  0.00    -0.014 A 
BRANCH  12  13
ATOM     13  C   UNL     1       5.244   0.315   4.984  1.00  0.00     0.031 A 
ATOM     14  C   UNL     1       5.909  -0.905   5.563  1.00  0.00     0.074 A 
ATOM     15  C   UNL     1       5.383   1.516   5.581  1.00  0.00     0.049 A 
ATOM     16  N   UNL     1       6.619  -1.006   6.658  1.00  0.00    -0.248 NA
ATOM     17  C   UNL     1       5.751  -2.175   4.836  1.00  0.00     0.031 C 
ATOM     18  C   UNL     1       4.775   2.765   5.107  1.00  0.00     0.029 A 
ATOM     19  N   UNL     1       6.076   1.892   6.699  1.00  0.00    -0.354 N 
ATOM     20  C   UNL     1       6.965  -2.349   6.772  1.00  0.00     0.074 A 
ATOM     21  C   UNL     1       6.372  -3.030   5.640  1.00  0.00     0.031 C 
ATOM     22  C   UNL     1       5.167   3.774   5.893  1.00  0.00     0.029 A 
ATOM     23  C   UNL     1       5.960   3.231   6.986  1.00  0.00     0.049 A 
ATOM     24  H   UNL     1       6.606   1.266   7.244  1.00  0.00     0.167 HD
ATOM     25  C   UNL     1       7.703  -2.952   7.737  1.00  0.00     0.031 A 
ATOM     26  C   UNL     1       6.397   3.948   8.035  1.00  0.00     0.031 A 
ATOM     27  C   UNL     1       8.278  -2.253   8.862  1.00  0.00     0.049 A 
ATOM     28  C   UNL     1       7.170   3.247   9.108  1.00  0.00     0.074 A 
ATOM     29  C   UNL     1       9.075  -2.762   9.874  1.00  0.00     0.029 A 
ATOM     30  N   UNL     1       8.111  -0.901   9.132  1.00  0.00    -0.354 N 
ATOM     31  N   UNL     1       7.513   1.983   9.180  1.00  0.00    -0.248 NA
ATOM     32  C   UNL     1       7.618   4.066  10.239  1.00  0.00     0.031 C 
ATOM     33  C   UNL     1       9.322  -1.739  10.794  1.00  0.00     0.029 A 
ATOM     34  C   UNL     1       8.756  -0.569  10.312  1.00  0.00     0.049 A 
ATOM     35  H   UNL     1       7.607  -0.271   8.567  1.00  0.00     0.167 HD
ATOM     36  C   UNL     1       8.241   1.859  10.356  1.00  0.00     0.074 A 
ATOM     37  C   UNL     1       8.305   3.182  10.947  1.00  0.00     0.031 C 
ATOM     38  C   UNL     1       8.805   0.750  10.895  1.00  0.00     0.031 A 
BRANCH  25  39
ATOM     39  C   UNL     1       7.903  -4.447   7.656  1.00  0.00    -0.014 A 
ATOM     40  C   UNL     1       8.694  -5.034   6.652  1.00  0.00     0.010 A 
ATOM     41  C   UNL     1       7.346  -5.275   8.650  1.00  0.00     0.010 A 
ATOM     42  C   UNL     1       8.894  -6.419   6.624  1.00  0.00     0.020 A 
ATOM     43  C   UNL     1       7.570  -6.656   8.645  1.00  0.00     0.020 A 
ATOM     44  C   UNL     1       8.332  -7.221   7.622  1.00  0.00     0.054 A 
BRANCH  44  45
ATOM     45  S   UNL     1       8.635  -9.009   7.575  1.00  0.00     0.124 S 
ATOM     46  O   UNL     1       7.874  -9.413   6.395  1.00  0.00    -0.237 OA
ATOM     47  O   UNL     1      10.087  -9.082   7.441  1.00  0.00    -0.237 OA
ATOM     48  O   UNL     1       8.104  -9.487   8.850  1.00  0.00    -0.744 OA
ENDBRANCH  44  45
ENDBRANCH  25  39
BRANCH  26  49
ATOM     49  C   UNL     1       6.072   5.397   8.119  1.00  0.00    -0.014 A 
ATOM     50  C   UNL     1       7.081   6.366   8.007  1.00  0.00     0.010 A 
ATOM     51  C   UNL     1       4.734   5.813   8.262  1.00  0.00     0.010 A 
ATOM     52  C   UNL     1       6.761   7.726   8.055  1.00  0.00     0.020 A 
ATOM     53  C   UNL     1       4.405   7.169   8.270  1.00  0.00     0.020 A 
ATOM     54  C   UNL     1       5.424   8.117   8.180  1.00  0.00     0.054 A 
BRANCH  54  55
ATOM     55  S   UNL     1       5.032   9.887   8.186  1.00  0.00     0.124 S 
ATOM     56  O   UNL     1       5.570  10.312   9.474  1.00  0.00    -0.237 OA
ATOM     57  O   UNL     1       5.748  10.370   7.008  1.00  0.00    -0.237 OA
ATOM     58  O   UNL     1       3.575   9.916   8.076  1.00  0.00    -0.744 OA
ENDBRANCH  54  55
ENDBRANCH  26  49
BRANCH  38  59
ATOM     59  C   UNL     1       9.580   0.930  12.173  1.00  0.00    -0.014 A 
ATOM     60  C   UNL     1       8.938   1.244  13.385  1.00  0.00     0.010 A 
ATOM     61  C   UNL     1      10.974   0.744  12.165  1.00  0.00     0.010 A 
ATOM     62  C   UNL     1       9.683   1.405  14.556  1.00  0.00     0.020 A 
ATOM     63  C   UNL     1      11.717   0.866  13.340  1.00  0.00     0.020 A 
ATOM     64  C   UNL     1      11.067   1.211  14.526  1.00  0.00     0.054 A 
BRANCH  64  65
ATOM     65  S   UNL     1      12.003   1.382  16.069  1.00  0.00     0.124 S 
ATOM     66  O   UNL     1      11.930   2.821  16.312  1.00  0.00    -0.237 OA
ATOM     67  O   UNL     1      11.242   0.548  16.996  1.00  0.00    -0.237 OA
ATOM     68  O   UNL     1      13.331   0.875  15.729  1.00  0.00    -0.744 OA
ENDBRANCH  64  65
ENDBRANCH  38  59
ENDBRANCH  12  13
ENDBRANCH   5   7
ENDBRANCH   2   3
ENDBRANCH   1   2
BRANCH   1  69
ATOM     69  C   UNL     1       5.171  -1.353  -3.322  1.00  0.00     0.023 C 
BRANCH  69  70
ATOM     70  C   UNL     1       5.607   0.261  -4.751  1.00  0.00     0.116 C 
BRANCH  70  71
ATOM     71  N   UNL     1       6.986   0.900  -5.289  1.00  0.00    -0.351 N 
ATOM     72  C   UNL     1       7.612   0.753  -6.513  1.00  0.00     0.272 C 
ATOM     73  H   UNL     1       7.455   1.482  -4.648  1.00  0.00     0.163 HD
ATOM     74  O   UNL     1       8.731   1.198  -6.732  1.00  0.00    -0.267 OA
BRANCH  72  75
ATOM     75  C   UNL     1       6.860   0.052  -7.567  1.00  0.00     0.159 A 
ATOM     76  N   UNL     1       5.814   0.794  -8.065  1.00  0.00    -0.247 NA
ATOM     77  C   UNL     1       7.083  -1.272  -7.923  1.00  0.00     0.159 A 
ATOM     78  C   UNL     1       5.009   0.168  -8.940  1.00  0.00     0.132 A 
ATOM     79  N   UNL     1       6.239  -1.890  -8.813  1.00  0.00    -0.247 NA
ATOM     80  C   UNL     1       5.217  -1.147  -9.305  1.00  0.00     0.132 A 
BRANCH  77  81
ATOM     81  C   UNL     1       8.230  -2.126  -7.484  1.00  0.00     0.277 C 
ATOM     82  O   UNL     1       8.853  -2.731  -8.363  1.00  0.00    -0.267 OA
ATOM     83  N   UNL     1       8.658  -2.256  -6.183  1.00  0.00    -0.303 N 
ATOM     84  H   UNL     1       9.506  -2.745  -6.075  1.00  0.00     0.172 HD
BRANCH  83  85
ATOM     85  C   UNL     1       8.096  -1.817  -5.014  1.00  0.00     0.164 A 
ATOM     86  N   UNL     1       8.925  -1.498  -4.004  1.00  0.00    -0.155 NA
ATOM     87  C   UNL     1       6.742  -1.524  -4.753  1.00  0.00     0.063 A 
ATOM     88  N   UNL     1       8.292  -0.635  -3.155  1.00  0.00    -0.259 N 
ATOM     89  C   UNL     1       6.960  -0.459  -3.404  1.00  0.00     0.157 A 
ATOM     90  C   UNL     1       5.090  -1.714  -5.421  1.00  0.00     0.017 A 
ATOM     91  H   UNL     1       8.760  -0.176  -2.420  1.00  0.00     0.192 HD
ATOM     92  N   UNL     1       5.705   0.547  -2.752  1.00  0.00    -0.237 NA
ATOM     93  C   UNL     1       3.730  -0.755  -4.783  1.00  0.00     0.021 A 
ATOM     94  C   UNL     1       4.070   0.325  -3.443  1.00  0.00     0.113 A 
ENDBRANCH  83  85
ENDBRANCH  77  81
ENDBRANCH  72  75
ENDBRANCH  70  71
ENDBRANCH  69  70
ENDBRANCH   1  69
TORSDOF 16
