REMARK SMILES COc1ccccc1[C@@H]1CN(C(=O)c2cc(C(C)C)nc(N)n2)C[C@H]1C(=O)NCCCCNC(=O)c1ccc(-c2c3nc(c(-c4ccc(S(=O)(=O)[O-])cc4)c4ccc([nH]4)c(-c4ccc(S(=O)(=O)[O-])cc4)c4nc(c(-c5ccc(S(=O)(=O)[O-])cc5)c5ccc2[nH]5)C=C4)C=C3)cc1
REMARK SMILES IDX 30 1 29 2 28 3 26 4 27 5 25 7 9 8 10 9 11 10 24 11 8 12 3 13
REMARK SMILES IDX 4 14 5 15 7 16 6 17 2 18 1 19 12 20 13 21 14 22 15 23 23 24
REMARK SMILES IDX 16 25 21 26 20 27 17 28 18 29 19 30 22 31 31 34 32 35 33 36
REMARK SMILES IDX 34 37 35 39 36 40 37 41 95 42 38 43 94 44 39 45 40 46 41 47
REMARK SMILES IDX 88 48 42 49 93 50 87 51 89 52 43 53 92 54 86 55 85 56 44 58
REMARK SMILES IDX 74 59 55 60 73 61 56 62 59 63 72 64 90 65 57 66 58 67 71 69
REMARK SMILES IDX 91 70 60 71 45 72 46 73 54 74 47 75 53 76 48 77 49 78 50 79
REMARK SMILES IDX 51 80 52 81 75 82 76 83 84 84 77 85 83 86 78 87 79 88 80 89
REMARK SMILES IDX 81 90 82 91 61 92 62 93 70 94 63 95 69 96 64 97 65 98 66 99
REMARK SMILES IDX 67 100 68 101
REMARK H PARENT 28 6 22 32 22 33 33 38 89 57 59 68
REMARK Flexibility Score: inf
ROOT
ATOM      1  C   UNL     1       6.415   0.145  -2.958  1.00  0.00     0.023 C 
ENDROOT
BRANCH   1   2
ATOM      2  C   UNL     1       5.908   0.898  -1.730  1.00  0.00     0.116 C 
BRANCH   2   3
ATOM      3  N   UNL     1       4.742   1.705  -2.036  1.00  0.00    -0.356 N 
ATOM      4  C   UNL     1       3.452   1.615  -1.622  1.00  0.00     0.225 C 
ATOM      5  O   UNL     1       2.662   2.463  -2.046  1.00  0.00    -0.275 OA
ATOM      6  H   UNL     1       4.918   2.450  -2.655  1.00  0.00     0.163 HD
BRANCH   4   7
ATOM      7  C   UNL     1       2.963   0.540  -0.670  1.00  0.00     0.107 C 
ATOM      8  C   UNL     1       3.095  -0.901  -1.198  1.00  0.00     0.057 C 
ATOM      9  C   UNL     1       3.393  -1.723   0.059  1.00  0.00     0.129 C 
ATOM     10  N   UNL     1       4.162  -0.800   0.880  1.00  0.00    -0.336 N 
ATOM     11  C   UNL     1       3.700   0.563   0.670  1.00  0.00     0.134 C 
BRANCH   8  12
ATOM     12  C   UNL     1       1.967  -1.394  -2.076  1.00  0.00    -0.000 A 
ATOM     13  C   UNL     1       0.697  -1.759  -1.605  1.00  0.00     0.122 A 
ATOM     14  C   UNL     1      -0.278  -2.259  -2.473  1.00  0.00     0.047 A 
ATOM     15  C   UNL     1      -0.010  -2.377  -3.836  1.00  0.00     0.004 A 
ATOM     16  C   UNL     1       2.208  -1.504  -3.460  1.00  0.00     0.008 A 
ATOM     17  C   UNL     1       1.232  -1.996  -4.330  1.00  0.00     0.001 A 
BRANCH  13  18
ATOM     18  O   UNL     1       0.412  -1.745  -0.268  1.00  0.00    -0.496 OA
ATOM     19  C   UNL     1      -0.285  -0.562   0.121  1.00  0.00     0.278 C 
ENDBRANCH  13  18
ENDBRANCH   8  12
BRANCH  10  20
ATOM     20  C   UNL     1       5.119  -1.092   1.839  1.00  0.00     0.272 C 
ATOM     21  O   UNL     1       5.620  -0.231   2.558  1.00  0.00    -0.267 OA
BRANCH  20  22
ATOM     22  C   UNL     1       5.592  -2.497   1.953  1.00  0.00     0.134 A 
ATOM     23  C   UNL     1       6.226  -3.081   0.878  1.00  0.00     0.058 A 
ATOM     24  N   UNL     1       5.361  -3.110   3.129  1.00  0.00    -0.208 NA
ATOM     25  C   UNL     1       6.569  -4.403   1.040  1.00  0.00     0.049 A 
ATOM     26  C   UNL     1       5.771  -4.370   3.204  1.00  0.00     0.220 A 
ATOM     27  N   UNL     1       6.348  -5.049   2.205  1.00  0.00    -0.218 NA
BRANCH  25  28
ATOM     28  C   UNL     1       7.160  -5.221  -0.091  1.00  0.00     0.032 C 
ATOM     29  C   UNL     1       6.152  -5.389  -1.232  1.00  0.00     0.014 C 
ATOM     30  C   UNL     1       8.475  -4.633  -0.604  1.00  0.00     0.014 C 
ENDBRANCH  25  28
BRANCH  26  31
ATOM     31  N   UNL     1       5.601  -5.017   4.393  1.00  0.00    -0.368 N 
ATOM     32  H   UNL     1       5.892  -5.952   4.490  1.00  0.00     0.159 HD
ATOM     33  H   UNL     1       5.188  -4.549   5.154  1.00  0.00     0.159 HD
ENDBRANCH  26  31
ENDBRANCH  20  22
ENDBRANCH  10  20
ENDBRANCH   4   7
ENDBRANCH   2   3
ENDBRANCH   1   2
BRANCH   1  34
ATOM     34  C   UNL     1       6.969   1.039  -4.066  1.00  0.00     0.023 C 
BRANCH  34  35
ATOM     35  C   UNL     1       8.036   2.031  -3.620  1.00  0.00     0.116 C 
BRANCH  35  36
ATOM     36  N   UNL     1       9.165   1.396  -2.955  1.00  0.00    -0.352 N 
ATOM     37  C   UNL     1      10.500   1.716  -3.064  1.00  0.00     0.251 C 
ATOM     38  H   UNL     1       8.947   0.648  -2.353  1.00  0.00     0.163 HD
ATOM     39  O   UNL     1      11.355   1.028  -2.530  1.00  0.00    -0.269 OA
BRANCH  37  40
ATOM     40  C   UNL     1      10.867   2.889  -3.881  1.00  0.00     0.039 A 
ATOM     41  C   UNL     1      11.739   2.718  -4.957  1.00  0.00     0.014 A 
ATOM     42  C   UNL     1      10.258   4.123  -3.638  1.00  0.00     0.014 A 
ATOM     43  C   UNL     1      11.942   3.775  -5.846  1.00  0.00     0.010 A 
ATOM     44  C   UNL     1      10.408   5.149  -4.561  1.00  0.00     0.010 A 
ATOM     45  C   UNL     1      11.243   4.982  -5.678  1.00  0.00    -0.014 A 
BRANCH  45  46
ATOM     46  C   UNL     1      11.347   6.085  -6.664  1.00  0.00     0.031 A 
ATOM     47  C   UNL     1      11.912   7.412  -6.243  1.00  0.00     0.074 A 
ATOM     48  C   UNL     1      10.825   5.931  -7.897  1.00  0.00     0.049 A 
ATOM     49  N   UNL     1      11.967   8.534  -6.911  1.00  0.00    -0.248 NA
ATOM     50  C   UNL     1      12.452   7.493  -4.876  1.00  0.00     0.031 C 
ATOM     51  C   UNL     1      10.195   4.710  -8.405  1.00  0.00     0.029 A 
ATOM     52  N   UNL     1      10.720   6.818  -8.939  1.00  0.00    -0.354 N 
ATOM     53  C   UNL     1      12.510   9.466  -6.034  1.00  0.00     0.074 A 
ATOM     54  C   UNL     1      12.732   8.784  -4.777  1.00  0.00     0.031 C 
ATOM     55  C   UNL     1       9.776   4.923  -9.663  1.00  0.00     0.029 A 
ATOM     56  C   UNL     1      10.072   6.303 -10.037  1.00  0.00     0.049 A 
ATOM     57  H   UNL     1      11.074   7.736  -8.903  1.00  0.00     0.167 HD
ATOM     58  C   UNL     1      12.806  10.768  -6.258  1.00  0.00     0.031 A 
ATOM     59  C   UNL     1       9.740   6.878 -11.209  1.00  0.00     0.031 A 
ATOM     60  C   UNL     1      12.602  11.434  -7.515  1.00  0.00     0.049 A 
ATOM     61  C   UNL     1      10.115   8.312 -11.454  1.00  0.00     0.074 A 
ATOM     62  C   UNL     1      12.942  12.727  -7.870  1.00  0.00     0.029 A 
ATOM     63  N   UNL     1      11.998  10.859  -8.624  1.00  0.00    -0.354 N 
ATOM     64  N   UNL     1      10.700   9.158 -10.640  1.00  0.00    -0.248 NA
ATOM     65  C   UNL     1       9.801   8.864 -12.778  1.00  0.00     0.031 C 
ATOM     66  C   UNL     1      12.508  12.947  -9.182  1.00  0.00     0.029 A 
ATOM     67  C   UNL     1      11.940  11.776  -9.660  1.00  0.00     0.049 A 
ATOM     68  H   UNL     1      11.662   9.935  -8.669  1.00  0.00     0.167 HD
ATOM     69  C   UNL     1      10.843  10.339 -11.360  1.00  0.00     0.074 A 
ATOM     70  C   UNL     1      10.292  10.093 -12.679  1.00  0.00     0.031 C 
ATOM     71  C   UNL     1      11.386  11.517 -10.965  1.00  0.00     0.031 A 
BRANCH  58  72
ATOM     72  C   UNL     1      13.363  11.552  -5.100  1.00  0.00    -0.014 A 
ATOM     73  C   UNL     1      14.652  11.297  -4.598  1.00  0.00     0.010 A 
ATOM     74  C   UNL     1      12.578  12.550  -4.494  1.00  0.00     0.010 A 
ATOM     75  C   UNL     1      15.120  11.977  -3.470  1.00  0.00     0.020 A 
ATOM     76  C   UNL     1      13.053  13.253  -3.384  1.00  0.00     0.020 A 
ATOM     77  C   UNL     1      14.311  12.941  -2.862  1.00  0.00     0.054 A 
BRANCH  77  78
ATOM     78  S   UNL     1      14.929  13.794  -1.386  1.00  0.00     0.124 S 
ATOM     79  O   UNL     1      14.735  12.780  -0.352  1.00  0.00    -0.237 OA
ATOM     80  O   UNL     1      16.320  14.077  -1.734  1.00  0.00    -0.237 OA
ATOM     81  O   UNL     1      14.067  14.968  -1.279  1.00  0.00    -0.744 OA
ENDBRANCH  77  78
ENDBRANCH  58  72
BRANCH  59  82
ATOM     82  C   UNL     1       9.030   6.075 -12.239  1.00  0.00    -0.014 A 
ATOM     83  C   UNL     1       9.724   5.584 -13.358  1.00  0.00     0.010 A 
ATOM     84  C   UNL     1       7.676   5.736 -12.068  1.00  0.00     0.010 A 
ATOM     85  C   UNL     1       9.077   4.761 -14.286  1.00  0.00     0.020 A 
ATOM     86  C   UNL     1       7.032   4.897 -12.982  1.00  0.00     0.020 A 
ATOM     87  C   UNL     1       7.737   4.416 -14.087  1.00  0.00     0.054 A 
BRANCH  87  88
ATOM     88  S   UNL     1       6.949   3.262 -15.245  1.00  0.00     0.124 S 
ATOM     89  O   UNL     1       6.713   4.111 -16.408  1.00  0.00    -0.237 OA
ATOM     90  O   UNL     1       7.972   2.232 -15.411  1.00  0.00    -0.237 OA
ATOM     91  O   UNL     1       5.751   2.826 -14.530  1.00  0.00    -0.744 OA
ENDBRANCH  87  88
ENDBRANCH  59  82
BRANCH  71  92
ATOM     92  C   UNL     1      11.439  12.629 -11.977  1.00  0.00    -0.014 A 
ATOM     93  C   UNL     1      10.285  13.349 -12.328  1.00  0.00     0.010 A 
ATOM     94  C   UNL     1      12.678  13.002 -12.529  1.00  0.00     0.010 A 
ATOM     95  C   UNL     1      10.366  14.412 -13.232  1.00  0.00     0.020 A 
ATOM     96  C   UNL     1      12.767  14.078 -13.415  1.00  0.00     0.020 A 
ATOM     97  C   UNL     1      11.607  14.770 -13.770  1.00  0.00     0.054 A 
BRANCH  97  98
ATOM     98  S   UNL     1      11.697  16.188 -14.898  1.00  0.00     0.124 S 
ATOM     99  O   UNL     1      11.155  15.628 -16.133  1.00  0.00    -0.237 OA
ATOM    100  O   UNL     1      10.854  17.181 -14.235  1.00  0.00    -0.237 OA
ATOM    101  O   UNL     1      13.121  16.512 -14.932  1.00  0.00    -0.744 OA
ENDBRANCH  97  98
ENDBRANCH  71  92
ENDBRANCH  45  46
ENDBRANCH  37  40
ENDBRANCH  35  36
ENDBRANCH  34  35
ENDBRANCH   1  34
TORSDOF 20
