REMARK SMILES C[C@@H](NC(=O)CCCN1C(=O)/C(=C/c2c3ccccc3cc3ccccc23)SC1=S)C(=O)NCCCCNC(=O)c1ccc(-c2c3nc(c(-c4ccc(S(=O)(=O)[O-])cc4)c4ccc([nH]4)c(-c4ccc(S(=O)(=O)[O-])cc4)c4nc(c(-c5ccc(S(=O)(=O)[O-])cc5)c5ccc2[nH]5)C=C4)C=C3)cc1
REMARK SMILES IDX 34 1 33 2 31 3 32 4 2 6 1 7 3 8 4 9 5 11 6 12 7 13 8 14 9 15
REMARK SMILES IDX 10 16 29 17 11 18 12 19 28 20 30 21 13 22 14 23 15 24 27 25
REMARK SMILES IDX 16 26 20 27 22 28 26 29 17 30 19 31 21 32 23 33 25 34 18 35
REMARK SMILES IDX 24 36 35 37 36 38 37 39 38 40 39 41 40 43 41 44 42 45 100 46
REMARK SMILES IDX 43 47 99 48 44 49 45 50 46 51 93 52 47 53 98 54 92 55 94 56
REMARK SMILES IDX 48 57 97 58 91 59 90 60 49 62 79 63 60 64 78 65 61 66 64 67
REMARK SMILES IDX 77 68 95 69 62 70 63 71 76 73 96 74 65 75 50 76 51 77 59 78
REMARK SMILES IDX 52 79 58 80 53 81 54 82 55 83 56 84 57 85 80 86 81 87 89 88
REMARK SMILES IDX 82 89 88 90 83 91 84 92 85 93 86 94 87 95 66 96 67 97 75 98
REMARK SMILES IDX 68 99 74 100 69 101 70 102 71 103 72 104 73 105
REMARK H PARENT 33 5 3 10 38 42 94 61 64 72
REMARK Flexibility Score: inf
ROOT
ATOM      1  C   UNL     1      -2.254  -0.336  -2.066  1.00  0.00     0.116 C 
ENDROOT
BRANCH   1   2
ATOM      2  N   UNL     1      -2.088   1.023  -1.347  1.00  0.00    -0.354 N 
ATOM      3  C   UNL     1      -1.397   2.246  -1.383  1.00  0.00     0.242 C 
ATOM      4  O   UNL     1      -2.217   3.186  -1.296  1.00  0.00    -0.273 OA
ATOM      5  H   UNL     1      -2.695   1.037  -0.572  1.00  0.00     0.163 HD
BRANCH   3   6
ATOM      6  C   UNL     1       0.294   2.785  -1.548  1.00  0.00     0.168 C 
ATOM      7  C   UNL     1       1.665   2.458  -0.800  1.00  0.00     0.041 C 
BRANCH   6   8
ATOM      8  N   UNL     1       0.740   3.067  -2.885  1.00  0.00    -0.345 N 
ATOM      9  C   UNL     1       0.905   2.041  -3.755  1.00  0.00     0.220 C 
ATOM     10  H   UNL     1       0.923   3.993  -3.165  1.00  0.00     0.164 HD
ATOM     11  O   UNL     1       1.533   2.161  -4.787  1.00  0.00    -0.275 OA
BRANCH   9  12
ATOM     12  C   UNL     1       0.159   0.807  -3.316  1.00  0.00     0.102 C 
BRANCH  12  13
ATOM     13  C   UNL     1       0.693   0.092  -1.956  1.00  0.00     0.032 C 
BRANCH  13  14
ATOM     14  C   UNL     1       0.229   0.026  -0.249  1.00  0.00     0.128 C 
BRANCH  14  15
ATOM     15  N   UNL     1      -0.461   0.988   0.879  1.00  0.00    -0.293 N 
ATOM     16  C   UNL     1      -1.376   0.364   1.780  1.00  0.00     0.266 C 
ATOM     17  C   UNL     1       0.027   2.106   1.575  1.00  0.00     0.148 C 
ATOM     18  O   UNL     1      -1.947  -0.699   1.654  1.00  0.00    -0.268 OA
ATOM     19  C   UNL     1      -1.407   1.131   3.099  1.00  0.00     0.081 C 
ATOM     20  S   UNL     1       0.217   1.682   3.270  1.00  0.00    -0.054 SA
ATOM     21  S   UNL     1      -0.257   3.771   1.379  1.00  0.00    -0.052 S 
ATOM     22  C   UNL     1      -2.509   1.618   3.709  1.00  0.00     0.030 C 
BRANCH  22  23
ATOM     23  C   UNL     1      -2.568   2.857   4.587  1.00  0.00    -0.009 A 
ATOM     24  C   UNL     1      -3.354   3.987   4.132  1.00  0.00    -0.010 A 
ATOM     25  C   UNL     1      -1.803   2.976   5.796  1.00  0.00    -0.010 A 
ATOM     26  C   UNL     1      -4.166   4.011   2.967  1.00  0.00     0.009 A 
ATOM     27  C   UNL     1      -3.316   5.200   4.871  1.00  0.00    -0.017 A 
ATOM     28  C   UNL     1      -1.767   4.225   6.472  1.00  0.00    -0.017 A 
ATOM     29  C   UNL     1      -1.041   1.934   6.377  1.00  0.00     0.009 A 
ATOM     30  C   UNL     1      -4.881   5.150   2.565  1.00  0.00     0.001 A 
ATOM     31  C   UNL     1      -4.038   6.337   4.462  1.00  0.00     0.009 A 
ATOM     32  C   UNL     1      -2.527   5.299   6.013  1.00  0.00     0.017 A 
ATOM     33  C   UNL     1      -0.952   4.417   7.599  1.00  0.00     0.009 A 
ATOM     34  C   UNL     1      -0.213   2.142   7.486  1.00  0.00     0.001 A 
ATOM     35  C   UNL     1      -4.816   6.316   3.312  1.00  0.00     0.001 A 
ATOM     36  C   UNL     1      -0.159   3.388   8.090  1.00  0.00     0.001 A 
ENDBRANCH  22  23
ENDBRANCH  14  15
ENDBRANCH  13  14
ENDBRANCH  12  13
ENDBRANCH   9  12
ENDBRANCH   6   8
ENDBRANCH   3   6
ENDBRANCH   1   2
BRANCH   1  37
ATOM     37  C   UNL     1      -2.643  -1.609  -1.259  1.00  0.00     0.023 C 
BRANCH  37  38
ATOM     38  C   UNL     1      -3.827  -2.477  -1.714  1.00  0.00     0.023 C 
BRANCH  38  39
ATOM     39  C   UNL     1      -4.151  -2.526  -3.191  1.00  0.00     0.116 C 
BRANCH  39  40
ATOM     40  N   UNL     1      -3.129  -3.100  -4.055  1.00  0.00    -0.352 N 
ATOM     41  C   UNL     1      -3.361  -3.663  -5.302  1.00  0.00     0.251 C 
ATOM     42  H   UNL     1      -2.201  -3.089  -3.728  1.00  0.00     0.163 HD
ATOM     43  O   UNL     1      -2.464  -4.151  -5.971  1.00  0.00    -0.269 OA
BRANCH  41  44
ATOM     44  C   UNL     1      -4.770  -3.695  -5.759  1.00  0.00     0.039 A 
ATOM     45  C   UNL     1      -5.434  -4.922  -5.809  1.00  0.00     0.014 A 
ATOM     46  C   UNL     1      -5.473  -2.491  -5.833  1.00  0.00     0.014 A 
ATOM     47  C   UNL     1      -6.830  -4.937  -5.827  1.00  0.00     0.010 A 
ATOM     48  C   UNL     1      -6.857  -2.514  -5.736  1.00  0.00     0.010 A 
ATOM     49  C   UNL     1      -7.552  -3.735  -5.727  1.00  0.00    -0.014 A 
BRANCH  49  50
ATOM     50  C   UNL     1      -9.034  -3.730  -5.621  1.00  0.00     0.031 A 
ATOM     51  C   UNL     1      -9.846  -3.039  -6.683  1.00  0.00     0.074 A 
ATOM     52  C   UNL     1      -9.645  -4.286  -4.554  1.00  0.00     0.049 A 
ATOM     53  N   UNL     1     -11.142  -2.884  -6.760  1.00  0.00    -0.248 NA
ATOM     54  C   UNL     1      -9.101  -2.411  -7.788  1.00  0.00     0.031 C 
ATOM     55  C   UNL     1      -8.968  -4.936  -3.427  1.00  0.00     0.029 A 
ATOM     56  N   UNL     1     -10.978  -4.395  -4.240  1.00  0.00    -0.354 N 
ATOM     57  C   UNL     1     -11.361  -2.135  -7.909  1.00  0.00     0.074 A 
ATOM     58  C   UNL     1     -10.066  -1.800  -8.455  1.00  0.00     0.031 C 
ATOM     59  C   UNL     1      -9.890  -5.407  -2.569  1.00  0.00     0.029 A 
ATOM     60  C   UNL     1     -11.220  -5.060  -3.059  1.00  0.00     0.049 A 
ATOM     61  H   UNL     1     -11.695  -4.031  -4.808  1.00  0.00     0.167 HD
ATOM     62  C   UNL     1     -12.535  -1.786  -8.484  1.00  0.00     0.031 A 
ATOM     63  C   UNL     1     -12.382  -5.355  -2.440  1.00  0.00     0.031 A 
ATOM     64  C   UNL     1     -13.822  -2.130  -7.946  1.00  0.00     0.049 A 
ATOM     65  C   UNL     1     -13.677  -4.946  -3.091  1.00  0.00     0.074 A 
ATOM     66  C   UNL     1     -15.072  -1.868  -8.474  1.00  0.00     0.029 A 
ATOM     67  N   UNL     1     -14.022  -2.812  -6.755  1.00  0.00    -0.354 N 
ATOM     68  N   UNL     1     -13.865  -4.303  -4.220  1.00  0.00    -0.248 NA
ATOM     69  C   UNL     1     -14.918  -5.314  -2.394  1.00  0.00     0.031 C 
ATOM     70  C   UNL     1     -16.031  -2.340  -7.573  1.00  0.00     0.029 A 
ATOM     71  C   UNL     1     -15.378  -2.958  -6.518  1.00  0.00     0.049 A 
ATOM     72  H   UNL     1     -13.307  -3.143  -6.165  1.00  0.00     0.167 HD
ATOM     73  C   UNL     1     -15.243  -4.215  -4.382  1.00  0.00     0.074 A 
ATOM     74  C   UNL     1     -15.841  -4.886  -3.245  1.00  0.00     0.031 C 
ATOM     75  C   UNL     1     -15.952  -3.632  -5.381  1.00  0.00     0.031 A 
BRANCH  62  76
ATOM     76  C   UNL     1     -12.471  -0.993  -9.763  1.00  0.00    -0.014 A 
ATOM     77  C   UNL     1     -11.978  -1.569 -10.949  1.00  0.00     0.010 A 
ATOM     78  C   UNL     1     -12.931   0.335  -9.788  1.00  0.00     0.010 A 
ATOM     79  C   UNL     1     -11.905  -0.818 -12.124  1.00  0.00     0.020 A 
ATOM     80  C   UNL     1     -12.891   1.079 -10.970  1.00  0.00     0.020 A 
ATOM     81  C   UNL     1     -12.363   0.502 -12.127  1.00  0.00     0.054 A 
BRANCH  81  82
ATOM     82  S   UNL     1     -12.285   1.442 -13.676  1.00  0.00     0.124 S 
ATOM     83  O   UNL     1     -10.848   1.664 -13.820  1.00  0.00    -0.237 OA
ATOM     84  O   UNL     1     -12.877   0.517 -14.639  1.00  0.00    -0.237 OA
ATOM     85  O   UNL     1     -13.075   2.638 -13.397  1.00  0.00    -0.744 OA
ENDBRANCH  81  82
ENDBRANCH  62  76
BRANCH  63  86
ATOM     86  C   UNL     1     -12.376  -6.088  -1.141  1.00  0.00    -0.014 A 
ATOM     87  C   UNL     1     -12.861  -7.406  -1.054  1.00  0.00     0.010 A 
ATOM     88  C   UNL     1     -11.883  -5.468   0.022  1.00  0.00     0.010 A 
ATOM     89  C   UNL     1     -12.871  -8.081   0.172  1.00  0.00     0.020 A 
ATOM     90  C   UNL     1     -11.862  -6.150   1.243  1.00  0.00     0.020 A 
ATOM     91  C   UNL     1     -12.368  -7.449   1.312  1.00  0.00     0.054 A 
BRANCH  91  92
ATOM     92  S   UNL     1     -12.346  -8.361   2.882  1.00  0.00     0.124 S 
ATOM     93  O   UNL     1     -13.762  -8.400   3.232  1.00  0.00    -0.237 OA
ATOM     94  O   UNL     1     -11.753  -9.639   2.494  1.00  0.00    -0.237 OA
ATOM     95  O   UNL     1     -11.508  -7.532   3.747  1.00  0.00    -0.744 OA
ENDBRANCH  91  92
ENDBRANCH  63  86
BRANCH  75  96
ATOM     96  C   UNL     1     -17.454  -3.724  -5.315  1.00  0.00    -0.014 A 
ATOM     97  C   UNL     1     -18.191  -2.997  -4.364  1.00  0.00     0.010 A 
ATOM     98  C   UNL     1     -18.140  -4.502  -6.266  1.00  0.00     0.010 A 
ATOM     99  C   UNL     1     -19.586  -3.072  -4.346  1.00  0.00     0.020 A 
ATOM    100  C   UNL     1     -19.535  -4.553  -6.272  1.00  0.00     0.020 A 
ATOM    101  C   UNL     1     -20.249  -3.849  -5.302  1.00  0.00     0.054 A 
BRANCH 101 102
ATOM    102  S   UNL     1     -22.062  -3.892  -5.285  1.00  0.00     0.124 S 
ATOM    103  O   UNL     1     -22.335  -4.692  -4.094  1.00  0.00    -0.237 OA
ATOM    104  O   UNL     1     -22.414  -2.477  -5.186  1.00  0.00    -0.237 OA
ATOM    105  O   UNL     1     -22.407  -4.527  -6.555  1.00  0.00    -0.744 OA
ENDBRANCH 101 102
ENDBRANCH  75  96
ENDBRANCH  49  50
ENDBRANCH  41  44
ENDBRANCH  39  40
ENDBRANCH  38  39
ENDBRANCH  37  38
ENDBRANCH   1  37
TORSDOF 20
