REMARK SMILES O=C(NCCCCNC(=O)c1ccc(-c2c3nc(c(-c4ccc(S(=O)(=O)[O-])cc4)c4ccc([nH]4)c(-c4ccc(S(=O)(=O)[O-])cc4)c4nc(c(-c5ccc(S(=O)(=O)[O-])cc5)c5ccc2[nH]5)C=C4)C=C3)cc1)C1=C(C(=O)NCCC2=CCCCC2)CCCC1
REMARK SMILES IDX 5 1 4 2 3 3 1 4 2 5 71 7 72 8 87 9 84 10 86 11 85 12 73 13
REMARK SMILES IDX 74 14 75 15 76 17 77 18 78 19 79 20 83 21 80 22 82 23 81 24
REMARK SMILES IDX 6 25 7 26 8 27 9 28 10 30 11 31 12 32 70 33 13 34 69 35
REMARK SMILES IDX 14 36 15 37 16 38 63 39 17 40 68 41 62 42 64 43 18 44 67 45
REMARK SMILES IDX 61 46 60 47 19 49 49 50 30 51 48 52 31 53 34 54 47 55 65 56
REMARK SMILES IDX 32 57 33 58 46 60 66 61 35 62 20 63 21 64 29 65 22 66 28 67
REMARK SMILES IDX 23 68 24 69 25 70 26 71 27 72 50 73 51 74 59 75 52 76 58 77
REMARK SMILES IDX 53 78 54 79 55 80 56 81 57 82 36 83 37 84 45 85 38 86 44 87
REMARK SMILES IDX 39 88 40 89 41 90 42 91 43 92
REMARK H PARENT 3 6 75 16 8 29 64 48 34 59
REMARK Flexibility Score: inf
ROOT
ATOM      1  C   UNL     1       5.439   2.612  -1.488  1.00  0.00     0.023 C 
ENDROOT
BRANCH   1   2
ATOM      2  C   UNL     1       4.830   1.327  -0.931  1.00  0.00     0.116 C 
BRANCH   2   3
ATOM      3  N   UNL     1       3.424   1.193  -1.267  1.00  0.00    -0.352 N 
ATOM      4  O   UNL     1       1.452   0.188  -1.606  1.00  0.00    -0.270 OA
ATOM      5  C   UNL     1       2.619   0.100  -1.226  1.00  0.00     0.247 C 
ATOM      6  H   UNL     1       2.987   2.021  -1.571  1.00  0.00     0.163 HD
BRANCH   5   7
ATOM      7  C   UNL     1       3.159  -1.216  -0.799  1.00  0.00     0.026 C 
ATOM      8  C   UNL     1       3.751  -1.478   0.386  1.00  0.00     0.026 C 
ATOM      9  C   UNL     1       2.917  -2.282  -1.849  1.00  0.00     0.042 C 
ATOM     10  C   UNL     1       4.462  -2.804   0.614  1.00  0.00     0.042 C 
ATOM     11  C   UNL     1       3.332  -3.690  -1.427  1.00  0.00     0.005 C 
ATOM     12  C   UNL     1       4.639  -3.639  -0.657  1.00  0.00     0.005 C 
BRANCH   8  13
ATOM     13  C   UNL     1       3.910  -0.548   1.551  1.00  0.00     0.247 C 
ATOM     14  O   UNL     1       4.997  -0.497   2.130  1.00  0.00    -0.270 OA
ATOM     15  N   UNL     1       2.882   0.185   2.052  1.00  0.00    -0.352 N 
ATOM     16  H   UNL     1       3.086   0.640   2.901  1.00  0.00     0.163 HD
BRANCH  15  17
ATOM     17  C   UNL     1       1.537   0.415   1.558  1.00  0.00     0.120 C 
BRANCH  17  18
ATOM     18  C   UNL     1       0.545   0.888   2.624  1.00  0.00     0.052 C 
BRANCH  18  19
ATOM     19  C   UNL     1       0.913   2.153   3.378  1.00  0.00    -0.072 C 
ATOM     20  C   UNL     1       0.883   2.178   4.725  1.00  0.00    -0.028 C 
ATOM     21  C   UNL     1       1.218   3.402   2.576  1.00  0.00     0.031 C 
ATOM     22  C   UNL     1       1.081   3.418   5.548  1.00  0.00     0.027 C 
ATOM     23  C   UNL     1       1.747   4.569   3.419  1.00  0.00     0.005 C 
ATOM     24  C   UNL     1       0.976   4.702   4.726  1.00  0.00     0.004 C 
ENDBRANCH  18  19
ENDBRANCH  17  18
ENDBRANCH  15  17
ENDBRANCH   8  13
ENDBRANCH   5   7
ENDBRANCH   2   3
ENDBRANCH   1   2
BRANCH   1  25
ATOM     25  C   UNL     1       4.840   3.908  -0.923  1.00  0.00     0.023 C 
BRANCH  25  26
ATOM     26  C   UNL     1       4.988   4.096   0.586  1.00  0.00     0.116 C 
BRANCH  26  27
ATOM     27  N   UNL     1       6.382   4.222   0.989  1.00  0.00    -0.352 N 
ATOM     28  C   UNL     1       7.104   5.330   1.350  1.00  0.00     0.251 C 
ATOM     29  H   UNL     1       6.887   3.377   1.005  1.00  0.00     0.163 HD
ATOM     30  O   UNL     1       8.332   5.256   1.418  1.00  0.00    -0.269 OA
BRANCH  28  31
ATOM     31  C   UNL     1       6.435   6.618   1.647  1.00  0.00     0.039 A 
ATOM     32  C   UNL     1       7.000   7.802   1.164  1.00  0.00     0.014 A 
ATOM     33  C   UNL     1       5.287   6.674   2.445  1.00  0.00     0.014 A 
ATOM     34  C   UNL     1       6.381   9.029   1.423  1.00  0.00     0.010 A 
ATOM     35  C   UNL     1       4.634   7.890   2.646  1.00  0.00     0.010 A 
ATOM     36  C   UNL     1       5.172   9.082   2.136  1.00  0.00    -0.014 A 
BRANCH  36  37
ATOM     37  C   UNL     1       4.454  10.369   2.337  1.00  0.00     0.031 A 
ATOM     38  C   UNL     1       4.269  10.940   3.718  1.00  0.00     0.074 A 
ATOM     39  C   UNL     1       3.915  11.001   1.275  1.00  0.00     0.049 A 
ATOM     40  N   UNL     1       3.633  12.024   4.083  1.00  0.00    -0.248 NA
ATOM     41  C   UNL     1       4.857  10.184   4.836  1.00  0.00     0.031 C 
ATOM     42  C   UNL     1       3.987  10.537  -0.112  1.00  0.00     0.029 A 
ATOM     43  N   UNL     1       3.194  12.167   1.196  1.00  0.00    -0.354 N 
ATOM     44  C   UNL     1       3.729  12.074   5.469  1.00  0.00     0.074 A 
ATOM     45  C   UNL     1       4.449  10.889   5.883  1.00  0.00     0.031 C 
ATOM     46  C   UNL     1       3.359  11.420  -0.905  1.00  0.00     0.029 A 
ATOM     47  C   UNL     1       2.807  12.492  -0.083  1.00  0.00     0.049 A 
ATOM     48  H   UNL     1       2.974  12.718   1.982  1.00  0.00     0.167 HD
ATOM     49  C   UNL     1       3.275  13.026   6.320  1.00  0.00     0.031 A 
ATOM     50  C   UNL     1       2.085  13.530  -0.546  1.00  0.00     0.031 A 
ATOM     51  C   UNL     1       2.567  14.211   5.910  1.00  0.00     0.049 A 
ATOM     52  C   UNL     1       1.587  14.572   0.417  1.00  0.00     0.074 A 
ATOM     53  C   UNL     1       2.117  15.259   6.694  1.00  0.00     0.029 A 
ATOM     54  N   UNL     1       2.203  14.505   4.605  1.00  0.00    -0.354 N 
ATOM     55  N   UNL     1       1.743  14.630   1.718  1.00  0.00    -0.248 NA
ATOM     56  C   UNL     1       0.825  15.692  -0.152  1.00  0.00     0.031 C 
ATOM     57  C   UNL     1       1.439  16.165   5.870  1.00  0.00     0.029 A 
ATOM     58  C   UNL     1       1.514  15.706   4.564  1.00  0.00     0.049 A 
ATOM     59  H   UNL     1       2.405  13.943   3.822  1.00  0.00     0.167 HD
ATOM     60  C   UNL     1       1.118  15.806   2.120  1.00  0.00     0.074 A 
ATOM     61  C   UNL     1       0.596  16.433   0.923  1.00  0.00     0.031 C 
ATOM     62  C   UNL     1       0.992  16.318   3.369  1.00  0.00     0.031 A 
BRANCH  49  63
ATOM     63  C   UNL     1       3.525  12.819   7.792  1.00  0.00    -0.014 A 
ATOM     64  C   UNL     1       4.819  12.935   8.332  1.00  0.00     0.010 A 
ATOM     65  C   UNL     1       2.447  12.542   8.653  1.00  0.00     0.010 A 
ATOM     66  C   UNL     1       5.037  12.732   9.697  1.00  0.00     0.020 A 
ATOM     67  C   UNL     1       2.658  12.365  10.024  1.00  0.00     0.020 A 
ATOM     68  C   UNL     1       3.956  12.442  10.534  1.00  0.00     0.054 A 
BRANCH  68  69
ATOM     69  S   UNL     1       4.265  12.194  12.304  1.00  0.00     0.124 S 
ATOM     70  O   UNL     1       4.875  10.867  12.319  1.00  0.00    -0.237 OA
ATOM     71  O   UNL     1       5.161  13.300  12.632  1.00  0.00    -0.237 OA
ATOM     72  O   UNL     1       2.936  12.275  12.903  1.00  0.00    -0.744 OA
ENDBRANCH  68  69
ENDBRANCH  49  63
BRANCH  50  73
ATOM     73  C   UNL     1       1.806  13.644  -2.003  1.00  0.00    -0.014 A 
ATOM     74  C   UNL     1       2.457  14.618  -2.779  1.00  0.00     0.010 A 
ATOM     75  C   UNL     1       0.904  12.761  -2.626  1.00  0.00     0.010 A 
ATOM     76  C   UNL     1       2.203  14.717  -4.150  1.00  0.00     0.020 A 
ATOM     77  C   UNL     1       0.667  12.840  -4.001  1.00  0.00     0.020 A 
ATOM     78  C   UNL     1       1.312  13.825  -4.753  1.00  0.00     0.054 A 
BRANCH  78  79
ATOM     79  S   UNL     1       1.046  13.929  -6.545  1.00  0.00     0.124 S 
ATOM     80  O   UNL     1       0.191  15.106  -6.657  1.00  0.00    -0.237 OA
ATOM     81  O   UNL     1       2.405  14.081  -7.059  1.00  0.00    -0.237 OA
ATOM     82  O   UNL     1       0.406  12.655  -6.869  1.00  0.00    -0.744 OA
ENDBRANCH  78  79
ENDBRANCH  50  73
BRANCH  62  83
ATOM     83  C   UNL     1       0.280  17.638   3.505  1.00  0.00    -0.014 A 
ATOM     84  C   UNL     1      -1.115  17.731   3.357  1.00  0.00     0.010 A 
ATOM     85  C   UNL     1       1.013  18.793   3.833  1.00  0.00     0.010 A 
ATOM     86  C   UNL     1      -1.760  18.962   3.503  1.00  0.00     0.020 A 
ATOM     87  C   UNL     1       0.369  20.020   4.005  1.00  0.00     0.020 A 
ATOM     88  C   UNL     1      -1.013  20.100   3.824  1.00  0.00     0.054 A 
BRANCH  88  89
ATOM     89  S   UNL     1      -1.878  21.679   4.048  1.00  0.00     0.124 S 
ATOM     90  O   UNL     1      -2.173  22.062   2.670  1.00  0.00    -0.237 OA
ATOM     91  O   UNL     1      -3.034  21.301   4.857  1.00  0.00    -0.237 OA
ATOM     92  O   UNL     1      -0.895  22.517   4.731  1.00  0.00    -0.744 OA
ENDBRANCH  88  89
ENDBRANCH  62  83
ENDBRANCH  36  37
ENDBRANCH  28  31
ENDBRANCH  26  27
ENDBRANCH  25  26
ENDBRANCH   1  25
TORSDOF 18
