REMARK SMILES Nc1c(CC(=O)NCCCCNC(=O)c2ccc(-c3c4nc(c(-c5ccc(S(=O)(=O)[O-])cc5)c5ccc([nH]5)c(-c5ccc(S(=O)(=O)[O-])cc5)c5nc(c(-c6ccc(S(=O)(=O)[O-])cc6)c6ccc3[nH]6)C=C5)C=C4)cc2)cccc1C(=O)c1ccc(Br)cc1
REMARK SMILES IDX 9 1 8 2 7 3 5 4 6 5 4 7 3 8 2 9 78 10 75 11 77 12 76 13 1 14
REMARK SMILES IDX 79 17 80 18 81 19 82 20 87 21 83 22 86 23 84 24 85 25 10 26
REMARK SMILES IDX 11 27 12 28 13 29 14 31 15 32 16 33 74 34 17 35 73 36 18 37
REMARK SMILES IDX 19 38 20 39 67 40 21 41 72 42 66 43 68 44 22 45 71 46 65 47
REMARK SMILES IDX 64 48 23 50 53 51 34 52 52 53 35 54 38 55 51 56 69 57 36 58
REMARK SMILES IDX 37 59 50 61 70 62 39 63 24 64 25 65 33 66 26 67 32 68 27 69
REMARK SMILES IDX 28 70 29 71 30 72 31 73 54 74 55 75 63 76 56 77 62 78 57 79
REMARK SMILES IDX 58 80 59 81 60 82 61 83 40 84 41 85 49 86 42 87 48 88 43 89
REMARK SMILES IDX 44 90 45 91 46 92 47 93
REMARK H PARENT 7 6 1 15 1 16 12 30 68 49 38 60
REMARK Flexibility Score: inf
ROOT
ATOM      1  C   UNL     1       0.632  -0.694   3.346  1.00  0.00     0.023 C 
ENDROOT
BRANCH   1   2
ATOM      2  C   UNL     1       1.582  -1.764   2.808  1.00  0.00     0.116 C 
BRANCH   2   3
ATOM      3  N   UNL     1       0.875  -2.976   2.447  1.00  0.00    -0.356 N 
ATOM      4  C   UNL     1       0.447  -3.386   1.218  1.00  0.00     0.224 C 
ATOM      5  O   UNL     1      -0.208  -4.428   1.144  1.00  0.00    -0.275 OA
ATOM      6  H   UNL     1       0.675  -3.588   3.192  1.00  0.00     0.163 HD
BRANCH   4   7
ATOM      7  C   UNL     1       0.835  -2.618  -0.037  1.00  0.00     0.137 C 
BRANCH   7   8
ATOM      8  C   UNL     1       0.229  -1.229  -0.150  1.00  0.00    -0.015 A 
ATOM      9  C   UNL     1       1.015  -0.043  -0.186  1.00  0.00     0.046 A 
ATOM     10  C   UNL     1       0.356   1.215  -0.187  1.00  0.00     0.046 A 
ATOM     11  C   UNL     1      -1.176  -1.142  -0.159  1.00  0.00     0.006 A 
ATOM     12  C   UNL     1      -1.053   1.256  -0.172  1.00  0.00     0.014 A 
ATOM     13  C   UNL     1      -1.812   0.090  -0.165  1.00  0.00     0.001 A 
BRANCH   9  14
ATOM     14  N   UNL     1       2.400  -0.164  -0.167  1.00  0.00    -0.398 N 
ATOM     15  H   UNL     1       2.817  -1.056  -0.167  1.00  0.00     0.156 HD
ATOM     16  H   UNL     1       2.965   0.642  -0.153  1.00  0.00     0.156 HD
ENDBRANCH   9  14
BRANCH  10  17
ATOM     17  C   UNL     1       1.021   2.566  -0.162  1.00  0.00     0.195 C 
ATOM     18  O   UNL     1       0.358   3.585   0.031  1.00  0.00    -0.289 OA
BRANCH  17  19
ATOM     19  C   UNL     1       2.475   2.757  -0.299  1.00  0.00     0.023 A 
ATOM     20  C   UNL     1       3.170   3.330   0.774  1.00  0.00     0.013 A 
ATOM     21  C   UNL     1       3.158   2.346  -1.448  1.00  0.00     0.013 A 
ATOM     22  C   UNL     1       4.562   3.420   0.729  1.00  0.00     0.016 A 
ATOM     23  C   UNL     1       4.553   2.423  -1.483  1.00  0.00     0.016 A 
ATOM     24  C   UNL     1       5.247   2.948  -0.391  1.00  0.00     0.018 A 
ATOM     25  Br  UNL     1       7.136   2.999  -0.422  1.00  0.00    -0.051 Br
ENDBRANCH  17  19
ENDBRANCH  10  17
ENDBRANCH   7   8
ENDBRANCH   4   7
ENDBRANCH   2   3
ENDBRANCH   1   2
BRANCH   1  26
ATOM     26  C   UNL     1       0.105  -0.983   4.754  1.00  0.00     0.023 C 
BRANCH  26  27
ATOM     27  C   UNL     1       1.181  -1.130   5.822  1.00  0.00     0.116 C 
BRANCH  27  28
ATOM     28  N   UNL     1       2.010   0.057   5.960  1.00  0.00    -0.352 N 
ATOM     29  C   UNL     1       2.538   0.604   7.102  1.00  0.00     0.251 C 
ATOM     30  H   UNL     1       2.219   0.531   5.123  1.00  0.00     0.163 HD
ATOM     31  O   UNL     1       3.105   1.694   7.051  1.00  0.00    -0.269 OA
BRANCH  29  32
ATOM     32  C   UNL     1       2.395  -0.105   8.392  1.00  0.00     0.039 A 
ATOM     33  C   UNL     1       2.031   0.625   9.525  1.00  0.00     0.014 A 
ATOM     34  C   UNL     1       2.614  -1.483   8.486  1.00  0.00     0.014 A 
ATOM     35  C   UNL     1       1.847  -0.034  10.742  1.00  0.00     0.010 A 
ATOM     36  C   UNL     1       2.345  -2.150   9.679  1.00  0.00     0.010 A 
ATOM     37  C   UNL     1       1.978  -1.431  10.825  1.00  0.00    -0.014 A 
BRANCH  37  38
ATOM     38  C   UNL     1       1.759  -2.142  12.111  1.00  0.00     0.031 A 
ATOM     39  C   UNL     1       2.891  -2.889  12.768  1.00  0.00     0.074 A 
ATOM     40  C   UNL     1       0.536  -2.137  12.677  1.00  0.00     0.049 A 
ATOM     41  N   UNL     1       2.895  -3.552  13.897  1.00  0.00    -0.248 NA
ATOM     42  C   UNL     1       4.178  -2.918  12.054  1.00  0.00     0.031 C 
ATOM     43  C   UNL     1      -0.655  -1.493  12.115  1.00  0.00     0.029 A 
ATOM     44  N   UNL     1       0.090  -2.686  13.853  1.00  0.00    -0.354 N 
ATOM     45  C   UNL     1       4.175  -4.081  14.021  1.00  0.00     0.074 A 
ATOM     46  C   UNL     1       4.900  -3.718  12.825  1.00  0.00     0.031 C 
ATOM     47  C   UNL     1      -1.681  -1.647  12.967  1.00  0.00     0.029 A 
ATOM     48  C   UNL     1      -1.236  -2.432  14.114  1.00  0.00     0.049 A 
ATOM     49  H   UNL     1       0.666  -3.212  14.454  1.00  0.00     0.167 HD
ATOM     50  C   UNL     1       4.709  -4.784  15.049  1.00  0.00     0.031 A 
ATOM     51  C   UNL     1      -2.007  -2.787  15.160  1.00  0.00     0.031 A 
ATOM     52  C   UNL     1       3.986  -5.138  16.242  1.00  0.00     0.049 A 
ATOM     53  C   UNL     1      -1.393  -3.572  16.287  1.00  0.00     0.074 A 
ATOM     54  C   UNL     1       4.452  -5.799  17.365  1.00  0.00     0.029 A 
ATOM     55  N   UNL     1       2.646  -4.864  16.466  1.00  0.00    -0.354 N 
ATOM     56  N   UNL     1      -0.158  -3.996  16.421  1.00  0.00    -0.248 NA
ATOM     57  C   UNL     1      -2.273  -3.911  17.413  1.00  0.00     0.031 C 
ATOM     58  C   UNL     1       3.377  -5.980  18.242  1.00  0.00     0.029 A 
ATOM     59  C   UNL     1       2.259  -5.369  17.697  1.00  0.00     0.049 A 
ATOM     60  H   UNL     1       2.055  -4.383  15.843  1.00  0.00     0.167 HD
ATOM     61  C   UNL     1      -0.108  -4.629  17.659  1.00  0.00     0.074 A 
ATOM     62  C   UNL     1      -1.429  -4.509  18.242  1.00  0.00     0.031 C 
ATOM     63  C   UNL     1       0.937  -5.253  18.260  1.00  0.00     0.031 A 
BRANCH  50  64
ATOM     64  C   UNL     1       6.147  -5.221  14.923  1.00  0.00    -0.014 A 
ATOM     65  C   UNL     1       7.198  -4.284  14.940  1.00  0.00     0.010 A 
ATOM     66  C   UNL     1       6.456  -6.589  14.824  1.00  0.00     0.010 A 
ATOM     67  C   UNL     1       8.525  -4.704  14.816  1.00  0.00     0.020 A 
ATOM     68  C   UNL     1       7.785  -7.016  14.733  1.00  0.00     0.020 A 
ATOM     69  C   UNL     1       8.810  -6.069  14.712  1.00  0.00     0.054 A 
BRANCH  69  70
ATOM     70  S   UNL     1      10.543  -6.585  14.576  1.00  0.00     0.124 S 
ATOM     71  O   UNL     1      10.883  -6.146  13.224  1.00  0.00    -0.237 OA
ATOM     72  O   UNL     1      11.184  -5.841  15.657  1.00  0.00    -0.237 OA
ATOM     73  O   UNL     1      10.491  -8.033  14.764  1.00  0.00    -0.744 OA
ENDBRANCH  69  70
ENDBRANCH  50  64
BRANCH  51  74
ATOM     74  C   UNL     1      -3.441  -2.384  15.200  1.00  0.00    -0.014 A 
ATOM     75  C   UNL     1      -3.895  -1.438  16.136  1.00  0.00     0.010 A 
ATOM     76  C   UNL     1      -4.361  -2.944  14.294  1.00  0.00     0.010 A 
ATOM     77  C   UNL     1      -5.245  -1.076  16.180  1.00  0.00     0.020 A 
ATOM     78  C   UNL     1      -5.705  -2.560  14.315  1.00  0.00     0.020 A 
ATOM     79  C   UNL     1      -6.141  -1.638  15.267  1.00  0.00     0.054 A 
BRANCH  79  80
ATOM     80  S   UNL     1      -7.878  -1.117  15.313  1.00  0.00     0.124 S 
ATOM     81  O   UNL     1      -8.354  -1.755  16.536  1.00  0.00    -0.237 OA
ATOM     82  O   UNL     1      -7.769   0.339  15.358  1.00  0.00    -0.237 OA
ATOM     83  O   UNL     1      -8.429  -1.655  14.070  1.00  0.00    -0.744 OA
ENDBRANCH  79  80
ENDBRANCH  51  74
BRANCH  63  84
ATOM     84  C   UNL     1       0.699  -5.829  19.632  1.00  0.00    -0.014 A 
ATOM     85  C   UNL     1      -0.132  -6.948  19.823  1.00  0.00     0.010 A 
ATOM     86  C   UNL     1       1.341  -5.256  20.745  1.00  0.00     0.010 A 
ATOM     87  C   UNL     1      -0.358  -7.450  21.107  1.00  0.00     0.020 A 
ATOM     88  C   UNL     1       1.146  -5.777  22.027  1.00  0.00     0.020 A 
ATOM     89  C   UNL     1       0.280  -6.858  22.202  1.00  0.00     0.054 A 
BRANCH  89  90
ATOM     90  S   UNL     1      -0.018  -7.536  23.857  1.00  0.00     0.124 S 
ATOM     91  O   UNL     1      -1.384  -7.093  24.125  1.00  0.00    -0.237 OA
ATOM     92  O   UNL     1       0.146  -8.973  23.648  1.00  0.00    -0.237 OA
ATOM     93  O   UNL     1       1.013  -6.910  24.680  1.00  0.00    -0.744 OA
ENDBRANCH  89  90
ENDBRANCH  63  84
ENDBRANCH  37  38
ENDBRANCH  29  32
ENDBRANCH  27  28
ENDBRANCH  26  27
ENDBRANCH   1  26
TORSDOF 18
