REMARK SMILES Cc1ccccc1NC(=O)CSc1nc(C(=O)NCCCCNC(=O)c2ccc(-c3c4nc(c(-c5ccc(S(=O)(=O)[O-])cc5)c5ccc([nH]5)c(-c5ccc(S(=O)(=O)[O-])cc5)c5nc(c(-c6ccc(S(=O)(=O)[O-])cc6)c6ccc3[nH]6)C=C5)C=C4)cc2)c2ccccc2n1
REMARK SMILES IDX 20 1 19 2 18 3 16 4 17 5 15 7 13 8 14 9 92 10 91 11 86 12
REMARK SMILES IDX 90 13 87 14 89 15 88 16 12 17 11 18 9 19 8 20 10 22 7 23
REMARK SMILES IDX 1 24 2 25 3 26 4 27 6 28 5 29 21 30 22 31 23 32 24 33 25 35
REMARK SMILES IDX 26 36 27 37 85 38 28 39 84 40 29 41 30 42 31 43 78 44 32 45
REMARK SMILES IDX 83 46 77 47 79 48 33 49 82 50 76 51 75 52 34 54 64 55 45 56
REMARK SMILES IDX 63 57 46 58 49 59 62 60 80 61 47 62 48 63 61 65 81 66 50 67
REMARK SMILES IDX 35 68 36 69 44 70 37 71 43 72 38 73 39 74 40 75 41 76 42 77
REMARK SMILES IDX 65 78 66 79 74 80 67 81 73 82 68 83 69 84 70 85 71 86 72 87
REMARK SMILES IDX 51 88 52 89 60 90 53 91 59 92 54 93 55 94 56 95 57 96 58 97
REMARK H PARENT 18 6 8 21 23 34 79 53 49 64
REMARK Flexibility Score: inf
ROOT
ATOM      1  C   UNL     1      -2.658   7.283  -7.958  1.00  0.00     0.023 C 
ENDROOT
BRANCH   1   2
ATOM      2  C   UNL     1      -1.469   6.932  -7.065  1.00  0.00     0.116 C 
BRANCH   2   3
ATOM      3  N   UNL     1      -1.412   7.612  -5.776  1.00  0.00    -0.351 N 
ATOM      4  C   UNL     1      -1.015   7.152  -4.530  1.00  0.00     0.270 C 
ATOM      5  O   UNL     1      -0.974   7.957  -3.599  1.00  0.00    -0.267 OA
ATOM      6  H   UNL     1      -1.703   8.552  -5.794  1.00  0.00     0.163 HD
BRANCH   4   7
ATOM      7  C   UNL     1      -0.745   5.699  -4.261  1.00  0.00     0.140 A 
ATOM      8  C   UNL     1      -1.428   3.904  -3.041  1.00  0.00     0.189 A 
ATOM      9  N   UNL     1      -1.455   5.222  -3.207  1.00  0.00    -0.217 NA
ATOM     10  N   UNL     1      -0.868   3.034  -3.889  1.00  0.00    -0.222 NA
ATOM     11  C   UNL     1      -0.156   3.532  -4.905  1.00  0.00     0.076 A 
ATOM     12  C   UNL     1       0.044   4.900  -5.095  1.00  0.00     0.032 A 
ATOM     13  C   UNL     1       0.375   2.651  -5.839  1.00  0.00     0.029 A 
ATOM     14  C   UNL     1       0.941   5.339  -6.105  1.00  0.00     0.013 A 
ATOM     15  C   UNL     1       1.147   3.094  -6.917  1.00  0.00     0.002 A 
ATOM     16  C   UNL     1       1.462   4.440  -7.029  1.00  0.00     0.001 A 
BRANCH   8  17
ATOM     17  S   UNL     1      -2.333   3.214  -1.687  1.00  0.00    -0.076 SA
BRANCH  17  18
ATOM     18  C   UNL     1      -1.409   3.931  -0.298  1.00  0.00     0.178 C 
BRANCH  18  19
ATOM     19  C   UNL     1       0.063   3.580  -0.286  1.00  0.00     0.234 C 
ATOM     20  N   UNL     1       0.581   2.339  -0.081  1.00  0.00    -0.325 N 
ATOM     21  H   UNL     1       1.566   2.348  -0.083  1.00  0.00     0.169 HD
ATOM     22  O   UNL     1       0.900   4.482  -0.440  1.00  0.00    -0.274 OA
BRANCH  20  23
ATOM     23  C   UNL     1       0.071   1.043   0.133  1.00  0.00     0.044 A 
ATOM     24  C   UNL     1       2.441   0.029  -0.179  1.00  0.00     0.046 C 
ATOM     25  C   UNL     1       0.949  -0.063   0.031  1.00  0.00    -0.027 A 
ATOM     26  C   UNL     1       0.425  -1.373   0.089  1.00  0.00     0.005 A 
ATOM     27  C   UNL     1      -0.930  -1.598   0.297  1.00  0.00     0.000 A 
ATOM     28  C   UNL     1      -1.272   0.788   0.425  1.00  0.00     0.026 A 
ATOM     29  C   UNL     1      -1.774  -0.517   0.492  1.00  0.00     0.002 A 
ENDBRANCH  20  23
ENDBRANCH  18  19
ENDBRANCH  17  18
ENDBRANCH   8  17
ENDBRANCH   4   7
ENDBRANCH   2   3
ENDBRANCH   1   2
BRANCH   1  30
ATOM     30  C   UNL     1      -2.878   8.760  -8.253  1.00  0.00     0.023 C 
BRANCH  30  31
ATOM     31  C   UNL     1      -1.706   9.493  -8.894  1.00  0.00     0.116 C 
BRANCH  31  32
ATOM     32  N   UNL     1      -1.744   9.534 -10.350  1.00  0.00    -0.352 N 
ATOM     33  C   UNL     1      -0.988  10.315 -11.219  1.00  0.00     0.251 C 
ATOM     34  H   UNL     1      -2.393   8.929 -10.776  1.00  0.00     0.163 HD
ATOM     35  O   UNL     1      -1.228  10.332 -12.411  1.00  0.00    -0.269 OA
BRANCH  33  36
ATOM     36  C   UNL     1       0.160  11.075 -10.665  1.00  0.00     0.039 A 
ATOM     37  C   UNL     1       1.436  10.850 -11.193  1.00  0.00     0.014 A 
ATOM     38  C   UNL     1       0.002  11.837  -9.516  1.00  0.00     0.014 A 
ATOM     39  C   UNL     1       2.562  11.204 -10.447  1.00  0.00     0.010 A 
ATOM     40  C   UNL     1       1.102  12.058  -8.717  1.00  0.00     0.010 A 
ATOM     41  C   UNL     1       2.384  11.709  -9.162  1.00  0.00    -0.014 A 
BRANCH  41  42
ATOM     42  C   UNL     1       3.438  11.871  -8.165  1.00  0.00     0.031 A 
ATOM     43  C   UNL     1       3.812  13.233  -7.708  1.00  0.00     0.074 A 
ATOM     44  C   UNL     1       3.895  10.787  -7.499  1.00  0.00     0.049 A 
ATOM     45  N   UNL     1       4.836  13.510  -6.972  1.00  0.00    -0.248 NA
ATOM     46  C   UNL     1       3.064  14.423  -8.104  1.00  0.00     0.031 C 
ATOM     47  C   UNL     1       4.557  10.777  -6.196  1.00  0.00     0.029 A 
ATOM     48  N   UNL     1       4.052   9.478  -7.961  1.00  0.00    -0.354 N 
ATOM     49  C   UNL     1       4.683  14.805  -6.524  1.00  0.00     0.074 A 
ATOM     50  C   UNL     1       3.632  15.359  -7.341  1.00  0.00     0.031 C 
ATOM     51  C   UNL     1       5.295   9.661  -6.098  1.00  0.00     0.029 A 
ATOM     52  C   UNL     1       5.255   9.015  -7.398  1.00  0.00     0.049 A 
ATOM     53  H   UNL     1       3.446   8.982  -8.558  1.00  0.00     0.167 HD
ATOM     54  C   UNL     1       5.356  15.211  -5.409  1.00  0.00     0.031 A 
ATOM     55  C   UNL     1       6.356   8.662  -8.125  1.00  0.00     0.031 A 
ATOM     56  C   UNL     1       6.342  14.215  -4.988  1.00  0.00     0.049 A 
ATOM     57  C   UNL     1       7.597   9.446  -7.752  1.00  0.00     0.074 A 
ATOM     58  C   UNL     1       6.384  13.283  -3.965  1.00  0.00     0.029 A 
ATOM     59  N   UNL     1       7.382  13.894  -5.854  1.00  0.00    -0.354 N 
ATOM     60  N   UNL     1       7.581  10.547  -7.053  1.00  0.00    -0.248 NA
ATOM     61  C   UNL     1       8.947   9.075  -8.165  1.00  0.00     0.031 C 
ATOM     62  C   UNL     1       7.407  12.344  -4.269  1.00  0.00     0.029 A 
ATOM     63  C   UNL     1       8.004  12.727  -5.458  1.00  0.00     0.049 A 
ATOM     64  H   UNL     1       7.639  14.426  -6.641  1.00  0.00     0.167 HD
ATOM     65  C   UNL     1       8.855  11.032  -6.915  1.00  0.00     0.074 A 
ATOM     66  C   UNL     1       9.678  10.066  -7.620  1.00  0.00     0.031 C 
ATOM     67  C   UNL     1       9.115  12.192  -6.239  1.00  0.00     0.031 A 
BRANCH  54  68
ATOM     68  C   UNL     1       4.937  16.388  -4.544  1.00  0.00    -0.014 A 
ATOM     69  C   UNL     1       5.360  16.451  -3.198  1.00  0.00     0.010 A 
ATOM     70  C   UNL     1       4.070  17.418  -4.955  1.00  0.00     0.010 A 
ATOM     71  C   UNL     1       4.879  17.424  -2.304  1.00  0.00     0.020 A 
ATOM     72  C   UNL     1       3.564  18.384  -4.072  1.00  0.00     0.020 A 
ATOM     73  C   UNL     1       3.961  18.373  -2.743  1.00  0.00     0.054 A 
BRANCH  73  74
ATOM     74  S   UNL     1       3.291  19.583  -1.573  1.00  0.00     0.124 S 
ATOM     75  O   UNL     1       2.655  18.733  -0.570  1.00  0.00    -0.237 OA
ATOM     76  O   UNL     1       4.488  20.293  -1.133  1.00  0.00    -0.237 OA
ATOM     77  O   UNL     1       2.365  20.374  -2.384  1.00  0.00    -0.744 OA
ENDBRANCH  73  74
ENDBRANCH  54  68
BRANCH  55  78
ATOM     78  C   UNL     1       6.050   8.134  -9.482  1.00  0.00    -0.014 A 
ATOM     79  C   UNL     1       5.441   6.862  -9.548  1.00  0.00     0.010 A 
ATOM     80  C   UNL     1       5.907   9.018 -10.568  1.00  0.00     0.010 A 
ATOM     81  C   UNL     1       4.543   6.563 -10.572  1.00  0.00     0.020 A 
ATOM     82  C   UNL     1       5.012   8.713 -11.603  1.00  0.00     0.020 A 
ATOM     83  C   UNL     1       4.279   7.524 -11.549  1.00  0.00     0.054 A 
BRANCH  83  84
ATOM     84  S   UNL     1       2.796   7.296 -12.576  1.00  0.00     0.124 S 
ATOM     85  O   UNL     1       3.041   5.999 -13.198  1.00  0.00    -0.237 OA
ATOM     86  O   UNL     1       1.740   7.321 -11.565  1.00  0.00    -0.237 OA
ATOM     87  O   UNL     1       2.829   8.445 -13.474  1.00  0.00    -0.744 OA
ENDBRANCH  83  84
ENDBRANCH  55  78
BRANCH  67  88
ATOM     88  C   UNL     1      10.437  12.927  -6.181  1.00  0.00    -0.014 A 
ATOM     89  C   UNL     1      11.489  12.752  -7.092  1.00  0.00     0.010 A 
ATOM     90  C   UNL     1      10.598  13.956  -5.218  1.00  0.00     0.010 A 
ATOM     91  C   UNL     1      12.661  13.521  -7.013  1.00  0.00     0.020 A 
ATOM     92  C   UNL     1      11.741  14.759  -5.159  1.00  0.00     0.020 A 
ATOM     93  C   UNL     1      12.781  14.518  -6.045  1.00  0.00     0.054 A 
BRANCH  93  94
ATOM     94  S   UNL     1      14.266  15.552  -5.998  1.00  0.00     0.124 S 
ATOM     95  O   UNL     1      15.155  14.762  -5.149  1.00  0.00    -0.237 OA
ATOM     96  O   UNL     1      14.655  15.633  -7.405  1.00  0.00    -0.237 OA
ATOM     97  O   UNL     1      13.793  16.806  -5.418  1.00  0.00    -0.744 OA
ENDBRANCH  93  94
ENDBRANCH  67  88
ENDBRANCH  41  42
ENDBRANCH  33  36
ENDBRANCH  31  32
ENDBRANCH  30  31
ENDBRANCH   1  30
TORSDOF 18
