REMARK SMILES CC1(C)CCN(c2nc3c(cc2C(=O)NCCCCNC(=O)c2ccc(-c4c5nc(c(-c6ccc(S(=O)(=O)[O-])cc6)c6ccc([nH]6)c(-c6ccc(S(=O)(=O)[O-])cc6)c6nc(c(-c7ccc(S(=O)(=O)[O-])cc7)c7ccc4[nH]7)C=C6)C=C5)cc2)CCC3)C1
REMARK SMILES IDX 18 1 17 2 16 3 15 4 13 5 14 6 12 8 7 9 8 10 9 11 11 12 10 13
REMARK SMILES IDX 85 14 83 15 84 16 6 17 1 18 2 19 3 20 4 21 86 22 5 23 19 24
REMARK SMILES IDX 20 25 21 26 22 28 23 29 24 30 82 31 25 32 81 33 26 34 27 35
REMARK SMILES IDX 28 36 75 37 29 38 80 39 74 40 76 41 30 42 79 43 73 44 72 45
REMARK SMILES IDX 31 47 61 48 42 49 60 50 43 51 46 52 59 53 77 54 44 55 45 56
REMARK SMILES IDX 58 58 78 59 47 60 32 61 33 62 41 63 34 64 40 65 35 66 36 67
REMARK SMILES IDX 37 68 38 69 39 70 62 71 63 72 71 73 64 74 70 75 65 76 66 77
REMARK SMILES IDX 67 78 68 79 69 80 48 81 49 82 57 83 50 84 56 85 51 86 52 87
REMARK SMILES IDX 53 88 54 89 55 90
REMARK H PARENT 15 7 20 27 76 46 46 57
REMARK Flexibility Score: inf
ROOT
ATOM      1  C   UNL     1       0.718  -0.649   4.384  1.00  0.00     0.023 C 
ENDROOT
BRANCH   1   2
ATOM      2  C   UNL     1       1.847  -0.799   3.363  1.00  0.00     0.023 C 
BRANCH   2   3
ATOM      3  C   UNL     1       1.825   0.140   2.163  1.00  0.00     0.116 C 
BRANCH   3   4
ATOM      4  N   UNL     1       1.899   1.550   2.470  1.00  0.00    -0.352 N 
ATOM      5  C   UNL     1       2.270   2.592   1.649  1.00  0.00     0.255 C 
ATOM      6  O   UNL     1       2.146   3.739   2.086  1.00  0.00    -0.269 OA
ATOM      7  H   UNL     1       1.652   1.799   3.389  1.00  0.00     0.163 HD
BRANCH   5   8
ATOM      8  C   UNL     1       2.912   2.416   0.315  1.00  0.00     0.082 A 
ATOM      9  C   UNL     1       2.490   1.552  -0.721  1.00  0.00     0.141 A 
ATOM     10  N   UNL     1       3.183   1.449  -1.891  1.00  0.00    -0.235 NA
ATOM     11  C   UNL     1       4.251   2.243  -2.047  1.00  0.00     0.046 A 
ATOM     12  C   UNL     1       4.038   3.239   0.097  1.00  0.00     0.023 A 
ATOM     13  C   UNL     1       4.707   3.144  -1.104  1.00  0.00    -0.025 A 
ATOM     14  C   UNL     1       5.054   2.332  -3.312  1.00  0.00     0.057 C 
ATOM     15  C   UNL     1       5.868   3.926  -1.619  1.00  0.00     0.038 C 
ATOM     16  C   UNL     1       6.309   3.058  -2.810  1.00  0.00     0.011 C 
BRANCH   9  17
ATOM     17  N   UNL     1       1.350   0.786  -0.654  1.00  0.00    -0.355 N 
ATOM     18  C   UNL     1      -1.420   0.375  -2.557  1.00  0.00     0.013 C 
ATOM     19  C   UNL     1      -0.932   0.271  -1.105  1.00  0.00    -0.016 C 
ATOM     20  C   UNL     1      -2.139   0.262  -0.164  1.00  0.00     0.013 C 
ATOM     21  C   UNL     1      -0.079  -1.003  -0.940  1.00  0.00     0.030 C 
ATOM     22  C   UNL     1       0.043   1.430  -0.750  1.00  0.00     0.124 C 
ATOM     23  C   UNL     1       1.333  -0.532  -1.263  1.00  0.00     0.119 C 
ENDBRANCH   9  17
ENDBRANCH   5   8
ENDBRANCH   3   4
ENDBRANCH   2   3
ENDBRANCH   1   2
BRANCH   1  24
ATOM     24  C   UNL     1      -0.699  -0.457   3.850  1.00  0.00     0.116 C 
BRANCH  24  25
ATOM     25  N   UNL     1      -1.152  -1.500   2.942  1.00  0.00    -0.352 N 
ATOM     26  C   UNL     1      -2.341  -2.195   2.918  1.00  0.00     0.251 C 
ATOM     27  H   UNL     1      -0.510  -1.747   2.237  1.00  0.00     0.163 HD
ATOM     28  O   UNL     1      -2.576  -2.988   2.015  1.00  0.00    -0.269 OA
BRANCH  26  29
ATOM     29  C   UNL     1      -3.289  -2.043   4.040  1.00  0.00     0.039 A 
ATOM     30  C   UNL     1      -3.601  -3.183   4.784  1.00  0.00     0.014 A 
ATOM     31  C   UNL     1      -3.776  -0.789   4.419  1.00  0.00     0.014 A 
ATOM     32  C   UNL     1      -4.295  -3.050   5.985  1.00  0.00     0.010 A 
ATOM     33  C   UNL     1      -4.425  -0.651   5.645  1.00  0.00     0.010 A 
ATOM     34  C   UNL     1      -4.653  -1.775   6.454  1.00  0.00    -0.014 A 
BRANCH  34  35
ATOM     35  C   UNL     1      -5.184  -1.606   7.827  1.00  0.00     0.031 A 
ATOM     36  C   UNL     1      -6.612  -1.214   8.051  1.00  0.00     0.074 A 
ATOM     37  C   UNL     1      -4.353  -1.775   8.876  1.00  0.00     0.049 A 
ATOM     38  N   UNL     1      -7.239  -1.017   9.181  1.00  0.00    -0.248 NA
ATOM     39  C   UNL     1      -7.441  -1.003   6.854  1.00  0.00     0.031 C 
ATOM     40  C   UNL     1      -2.932  -2.125   8.782  1.00  0.00     0.029 A 
ATOM     41  N   UNL     1      -4.581  -1.679  10.226  1.00  0.00    -0.354 N 
ATOM     42  C   UNL     1      -8.534  -0.659   8.835  1.00  0.00     0.074 A 
ATOM     43  C   UNL     1      -8.595  -0.630   7.389  1.00  0.00     0.031 C 
ATOM     44  C   UNL     1      -2.426  -2.245  10.020  1.00  0.00     0.029 A 
ATOM     45  C   UNL     1      -3.474  -1.956  10.993  1.00  0.00     0.049 A 
ATOM     46  H   UNL     1      -5.454  -1.435  10.608  1.00  0.00     0.167 HD
ATOM     47  C   UNL     1      -9.582  -0.395   9.649  1.00  0.00     0.031 A 
ATOM     48  C   UNL     1      -3.319  -1.982  12.331  1.00  0.00     0.031 A 
ATOM     49  C   UNL     1      -9.523  -0.429  11.085  1.00  0.00     0.049 A 
ATOM     50  C   UNL     1      -4.494  -1.678  13.214  1.00  0.00     0.074 A 
ATOM     51  C   UNL     1     -10.544  -0.206  11.992  1.00  0.00     0.029 A 
ATOM     52  N   UNL     1      -8.382  -0.705  11.822  1.00  0.00    -0.354 N 
ATOM     53  N   UNL     1      -5.722  -1.376  12.866  1.00  0.00    -0.248 NA
ATOM     54  C   UNL     1      -4.269  -1.721  14.666  1.00  0.00     0.031 C 
ATOM     55  C   UNL     1     -10.013  -0.321  13.281  1.00  0.00     0.029 A 
ATOM     56  C   UNL     1      -8.670  -0.648  13.175  1.00  0.00     0.049 A 
ATOM     57  H   UNL     1      -7.499  -0.911  11.441  1.00  0.00     0.167 HD
ATOM     58  C   UNL     1      -6.420  -1.206  14.055  1.00  0.00     0.074 A 
ATOM     59  C   UNL     1      -5.481  -1.444  15.133  1.00  0.00     0.031 C 
ATOM     60  C   UNL     1      -7.723  -0.885  14.234  1.00  0.00     0.031 A 
BRANCH  47  61
ATOM     61  C   UNL     1     -10.890  -0.052   8.997  1.00  0.00    -0.014 A 
ATOM     62  C   UNL     1     -11.684  -1.058   8.417  1.00  0.00     0.010 A 
ATOM     63  C   UNL     1     -11.348   1.277   8.993  1.00  0.00     0.010 A 
ATOM     64  C   UNL     1     -12.902  -0.734   7.816  1.00  0.00     0.020 A 
ATOM     65  C   UNL     1     -12.575   1.601   8.408  1.00  0.00     0.020 A 
ATOM     66  C   UNL     1     -13.339   0.594   7.814  1.00  0.00     0.054 A 
BRANCH  66  67
ATOM     67  S   UNL     1     -14.928   0.977   7.029  1.00  0.00     0.124 S 
ATOM     68  O   UNL     1     -14.663   0.645   5.631  1.00  0.00    -0.237 OA
ATOM     69  O   UNL     1     -15.848   0.081   7.724  1.00  0.00    -0.237 OA
ATOM     70  O   UNL     1     -15.118   2.400   7.302  1.00  0.00    -0.744 OA
ENDBRANCH  66  67
ENDBRANCH  47  61
BRANCH  48  71
ATOM     71  C   UNL     1      -1.998  -2.342  12.908  1.00  0.00    -0.014 A 
ATOM     72  C   UNL     1      -1.776  -3.636  13.411  1.00  0.00     0.010 A 
ATOM     73  C   UNL     1      -0.941  -1.415  12.904  1.00  0.00     0.010 A 
ATOM     74  C   UNL     1      -0.516  -3.999  13.893  1.00  0.00     0.020 A 
ATOM     75  C   UNL     1       0.325  -1.780  13.373  1.00  0.00     0.020 A 
ATOM     76  C   UNL     1       0.529  -3.072  13.862  1.00  0.00     0.054 A 
BRANCH  76  77
ATOM     77  S   UNL     1       2.171  -3.597  14.429  1.00  0.00     0.124 S 
ATOM     78  O   UNL     1       1.934  -3.877  15.841  1.00  0.00    -0.237 OA
ATOM     79  O   UNL     1       2.429  -4.763  13.587  1.00  0.00    -0.237 OA
ATOM     80  O   UNL     1       3.018  -2.438  14.154  1.00  0.00    -0.744 OA
ENDBRANCH  76  77
ENDBRANCH  48  71
BRANCH  60  81
ATOM     81  C   UNL     1      -8.230  -0.778  15.643  1.00  0.00    -0.014 A 
ATOM     82  C   UNL     1      -8.014   0.390  16.394  1.00  0.00     0.010 A 
ATOM     83  C   UNL     1      -9.029  -1.806  16.174  1.00  0.00     0.010 A 
ATOM     84  C   UNL     1      -8.595   0.529  17.657  1.00  0.00     0.020 A 
ATOM     85  C   UNL     1      -9.622  -1.663  17.431  1.00  0.00     0.020 A 
ATOM     86  C   UNL     1      -9.404  -0.494  18.163  1.00  0.00     0.054 A 
BRANCH  86  87
ATOM     87  S   UNL     1     -10.208  -0.247  19.770  1.00  0.00     0.124 S 
ATOM     88  O   UNL     1      -9.066  -0.192  20.679  1.00  0.00    -0.237 OA
ATOM     89  O   UNL     1     -10.918   1.014  19.576  1.00  0.00    -0.237 OA
ATOM     90  O   UNL     1     -11.062  -1.423  19.917  1.00  0.00    -0.744 OA
ENDBRANCH  86  87
ENDBRANCH  60  81
ENDBRANCH  34  35
ENDBRANCH  26  29
ENDBRANCH  24  25
ENDBRANCH   1  24
TORSDOF 15
