REMARK SMILES O=C(NCCCCNC(=O)c1ccccc1S[C@H]1CCOC2(CCCCC2)C1)c1ccc(-c2c3nc(c(-c4ccc(S(=O)(=O)[O-])cc4)c4ccc([nH]4)c(-c4ccc(S(=O)(=O)[O-])cc4)c4nc(c(-c5ccc(S(=O)(=O)[O-])cc5)c5ccc2[nH]5)C=C4)C=C3)cc1
REMARK SMILES IDX 5 1 4 2 3 3 1 4 2 5 29 7 30 8 88 9 31 10 87 11 32 12 33 13
REMARK SMILES IDX 34 14 81 15 35 16 86 17 80 18 82 19 36 20 85 21 79 22 78 23
REMARK SMILES IDX 37 25 67 26 48 27 66 28 49 29 52 30 65 31 83 32 50 33 51 34
REMARK SMILES IDX 64 36 84 37 53 38 38 39 39 40 47 41 40 42 46 43 41 44 42 45
REMARK SMILES IDX 43 46 44 47 45 48 68 49 69 50 77 51 70 52 76 53 71 54 72 55
REMARK SMILES IDX 73 56 74 57 75 58 54 59 55 60 63 61 56 62 62 63 57 64 58 65
REMARK SMILES IDX 59 66 60 67 61 68 6 69 7 70 8 71 9 72 10 74 11 75 12 76
REMARK SMILES IDX 16 77 13 78 15 79 14 80 17 81 18 82 19 83 28 84 20 85 22 86
REMARK SMILES IDX 21 87 23 88 27 89 24 90 26 91 25 92
REMARK H PARENT 3 6 82 24 52 35 8 73
REMARK Flexibility Score: inf
ROOT
ATOM      1  C   UNL     1       7.975   2.591  -0.090  1.00  0.00     0.023 C 
ENDROOT
BRANCH   1   2
ATOM      2  C   UNL     1       7.549   1.236   0.464  1.00  0.00     0.116 C 
BRANCH   2   3
ATOM      3  N   UNL     1       8.591   0.223   0.360  1.00  0.00    -0.352 N 
ATOM      4  O   UNL     1      10.228  -1.159   1.067  1.00  0.00    -0.269 OA
ATOM      5  C   UNL     1       9.273  -0.442   1.354  1.00  0.00     0.251 C 
ATOM      6  H   UNL     1       8.845  -0.023  -0.559  1.00  0.00     0.163 HD
BRANCH   5   7
ATOM      7  C   UNL     1       8.879  -0.261   2.769  1.00  0.00     0.039 A 
ATOM      8  C   UNL     1       7.536  -0.302   3.143  1.00  0.00     0.014 A 
ATOM      9  C   UNL     1       9.865  -0.019   3.729  1.00  0.00     0.014 A 
ATOM     10  C   UNL     1       7.167   0.091   4.425  1.00  0.00     0.010 A 
ATOM     11  C   UNL     1       9.495   0.280   5.045  1.00  0.00     0.010 A 
ATOM     12  C   UNL     1       8.140   0.394   5.391  1.00  0.00    -0.014 A 
BRANCH  12  13
ATOM     13  C   UNL     1       7.705   0.817   6.750  1.00  0.00     0.031 A 
ATOM     14  C   UNL     1       8.015   2.196   7.275  1.00  0.00     0.074 A 
ATOM     15  C   UNL     1       6.967  -0.032   7.492  1.00  0.00     0.049 A 
ATOM     16  N   UNL     1       7.643   2.749   8.403  1.00  0.00    -0.248 NA
ATOM     17  C   UNL     1       8.856   3.065   6.436  1.00  0.00     0.031 C 
ATOM     18  C   UNL     1       6.604  -1.397   7.100  1.00  0.00     0.029 A 
ATOM     19  N   UNL     1       6.359   0.135   8.710  1.00  0.00    -0.354 N 
ATOM     20  C   UNL     1       8.226   4.011   8.423  1.00  0.00     0.074 A 
ATOM     21  C   UNL     1       8.992   4.138   7.203  1.00  0.00     0.031 C 
ATOM     22  C   UNL     1       5.781  -1.916   8.023  1.00  0.00     0.029 A 
ATOM     23  C   UNL     1       5.606  -0.948   9.099  1.00  0.00     0.049 A 
ATOM     24  H   UNL     1       6.452   0.951   9.253  1.00  0.00     0.167 HD
ATOM     25  C   UNL     1       8.129   4.979   9.368  1.00  0.00     0.031 A 
ATOM     26  C   UNL     1       4.854  -1.145  10.199  1.00  0.00     0.031 A 
ATOM     27  C   UNL     1       7.349   4.861  10.573  1.00  0.00     0.049 A 
ATOM     28  C   UNL     1       4.756  -0.054  11.225  1.00  0.00     0.074 A 
ATOM     29  C   UNL     1       7.159   5.802  11.571  1.00  0.00     0.029 A 
ATOM     30  N   UNL     1       6.628   3.736  10.944  1.00  0.00    -0.354 N 
ATOM     31  N   UNL     1       5.295   1.141  11.209  1.00  0.00    -0.248 NA
ATOM     32  C   UNL     1       3.946  -0.340  12.416  1.00  0.00     0.031 C 
ATOM     33  C   UNL     1       6.357   5.231  12.566  1.00  0.00     0.029 A 
ATOM     34  C   UNL     1       6.008   3.952  12.164  1.00  0.00     0.049 A 
ATOM     35  H   UNL     1       6.566   2.906  10.418  1.00  0.00     0.167 HD
ATOM     36  C   UNL     1       4.875   1.758  12.381  1.00  0.00     0.074 A 
ATOM     37  C   UNL     1       4.023   0.810  13.072  1.00  0.00     0.031 C 
ATOM     38  C   UNL     1       5.169   2.998  12.843  1.00  0.00     0.031 A 
BRANCH  25  39
ATOM     39  C   UNL     1       8.912   6.248   9.151  1.00  0.00    -0.014 A 
ATOM     40  C   UNL     1       8.519   7.197   8.192  1.00  0.00     0.010 A 
ATOM     41  C   UNL     1      10.039   6.512   9.953  1.00  0.00     0.010 A 
ATOM     42  C   UNL     1       9.261   8.369   8.010  1.00  0.00     0.020 A 
ATOM     43  C   UNL     1      10.770   7.692   9.790  1.00  0.00     0.020 A 
ATOM     44  C   UNL     1      10.387   8.605   8.805  1.00  0.00     0.054 A 
BRANCH  44  45
ATOM     45  S   UNL     1      11.328  10.137   8.558  1.00  0.00     0.124 S 
ATOM     46  O   UNL     1      12.060   9.844   7.328  1.00  0.00    -0.237 OA
ATOM     47  O   UNL     1      10.277  11.145   8.437  1.00  0.00    -0.237 OA
ATOM     48  O   UNL     1      12.148  10.239   9.762  1.00  0.00    -0.744 OA
ENDBRANCH  44  45
ENDBRANCH  25  39
BRANCH  26  49
ATOM     49  C   UNL     1       4.130  -2.432  10.373  1.00  0.00    -0.014 A 
ATOM     50  C   UNL     1       2.731  -2.485  10.250  1.00  0.00     0.010 A 
ATOM     51  C   UNL     1       4.842  -3.617  10.629  1.00  0.00     0.010 A 
ATOM     52  C   UNL     1       2.055  -3.701  10.390  1.00  0.00     0.020 A 
ATOM     53  C   UNL     1       4.174  -4.838  10.743  1.00  0.00     0.020 A 
ATOM     54  C   UNL     1       2.782  -4.870  10.634  1.00  0.00     0.054 A 
BRANCH  54  55
ATOM     55  S   UNL     1       1.895  -6.449  10.748  1.00  0.00     0.124 S 
ATOM     56  O   UNL     1       1.334  -6.383  12.094  1.00  0.00    -0.237 OA
ATOM     57  O   UNL     1       0.932  -6.353   9.654  1.00  0.00    -0.237 OA
ATOM     58  O   UNL     1       2.948  -7.444  10.554  1.00  0.00    -0.744 OA
ENDBRANCH  54  55
ENDBRANCH  26  49
BRANCH  38  59
ATOM     59  C   UNL     1       4.539   3.408  14.146  1.00  0.00    -0.014 A 
ATOM     60  C   UNL     1       4.986   2.878  15.369  1.00  0.00     0.010 A 
ATOM     61  C   UNL     1       3.499   4.355  14.145  1.00  0.00     0.010 A 
ATOM     62  C   UNL     1       4.375   3.257  16.567  1.00  0.00     0.020 A 
ATOM     63  C   UNL     1       2.902   4.755  15.343  1.00  0.00     0.020 A 
ATOM     64  C   UNL     1       3.332   4.189  16.545  1.00  0.00     0.054 A 
BRANCH  64  65
ATOM     65  S   UNL     1       2.565   4.684  18.113  1.00  0.00     0.124 S 
ATOM     66  O   UNL     1       1.698   3.544  18.399  1.00  0.00    -0.237 OA
ATOM     67  O   UNL     1       3.714   4.837  19.002  1.00  0.00    -0.237 OA
ATOM     68  O   UNL     1       1.873   5.927  17.781  1.00  0.00    -0.744 OA
ENDBRANCH  64  65
ENDBRANCH  38  59
ENDBRANCH  12  13
ENDBRANCH   5   7
ENDBRANCH   2   3
ENDBRANCH   1   2
BRANCH   1  69
ATOM     69  C   UNL     1       8.274   2.622  -1.588  1.00  0.00     0.023 C 
BRANCH  69  70
ATOM     70  C   UNL     1       7.182   2.040  -2.477  1.00  0.00     0.116 C 
BRANCH  70  71
ATOM     71  N   UNL     1       5.912   2.732  -2.347  1.00  0.00    -0.352 N 
ATOM     72  C   UNL     1       4.971   2.944  -3.324  1.00  0.00     0.252 C 
ATOM     73  H   UNL     1       5.702   3.092  -1.455  1.00  0.00     0.163 HD
ATOM     74  O   UNL     1       3.934   3.557  -3.088  1.00  0.00    -0.269 OA
BRANCH  72  75
ATOM     75  C   UNL     1       5.254   2.490  -4.700  1.00  0.00     0.053 A 
ATOM     76  C   UNL     1       5.533   3.502  -5.630  1.00  0.00     0.015 A 
ATOM     77  C   UNL     1       5.248   1.130  -5.071  1.00  0.00     0.020 A 
ATOM     78  C   UNL     1       5.845   3.167  -6.943  1.00  0.00     0.001 A 
ATOM     79  C   UNL     1       5.536   0.820  -6.407  1.00  0.00     0.016 A 
ATOM     80  C   UNL     1       5.852   1.829  -7.328  1.00  0.00     0.001 A 
BRANCH  77  81
ATOM     81  S   UNL     1       4.782  -0.121  -3.880  1.00  0.00    -0.122 SA
BRANCH  81  82
ATOM     82  C   UNL     1       5.740  -1.631  -4.300  1.00  0.00     0.057 C 
ATOM     83  C   UNL     1       7.238  -1.454  -4.539  1.00  0.00     0.043 C 
ATOM     84  C   UNL     1       5.573  -2.580  -3.103  1.00  0.00     0.050 C 
ATOM     85  C   UNL     1       7.857  -2.824  -4.804  1.00  0.00     0.162 C 
ATOM     86  C   UNL     1       6.265  -3.936  -3.340  1.00  0.00     0.069 C 
ATOM     87  O   UNL     1       7.632  -3.732  -3.732  1.00  0.00    -0.375 OA
ATOM     88  C   UNL     1       5.488  -4.766  -4.388  1.00  0.00     0.035 C 
ATOM     89  C   UNL     1       6.312  -4.703  -1.998  1.00  0.00     0.035 C 
ATOM     90  C   UNL     1       5.995  -6.200  -4.516  1.00  0.00     0.003 C 
ATOM     91  C   UNL     1       6.821  -6.138  -2.146  1.00  0.00     0.003 C 
ATOM     92  C   UNL     1       6.000  -6.912  -3.169  1.00  0.00     0.000 C 
ENDBRANCH  81  82
ENDBRANCH  77  81
ENDBRANCH  72  75
ENDBRANCH  70  71
ENDBRANCH  69  70
ENDBRANCH   1  69
TORSDOF 16
