REMARK SMILES CC(C)(CC(=O)NCCCCNC(=O)c1ccc(-c2c3nc(c(-c4ccc(S(=O)(=O)[O-])cc4)c4ccc([nH]4)c(-c4ccc(S(=O)(=O)[O-])cc4)c4nc(c(-c5ccc(S(=O)(=O)[O-])cc5)c5ccc2[nH]5)C=C4)C=C3)cc1)CC(=O)Nc1cccc(S(N)(=O)=O)c1
REMARK SMILES IDX 8 1 7 2 5 3 6 4 4 6 2 7 1 8 3 9 75 10 76 11 77 12 78 13
REMARK SMILES IDX 79 15 80 16 88 17 81 18 83 19 82 20 84 21 86 22 87 23 85 24
REMARK SMILES IDX 9 27 10 28 11 29 12 30 13 31 14 33 15 34 16 35 74 36 17 37
REMARK SMILES IDX 73 38 18 39 19 40 20 41 67 42 21 43 72 44 66 45 68 46 22 47
REMARK SMILES IDX 71 48 65 49 64 50 23 52 53 53 34 54 52 55 35 56 38 57 51 58
REMARK SMILES IDX 69 59 36 60 37 61 50 63 70 64 39 65 24 66 25 67 33 68 26 69
REMARK SMILES IDX 32 70 27 71 28 72 29 73 30 74 31 75 54 76 55 77 63 78 56 79
REMARK SMILES IDX 62 80 57 81 58 82 59 83 60 84 61 85 40 86 41 87 49 88 42 89
REMARK SMILES IDX 48 90 43 91 44 92 45 93 46 94 47 95
REMARK H PARENT 7 5 78 14 85 25 85 26 12 32 68 51 38 62
REMARK Flexibility Score: inf
ROOT
ATOM      1  C   UNL     1       0.467   2.083  -0.157  1.00  0.00     0.116 C 
ENDROOT
BRANCH   1   2
ATOM      2  N   UNL     1      -0.547   1.221  -0.716  1.00  0.00    -0.356 N 
ATOM      3  C   UNL     1      -1.034   0.087  -0.153  1.00  0.00     0.220 C 
ATOM      4  O   UNL     1      -2.216  -0.201  -0.351  1.00  0.00    -0.275 OA
ATOM      5  H   UNL     1      -0.921   1.481  -1.588  1.00  0.00     0.163 HD
BRANCH   3   6
ATOM      6  C   UNL     1      -0.177  -0.750   0.782  1.00  0.00     0.107 C 
BRANCH   6   7
ATOM      7  C   UNL     1       1.028  -1.588   0.254  1.00  0.00    -0.018 C 
ATOM      8  C   UNL     1       2.252  -0.699  -0.024  1.00  0.00     0.012 C 
ATOM      9  C   UNL     1       1.438  -2.510   1.435  1.00  0.00     0.012 C 
BRANCH   7  10
ATOM     10  C   UNL     1       0.802  -2.527  -0.967  1.00  0.00     0.107 C 
BRANCH  10  11
ATOM     11  C   UNL     1       0.104  -1.981  -2.191  1.00  0.00     0.224 C 
ATOM     12  O   UNL     1       0.722  -1.247  -2.969  1.00  0.00    -0.275 OA
ATOM     13  N   UNL     1      -1.176  -2.317  -2.522  1.00  0.00    -0.326 N 
ATOM     14  H   UNL     1      -1.378  -2.159  -3.473  1.00  0.00     0.169 HD
BRANCH  13  15
ATOM     15  C   UNL     1      -2.274  -2.839  -1.808  1.00  0.00     0.042 A 
ATOM     16  C   UNL     1      -3.507  -2.840  -2.480  1.00  0.00     0.026 A 
ATOM     17  C   UNL     1      -2.263  -3.174  -0.459  1.00  0.00     0.047 A 
ATOM     18  C   UNL     1      -4.706  -3.080  -1.799  1.00  0.00     0.004 A 
ATOM     19  C   UNL     1      -3.467  -3.319   0.236  1.00  0.00     0.084 A 
ATOM     20  C   UNL     1      -4.692  -3.292  -0.425  1.00  0.00     0.022 A 
BRANCH  19  21
ATOM     21  S   UNL     1      -3.449  -3.353   2.008  1.00  0.00     0.238 S 
ATOM     22  O   UNL     1      -4.530  -4.179   2.469  1.00  0.00    -0.207 OA
ATOM     23  O   UNL     1      -2.082  -3.546   2.457  1.00  0.00    -0.207 OA
BRANCH  21  24
ATOM     24  N   UNL     1      -3.804  -1.742   2.370  1.00  0.00    -0.225 NA
ATOM     25  H   UNL     1      -4.758  -1.530   2.080  1.00  0.00     0.137 HD
ATOM     26  H   UNL     1      -3.154  -1.130   1.875  1.00  0.00     0.137 HD
ENDBRANCH  21  24
ENDBRANCH  19  21
ENDBRANCH  13  15
ENDBRANCH  10  11
ENDBRANCH   7  10
ENDBRANCH   6   7
ENDBRANCH   3   6
ENDBRANCH   1   2
BRANCH   1  27
ATOM     27  C   UNL     1       1.467   2.588  -1.188  1.00  0.00     0.023 C 
BRANCH  27  28
ATOM     28  C   UNL     1       0.900   3.549  -2.224  1.00  0.00     0.023 C 
BRANCH  28  29
ATOM     29  C   UNL     1       0.035   4.663  -1.657  1.00  0.00     0.116 C 
BRANCH  29  30
ATOM     30  N   UNL     1       0.647   5.356  -0.525  1.00  0.00    -0.352 N 
ATOM     31  C   UNL     1       0.895   6.695  -0.360  1.00  0.00     0.251 C 
ATOM     32  H   UNL     1       0.921   4.780   0.225  1.00  0.00     0.163 HD
ATOM     33  O   UNL     1       1.487   7.114   0.626  1.00  0.00    -0.269 OA
BRANCH  31  34
ATOM     34  C   UNL     1       0.470   7.601  -1.435  1.00  0.00     0.039 A 
ATOM     35  C   UNL     1       1.443   8.326  -2.123  1.00  0.00     0.014 A 
ATOM     36  C   UNL     1      -0.860   7.575  -1.862  1.00  0.00     0.014 A 
ATOM     37  C   UNL     1       1.097   8.957  -3.314  1.00  0.00     0.010 A 
ATOM     38  C   UNL     1      -1.177   8.124  -3.093  1.00  0.00     0.010 A 
ATOM     39  C   UNL     1      -0.199   8.810  -3.834  1.00  0.00    -0.014 A 
BRANCH  39  40
ATOM     40  C   UNL     1      -0.569   9.359  -5.158  1.00  0.00     0.031 A 
ATOM     41  C   UNL     1      -1.644  10.404  -5.241  1.00  0.00     0.074 A 
ATOM     42  C   UNL     1      -0.010   8.854  -6.275  1.00  0.00     0.049 A 
ATOM     43  N   UNL     1      -2.207  10.924  -6.298  1.00  0.00    -0.248 NA
ATOM     44  C   UNL     1      -2.182  10.900  -3.962  1.00  0.00     0.031 C 
ATOM     45  C   UNL     1       1.016   7.808  -6.318  1.00  0.00     0.029 A 
ATOM     46  N   UNL     1      -0.233   9.151  -7.596  1.00  0.00    -0.354 N 
ATOM     47  C   UNL     1      -3.183  11.785  -5.813  1.00  0.00     0.074 A 
ATOM     48  C   UNL     1      -3.174  11.674  -4.372  1.00  0.00     0.031 C 
ATOM     49  C   UNL     1       1.357   7.577  -7.597  1.00  0.00     0.029 A 
ATOM     50  C   UNL     1       0.544   8.422  -8.465  1.00  0.00     0.049 A 
ATOM     51  H   UNL     1      -0.889   9.822  -7.893  1.00  0.00     0.167 HD
ATOM     52  C   UNL     1      -3.998  12.614  -6.505  1.00  0.00     0.031 A 
ATOM     53  C   UNL     1       0.589   8.432  -9.811  1.00  0.00     0.031 A 
ATOM     54  C   UNL     1      -3.982  12.736  -7.936  1.00  0.00     0.049 A 
ATOM     55  C   UNL     1      -0.333   9.352 -10.561  1.00  0.00     0.074 A 
ATOM     56  C   UNL     1      -4.722  13.585  -8.737  1.00  0.00     0.029 A 
ATOM     57  N   UNL     1      -3.178  11.984  -8.780  1.00  0.00    -0.354 N 
ATOM     58  N   UNL     1      -1.216  10.198 -10.085  1.00  0.00    -0.248 NA
ATOM     59  C   UNL     1      -0.256   9.319 -12.028  1.00  0.00     0.031 C 
ATOM     60  C   UNL     1      -4.392  13.320 -10.070  1.00  0.00     0.029 A 
ATOM     61  C   UNL     1      -3.416  12.335 -10.095  1.00  0.00     0.049 A 
ATOM     62  H   UNL     1      -2.532  11.301  -8.485  1.00  0.00     0.167 HD
ATOM     63  C   UNL     1      -1.788  10.811 -11.193  1.00  0.00     0.074 A 
ATOM     64  C   UNL     1      -1.143  10.247 -12.362  1.00  0.00     0.031 C 
ATOM     65  C   UNL     1      -2.760  11.755 -11.240  1.00  0.00     0.031 A 
BRANCH  52  66
ATOM     66  C   UNL     1      -4.967  13.442  -5.707  1.00  0.00    -0.014 A 
ATOM     67  C   UNL     1      -4.515  14.493  -4.887  1.00  0.00     0.010 A 
ATOM     68  C   UNL     1      -6.342  13.157  -5.759  1.00  0.00     0.010 A 
ATOM     69  C   UNL     1      -5.413  15.202  -4.087  1.00  0.00     0.020 A 
ATOM     70  C   UNL     1      -7.248  13.884  -4.982  1.00  0.00     0.020 A 
ATOM     71  C   UNL     1      -6.773  14.886  -4.131  1.00  0.00     0.054 A 
BRANCH  71  72
ATOM     72  S   UNL     1      -7.918  15.812  -3.073  1.00  0.00     0.124 S 
ATOM     73  O   UNL     1      -7.668  15.211  -1.765  1.00  0.00    -0.237 OA
ATOM     74  O   UNL     1      -7.458  17.190  -3.229  1.00  0.00    -0.237 OA
ATOM     75  O   UNL     1      -9.229  15.527  -3.650  1.00  0.00    -0.744 OA
ENDBRANCH  71  72
ENDBRANCH  52  66
BRANCH  53  76
ATOM     76  C   UNL     1       1.557   7.560 -10.530  1.00  0.00    -0.014 A 
ATOM     77  C   UNL     1       2.693   8.121 -11.139  1.00  0.00     0.010 A 
ATOM     78  C   UNL     1       1.368   6.168 -10.587  1.00  0.00     0.010 A 
ATOM     79  C   UNL     1       3.619   7.308 -11.799  1.00  0.00     0.020 A 
ATOM     80  C   UNL     1       2.303   5.348 -11.228  1.00  0.00     0.020 A 
ATOM     81  C   UNL     1       3.419   5.926 -11.838  1.00  0.00     0.054 A 
BRANCH  81  82
ATOM     82  S   UNL     1       4.667   4.884 -12.645  1.00  0.00     0.124 S 
ATOM     83  O   UNL     1       4.400   5.131 -14.058  1.00  0.00    -0.237 OA
ATOM     84  O   UNL     1       5.919   5.433 -12.131  1.00  0.00    -0.237 OA
ATOM     85  O   UNL     1       4.346   3.539 -12.172  1.00  0.00    -0.744 OA
ENDBRANCH  81  82
ENDBRANCH  53  76
BRANCH  65  86
ATOM     86  C   UNL     1      -3.176  12.251 -12.596  1.00  0.00    -0.014 A 
ATOM     87  C   UNL     1      -4.006  11.475 -13.422  1.00  0.00     0.010 A 
ATOM     88  C   UNL     1      -2.802  13.542 -13.008  1.00  0.00     0.010 A 
ATOM     89  C   UNL     1      -4.449  11.980 -14.646  1.00  0.00     0.020 A 
ATOM     90  C   UNL     1      -3.260  14.059 -14.222  1.00  0.00     0.020 A 
ATOM     91  C   UNL     1      -4.076  13.271 -15.036  1.00  0.00     0.054 A 
BRANCH  91  92
ATOM     92  S   UNL     1      -4.727  13.933 -16.594  1.00  0.00     0.124 S 
ATOM     93  O   UNL     1      -3.919  13.228 -17.585  1.00  0.00    -0.237 OA
ATOM     94  O   UNL     1      -6.136  13.549 -16.544  1.00  0.00    -0.237 OA
ATOM     95  O   UNL     1      -4.476  15.369 -16.491  1.00  0.00    -0.744 OA
ENDBRANCH  91  92
ENDBRANCH  65  86
ENDBRANCH  39  40
ENDBRANCH  31  34
ENDBRANCH  29  30
ENDBRANCH  28  29
ENDBRANCH  27  28
ENDBRANCH   1  27
TORSDOF 20
