REMARK SMILES CN(C)c1ccc(C(=O)NCCCC(=O)NCCCCNC(=O)c2ccc(-c3c4nc(c(-c5ccc(S(=O)(=O)[O-])cc5)c5ccc([nH]5)c(-c5ccc(S(=O)(=O)[O-])cc5)c5nc(c(-c6ccc(S(=O)(=O)[O-])cc6)c6ccc3[nH]6)C=C5)C=C4)cc2)cn1
REMARK SMILES IDX 17 1 16 2 14 3 15 4 13 6 12 7 11 8 10 9 8 10 9 11 7 13 4 14
REMARK SMILES IDX 5 15 85 16 6 17 84 18 2 19 1 20 3 21 18 22 19 23 20 24 21 25
REMARK SMILES IDX 22 26 23 28 24 29 25 30 83 31 26 32 82 33 27 34 28 35 29 36
REMARK SMILES IDX 76 37 30 38 81 39 75 40 77 41 31 42 80 43 74 44 73 45 32 47
REMARK SMILES IDX 62 48 43 49 61 50 44 51 47 52 60 53 78 54 45 55 46 56 59 58
REMARK SMILES IDX 79 59 48 60 33 61 34 62 42 63 35 64 41 65 36 66 37 67 38 68
REMARK SMILES IDX 39 69 40 70 63 71 64 72 72 73 65 74 71 75 66 76 67 77 68 78
REMARK SMILES IDX 69 79 70 80 49 81 50 82 58 83 51 84 57 85 52 86 53 87 54 88
REMARK SMILES IDX 55 89 56 90
REMARK H PARENT 16 5 10 12 21 27 77 46 47 57
REMARK Flexibility Score: inf
ROOT
ATOM      1  C   UNL     1       4.702   7.665   0.560  1.00  0.00     0.116 C 
ENDROOT
BRANCH   1   2
ATOM      2  N   UNL     1       6.131   7.569   0.323  1.00  0.00    -0.356 N 
ATOM      3  C   UNL     1       6.815   7.424  -0.843  1.00  0.00     0.220 C 
ATOM      4  O   UNL     1       8.027   7.211  -0.794  1.00  0.00    -0.275 OA
ATOM      5  H   UNL     1       6.691   7.616   1.132  1.00  0.00     0.163 HD
BRANCH   3   6
ATOM      6  C   UNL     1       6.104   7.537  -2.176  1.00  0.00     0.102 C 
BRANCH   6   7
ATOM      7  C   UNL     1       5.806   6.188  -2.835  1.00  0.00     0.031 C 
BRANCH   7   8
ATOM      8  C   UNL     1       4.628   5.407  -2.253  1.00  0.00     0.116 C 
BRANCH   8   9
ATOM      9  N   UNL     1       3.390   6.166  -2.238  1.00  0.00    -0.352 N 
ATOM     10  C   UNL     1       2.102   5.781  -1.967  1.00  0.00     0.252 C 
ATOM     11  O   UNL     1       1.212   6.624  -2.048  1.00  0.00    -0.269 OA
ATOM     12  H   UNL     1       3.493   7.120  -2.460  1.00  0.00     0.163 HD
BRANCH  10  13
ATOM     13  C   UNL     1       1.748   4.386  -1.652  1.00  0.00     0.058 A 
ATOM     14  C   UNL     1       0.889   1.759  -1.281  1.00  0.00     0.127 A 
ATOM     15  C   UNL     1       2.040   2.223  -0.642  1.00  0.00     0.048 A 
ATOM     16  N   UNL     1       0.162   2.600  -2.050  1.00  0.00    -0.239 NA
ATOM     17  C   UNL     1       2.475   3.540  -0.828  1.00  0.00     0.019 A 
ATOM     18  C   UNL     1       0.579   3.883  -2.196  1.00  0.00     0.127 A 
BRANCH  14  19
ATOM     19  N   UNL     1       0.477   0.442  -1.179  1.00  0.00    -0.363 N 
ATOM     20  C   UNL     1       0.836  -0.381  -0.042  1.00  0.00     0.144 C 
ATOM     21  C   UNL     1      -0.591   0.011  -2.063  1.00  0.00     0.144 C 
ENDBRANCH  14  19
ENDBRANCH  10  13
ENDBRANCH   8   9
ENDBRANCH   7   8
ENDBRANCH   6   7
ENDBRANCH   3   6
ENDBRANCH   1   2
BRANCH   1  22
ATOM     22  C   UNL     1       4.178   6.380   1.201  1.00  0.00     0.023 C 
BRANCH  22  23
ATOM     23  C   UNL     1       4.359   6.302   2.713  1.00  0.00     0.023 C 
BRANCH  23  24
ATOM     24  C   UNL     1       3.548   7.322   3.496  1.00  0.00     0.116 C 
BRANCH  24  25
ATOM     25  N   UNL     1       2.112   7.201   3.296  1.00  0.00    -0.352 N 
ATOM     26  C   UNL     1       1.106   7.405   4.213  1.00  0.00     0.251 C 
ATOM     27  H   UNL     1       1.824   6.941   2.391  1.00  0.00     0.163 HD
ATOM     28  O   UNL     1      -0.057   7.162   3.925  1.00  0.00    -0.269 OA
BRANCH  26  29
ATOM     29  C   UNL     1       1.462   7.879   5.568  1.00  0.00     0.039 A 
ATOM     30  C   UNL     1       0.934   7.214   6.676  1.00  0.00     0.014 A 
ATOM     31  C   UNL     1       2.359   8.937   5.738  1.00  0.00     0.014 A 
ATOM     32  C   UNL     1       1.360   7.570   7.957  1.00  0.00     0.010 A 
ATOM     33  C   UNL     1       2.851   9.226   7.005  1.00  0.00     0.010 A 
ATOM     34  C   UNL     1       2.349   8.553   8.129  1.00  0.00    -0.014 A 
BRANCH  34  35
ATOM     35  C   UNL     1       2.853   8.910   9.478  1.00  0.00     0.031 A 
ATOM     36  C   UNL     1       2.649  10.303  10.010  1.00  0.00     0.074 A 
ATOM     37  C   UNL     1       3.543   8.002  10.197  1.00  0.00     0.049 A 
ATOM     38  N   UNL     1       3.047  10.819  11.144  1.00  0.00    -0.248 NA
ATOM     39  C   UNL     1       1.933  11.251   9.139  1.00  0.00     0.031 C 
ATOM     40  C   UNL     1       3.858   6.637   9.766  1.00  0.00     0.029 A 
ATOM     41  N   UNL     1       4.104   8.091  11.446  1.00  0.00    -0.354 N 
ATOM     42  C   UNL     1       2.649  12.150  11.113  1.00  0.00     0.074 A 
ATOM     43  C   UNL     1       2.033  12.379   9.825  1.00  0.00     0.031 C 
ATOM     44  C   UNL     1       4.522   6.007  10.749  1.00  0.00     0.029 A 
ATOM     45  C   UNL     1       4.708   6.929  11.865  1.00  0.00     0.049 A 
ATOM     46  H   UNL     1       4.076   8.911  11.991  1.00  0.00     0.167 HD
ATOM     47  C   UNL     1       2.758  13.093  12.079  1.00  0.00     0.031 A 
ATOM     48  C   UNL     1       5.334   6.638  13.021  1.00  0.00     0.031 A 
ATOM     49  C   UNL     1       3.346  12.855  13.369  1.00  0.00     0.049 A 
ATOM     50  C   UNL     1       5.415   7.691  14.093  1.00  0.00     0.074 A 
ATOM     51  C   UNL     1       3.456  13.724  14.440  1.00  0.00     0.029 A 
ATOM     52  N   UNL     1       3.918  11.655  13.766  1.00  0.00    -0.354 N 
ATOM     53  N   UNL     1       4.976   8.927  14.068  1.00  0.00    -0.248 NA
ATOM     54  C   UNL     1       6.059   7.302  15.354  1.00  0.00     0.031 C 
ATOM     55  C   UNL     1       4.127  13.060  15.473  1.00  0.00     0.029 A 
ATOM     56  C   UNL     1       4.390  11.762  15.062  1.00  0.00     0.049 A 
ATOM     57  H   UNL     1       3.978  10.846  13.208  1.00  0.00     0.167 HD
ATOM     58  C   UNL     1       5.264   9.454  15.322  1.00  0.00     0.074 A 
ATOM     59  C   UNL     1       5.902   8.399  16.083  1.00  0.00     0.031 C 
ATOM     60  C   UNL     1       5.021  10.700  15.802  1.00  0.00     0.031 A 
BRANCH  47  61
ATOM     61  C   UNL     1       2.220  14.465  11.770  1.00  0.00    -0.014 A 
ATOM     62  C   UNL     1       0.836  14.689  11.645  1.00  0.00     0.010 A 
ATOM     63  C   UNL     1       3.105  15.547  11.619  1.00  0.00     0.010 A 
ATOM     64  C   UNL     1       0.351  15.959  11.325  1.00  0.00     0.020 A 
ATOM     65  C   UNL     1       2.620  16.826  11.328  1.00  0.00     0.020 A 
ATOM     66  C   UNL     1       1.247  17.019  11.163  1.00  0.00     0.054 A 
BRANCH  66  67
ATOM     67  S   UNL     1       0.589  18.661  10.761  1.00  0.00     0.124 S 
ATOM     68  O   UNL     1       0.232  18.505   9.354  1.00  0.00    -0.237 OA
ATOM     69  O   UNL     1      -0.536  18.791  11.684  1.00  0.00    -0.237 OA
ATOM     70  O   UNL     1       1.712  19.558  11.024  1.00  0.00    -0.744 OA
ENDBRANCH  66  67
ENDBRANCH  47  61
BRANCH  48  71
ATOM     71  C   UNL     1       5.895   5.277  13.243  1.00  0.00    -0.014 A 
ATOM     72  C   UNL     1       5.277   4.390  14.142  1.00  0.00     0.010 A 
ATOM     73  C   UNL     1       7.044   4.857  12.550  1.00  0.00     0.010 A 
ATOM     74  C   UNL     1       5.809   3.116  14.361  1.00  0.00     0.020 A 
ATOM     75  C   UNL     1       7.565   3.574  12.746  1.00  0.00     0.020 A 
ATOM     76  C   UNL     1       6.950   2.716  13.661  1.00  0.00     0.054 A 
BRANCH  76  77
ATOM     77  S   UNL     1       7.596   1.040  13.922  1.00  0.00     0.124 S 
ATOM     78  O   UNL     1       8.239   1.163  15.227  1.00  0.00    -0.237 OA
ATOM     79  O   UNL     1       6.385   0.225  13.886  1.00  0.00    -0.237 OA
ATOM     80  O   UNL     1       8.502   0.845  12.793  1.00  0.00    -0.744 OA
ENDBRANCH  76  77
ENDBRANCH  48  71
BRANCH  60  81
ATOM     81  C   UNL     1       5.411  10.974  17.229  1.00  0.00    -0.014 A 
ATOM     82  C   UNL     1       6.759  11.108  17.605  1.00  0.00     0.010 A 
ATOM     83  C   UNL     1       4.407  11.136  18.201  1.00  0.00     0.010 A 
ATOM     84  C   UNL     1       7.098  11.356  18.937  1.00  0.00     0.020 A 
ATOM     85  C   UNL     1       4.740  11.411  19.528  1.00  0.00     0.020 A 
ATOM     86  C   UNL     1       6.085  11.501  19.892  1.00  0.00     0.054 A 
BRANCH  86  87
ATOM     87  S   UNL     1       6.547  11.847  21.611  1.00  0.00     0.124 S 
ATOM     88  O   UNL     1       7.001  10.538  22.072  1.00  0.00    -0.237 OA
ATOM     89  O   UNL     1       7.590  12.860  21.468  1.00  0.00    -0.237 OA
ATOM     90  O   UNL     1       5.304  12.324  22.213  1.00  0.00    -0.744 OA
ENDBRANCH  86  87
ENDBRANCH  60  81
ENDBRANCH  34  35
ENDBRANCH  26  29
ENDBRANCH  24  25
ENDBRANCH  23  24
ENDBRANCH  22  23
ENDBRANCH   1  22
TORSDOF 19
