REMARK SMILES CC(C)N(c1cc2c(cc1Cl)C=C(C(=O)NCCCCNC(=O)c1ccc(-c3c4nc(c(-c5ccc(S(=O)(=O)[O-])cc5)c5ccc([nH]5)c(-c5ccc(S(=O)(=O)[O-])cc5)c5nc(c(-c6ccc(S(=O)(=O)[O-])cc6)c6ccc3[nH]6)C=C5)C=C4)cc1)[C@@H](C(F)(F)F)O2)C(C)C
REMARK SMILES IDX 19 1 18 2 17 3 16 4 14 5 15 6 13 8 5 9 6 10 10 11 7 12 9 13
REMARK SMILES IDX 11 14 8 15 89 16 12 17 84 18 4 19 2 20 1 21 3 22 90 23 91 24
REMARK SMILES IDX 92 25 85 26 86 27 87 28 88 29 20 30 21 31 22 32 23 34 24 35
REMARK SMILES IDX 25 36 83 37 26 38 82 39 27 40 28 41 29 42 76 43 30 44 81 45
REMARK SMILES IDX 75 46 77 47 31 48 80 49 74 50 73 51 32 53 62 54 43 55 61 56
REMARK SMILES IDX 44 57 47 58 60 59 78 60 45 61 46 62 59 64 79 65 48 66 33 67
REMARK SMILES IDX 34 68 42 69 35 70 41 71 36 72 37 73 38 74 39 75 40 76 63 77
REMARK SMILES IDX 64 78 72 79 65 80 71 81 66 82 67 83 68 84 69 85 70 86 49 87
REMARK SMILES IDX 50 88 58 89 51 90 57 91 52 92 53 93 54 94 55 95 56 96
REMARK H PARENT 16 7 21 33 77 52 47 63
REMARK Flexibility Score: inf
ROOT
ATOM      1  C   UNL     1      -7.624   8.694   0.966  1.00  0.00     0.023 C 
ENDROOT
BRANCH   1   2
ATOM      2  C   UNL     1      -6.963   7.325   0.795  1.00  0.00     0.023 C 
BRANCH   2   3
ATOM      3  C   UNL     1      -7.311   6.620  -0.512  1.00  0.00     0.116 C 
BRANCH   3   4
ATOM      4  N   UNL     1      -6.478   7.070  -1.613  1.00  0.00    -0.352 N 
ATOM      5  C   UNL     1      -5.382   6.622  -2.268  1.00  0.00     0.251 C 
ATOM      6  O   UNL     1      -4.980   7.347  -3.183  1.00  0.00    -0.270 OA
ATOM      7  H   UNL     1      -6.793   7.928  -1.979  1.00  0.00     0.163 HD
BRANCH   5   8
ATOM      8  C   UNL     1      -4.657   5.352  -1.968  1.00  0.00     0.067 C 
ATOM      9  C   UNL     1      -1.383   1.478  -1.968  1.00  0.00     0.060 A 
ATOM     10  C   UNL     1      -2.368   1.956  -1.084  1.00  0.00     0.074 A 
ATOM     11  C   UNL     1      -1.130   2.259  -3.121  1.00  0.00     0.065 A 
ATOM     12  C   UNL     1      -3.084   3.123  -1.349  1.00  0.00     0.130 A 
ATOM     13  C   UNL     1      -1.815   3.463  -3.356  1.00  0.00     0.034 A 
ATOM     14  Cl  UNL     1      -0.038   1.755  -4.371  1.00  0.00    -0.082 Cl
ATOM     15  C   UNL     1      -2.801   3.894  -2.472  1.00  0.00     0.019 A 
ATOM     16  O   UNL     1      -4.050   3.476  -0.449  1.00  0.00    -0.475 OA
ATOM     17  C   UNL     1      -3.536   5.135  -2.684  1.00  0.00     0.025 C 
ATOM     18  C   UNL     1      -5.117   4.316  -0.981  1.00  0.00     0.314 C 
BRANCH   9  19
ATOM     19  N   UNL     1      -0.728   0.264  -1.672  1.00  0.00    -0.365 N 
BRANCH  19  20
ATOM     20  C   UNL     1       0.741   0.324  -1.514  1.00  0.00     0.076 C 
ATOM     21  C   UNL     1       1.184   0.273  -0.052  1.00  0.00     0.030 C 
ATOM     22  C   UNL     1       1.480  -0.723  -2.342  1.00  0.00     0.030 C 
ENDBRANCH  19  20
BRANCH  19  23
ATOM     23  C   UNL     1      -1.599  -0.895  -1.376  1.00  0.00     0.076 C 
ATOM     24  C   UNL     1      -1.405  -2.043  -2.363  1.00  0.00     0.030 C 
ATOM     25  C   UNL     1      -1.505  -1.381   0.067  1.00  0.00     0.030 C 
ENDBRANCH  19  23
ENDBRANCH   9  19
BRANCH  18  26
ATOM     26  C   UNL     1      -6.246   3.428  -1.543  1.00  0.00     0.429 C 
ATOM     27  F   UNL     1      -6.835   2.721  -0.546  1.00  0.00    -0.167 F 
ATOM     28  F   UNL     1      -7.227   4.149  -2.135  1.00  0.00    -0.167 F 
ATOM     29  F   UNL     1      -5.805   2.538  -2.462  1.00  0.00    -0.167 F 
ENDBRANCH  18  26
ENDBRANCH   5   8
ENDBRANCH   3   4
ENDBRANCH   2   3
ENDBRANCH   1   2
BRANCH   1  30
ATOM     30  C   UNL     1      -9.146   8.707   0.844  1.00  0.00     0.116 C 
BRANCH  30  31
ATOM     31  N   UNL     1      -9.823   7.737   1.696  1.00  0.00    -0.352 N 
ATOM     32  C   UNL     1     -11.090   7.827   2.226  1.00  0.00     0.251 C 
ATOM     33  H   UNL     1      -9.315   6.923   1.917  1.00  0.00     0.163 HD
ATOM     34  O   UNL     1     -11.520   6.963   2.983  1.00  0.00    -0.269 OA
BRANCH  32  35
ATOM     35  C   UNL     1     -11.894   9.021   1.905  1.00  0.00     0.039 A 
ATOM     36  C   UNL     1     -12.095   9.384   0.572  1.00  0.00     0.014 A 
ATOM     37  C   UNL     1     -12.333   9.842   2.946  1.00  0.00     0.014 A 
ATOM     38  C   UNL     1     -12.584  10.651   0.281  1.00  0.00     0.010 A 
ATOM     39  C   UNL     1     -12.893  11.086   2.647  1.00  0.00     0.010 A 
ATOM     40  C   UNL     1     -12.970  11.521   1.314  1.00  0.00    -0.014 A 
BRANCH  40  41
ATOM     41  C   UNL     1     -13.441  12.887   0.977  1.00  0.00     0.031 A 
ATOM     42  C   UNL     1     -12.633  14.096   1.364  1.00  0.00     0.074 A 
ATOM     43  C   UNL     1     -14.570  13.028   0.258  1.00  0.00     0.049 A 
ATOM     44  N   UNL     1     -12.886  15.358   1.129  1.00  0.00    -0.248 NA
ATOM     45  C   UNL     1     -11.382  13.866   2.107  1.00  0.00     0.031 C 
ATOM     46  C   UNL     1     -15.415  11.923  -0.200  1.00  0.00     0.029 A 
ATOM     47  N   UNL     1     -15.183  14.148  -0.242  1.00  0.00    -0.354 N 
ATOM     48  C   UNL     1     -11.843  16.072   1.708  1.00  0.00     0.074 A 
ATOM     49  C   UNL     1     -10.960  15.106   2.323  1.00  0.00     0.031 C 
ATOM     50  C   UNL     1     -16.398  12.414  -0.967  1.00  0.00     0.029 A 
ATOM     51  C   UNL     1     -16.297  13.870  -0.998  1.00  0.00     0.049 A 
ATOM     52  H   UNL     1     -14.857  15.062  -0.075  1.00  0.00     0.167 HD
ATOM     53  C   UNL     1     -11.640  17.410   1.717  1.00  0.00     0.031 A 
ATOM     54  C   UNL     1     -17.153  14.690  -1.637  1.00  0.00     0.031 A 
ATOM     55  C   UNL     1     -12.514  18.363   1.085  1.00  0.00     0.049 A 
ATOM     56  C   UNL     1     -16.936  16.171  -1.570  1.00  0.00     0.074 A 
ATOM     57  C   UNL     1     -12.377  19.739   1.024  1.00  0.00     0.029 A 
ATOM     58  N   UNL     1     -13.680  18.046   0.406  1.00  0.00    -0.354 N 
ATOM     59  N   UNL     1     -15.952  16.827  -1.002  1.00  0.00    -0.248 NA
ATOM     60  C   UNL     1     -17.945  17.025  -2.208  1.00  0.00     0.031 C 
ATOM     61  C   UNL     1     -13.488  20.258   0.354  1.00  0.00     0.029 A 
ATOM     62  C   UNL     1     -14.289  19.202  -0.051  1.00  0.00     0.049 A 
ATOM     63  H   UNL     1     -14.024  17.134   0.269  1.00  0.00     0.167 HD
ATOM     64  C   UNL     1     -16.228  18.173  -1.206  1.00  0.00     0.074 A 
ATOM     65  C   UNL     1     -17.458  18.237  -1.971  1.00  0.00     0.031 C 
ATOM     66  C   UNL     1     -15.526  19.253  -0.789  1.00  0.00     0.031 A 
BRANCH  53  67
ATOM     67  C   UNL     1     -10.432  17.943   2.441  1.00  0.00    -0.014 A 
ATOM     68  C   UNL     1     -10.601  18.653   3.644  1.00  0.00     0.010 A 
ATOM     69  C   UNL     1      -9.147  17.838   1.883  1.00  0.00     0.010 A 
ATOM     70  C   UNL     1      -9.511  19.264   4.268  1.00  0.00     0.020 A 
ATOM     71  C   UNL     1      -8.049  18.431   2.515  1.00  0.00     0.020 A 
ATOM     72  C   UNL     1      -8.242  19.157   3.694  1.00  0.00     0.054 A 
BRANCH  72  73
ATOM     73  S   UNL     1      -6.833  19.956   4.513  1.00  0.00     0.124 S 
ATOM     74  O   UNL     1      -6.978  21.345   4.089  1.00  0.00    -0.237 OA
ATOM     75  O   UNL     1      -7.093  19.697   5.928  1.00  0.00    -0.237 OA
ATOM     76  O   UNL     1      -5.678  19.249   3.965  1.00  0.00    -0.744 OA
ENDBRANCH  72  73
ENDBRANCH  53  67
BRANCH  54  77
ATOM     77  C   UNL     1     -18.285  14.090  -2.390  1.00  0.00    -0.014 A 
ATOM     78  C   UNL     1     -19.337  13.459  -1.700  1.00  0.00     0.010 A 
ATOM     79  C   UNL     1     -18.246  14.024  -3.793  1.00  0.00     0.010 A 
ATOM     80  C   UNL     1     -20.291  12.711  -2.393  1.00  0.00     0.020 A 
ATOM     81  C   UNL     1     -19.215  13.296  -4.492  1.00  0.00     0.020 A 
ATOM     82  C   UNL     1     -20.209  12.616  -3.784  1.00  0.00     0.054 A 
BRANCH  82  83
ATOM     83  S   UNL     1     -21.402  11.568  -4.661  1.00  0.00     0.124 S 
ATOM     84  O   UNL     1     -20.825  10.240  -4.473  1.00  0.00    -0.237 OA
ATOM     85  O   UNL     1     -22.647  11.822  -3.941  1.00  0.00    -0.237 OA
ATOM     86  O   UNL     1     -21.361  12.081  -6.028  1.00  0.00    -0.744 OA
ENDBRANCH  82  83
ENDBRANCH  54  77
BRANCH  66  87
ATOM     87  C   UNL     1     -16.072  20.616  -1.115  1.00  0.00    -0.014 A 
ATOM     88  C   UNL     1     -15.429  21.418  -2.075  1.00  0.00     0.010 A 
ATOM     89  C   UNL     1     -17.141  21.148  -0.374  1.00  0.00     0.010 A 
ATOM     90  C   UNL     1     -15.825  22.744  -2.265  1.00  0.00     0.020 A 
ATOM     91  C   UNL     1     -17.553  22.468  -0.577  1.00  0.00     0.020 A 
ATOM     92  C   UNL     1     -16.875  23.264  -1.504  1.00  0.00     0.054 A 
BRANCH  92  93
ATOM     93  S   UNL     1     -17.353  24.999  -1.736  1.00  0.00     0.124 S 
ATOM     94  O   UNL     1     -16.333  25.704  -0.965  1.00  0.00    -0.237 OA
ATOM     95  O   UNL     1     -17.273  25.165  -3.186  1.00  0.00    -0.237 OA
ATOM     96  O   UNL     1     -18.705  25.056  -1.186  1.00  0.00    -0.744 OA
ENDBRANCH  92  93
ENDBRANCH  66  87
ENDBRANCH  40  41
ENDBRANCH  32  35
ENDBRANCH  30  31
ENDBRANCH   1  30
TORSDOF 18
