REMARK SMILES Cc1cc(Cl)c(C)c2c1O[C@H](C(F)(F)F)C(C(=O)NCCCCNC(=O)c1ccc(-c3c4nc(c(-c5ccc(S(=O)(=O)[O-])cc5)c5ccc([nH]5)c(-c5ccc(S(=O)(=O)[O-])cc5)c5nc(c(-c6ccc(S(=O)(=O)[O-])cc6)c6ccc3[nH]6)C=C5)C=C4)cc1)=C2
REMARK SMILES IDX 22 1 21 2 20 3 19 4 17 5 18 6 16 8 1 9 2 10 3 11 9 12 4 13
REMARK SMILES IDX 8 14 10 15 5 16 6 17 87 18 11 19 7 20 12 21 13 22 14 23
REMARK SMILES IDX 15 24 23 25 24 26 25 27 26 29 27 30 28 31 86 32 29 33 85 34
REMARK SMILES IDX 30 35 31 36 32 37 79 38 33 39 84 40 78 41 80 42 34 43 83 44
REMARK SMILES IDX 77 45 76 46 35 48 65 49 46 50 64 51 47 52 50 53 63 54 81 55
REMARK SMILES IDX 48 56 49 57 62 59 82 60 51 61 36 62 37 63 45 64 38 65 44 66
REMARK SMILES IDX 39 67 40 68 41 69 42 70 43 71 66 72 67 73 75 74 68 75 74 76
REMARK SMILES IDX 69 77 70 78 71 79 72 80 73 81 52 82 53 83 61 84 54 85 60 86
REMARK SMILES IDX 55 87 56 88 57 89 58 90 59 91
REMARK H PARENT 19 7 24 28 80 47 50 58
REMARK Flexibility Score: inf
ROOT
ATOM      1  C   UNL     1       3.861  -5.956   5.696  1.00  0.00     0.023 C 
ENDROOT
BRANCH   1   2
ATOM      2  C   UNL     1       3.443  -4.893   4.674  1.00  0.00     0.023 C 
BRANCH   2   3
ATOM      3  C   UNL     1       4.138  -5.015   3.321  1.00  0.00     0.116 C 
BRANCH   3   4
ATOM      4  N   UNL     1       3.450  -5.939   2.437  1.00  0.00    -0.352 N 
ATOM      5  C   UNL     1       2.580  -5.856   1.405  1.00  0.00     0.251 C 
ATOM      6  O   UNL     1       2.226  -6.939   0.926  1.00  0.00    -0.270 OA
ATOM      7  H   UNL     1       3.678  -6.875   2.644  1.00  0.00     0.163 HD
BRANCH   5   8
ATOM      8  C   UNL     1       2.045  -4.588   0.823  1.00  0.00     0.067 C 
ATOM      9  C   UNL     1       0.654   0.224  -0.221  1.00  0.00     0.048 C 
ATOM     10  C   UNL     1       0.324  -1.119  -0.807  1.00  0.00    -0.007 A 
ATOM     11  C   UNL     1      -0.497  -1.217  -1.933  1.00  0.00     0.028 A 
ATOM     12  C   UNL     1       0.832  -2.296  -0.245  1.00  0.00     0.131 A 
ATOM     13  C   UNL     1      -0.806  -2.464  -2.487  1.00  0.00     0.045 A 
ATOM     14  C   UNL     1       0.529  -3.558  -0.785  1.00  0.00     0.022 A 
ATOM     15  O   UNL     1       1.597  -2.152   0.882  1.00  0.00    -0.475 OA
ATOM     16  Cl  UNL     1      -1.841  -2.452  -3.875  1.00  0.00    -0.084 Cl
ATOM     17  C   UNL     1      -0.299  -3.654  -1.930  1.00  0.00    -0.021 A 
ATOM     18  C   UNL     1       1.076  -4.735  -0.100  1.00  0.00     0.026 C 
ATOM     19  C   UNL     1       2.544  -3.217   1.161  1.00  0.00     0.314 C 
ATOM     20  C   UNL     1      -0.622  -5.006  -2.519  1.00  0.00     0.047 C 
BRANCH  19  21
ATOM     21  C   UNL     1       3.896  -2.888   0.501  1.00  0.00     0.429 C 
ATOM     22  F   UNL     1       4.430  -1.769   1.052  1.00  0.00    -0.167 F 
ATOM     23  F   UNL     1       4.809  -3.873   0.670  1.00  0.00    -0.167 F 
ATOM     24  F   UNL     1       3.789  -2.671  -0.829  1.00  0.00    -0.167 F 
ENDBRANCH  19  21
ENDBRANCH   5   8
ENDBRANCH   3   4
ENDBRANCH   2   3
ENDBRANCH   1   2
BRANCH   1  25
ATOM     25  C   UNL     1       5.360  -6.048   5.979  1.00  0.00     0.116 C 
BRANCH  25  26
ATOM     26  N   UNL     1       5.981  -4.773   6.312  1.00  0.00    -0.352 N 
ATOM     27  C   UNL     1       7.122  -4.564   7.053  1.00  0.00     0.251 C 
ATOM     28  H   UNL     1       5.533  -3.968   5.966  1.00  0.00     0.163 HD
ATOM     29  O   UNL     1       7.506  -3.429   7.308  1.00  0.00    -0.269 OA
BRANCH  27  30
ATOM     30  C   UNL     1       7.838  -5.740   7.581  1.00  0.00     0.039 A 
ATOM     31  C   UNL     1       7.972  -5.876   8.964  1.00  0.00     0.014 A 
ATOM     32  C   UNL     1       8.271  -6.749   6.715  1.00  0.00     0.014 A 
ATOM     33  C   UNL     1       8.463  -7.072   9.487  1.00  0.00     0.010 A 
ATOM     34  C   UNL     1       8.710  -7.959   7.241  1.00  0.00     0.010 A 
ATOM     35  C   UNL     1       8.789  -8.138   8.631  1.00  0.00    -0.014 A 
BRANCH  35  36
ATOM     36  C   UNL     1       9.168  -9.461   9.181  1.00  0.00     0.031 A 
ATOM     37  C   UNL     1      10.564  -9.983   9.004  1.00  0.00     0.074 A 
ATOM     38  C   UNL     1       8.233 -10.212   9.796  1.00  0.00     0.049 A 
ATOM     39  N   UNL     1      11.070 -11.120   9.405  1.00  0.00    -0.248 NA
ATOM     40  C   UNL     1      11.506  -9.129   8.264  1.00  0.00     0.031 C 
ATOM     41  C   UNL     1       6.831  -9.831   9.987  1.00  0.00     0.029 A 
ATOM     42  N   UNL     1       8.322 -11.450  10.379  1.00  0.00    -0.354 N 
ATOM     43  C   UNL     1      12.386 -11.122   8.963  1.00  0.00     0.074 A 
ATOM     44  C   UNL     1      12.588  -9.895   8.224  1.00  0.00     0.031 C 
ATOM     45  C   UNL     1       6.202 -10.797  10.676  1.00  0.00     0.029 A 
ATOM     46  C   UNL     1       7.146 -11.876  10.952  1.00  0.00     0.049 A 
ATOM     47  H   UNL     1       9.148 -11.985  10.386  1.00  0.00     0.167 HD
ATOM     48  C   UNL     1      13.347 -12.052   9.173  1.00  0.00     0.031 A 
ATOM     49  C   UNL     1       6.862 -13.001  11.635  1.00  0.00     0.031 A 
ATOM     50  C   UNL     1      13.149 -13.264   9.918  1.00  0.00     0.049 A 
ATOM     51  C   UNL     1       7.947 -14.015  11.864  1.00  0.00     0.074 A 
ATOM     52  C   UNL     1      14.073 -14.250  10.219  1.00  0.00     0.029 A 
ATOM     53  N   UNL     1      11.947 -13.653  10.488  1.00  0.00    -0.354 N 
ATOM     54  N   UNL     1       9.200 -13.976  11.479  1.00  0.00    -0.248 NA
ATOM     55  C   UNL     1       7.585 -15.219  12.625  1.00  0.00     0.031 C 
ATOM     56  C   UNL     1      13.421 -15.248  10.949  1.00  0.00     0.029 A 
ATOM     57  C   UNL     1      12.101 -14.867  11.132  1.00  0.00     0.049 A 
ATOM     58  H   UNL     1      11.107 -13.140  10.441  1.00  0.00     0.167 HD
ATOM     59  C   UNL     1       9.781 -15.138  11.969  1.00  0.00     0.074 A 
ATOM     60  C   UNL     1       8.746 -15.859  12.681  1.00  0.00     0.031 C 
ATOM     61  C   UNL     1      11.060 -15.566  11.842  1.00  0.00     0.031 A 
BRANCH  48  62
ATOM     62  C   UNL     1      14.706 -11.779   8.592  1.00  0.00    -0.014 A 
ATOM     63  C   UNL     1      15.548 -10.811   9.167  1.00  0.00     0.010 A 
ATOM     64  C   UNL     1      15.157 -12.510   7.479  1.00  0.00     0.010 A 
ATOM     65  C   UNL     1      16.803 -10.549   8.614  1.00  0.00     0.020 A 
ATOM     66  C   UNL     1      16.421 -12.265   6.936  1.00  0.00     0.020 A 
ATOM     67  C   UNL     1      17.229 -11.272   7.497  1.00  0.00     0.054 A 
BRANCH  67  68
ATOM     68  S   UNL     1      18.866 -10.918   6.803  1.00  0.00     0.124 S 
ATOM     69  O   UNL     1      18.626  -9.665   6.092  1.00  0.00    -0.237 OA
ATOM     70  O   UNL     1      19.706 -10.812   7.994  1.00  0.00    -0.237 OA
ATOM     71  O   UNL     1      19.139 -12.075   5.953  1.00  0.00    -0.744 OA
ENDBRANCH  67  68
ENDBRANCH  48  62
BRANCH  49  72
ATOM     72  C   UNL     1       5.500 -13.197  12.196  1.00  0.00    -0.014 A 
ATOM     73  C   UNL     1       5.270 -12.997  13.568  1.00  0.00     0.010 A 
ATOM     74  C   UNL     1       4.422 -13.537  11.360  1.00  0.00     0.010 A 
ATOM     75  C   UNL     1       3.984 -13.136  14.097  1.00  0.00     0.020 A 
ATOM     76  C   UNL     1       3.131 -13.661  11.883  1.00  0.00     0.020 A 
ATOM     77  C   UNL     1       2.922 -13.464  13.250  1.00  0.00     0.054 A 
BRANCH  77  78
ATOM     78  S   UNL     1       1.248 -13.565  13.944  1.00  0.00     0.124 S 
ATOM     79  O   UNL     1       1.280 -14.853  14.629  1.00  0.00    -0.237 OA
ATOM     80  O   UNL     1       1.193 -12.389  14.810  1.00  0.00    -0.237 OA
ATOM     81  O   UNL     1       0.386 -13.500  12.766  1.00  0.00    -0.744 OA
ENDBRANCH  77  78
ENDBRANCH  49  72
BRANCH  61  82
ATOM     82  C   UNL     1      11.432 -16.863  12.500  1.00  0.00    -0.014 A 
ATOM     83  C   UNL     1      11.118 -18.091  11.894  1.00  0.00     0.010 A 
ATOM     84  C   UNL     1      12.204 -16.849  13.676  1.00  0.00     0.010 A 
ATOM     85  C   UNL     1      11.573 -19.287  12.454  1.00  0.00     0.020 A 
ATOM     86  C   UNL     1      12.673 -18.042  14.230  1.00  0.00     0.020 A 
ATOM     87  C   UNL     1      12.352 -19.255  13.615  1.00  0.00     0.054 A 
BRANCH  87  88
ATOM     88  S   UNL     1      13.012 -20.814  14.268  1.00  0.00     0.124 S 
ATOM     89  O   UNL     1      11.834 -21.400  14.901  1.00  0.00    -0.237 OA
ATOM     90  O   UNL     1      13.482 -21.494  13.063  1.00  0.00    -0.237 OA
ATOM     91  O   UNL     1      14.066 -20.386  15.185  1.00  0.00    -0.744 OA
ENDBRANCH  87  88
ENDBRANCH  61  82
ENDBRANCH  35  36
ENDBRANCH  27  30
ENDBRANCH  25  26
ENDBRANCH   1  25
TORSDOF 15
