REMARK SMILES CCCCCCNC(=O)Oc1cccc(-c2ccc([C@@H](C)C(=O)NCCCCNC(=O)c3ccc(-c4c5nc(c(-c6ccc(S(=O)(=O)[O-])cc6)c6ccc([nH]6)c(-c6ccc(S(=O)(=O)[O-])cc6)c6nc(c(-c7ccc(S(=O)(=O)[O-])cc7)c7ccc4[nH]7)C=C6)C=C5)cc3)cc2C(F)(F)F)c1
REMARK SMILES IDX 20 1 21 2 19 3 16 4 17 5 93 6 18 7 92 8 15 9 11 10 12 11
REMARK SMILES IDX 98 12 13 13 14 14 10 15 8 16 7 17 9 19 6 20 5 21 4 22 3 23
REMARK SMILES IDX 2 24 1 25 94 26 95 27 96 28 97 29 22 30 23 31 24 32 25 34
REMARK SMILES IDX 26 35 27 36 28 37 29 38 30 39 31 41 32 42 33 43 91 44 34 45
REMARK SMILES IDX 90 46 35 47 36 48 37 49 84 50 38 51 89 52 83 53 85 54 39 55
REMARK SMILES IDX 88 56 82 57 81 58 40 60 70 61 51 62 69 63 52 64 55 65 68 66
REMARK SMILES IDX 86 67 53 68 54 69 67 71 87 72 56 73 41 74 42 75 50 76 43 77
REMARK SMILES IDX 49 78 44 79 45 80 46 81 47 82 48 83 71 84 72 85 80 86 73 87
REMARK SMILES IDX 79 88 74 89 75 90 76 91 77 92 78 93 57 94 58 95 66 96 59 97
REMARK SMILES IDX 65 98 60 99 61 100 62 101 63 102 64 103
REMARK H PARENT 7 18 24 33 29 40 85 59 55 70
REMARK Flexibility Score: inf
ROOT
ATOM      1  C   UNL     1      -4.908   5.092 -12.673  1.00  0.00     0.105 C 
ATOM      2  C   UNL     1      -6.079   5.553 -13.540  1.00  0.00     0.023 C 
ENDROOT
BRANCH   1   3
ATOM      3  C   UNL     1      -5.149   5.130 -11.172  1.00  0.00    -0.035 A 
ATOM      4  C   UNL     1      -5.321   5.210  -8.312  1.00  0.00    -0.006 A 
ATOM      5  C   UNL     1      -5.682   6.306  -9.119  1.00  0.00     0.009 A 
ATOM      6  C   UNL     1      -4.985   4.010  -8.973  1.00  0.00     0.064 A 
ATOM      7  C   UNL     1      -5.659   6.244 -10.515  1.00  0.00     0.005 A 
ATOM      8  C   UNL     1      -4.840   4.012 -10.384  1.00  0.00     0.018 A 
BRANCH   4   9
ATOM      9  C   UNL     1      -5.316   5.396  -6.844  1.00  0.00    -0.014 A 
ATOM     10  C   UNL     1      -4.258   5.174  -4.667  1.00  0.00     0.133 A 
ATOM     11  C   UNL     1      -5.342   5.782  -4.041  1.00  0.00     0.047 A 
ATOM     12  C   UNL     1      -4.225   4.997  -6.053  1.00  0.00     0.056 A 
ATOM     13  C   UNL     1      -6.410   6.223  -4.812  1.00  0.00     0.004 A 
ATOM     14  C   UNL     1      -6.401   6.019  -6.195  1.00  0.00     0.009 A 
BRANCH  10  15
ATOM     15  O   UNL     1      -3.289   4.606  -3.821  1.00  0.00    -0.410 OA
BRANCH  15  16
ATOM     16  C   UNL     1      -1.942   4.812  -4.079  1.00  0.00     0.412 C 
ATOM     17  N   UNL     1      -1.129   4.078  -3.259  1.00  0.00    -0.321 N 
ATOM     18  H   UNL     1      -0.160   4.209  -3.366  1.00  0.00     0.167 HD
ATOM     19  O   UNL     1      -1.481   5.564  -4.927  1.00  0.00    -0.224 OA
BRANCH  17  20
ATOM     20  C   UNL     1      -1.549   3.127  -2.248  1.00  0.00     0.119 C 
BRANCH  20  21
ATOM     21  C   UNL     1      -0.960   1.737  -2.488  1.00  0.00     0.021 C 
BRANCH  21  22
ATOM     22  C   UNL     1       0.569   1.659  -2.387  1.00  0.00     0.002 C 
BRANCH  22  23
ATOM     23  C   UNL     1       1.163   2.094  -1.043  1.00  0.00    -0.000 C 
BRANCH  23  24
ATOM     24  C   UNL     1       0.675   1.308   0.177  1.00  0.00    -0.003 C 
ATOM     25  C   UNL     1       1.043  -0.167   0.129  1.00  0.00     0.004 C 
ENDBRANCH  23  24
ENDBRANCH  22  23
ENDBRANCH  21  22
ENDBRANCH  20  21
ENDBRANCH  17  20
ENDBRANCH  15  16
ENDBRANCH  10  15
ENDBRANCH   4   9
BRANCH   6  26
ATOM     26  C   UNL     1      -4.803   2.675  -8.283  1.00  0.00     0.417 C 
ATOM     27  F   UNL     1      -5.501   1.685  -8.921  1.00  0.00    -0.166 F 
ATOM     28  F   UNL     1      -3.506   2.257  -8.283  1.00  0.00    -0.166 F 
ATOM     29  F   UNL     1      -5.221   2.606  -6.992  1.00  0.00    -0.166 F 
ENDBRANCH   6  26
ENDBRANCH   1   3
BRANCH   1  30
ATOM     30  C   UNL     1      -3.543   5.655 -13.106  1.00  0.00     0.227 C 
ATOM     31  O   UNL     1      -2.650   4.878 -13.466  1.00  0.00    -0.274 OA
ATOM     32  N   UNL     1      -3.242   6.982 -13.146  1.00  0.00    -0.356 N 
ATOM     33  H   UNL     1      -2.356   7.182 -13.526  1.00  0.00     0.163 HD
BRANCH  32  34
ATOM     34  C   UNL     1      -3.986   8.153 -12.731  1.00  0.00     0.116 C 
BRANCH  34  35
ATOM     35  C   UNL     1      -3.614   8.592 -11.313  1.00  0.00     0.023 C 
BRANCH  35  36
ATOM     36  C   UNL     1      -2.443   9.566 -11.225  1.00  0.00     0.023 C 
BRANCH  36  37
ATOM     37  C   UNL     1      -2.661  10.899 -11.926  1.00  0.00     0.116 C 
BRANCH  37  38
ATOM     38  N   UNL     1      -3.830  11.634 -11.459  1.00  0.00    -0.352 N 
ATOM     39  C   UNL     1      -3.986  13.000 -11.376  1.00  0.00     0.251 C 
ATOM     40  H   UNL     1      -4.597  11.090 -11.168  1.00  0.00     0.163 HD
ATOM     41  O   UNL     1      -5.000  13.486 -10.887  1.00  0.00    -0.269 OA
BRANCH  39  42
ATOM     42  C   UNL     1      -2.884  13.863 -11.846  1.00  0.00     0.039 A 
ATOM     43  C   UNL     1      -2.353  14.819 -10.978  1.00  0.00     0.014 A 
ATOM     44  C   UNL     1      -2.314  13.649 -13.104  1.00  0.00     0.014 A 
ATOM     45  C   UNL     1      -1.195  15.507 -11.345  1.00  0.00     0.010 A 
ATOM     46  C   UNL     1      -1.115  14.271 -13.427  1.00  0.00     0.010 A 
ATOM     47  C   UNL     1      -0.542  15.206 -12.552  1.00  0.00    -0.014 A 
BRANCH  47  48
ATOM     48  C   UNL     1       0.737  15.860 -12.930  1.00  0.00     0.031 A 
ATOM     49  C   UNL     1       0.799  16.707 -14.173  1.00  0.00     0.074 A 
ATOM     50  C   UNL     1       1.850  15.638 -12.201  1.00  0.00     0.049 A 
ATOM     51  N   UNL     1       1.834  17.284 -14.726  1.00  0.00    -0.248 NA
ATOM     52  C   UNL     1      -0.462  16.907 -14.907  1.00  0.00     0.031 C 
ATOM     53  C   UNL     1       1.929  14.804 -10.998  1.00  0.00     0.029 A 
ATOM     54  N   UNL     1       3.135  16.091 -12.371  1.00  0.00    -0.354 N 
ATOM     55  C   UNL     1       1.353  17.900 -15.875  1.00  0.00     0.074 A 
ATOM     56  C   UNL     1      -0.053  17.577 -15.974  1.00  0.00     0.031 C 
ATOM     57  C   UNL     1       3.186  14.830 -10.525  1.00  0.00     0.029 A 
ATOM     58  C   UNL     1       4.012  15.644 -11.410  1.00  0.00     0.049 A 
ATOM     59  H   UNL     1       3.404  16.681 -13.112  1.00  0.00     0.167 HD
ATOM     60  C   UNL     1       2.013  18.688 -16.755  1.00  0.00     0.031 A 
ATOM     61  C   UNL     1       5.335  15.860 -11.264  1.00  0.00     0.031 A 
ATOM     62  C   UNL     1       3.406  19.026 -16.642  1.00  0.00     0.049 A 
ATOM     63  C   UNL     1       6.048  16.729 -12.266  1.00  0.00     0.074 A 
ATOM     64  C   UNL     1       4.158  19.851 -17.460  1.00  0.00     0.029 A 
ATOM     65  N   UNL     1       4.253  18.568 -15.645  1.00  0.00    -0.354 N 
ATOM     66  N   UNL     1       5.562  17.343 -13.318  1.00  0.00    -0.248 NA
ATOM     67  C   UNL     1       7.487  16.943 -12.054  1.00  0.00     0.031 C 
ATOM     68  C   UNL     1       5.472  19.858 -16.981  1.00  0.00     0.029 A 
ATOM     69  C   UNL     1       5.523  19.084 -15.833  1.00  0.00     0.049 A 
ATOM     70  H   UNL     1       3.989  17.966 -14.912  1.00  0.00     0.167 HD
ATOM     71  C   UNL     1       6.628  18.046 -13.871  1.00  0.00     0.074 A 
ATOM     72  C   UNL     1       7.779  17.790 -13.031  1.00  0.00     0.031 C 
ATOM     73  C   UNL     1       6.652  18.832 -14.975  1.00  0.00     0.031 A 
BRANCH  60  74
ATOM     74  C   UNL     1       1.231  19.253 -17.909  1.00  0.00    -0.014 A 
ATOM     75  C   UNL     1       0.262  20.253 -17.702  1.00  0.00     0.010 A 
ATOM     76  C   UNL     1       1.503  18.825 -19.221  1.00  0.00     0.010 A 
ATOM     77  C   UNL     1      -0.442  20.791 -18.781  1.00  0.00     0.020 A 
ATOM     78  C   UNL     1       0.821  19.383 -20.307  1.00  0.00     0.020 A 
ATOM     79  C   UNL     1      -0.156  20.354 -20.078  1.00  0.00     0.054 A 
BRANCH  79  80
ATOM     80  S   UNL     1      -1.054  21.106 -21.462  1.00  0.00     0.124 S 
ATOM     81  O   UNL     1      -2.387  20.528 -21.306  1.00  0.00    -0.237 OA
ATOM     82  O   UNL     1      -0.952  22.534 -21.172  1.00  0.00    -0.237 OA
ATOM     83  O   UNL     1      -0.315  20.657 -22.640  1.00  0.00    -0.744 OA
ENDBRANCH  79  80
ENDBRANCH  60  74
BRANCH  61  84
ATOM     84  C   UNL     1       6.078  15.257 -10.122  1.00  0.00    -0.014 A 
ATOM     85  C   UNL     1       6.596  16.071  -9.099  1.00  0.00     0.010 A 
ATOM     86  C   UNL     1       6.299  13.869 -10.065  1.00  0.00     0.010 A 
ATOM     87  C   UNL     1       7.355  15.515  -8.064  1.00  0.00     0.020 A 
ATOM     88  C   UNL     1       7.030  13.305  -9.016  1.00  0.00     0.020 A 
ATOM     89  C   UNL     1       7.572  14.135  -8.032  1.00  0.00     0.054 A 
BRANCH  89  90
ATOM     90  S   UNL     1       8.552  13.433  -6.676  1.00  0.00     0.124 S 
ATOM     91  O   UNL     1       9.906  13.831  -7.044  1.00  0.00    -0.237 OA
ATOM     92  O   UNL     1       7.992  14.101  -5.503  1.00  0.00    -0.237 OA
ATOM     93  O   UNL     1       8.274  12.001  -6.760  1.00  0.00    -0.744 OA
ENDBRANCH  89  90
ENDBRANCH  61  84
BRANCH  73  94
ATOM     94  C   UNL     1       7.947  19.521 -15.311  1.00  0.00    -0.014 A 
ATOM     95  C   UNL     1       9.041  18.808 -15.830  1.00  0.00     0.010 A 
ATOM     96  C   UNL     1       8.043  20.917 -15.165  1.00  0.00     0.010 A 
ATOM     97  C   UNL     1      10.220  19.476 -16.172  1.00  0.00     0.020 A 
ATOM     98  C   UNL     1       9.209  21.593 -15.533  1.00  0.00     0.020 A 
ATOM     99  C   UNL     1      10.296  20.865 -16.022  1.00  0.00     0.054 A 
BRANCH  99 100
ATOM    100  S   UNL     1      11.817  21.715 -16.523  1.00  0.00     0.124 S 
ATOM    101  O   UNL     1      12.737  21.350 -15.449  1.00  0.00    -0.237 OA
ATOM    102  O   UNL     1      12.104  21.120 -17.825  1.00  0.00    -0.237 OA
ATOM    103  O   UNL     1      11.431  23.124 -16.560  1.00  0.00    -0.744 OA
ENDBRANCH  99 100
ENDBRANCH  73  94
ENDBRANCH  47  48
ENDBRANCH  39  42
ENDBRANCH  37  38
ENDBRANCH  36  37
ENDBRANCH  35  36
ENDBRANCH  34  35
ENDBRANCH  32  34
ENDBRANCH   1  30
TORSDOF 24
