REMARK SMILES O=C(NCCCCNC(=O)c1ccc(-c2c3nc(c(-c4ccc(S(=O)(=O)[O-])cc4)c4ccc([nH]4)c(-c4ccc(S(=O)(=O)[O-])cc4)c4nc(c(-c5ccc(S(=O)(=O)[O-])cc5)c5ccc2[nH]5)C=C4)C=C3)cc1)c1ccc(N/C=C\C(=O)c2ccco2)cc1
REMARK SMILES IDX 5 1 4 2 3 3 1 4 2 5 71 7 72 8 86 9 73 10 85 11 74 12 75 13
REMARK SMILES IDX 76 15 77 16 78 17 79 18 80 19 81 20 84 21 82 22 83 23 6 24
REMARK SMILES IDX 7 25 8 26 9 27 10 29 11 30 12 31 70 32 13 33 69 34 14 35
REMARK SMILES IDX 15 36 16 37 63 38 17 39 68 40 62 41 64 42 18 43 67 44 61 45
REMARK SMILES IDX 60 46 19 48 49 49 30 50 48 51 31 52 34 53 47 54 65 55 32 56
REMARK SMILES IDX 33 57 46 59 66 60 35 61 20 62 21 63 29 64 22 65 28 66 23 67
REMARK SMILES IDX 24 68 25 69 26 70 27 71 50 72 51 73 59 74 52 75 58 76 53 77
REMARK SMILES IDX 54 78 55 79 56 80 57 81 36 82 37 83 45 84 38 85 44 86 39 87
REMARK SMILES IDX 40 88 41 89 42 90 43 91
REMARK H PARENT 3 6 75 14 8 28 64 47 34 58
REMARK Flexibility Score: inf
ROOT
ATOM      1  C   UNL     1       4.999   0.556  -2.520  1.00  0.00     0.023 C 
ENDROOT
BRANCH   1   2
ATOM      2  C   UNL     1       4.641   0.698  -1.044  1.00  0.00     0.116 C 
BRANCH   2   3
ATOM      3  N   UNL     1       3.209   0.756  -0.803  1.00  0.00    -0.352 N 
ATOM      4  O   UNL     1       1.244   0.144   0.145  1.00  0.00    -0.269 OA
ATOM      5  C   UNL     1       2.467   0.052   0.113  1.00  0.00     0.251 C 
ATOM      6  H   UNL     1       2.705   1.382  -1.372  1.00  0.00     0.163 HD
BRANCH   5   7
ATOM      7  C   UNL     1       3.154  -0.867   1.040  1.00  0.00     0.039 A 
ATOM      8  C   UNL     1       4.174  -0.415   1.881  1.00  0.00     0.016 A 
ATOM      9  C   UNL     1       2.795  -2.213   1.027  1.00  0.00     0.016 A 
ATOM     10  C   UNL     1       4.907  -1.334   2.635  1.00  0.00     0.027 A 
ATOM     11  C   UNL     1       3.515  -3.120   1.804  1.00  0.00     0.027 A 
ATOM     12  C   UNL     1       4.595  -2.698   2.599  1.00  0.00     0.038 A 
BRANCH  12  13
ATOM     13  N   UNL     1       5.376  -3.684   3.224  1.00  0.00    -0.362 N 
ATOM     14  H   UNL     1       4.898  -4.502   3.492  1.00  0.00     0.166 HD
BRANCH  13  15
ATOM     15  C   UNL     1       6.716  -3.656   3.507  1.00  0.00     0.087 C 
ATOM     16  C   UNL     1       7.531  -4.645   3.905  1.00  0.00     0.074 C 
BRANCH  16  17
ATOM     17  C   UNL     1       7.176  -6.078   4.126  1.00  0.00     0.222 C 
ATOM     18  O   UNL     1       7.830  -6.697   4.966  1.00  0.00    -0.286 OA
BRANCH  17  19
ATOM     19  C   UNL     1       6.108  -6.669   3.349  1.00  0.00     0.173 A 
ATOM     20  C   UNL     1       5.791  -6.615   2.002  1.00  0.00     0.054 A 
ATOM     21  O   UNL     1       5.151  -7.393   4.008  1.00  0.00    -0.461 OA
ATOM     22  C   UNL     1       4.568  -7.311   1.842  1.00  0.00     0.043 A 
ATOM     23  C   UNL     1       4.220  -7.761   3.093  1.00  0.00     0.196 A 
ENDBRANCH  17  19
ENDBRANCH  16  17
ENDBRANCH  13  15
ENDBRANCH  12  13
ENDBRANCH   5   7
ENDBRANCH   2   3
ENDBRANCH   1   2
BRANCH   1  24
ATOM     24  C   UNL     1       4.543   1.700  -3.424  1.00  0.00     0.023 C 
BRANCH  24  25
ATOM     25  C   UNL     1       4.905   3.103  -2.950  1.00  0.00     0.116 C 
BRANCH  25  26
ATOM     26  N   UNL     1       6.338   3.302  -2.777  1.00  0.00    -0.352 N 
ATOM     27  C   UNL     1       7.161   4.260  -3.323  1.00  0.00     0.251 C 
ATOM     28  H   UNL     1       6.783   2.656  -2.183  1.00  0.00     0.163 HD
ATOM     29  O   UNL     1       8.373   4.204  -3.139  1.00  0.00    -0.269 OA
BRANCH  27  30
ATOM     30  C   UNL     1       6.585   5.329  -4.167  1.00  0.00     0.039 A 
ATOM     31  C   UNL     1       7.139   5.562  -5.428  1.00  0.00     0.014 A 
ATOM     32  C   UNL     1       5.473   6.058  -3.739  1.00  0.00     0.014 A 
ATOM     33  C   UNL     1       6.511   6.450  -6.304  1.00  0.00     0.010 A 
ATOM     34  C   UNL     1       4.811   6.893  -4.635  1.00  0.00     0.010 A 
ATOM     35  C   UNL     1       5.310   7.077  -5.934  1.00  0.00    -0.014 A 
BRANCH  35  36
ATOM     36  C   UNL     1       4.519   7.870  -6.910  1.00  0.00     0.031 A 
ATOM     37  C   UNL     1       4.283   9.336  -6.692  1.00  0.00     0.074 A 
ATOM     38  C   UNL     1       3.917   7.237  -7.937  1.00  0.00     0.049 A 
ATOM     39  N   UNL     1       3.532  10.159  -7.378  1.00  0.00    -0.248 NA
ATOM     40  C   UNL     1       4.959   9.951  -5.540  1.00  0.00     0.031 C 
ATOM     41  C   UNL     1       4.017   5.804  -8.225  1.00  0.00     0.029 A 
ATOM     42  N   UNL     1       3.079   7.713  -8.914  1.00  0.00    -0.354 N 
ATOM     43  C   UNL     1       3.627  11.385  -6.731  1.00  0.00     0.074 A 
ATOM     44  C   UNL     1       4.480  11.186  -5.577  1.00  0.00     0.031 C 
ATOM     45  C   UNL     1       3.275   5.519  -9.306  1.00  0.00     0.029 A 
ATOM     46  C   UNL     1       2.616   6.738  -9.765  1.00  0.00     0.049 A 
ATOM     47  H   UNL     1       2.834   8.663  -8.998  1.00  0.00     0.167 HD
ATOM     48  C   UNL     1       3.067  12.570  -7.072  1.00  0.00     0.031 A 
ATOM     49  C   UNL     1       1.743   6.806 -10.789  1.00  0.00     0.031 A 
ATOM     50  C   UNL     1       2.221  12.768  -8.218  1.00  0.00     0.049 A 
ATOM     51  C   UNL     1       1.131   8.127 -11.150  1.00  0.00     0.074 A 
ATOM     52  C   UNL     1       1.667  13.946  -8.687  1.00  0.00     0.029 A 
ATOM     53  N   UNL     1       1.797  11.759  -9.070  1.00  0.00    -0.354 N 
ATOM     54  N   UNL     1       1.298   9.293 -10.574  1.00  0.00    -0.248 NA
ATOM     55  C   UNL     1       0.216   8.144 -12.300  1.00  0.00     0.031 C 
ATOM     56  C   UNL     1       0.870  13.642  -9.798  1.00  0.00     0.029 A 
ATOM     57  C   UNL     1       0.963  12.282 -10.045  1.00  0.00     0.049 A 
ATOM     58  H   UNL     1       2.051  10.811  -8.994  1.00  0.00     0.167 HD
ATOM     59  C   UNL     1       0.513  10.186 -11.293  1.00  0.00     0.074 A 
ATOM     60  C   UNL     1      -0.114   9.428 -12.358  1.00  0.00     0.031 C 
ATOM     61  C   UNL     1       0.328  11.513 -11.087  1.00  0.00     0.031 A 
BRANCH  48  62
ATOM     62  C   UNL     1       3.349  13.742  -6.170  1.00  0.00    -0.014 A 
ATOM     63  C   UNL     1       4.625  14.335  -6.132  1.00  0.00     0.010 A 
ATOM     64  C   UNL     1       2.331  14.251  -5.345  1.00  0.00     0.010 A 
ATOM     65  C   UNL     1       4.894  15.375  -5.239  1.00  0.00     0.020 A 
ATOM     66  C   UNL     1       2.590  15.309  -4.469  1.00  0.00     0.020 A 
ATOM     67  C   UNL     1       3.878  15.846  -4.403  1.00  0.00     0.054 A 
BRANCH  67  68
ATOM     68  S   UNL     1       4.256  17.180  -3.234  1.00  0.00     0.124 S 
ATOM     69  O   UNL     1       4.956  16.459  -2.174  1.00  0.00    -0.237 OA
ATOM     70  O   UNL     1       5.084  18.084  -4.029  1.00  0.00    -0.237 OA
ATOM     71  O   UNL     1       2.942  17.704  -2.870  1.00  0.00    -0.744 OA
ENDBRANCH  67  68
ENDBRANCH  48  62
BRANCH  49  72
ATOM     72  C   UNL     1       1.403   5.567 -11.536  1.00  0.00    -0.014 A 
ATOM     73  C   UNL     1       1.963   5.322 -12.800  1.00  0.00     0.010 A 
ATOM     74  C   UNL     1       0.573   4.593 -10.950  1.00  0.00     0.010 A 
ATOM     75  C   UNL     1       1.707   4.119 -13.464  1.00  0.00     0.020 A 
ATOM     76  C   UNL     1       0.330   3.382 -11.603  1.00  0.00     0.020 A 
ATOM     77  C   UNL     1       0.898   3.153 -12.858  1.00  0.00     0.054 A 
BRANCH  77  78
ATOM     78  S   UNL     1       0.664   1.556 -13.688  1.00  0.00     0.124 S 
ATOM     79  O   UNL     1      -0.323   1.886 -14.710  1.00  0.00    -0.237 OA
ATOM     80  O   UNL     1       2.006   1.253 -14.179  1.00  0.00    -0.237 OA
ATOM     81  O   UNL     1       0.192   0.682 -12.616  1.00  0.00    -0.744 OA
ENDBRANCH  77  78
ENDBRANCH  49  72
BRANCH  61  82
ATOM     82  C   UNL     1      -0.595  12.235 -12.029  1.00  0.00    -0.014 A 
ATOM     83  C   UNL     1      -1.989  12.096 -11.917  1.00  0.00     0.010 A 
ATOM     84  C   UNL     1      -0.065  13.107 -12.997  1.00  0.00     0.010 A 
ATOM     85  C   UNL     1      -2.840  12.804 -12.770  1.00  0.00     0.020 A 
ATOM     86  C   UNL     1      -0.913  13.832 -13.839  1.00  0.00     0.020 A 
ATOM     87  C   UNL     1      -2.296  13.668 -13.726  1.00  0.00     0.054 A 
BRANCH  87  88
ATOM     88  S   UNL     1      -3.420  14.620 -14.785  1.00  0.00     0.124 S 
ATOM     89  O   UNL     1      -3.856  13.613 -15.749  1.00  0.00    -0.237 OA
ATOM     90  O   UNL     1      -4.442  15.074 -13.845  1.00  0.00    -0.237 OA
ATOM     91  O   UNL     1      -2.570  15.677 -15.329  1.00  0.00    -0.744 OA
ENDBRANCH  87  88
ENDBRANCH  61  82
ENDBRANCH  35  36
ENDBRANCH  27  30
ENDBRANCH  25  26
ENDBRANCH  24  25
ENDBRANCH   1  24
TORSDOF 18
