REMARK SMILES Cc1oc2cc3c(cc2c1C)[C@H](C)[C@@H](CC(=O)N[C@H](CC1=c2ccccc2=NC1)C(=O)NCCCCNC(=O)c1ccc(-c2c4nc(c(-c5ccc(S(=O)(=O)[O-])cc5)c5ccc([nH]5)c(-c5ccc(S(=O)(=O)[O-])cc5)c5nc(c(-c6ccc(S(=O)(=O)[O-])cc6)c6ccc2[nH]6)C=C5)C=C4)cc1)C(=O)O3
REMARK SMILES IDX 34 1 33 2 32 3 30 4 31 5 19 7 18 8 16 9 17 10 15 12 14 13
REMARK SMILES IDX 1 14 2 15 3 16 10 17 4 18 9 19 11 20 5 21 8 22 6 23 7 24
REMARK SMILES IDX 102 25 12 26 100 27 13 28 101 29 20 30 21 31 22 32 29 33
REMARK SMILES IDX 23 34 27 35 28 36 24 37 26 38 25 39 35 40 36 41 37 42 38 43
REMARK SMILES IDX 39 45 40 46 41 47 99 48 42 49 98 50 43 51 44 52 45 53 92 54
REMARK SMILES IDX 46 55 97 56 91 57 93 58 47 59 96 60 90 61 89 62 48 64 78 65
REMARK SMILES IDX 59 66 77 67 60 68 63 69 76 70 94 71 61 72 62 73 75 75 95 76
REMARK SMILES IDX 64 77 49 78 50 79 58 80 51 81 57 82 52 83 53 84 54 85 55 86
REMARK SMILES IDX 56 87 79 88 80 89 88 90 81 91 87 92 82 93 83 94 84 95 85 96
REMARK SMILES IDX 86 97 65 98 66 99 74 100 67 101 73 102 68 103 69 104 70 105
REMARK SMILES IDX 71 106 72 107
REMARK H PARENT 32 6 18 11 37 44 93 63 63 74
REMARK Flexibility Score: inf
ROOT
ATOM      1  C   UNL     1      -4.791 -10.226  -8.114  1.00  0.00     0.023 C 
ENDROOT
BRANCH   1   2
ATOM      2  C   UNL     1      -4.936  -9.322  -6.887  1.00  0.00     0.116 C 
BRANCH   2   3
ATOM      3  N   UNL     1      -4.241  -9.889  -5.753  1.00  0.00    -0.354 N 
ATOM      4  C   UNL     1      -3.094  -9.513  -5.124  1.00  0.00     0.242 C 
ATOM      5  O   UNL     1      -2.542 -10.351  -4.405  1.00  0.00    -0.273 OA
ATOM      6  H   UNL     1      -4.673 -10.686  -5.369  1.00  0.00     0.163 HD
BRANCH   4   7
ATOM      7  C   UNL     1      -2.377  -8.194  -5.471  1.00  0.00     0.175 C 
BRANCH   7   8
ATOM      8  N   UNL     1      -3.241  -6.992  -5.712  1.00  0.00    -0.344 N 
ATOM      9  C   UNL     1      -3.804  -5.996  -4.982  1.00  0.00     0.221 C 
ATOM     10  O   UNL     1      -4.263  -5.040  -5.619  1.00  0.00    -0.275 OA
ATOM     11  H   UNL     1      -3.461  -6.899  -6.667  1.00  0.00     0.164 HD
BRANCH   9  12
ATOM     12  C   UNL     1      -4.038  -6.038  -3.485  1.00  0.00     0.116 C 
BRANCH  12  13
ATOM     13  C   UNL     1      -5.367  -6.769  -3.274  1.00  0.00     0.116 C 
ATOM     14  C   UNL     1     -11.375 -11.686   0.049  1.00  0.00     0.088 C 
ATOM     15  C   UNL     1     -10.426 -10.636  -0.384  1.00  0.00     0.105 A 
ATOM     16  O   UNL     1      -9.750 -10.920  -1.524  1.00  0.00    -0.461 OA
ATOM     17  C   UNL     1     -10.024  -9.408   0.123  1.00  0.00    -0.002 A 
ATOM     18  C   UNL     1      -8.899  -9.899  -1.750  1.00  0.00     0.138 A 
ATOM     19  C   UNL     1      -9.036  -8.907  -0.789  1.00  0.00     0.024 A 
ATOM     20  C   UNL     1     -10.485  -8.769   1.377  1.00  0.00     0.049 C 
ATOM     21  C   UNL     1      -7.978  -9.888  -2.775  1.00  0.00     0.095 A 
ATOM     22  C   UNL     1      -8.217  -7.752  -0.887  1.00  0.00     0.020 A 
ATOM     23  C   UNL     1      -7.116  -8.800  -2.773  1.00  0.00     0.138 A 
ATOM     24  C   UNL     1      -7.244  -7.686  -1.905  1.00  0.00    -0.001 A 
ATOM     25  O   UNL     1      -6.036  -8.974  -3.635  1.00  0.00    -0.426 OA
ATOM     26  C   UNL     1      -6.251  -6.509  -2.033  1.00  0.00     0.035 C 
ATOM     27  C   UNL     1      -5.025  -8.216  -3.128  1.00  0.00     0.315 C 
ATOM     28  C   UNL     1      -6.980  -5.165  -2.136  1.00  0.00     0.014 C 
ATOM     29  O   UNL     1      -4.021  -8.652  -2.587  1.00  0.00    -0.251 OA
ENDBRANCH  12  13
ENDBRANCH   9  12
ENDBRANCH   7   8
BRANCH   7  30
ATOM     30  C   UNL     1      -1.437  -8.575  -6.707  1.00  0.00     0.068 C 
BRANCH  30  31
ATOM     31  C   UNL     1      -1.307  -7.492  -7.739  1.00  0.00    -0.037 C 
ATOM     32  C   UNL     1      -1.838  -7.431  -8.961  1.00  0.00     0.001 A 
ATOM     33  C   UNL     1      -0.855  -6.123  -7.335  1.00  0.00     0.174 C 
ATOM     34  C   UNL     1      -2.267  -8.307 -10.005  1.00  0.00     0.010 A 
ATOM     35  C   UNL     1      -2.321  -6.030  -8.915  1.00  0.00     0.065 A 
ATOM     36  N   UNL     1      -1.800  -5.234  -8.031  1.00  0.00    -0.280 NA
ATOM     37  C   UNL     1      -3.170  -7.862 -10.898  1.00  0.00     0.001 A 
ATOM     38  C   UNL     1      -3.501  -5.723  -9.753  1.00  0.00     0.028 A 
ATOM     39  C   UNL     1      -3.885  -6.616 -10.679  1.00  0.00     0.002 A 
ENDBRANCH  30  31
ENDBRANCH   7  30
ENDBRANCH   4   7
ENDBRANCH   2   3
ENDBRANCH   1   2
BRANCH   1  40
ATOM     40  C   UNL     1      -6.136 -10.563  -8.752  1.00  0.00     0.023 C 
BRANCH  40  41
ATOM     41  C   UNL     1      -6.873  -9.318  -9.255  1.00  0.00     0.116 C 
BRANCH  41  42
ATOM     42  N   UNL     1      -6.804  -9.134 -10.696  1.00  0.00    -0.352 N 
ATOM     43  C   UNL     1      -7.476  -9.808 -11.700  1.00  0.00     0.251 C 
ATOM     44  H   UNL     1      -6.190  -8.428 -11.002  1.00  0.00     0.163 HD
ATOM     45  O   UNL     1      -7.296  -9.539 -12.866  1.00  0.00    -0.269 OA
BRANCH  43  46
ATOM     46  C   UNL     1      -8.353 -10.926 -11.295  1.00  0.00     0.039 A 
ATOM     47  C   UNL     1      -9.402 -10.701 -10.403  1.00  0.00     0.014 A 
ATOM     48  C   UNL     1      -7.988 -12.220 -11.677  1.00  0.00     0.014 A 
ATOM     49  C   UNL     1      -9.951 -11.780  -9.729  1.00  0.00     0.010 A 
ATOM     50  C   UNL     1      -8.583 -13.304 -11.041  1.00  0.00     0.010 A 
ATOM     51  C   UNL     1      -9.503 -13.076 -10.012  1.00  0.00    -0.014 A 
BRANCH  51  52
ATOM     52  C   UNL     1     -10.044 -14.148  -9.173  1.00  0.00     0.031 A 
ATOM     53  C   UNL     1     -11.041 -15.015  -9.855  1.00  0.00     0.074 A 
ATOM     54  C   UNL     1      -9.336 -14.667  -8.149  1.00  0.00     0.049 A 
ATOM     55  N   UNL     1     -10.695 -15.982 -10.655  1.00  0.00    -0.248 NA
ATOM     56  C   UNL     1     -12.462 -14.679  -9.893  1.00  0.00     0.031 C 
ATOM     57  C   UNL     1      -7.871 -14.791  -8.123  1.00  0.00     0.029 A 
ATOM     58  N   UNL     1      -9.753 -15.387  -7.060  1.00  0.00    -0.354 N 
ATOM     59  C   UNL     1     -11.835 -16.360 -11.338  1.00  0.00     0.074 A 
ATOM     60  C   UNL     1     -12.906 -15.527 -10.833  1.00  0.00     0.031 C 
ATOM     61  C   UNL     1      -7.534 -15.717  -7.201  1.00  0.00     0.029 A 
ATOM     62  C   UNL     1      -8.724 -16.105  -6.458  1.00  0.00     0.049 A 
ATOM     63  H   UNL     1     -10.683 -15.396  -6.737  1.00  0.00     0.167 HD
ATOM     64  C   UNL     1     -11.851 -17.330 -12.289  1.00  0.00     0.031 A 
ATOM     65  C   UNL     1      -8.900 -17.271  -5.779  1.00  0.00     0.031 A 
ATOM     66  C   UNL     1     -10.614 -18.015 -12.506  1.00  0.00     0.049 A 
ATOM     67  C   UNL     1      -9.155 -18.218  -6.934  1.00  0.00     0.074 A 
ATOM     68  C   UNL     1      -9.552 -17.941 -13.381  1.00  0.00     0.029 A 
ATOM     69  N   UNL     1     -10.253 -18.995 -11.611  1.00  0.00    -0.354 N 
ATOM     70  N   UNL     1      -8.253 -18.745  -7.723  1.00  0.00    -0.248 NA
ATOM     71  C   UNL     1     -10.524 -18.291  -7.450  1.00  0.00     0.031 C 
ATOM     72  C   UNL     1      -8.452 -18.555 -12.704  1.00  0.00     0.029 A 
ATOM     73  C   UNL     1      -8.896 -18.905 -11.428  1.00  0.00     0.049 A 
ATOM     74  H   UNL     1     -10.857 -19.642 -11.180  1.00  0.00     0.167 HD
ATOM     75  C   UNL     1      -8.895 -18.936  -8.951  1.00  0.00     0.074 A 
ATOM     76  C   UNL     1     -10.295 -18.657  -8.703  1.00  0.00     0.031 C 
ATOM     77  C   UNL     1      -8.252 -19.120 -10.143  1.00  0.00     0.031 A 
BRANCH  64  78
ATOM     78  C   UNL     1     -13.095 -17.763 -12.955  1.00  0.00    -0.014 A 
ATOM     79  C   UNL     1     -13.619 -17.081 -14.063  1.00  0.00     0.010 A 
ATOM     80  C   UNL     1     -13.711 -18.945 -12.512  1.00  0.00     0.010 A 
ATOM     81  C   UNL     1     -14.738 -17.591 -14.731  1.00  0.00     0.020 A 
ATOM     82  C   UNL     1     -14.823 -19.458 -13.177  1.00  0.00     0.020 A 
ATOM     83  C   UNL     1     -15.328 -18.780 -14.286  1.00  0.00     0.054 A 
BRANCH  83  84
ATOM     84  S   UNL     1     -16.737 -19.459 -15.203  1.00  0.00     0.124 S 
ATOM     85  O   UNL     1     -17.765 -18.448 -14.973  1.00  0.00    -0.237 OA
ATOM     86  O   UNL     1     -16.220 -19.533 -16.566  1.00  0.00    -0.237 OA
ATOM     87  O   UNL     1     -16.979 -20.749 -14.561  1.00  0.00    -0.744 OA
ENDBRANCH  83  84
ENDBRANCH  64  78
BRANCH  65  88
ATOM     88  C   UNL     1      -9.816 -17.119  -4.595  1.00  0.00    -0.014 A 
ATOM     89  C   UNL     1     -10.989 -17.854  -4.370  1.00  0.00     0.010 A 
ATOM     90  C   UNL     1      -9.508 -16.092  -3.668  1.00  0.00     0.010 A 
ATOM     91  C   UNL     1     -11.916 -17.448  -3.398  1.00  0.00     0.020 A 
ATOM     92  C   UNL     1     -10.413 -15.697  -2.679  1.00  0.00     0.020 A 
ATOM     93  C   UNL     1     -11.643 -16.341  -2.593  1.00  0.00     0.054 A 
BRANCH  93  94
ATOM     94  S   UNL     1     -12.905 -15.724  -1.446  1.00  0.00     0.124 S 
ATOM     95  O   UNL     1     -13.656 -14.805  -2.298  1.00  0.00    -0.237 OA
ATOM     96  O   UNL     1     -13.615 -16.938  -1.052  1.00  0.00    -0.237 OA
ATOM     97  O   UNL     1     -12.124 -15.094  -0.384  1.00  0.00    -0.744 OA
ENDBRANCH  93  94
ENDBRANCH  65  88
BRANCH  77  98
ATOM     98  C   UNL     1      -6.769 -19.343 -10.103  1.00  0.00    -0.014 A 
ATOM     99  C   UNL     1      -5.889 -18.439 -10.727  1.00  0.00     0.010 A 
ATOM    100  C   UNL     1      -6.249 -20.532  -9.567  1.00  0.00     0.010 A 
ATOM    101  C   UNL     1      -4.543 -18.765 -10.911  1.00  0.00     0.020 A 
ATOM    102  C   UNL     1      -4.897 -20.854  -9.726  1.00  0.00     0.020 A 
ATOM    103  C   UNL     1      -4.062 -19.986 -10.434  1.00  0.00     0.054 A 
BRANCH 103 104
ATOM    104  S   UNL     1      -2.346 -20.443 -10.797  1.00  0.00     0.124 S 
ATOM    105  O   UNL     1      -2.378 -20.638 -12.244  1.00  0.00    -0.237 OA
ATOM    106  O   UNL     1      -1.597 -19.274 -10.341  1.00  0.00    -0.237 OA
ATOM    107  O   UNL     1      -2.133 -21.658 -10.013  1.00  0.00    -0.744 OA
ENDBRANCH 103 104
ENDBRANCH  77  98
ENDBRANCH  51  52
ENDBRANCH  43  46
ENDBRANCH  41  42
ENDBRANCH  40  41
ENDBRANCH   1  40
TORSDOF 19
