REMARK SMILES O=C(NCCCCNC(=O)c1ccc2c(c1)[C@@H]1C=CC[C@@H]1[C@H](c1ccncc1)N2)c1ccc(-c2c3nc(c(-c4ccc(S(=O)(=O)[O-])cc4)c4ccc([nH]4)c(-c4ccc(S(=O)(=O)[O-])cc4)c4nc(c(-c5ccc(S(=O)(=O)[O-])cc5)c5ccc2[nH]5)C=C4)C=C3)cc1
REMARK SMILES IDX 4 1 3 2 1 3 2 4 30 6 31 7 89 8 32 9 88 10 33 11 34 12 35 13
REMARK SMILES IDX 82 14 36 15 87 16 81 17 83 18 37 19 86 20 80 21 79 22 38 24
REMARK SMILES IDX 68 25 49 26 67 27 50 28 53 29 66 30 84 31 51 32 52 33 65 35
REMARK SMILES IDX 85 36 54 37 39 38 40 39 48 40 41 41 47 42 42 43 43 44 44 45
REMARK SMILES IDX 45 46 46 47 69 48 70 49 78 50 71 51 77 52 72 53 73 54 74 55
REMARK SMILES IDX 75 56 76 57 55 58 56 59 64 60 57 61 63 62 58 63 59 64 60 65
REMARK SMILES IDX 61 66 62 67 5 68 6 69 7 70 8 71 9 72 10 74 11 75 12 76 16 77
REMARK SMILES IDX 13 78 15 79 14 80 17 81 29 82 18 83 21 84 22 85 19 87 20 88
REMARK SMILES IDX 23 89 24 90 28 91 25 92 27 93 26 94
REMARK H PARENT 3 5 83 23 53 34 8 73 29 86
REMARK Flexibility Score: inf
ROOT
ATOM      1  C   UNL     1       4.539  -1.155  -0.669  1.00  0.00     0.116 C 
ENDROOT
BRANCH   1   2
ATOM      2  N   UNL     1       3.119  -0.854  -0.776  1.00  0.00    -0.352 N 
ATOM      3  O   UNL     1       1.145   0.092  -0.226  1.00  0.00    -0.269 OA
ATOM      4  C   UNL     1       2.360   0.044  -0.060  1.00  0.00     0.251 C 
ATOM      5  H   UNL     1       2.629  -1.367  -1.459  1.00  0.00     0.163 HD
BRANCH   4   6
ATOM      6  C   UNL     1       3.010   0.919   0.942  1.00  0.00     0.039 A 
ATOM      7  C   UNL     1       4.192   1.596   0.637  1.00  0.00     0.014 A 
ATOM      8  C   UNL     1       2.450   1.027   2.218  1.00  0.00     0.014 A 
ATOM      9  C   UNL     1       4.906   2.222   1.652  1.00  0.00     0.010 A 
ATOM     10  C   UNL     1       3.127   1.736   3.216  1.00  0.00     0.010 A 
ATOM     11  C   UNL     1       4.388   2.292   2.957  1.00  0.00    -0.014 A 
BRANCH  11  12
ATOM     12  C   UNL     1       5.190   2.954   4.019  1.00  0.00     0.031 A 
ATOM     13  C   UNL     1       5.728   2.173   5.191  1.00  0.00     0.074 A 
ATOM     14  C   UNL     1       5.491   4.261   3.889  1.00  0.00     0.049 A 
ATOM     15  N   UNL     1       6.513   2.579   6.157  1.00  0.00    -0.248 NA
ATOM     16  C   UNL     1       5.330   0.760   5.301  1.00  0.00     0.031 C 
ATOM     17  C   UNL     1       5.025   5.129   2.804  1.00  0.00     0.029 A 
ATOM     18  N   UNL     1       6.289   5.078   4.649  1.00  0.00    -0.354 N 
ATOM     19  C   UNL     1       6.678   1.488   7.003  1.00  0.00     0.074 A 
ATOM     20  C   UNL     1       5.899   0.404   6.444  1.00  0.00     0.031 C 
ATOM     21  C   UNL     1       5.599   6.335   2.930  1.00  0.00     0.029 A 
ATOM     22  C   UNL     1       6.430   6.342   4.129  1.00  0.00     0.049 A 
ATOM     23  H   UNL     1       6.718   4.787   5.485  1.00  0.00     0.167 HD
ATOM     24  C   UNL     1       7.413   1.394   8.138  1.00  0.00     0.031 A 
ATOM     25  C   UNL     1       7.151   7.394   4.561  1.00  0.00     0.031 A 
ATOM     26  C   UNL     1       8.208   2.463   8.683  1.00  0.00     0.049 A 
ATOM     27  C   UNL     1       7.974   7.256   5.808  1.00  0.00     0.074 A 
ATOM     28  C   UNL     1       9.013   2.451   9.809  1.00  0.00     0.029 A 
ATOM     29  N   UNL     1       8.302   3.735   8.140  1.00  0.00    -0.354 N 
ATOM     30  N   UNL     1       8.132   6.207   6.577  1.00  0.00    -0.248 NA
ATOM     31  C   UNL     1       8.718   8.446   6.241  1.00  0.00     0.031 C 
ATOM     32  C   UNL     1       9.569   3.726   9.966  1.00  0.00     0.029 A 
ATOM     33  C   UNL     1       9.140   4.520   8.914  1.00  0.00     0.049 A 
ATOM     34  H   UNL     1       7.841   4.036   7.324  1.00  0.00     0.167 HD
ATOM     35  C   UNL     1       9.005   6.606   7.582  1.00  0.00     0.074 A 
ATOM     36  C   UNL     1       9.354   7.986   7.310  1.00  0.00     0.031 C 
ATOM     37  C   UNL     1       9.472   5.893   8.636  1.00  0.00     0.031 A 
BRANCH  24  38
ATOM     38  C   UNL     1       7.370   0.088   8.887  1.00  0.00    -0.014 A 
ATOM     39  C   UNL     1       8.058  -1.045   8.420  1.00  0.00     0.010 A 
ATOM     40  C   UNL     1       6.660   0.007  10.099  1.00  0.00     0.010 A 
ATOM     41  C   UNL     1       8.004  -2.248   9.130  1.00  0.00     0.020 A 
ATOM     42  C   UNL     1       6.620  -1.188  10.823  1.00  0.00     0.020 A 
ATOM     43  C   UNL     1       7.277  -2.314  10.324  1.00  0.00     0.054 A 
BRANCH  43  44
ATOM     44  S   UNL     1       7.228  -3.883  11.235  1.00  0.00     0.124 S 
ATOM     45  O   UNL     1       6.255  -4.649  10.460  1.00  0.00    -0.237 OA
ATOM     46  O   UNL     1       8.608  -4.353  11.148  1.00  0.00    -0.237 OA
ATOM     47  O   UNL     1       6.791  -3.492  12.573  1.00  0.00    -0.744 OA
ENDBRANCH  43  44
ENDBRANCH  24  38
BRANCH  25  48
ATOM     48  C   UNL     1       7.131   8.663   3.789  1.00  0.00    -0.014 A 
ATOM     49  C   UNL     1       8.247   9.050   3.028  1.00  0.00     0.010 A 
ATOM     50  C   UNL     1       5.978   9.469   3.780  1.00  0.00     0.010 A 
ATOM     51  C   UNL     1       8.213  10.227   2.275  1.00  0.00     0.020 A 
ATOM     52  C   UNL     1       5.933  10.633   3.010  1.00  0.00     0.020 A 
ATOM     53  C   UNL     1       7.055  11.010   2.269  1.00  0.00     0.054 A 
BRANCH  53  54
ATOM     54  S   UNL     1       7.000  12.495   1.229  1.00  0.00     0.124 S 
ATOM     55  O   UNL     1       7.721  13.464   2.047  1.00  0.00    -0.237 OA
ATOM     56  O   UNL     1       7.683  12.060   0.013  1.00  0.00    -0.237 OA
ATOM     57  O   UNL     1       5.569  12.745   1.072  1.00  0.00    -0.744 OA
ENDBRANCH  53  54
ENDBRANCH  25  48
BRANCH  37  58
ATOM     58  C   UNL     1      10.430   6.592   9.559  1.00  0.00    -0.014 A 
ATOM     59  C   UNL     1       9.976   7.555  10.478  1.00  0.00     0.010 A 
ATOM     60  C   UNL     1      11.797   6.267   9.520  1.00  0.00     0.010 A 
ATOM     61  C   UNL     1      10.882   8.209  11.317  1.00  0.00     0.020 A 
ATOM     62  C   UNL     1      12.702   6.904  10.371  1.00  0.00     0.020 A 
ATOM     63  C   UNL     1      12.241   7.885  11.253  1.00  0.00     0.054 A 
BRANCH  63  64
ATOM     64  S   UNL     1      13.400   8.730  12.364  1.00  0.00     0.124 S 
ATOM     65  O   UNL     1      13.595  10.006  11.683  1.00  0.00    -0.237 OA
ATOM     66  O   UNL     1      12.657   8.795  13.620  1.00  0.00    -0.237 OA
ATOM     67  O   UNL     1      14.564   7.846  12.382  1.00  0.00    -0.744 OA
ENDBRANCH  63  64
ENDBRANCH  37  58
ENDBRANCH  11  12
ENDBRANCH   4   6
ENDBRANCH   1   2
BRANCH   1  68
ATOM     68  C   UNL     1       4.836  -2.639  -0.496  1.00  0.00     0.023 C 
BRANCH  68  69
ATOM     69  C   UNL     1       4.354  -3.543  -1.625  1.00  0.00     0.023 C 
BRANCH  69  70
ATOM     70  C   UNL     1       4.754  -3.106  -3.030  1.00  0.00     0.116 C 
BRANCH  70  71
ATOM     71  N   UNL     1       6.196  -3.055  -3.228  1.00  0.00    -0.352 N 
ATOM     72  C   UNL     1       6.962  -3.715  -4.160  1.00  0.00     0.251 C 
ATOM     73  H   UNL     1       6.690  -2.467  -2.612  1.00  0.00     0.163 HD
ATOM     74  O   UNL     1       8.187  -3.645  -4.140  1.00  0.00    -0.269 OA
BRANCH  72  75
ATOM     75  C   UNL     1       6.292  -4.546  -5.177  1.00  0.00     0.040 A 
ATOM     76  C   UNL     1       6.607  -5.899  -5.260  1.00  0.00     0.016 A 
ATOM     77  C   UNL     1       5.290  -4.002  -5.981  1.00  0.00     0.020 A 
ATOM     78  C   UNL     1       5.869  -6.718  -6.116  1.00  0.00     0.027 A 
ATOM     79  C   UNL     1       4.489  -4.839  -6.771  1.00  0.00    -0.017 A 
ATOM     80  C   UNL     1       4.812  -6.203  -6.883  1.00  0.00     0.038 A 
ATOM     81  C   UNL     1       3.261  -4.271  -7.447  1.00  0.00     0.049 C 
ATOM     82  N   UNL     1       4.043  -7.073  -7.644  1.00  0.00    -0.378 N 
ATOM     83  C   UNL     1       2.335  -3.577  -6.473  1.00  0.00    -0.023 C 
ATOM     84  C   UNL     1       2.313  -5.348  -8.002  1.00  0.00     0.031 C 
ATOM     85  C   UNL     1       3.071  -6.540  -8.586  1.00  0.00     0.114 C 
ATOM     86  H   UNL     1       4.155  -8.046  -7.546  1.00  0.00     0.161 HD
ATOM     87  C   UNL     1       1.288  -4.342  -6.143  1.00  0.00    -0.030 C 
ATOM     88  C   UNL     1       1.333  -5.656  -6.856  1.00  0.00     0.034 C 
BRANCH  85  89
ATOM     89  C   UNL     1       2.128  -7.619  -9.099  1.00  0.00    -0.022 A 
ATOM     90  C   UNL     1       1.364  -7.371 -10.248  1.00  0.00     0.026 A 
ATOM     91  C   UNL     1       1.958  -8.853  -8.461  1.00  0.00     0.026 A 
ATOM     92  C   UNL     1       0.494  -8.349 -10.705  1.00  0.00     0.111 A 
ATOM     93  C   UNL     1       1.073  -9.774  -9.003  1.00  0.00     0.111 A 
ATOM     94  N   UNL     1       0.338  -9.550 -10.113  1.00  0.00    -0.265 NA
ENDBRANCH  85  89
ENDBRANCH  72  75
ENDBRANCH  70  71
ENDBRANCH  69  70
ENDBRANCH  68  69
ENDBRANCH   1  68
TORSDOF 15
