REMARK SMILES Cc1ccc(-c2c(C)sc(NC(=O)[C@H]3CC=CC[C@H]3C(=O)NCCCCNC(=O)c3ccc(-c4c5nc(c(-c6ccc(S(=O)(=O)[O-])cc6)c6ccc([nH]6)c(-c6ccc(S(=O)(=O)[O-])cc6)c6nc(c(-c7ccc(S(=O)(=O)[O-])cc7)c7ccc4[nH]7)C=C6)C=C5)cc3)c2C(N)=O)cc1
REMARK SMILES IDX 24 1 23 2 22 3 20 4 21 5 19 7 14 8 15 9 16 10 18 11 17 12
REMARK SMILES IDX 12 13 11 14 13 16 10 17 6 18 7 19 90 20 8 21 9 22 5 23 1 24
REMARK SMILES IDX 2 25 3 26 95 27 4 28 94 29 91 30 92 31 93 32 25 35 26 36
REMARK SMILES IDX 27 37 28 38 29 40 30 41 31 42 89 43 32 44 88 45 33 46 34 47
REMARK SMILES IDX 35 48 82 49 36 50 87 51 81 52 83 53 37 54 86 55 80 56 79 57
REMARK SMILES IDX 38 59 68 60 49 61 67 62 50 63 53 64 66 65 84 66 51 67 52 68
REMARK SMILES IDX 65 70 85 71 54 72 39 73 40 74 48 75 41 76 47 77 42 78 43 79
REMARK SMILES IDX 44 80 45 81 46 82 69 83 70 84 78 85 71 86 77 87 72 88 73 89
REMARK SMILES IDX 74 90 75 91 76 92 55 93 56 94 64 95 57 96 63 97 58 98 59 99
REMARK SMILES IDX 60 100 61 101 62 102
REMARK H PARENT 22 6 11 15 92 33 92 34 27 39 83 58 53 69
REMARK Flexibility Score: inf
ROOT
ATOM      1  C   UNL     1      -9.047  -2.196   2.274  1.00  0.00     0.023 C 
ENDROOT
BRANCH   1   2
ATOM      2  C   UNL     1      -8.177  -2.775   1.151  1.00  0.00     0.116 C 
BRANCH   2   3
ATOM      3  N   UNL     1      -8.973  -2.932  -0.027  1.00  0.00    -0.356 N 
ATOM      4  C   UNL     1      -9.239  -1.992  -0.959  1.00  0.00     0.224 C 
ATOM      5  O   UNL     1     -10.211  -2.194  -1.694  1.00  0.00    -0.275 OA
ATOM      6  H   UNL     1      -9.369  -3.821  -0.174  1.00  0.00     0.163 HD
BRANCH   4   7
ATOM      7  C   UNL     1      -8.342  -0.781  -1.180  1.00  0.00     0.095 C 
ATOM      8  C   UNL     1      -8.299   0.437  -0.230  1.00  0.00     0.095 C 
ATOM      9  C   UNL     1      -7.911   1.665  -1.084  1.00  0.00     0.041 C 
ATOM     10  C   UNL     1      -6.905   1.361  -2.180  1.00  0.00    -0.030 C 
ATOM     11  C   UNL     1      -6.988  -1.114  -1.791  1.00  0.00     0.041 C 
ATOM     12  C   UNL     1      -6.450   0.125  -2.458  1.00  0.00    -0.030 C 
BRANCH   8  13
ATOM     13  C   UNL     1      -7.674   0.445   1.207  1.00  0.00     0.229 C 
ATOM     14  N   UNL     1      -6.423   0.078   1.624  1.00  0.00    -0.317 N 
ATOM     15  H   UNL     1      -6.405  -0.385   2.493  1.00  0.00     0.170 HD
ATOM     16  O   UNL     1      -8.434   0.766   2.140  1.00  0.00    -0.274 OA
BRANCH  14  17
ATOM     17  C   UNL     1      -5.182   0.242   1.042  1.00  0.00     0.109 A 
ATOM     18  C   UNL     1      -2.954   0.235   0.336  1.00  0.00     0.010 A 
ATOM     19  C   UNL     1      -3.565   1.117  -0.544  1.00  0.00     0.012 A 
ATOM     20  C   UNL     1      -3.919  -0.304   1.312  1.00  0.00     0.082 A 
ATOM     21  C   UNL     1      -3.128   1.704  -1.844  1.00  0.00     0.057 C 
ATOM     22  S   UNL     1      -4.976   1.697   0.190  1.00  0.00    -0.122 S 
BRANCH  18  23
ATOM     23  C   UNL     1      -1.506   0.051   0.241  1.00  0.00    -0.016 A 
ATOM     24  C   UNL     1       2.788  -0.216  -0.084  1.00  0.00     0.044 C 
ATOM     25  C   UNL     1       1.295  -0.121   0.000  1.00  0.00    -0.051 A 
ATOM     26  C   UNL     1       0.494  -1.272  -0.078  1.00  0.00     0.004 A 
ATOM     27  C   UNL     1       0.685   1.117   0.207  1.00  0.00     0.004 A 
ATOM     28  C   UNL     1      -0.902  -1.188   0.032  1.00  0.00     0.009 A 
ATOM     29  C   UNL     1      -0.697   1.196   0.342  1.00  0.00     0.009 A 
ENDBRANCH  18  23
BRANCH  20  30
ATOM     30  C   UNL     1      -3.559  -1.246   2.384  1.00  0.00     0.252 C 
ATOM     31  N   UNL     1      -4.558  -1.848   3.090  1.00  0.00    -0.365 N 
ATOM     32  O   UNL     1      -2.394  -1.511   2.682  1.00  0.00    -0.269 OA
ATOM     33  H   UNL     1      -5.499  -1.656   2.874  1.00  0.00     0.159 HD
ATOM     34  H   UNL     1      -4.337  -2.476   3.816  1.00  0.00     0.159 HD
ENDBRANCH  20  30
ENDBRANCH  14  17
ENDBRANCH   8  13
ENDBRANCH   4   7
ENDBRANCH   2   3
ENDBRANCH   1   2
BRANCH   1  35
ATOM     35  C   UNL     1     -10.061  -3.161   2.905  1.00  0.00     0.023 C 
BRANCH  35  36
ATOM     36  C   UNL     1      -9.467  -4.516   3.196  1.00  0.00     0.116 C 
BRANCH  36  37
ATOM     37  N   UNL     1      -8.245  -4.375   3.942  1.00  0.00    -0.352 N 
ATOM     38  C   UNL     1      -7.379  -5.300   4.429  1.00  0.00     0.251 C 
ATOM     39  H   UNL     1      -7.991  -3.443   4.132  1.00  0.00     0.163 HD
ATOM     40  O   UNL     1      -6.267  -4.859   4.715  1.00  0.00    -0.269 OA
BRANCH  38  41
ATOM     41  C   UNL     1      -7.691  -6.764   4.379  1.00  0.00     0.039 A 
ATOM     42  C   UNL     1      -6.759  -7.526   5.095  1.00  0.00     0.014 A 
ATOM     43  C   UNL     1      -8.076  -7.191   3.111  1.00  0.00     0.014 A 
ATOM     44  C   UNL     1      -5.852  -8.284   4.389  1.00  0.00     0.010 A 
ATOM     45  C   UNL     1      -7.128  -7.817   2.365  1.00  0.00     0.010 A 
ATOM     46  C   UNL     1      -5.978  -8.261   3.014  1.00  0.00    -0.014 A 
BRANCH  46  47
ATOM     47  C   UNL     1      -4.951  -8.679   2.107  1.00  0.00     0.031 A 
ATOM     48  C   UNL     1      -5.067 -10.064   1.666  1.00  0.00     0.074 A 
ATOM     49  C   UNL     1      -4.210  -7.662   1.619  1.00  0.00     0.049 A 
ATOM     50  N   UNL     1      -4.135 -10.741   1.115  1.00  0.00    -0.248 NA
ATOM     51  C   UNL     1      -6.283 -10.853   1.906  1.00  0.00     0.031 C 
ATOM     52  C   UNL     1      -3.360  -7.558   0.444  1.00  0.00     0.029 A 
ATOM     53  N   UNL     1      -3.917  -6.504   2.347  1.00  0.00    -0.354 N 
ATOM     54  C   UNL     1      -4.766 -11.816   0.528  1.00  0.00     0.074 A 
ATOM     55  C   UNL     1      -6.012 -11.967   1.228  1.00  0.00     0.031 C 
ATOM     56  C   UNL     1      -2.445  -6.590   0.670  1.00  0.00     0.029 A 
ATOM     57  C   UNL     1      -2.586  -6.186   2.070  1.00  0.00     0.049 A 
ATOM     58  H   UNL     1      -4.529  -6.009   2.938  1.00  0.00     0.167 HD
ATOM     59  C   UNL     1      -4.274 -12.263  -0.658  1.00  0.00     0.031 A 
ATOM     60  C   UNL     1      -1.664  -6.473   3.043  1.00  0.00     0.031 A 
ATOM     61  C   UNL     1      -3.036 -11.543  -0.978  1.00  0.00     0.049 A 
ATOM     62  C   UNL     1      -0.741  -7.606   2.612  1.00  0.00     0.074 A 
ATOM     63  C   UNL     1      -2.736 -10.508  -1.850  1.00  0.00     0.029 A 
ATOM     64  N   UNL     1      -2.006 -11.568  -0.044  1.00  0.00    -0.354 N 
ATOM     65  N   UNL     1      -1.059  -8.584   1.800  1.00  0.00    -0.248 NA
ATOM     66  C   UNL     1       0.656  -7.653   3.015  1.00  0.00     0.031 C 
ATOM     67  C   UNL     1      -1.541  -9.876  -1.384  1.00  0.00     0.029 A 
ATOM     68  C   UNL     1      -1.118 -10.527  -0.236  1.00  0.00     0.049 A 
ATOM     69  H   UNL     1      -1.920 -12.244   0.667  1.00  0.00     0.167 HD
ATOM     70  C   UNL     1       0.055  -9.345   1.521  1.00  0.00     0.074 A 
ATOM     71  C   UNL     1       1.095  -8.720   2.326  1.00  0.00     0.031 C 
ATOM     72  C   UNL     1       0.039 -10.410   0.653  1.00  0.00     0.031 A 
BRANCH  59  73
ATOM     73  C   UNL     1      -5.056 -13.101  -1.643  1.00  0.00    -0.014 A 
ATOM     74  C   UNL     1      -4.587 -13.209  -2.966  1.00  0.00     0.010 A 
ATOM     75  C   UNL     1      -6.263 -13.775  -1.361  1.00  0.00     0.010 A 
ATOM     76  C   UNL     1      -5.288 -13.922  -3.950  1.00  0.00     0.020 A 
ATOM     77  C   UNL     1      -6.984 -14.480  -2.336  1.00  0.00     0.020 A 
ATOM     78  C   UNL     1      -6.486 -14.553  -3.629  1.00  0.00     0.054 A 
BRANCH  78  79
ATOM     79  S   UNL     1      -7.360 -15.494  -4.903  1.00  0.00     0.124 S 
ATOM     80  O   UNL     1      -7.636 -14.475  -5.912  1.00  0.00    -0.237 OA
ATOM     81  O   UNL     1      -6.374 -16.503  -5.277  1.00  0.00    -0.237 OA
ATOM     82  O   UNL     1      -8.540 -16.009  -4.209  1.00  0.00    -0.744 OA
ENDBRANCH  78  79
ENDBRANCH  59  73
BRANCH  60  83
ATOM     83  C   UNL     1      -2.156  -6.230   4.454  1.00  0.00    -0.014 A 
ATOM     84  C   UNL     1      -2.583  -4.927   4.817  1.00  0.00     0.010 A 
ATOM     85  C   UNL     1      -2.488  -7.280   5.327  1.00  0.00     0.010 A 
ATOM     86  C   UNL     1      -3.403  -4.701   5.939  1.00  0.00     0.020 A 
ATOM     87  C   UNL     1      -3.301  -7.053   6.463  1.00  0.00     0.020 A 
ATOM     88  C   UNL     1      -3.802  -5.774   6.734  1.00  0.00     0.054 A 
BRANCH  88  89
ATOM     89  S   UNL     1      -4.925  -5.486   8.155  1.00  0.00     0.124 S 
ATOM     90  O   UNL     1      -4.545  -4.151   8.613  1.00  0.00    -0.237 OA
ATOM     91  O   UNL     1      -6.268  -5.577   7.591  1.00  0.00    -0.237 OA
ATOM     92  O   UNL     1      -4.580  -6.571   9.071  1.00  0.00    -0.744 OA
ENDBRANCH  88  89
ENDBRANCH  60  83
BRANCH  72  93
ATOM     93  C   UNL     1       1.094 -11.510   0.536  1.00  0.00    -0.014 A 
ATOM     94  C   UNL     1       2.325 -11.535   1.198  1.00  0.00     0.010 A 
ATOM     95  C   UNL     1       0.793 -12.667  -0.238  1.00  0.00     0.010 A 
ATOM     96  C   UNL     1       3.182 -12.643   1.125  1.00  0.00     0.020 A 
ATOM     97  C   UNL     1       1.613 -13.796  -0.285  1.00  0.00     0.020 A 
ATOM     98  C   UNL     1       2.813 -13.773   0.399  1.00  0.00     0.054 A 
BRANCH  98  99
ATOM     99  S   UNL     1       3.917 -15.199   0.373  1.00  0.00     0.124 S 
ATOM    100  O   UNL     1       5.063 -14.680  -0.368  1.00  0.00    -0.237 OA
ATOM    101  O   UNL     1       4.146 -15.443   1.795  1.00  0.00    -0.237 OA
ATOM    102  O   UNL     1       3.143 -16.229  -0.316  1.00  0.00    -0.744 OA
ENDBRANCH  98  99
ENDBRANCH  72  93
ENDBRANCH  46  47
ENDBRANCH  38  41
ENDBRANCH  36  37
ENDBRANCH  35  36
ENDBRANCH   1  35
TORSDOF 18
