REMARK SMILES C[C@@H](C(=O)NCCCCNC(=O)c1ccc(-c2c3nc(c(-c4ccc(S(=O)(=O)[O-])cc4)c4ccc([nH]4)c(-c4ccc(S(=O)(=O)[O-])cc4)c4nc(c(-c5ccc(S(=O)(=O)[O-])cc5)c5ccc2[nH]5)C=C4)C=C3)cc1)c1ccc(-c2cccc(OC(=O)NCCCc3ccccc3)c2)c(F)c1
REMARK SMILES IDX 3 1 4 2 5 3 2 5 1 6 73 7 74 8 98 9 75 10 96 11 76 12 97 13
REMARK SMILES IDX 77 14 78 15 95 16 79 17 81 18 80 19 82 20 83 21 84 22 85 23
REMARK SMILES IDX 86 25 87 26 88 27 89 28 90 29 94 30 91 31 93 32 92 33 6 34
REMARK SMILES IDX 7 35 8 36 9 37 10 38 11 39 12 41 13 42 14 43 72 44 15 45
REMARK SMILES IDX 71 46 16 47 17 48 18 49 65 50 19 51 70 52 64 53 66 54 20 55
REMARK SMILES IDX 69 56 63 57 62 58 21 60 51 61 32 62 50 63 33 64 36 65 49 66
REMARK SMILES IDX 67 67 34 68 35 69 48 71 68 72 37 73 22 74 23 75 31 76 24 77
REMARK SMILES IDX 30 78 25 79 26 80 27 81 28 82 29 83 52 84 53 85 61 86 54 87
REMARK SMILES IDX 60 88 55 89 56 90 57 91 58 92 59 93 38 94 39 95 47 96 40 97
REMARK SMILES IDX 46 98 41 99 42 100 43 101 44 102 45 103
REMARK H PARENT 5 4 85 24 10 40 66 59 36 70
REMARK Flexibility Score: inf
ROOT
ATOM      1  C   UNL     1       1.249  -0.483  -2.472  1.00  0.00     0.227 C 
ATOM      2  O   UNL     1       0.618  -1.164  -3.282  1.00  0.00    -0.274 OA
ATOM      3  N   UNL     1       2.599  -0.430  -2.651  1.00  0.00    -0.356 N 
ATOM      4  H   UNL     1       2.930  -0.911  -3.443  1.00  0.00     0.163 HD
ENDROOT
BRANCH   1   5
ATOM      5  C   UNL     1       0.587   0.322  -1.339  1.00  0.00     0.105 C 
ATOM      6  C   UNL     1       0.928  -0.211   0.057  1.00  0.00     0.023 C 
BRANCH   5   7
ATOM      7  C   UNL     1      -0.931   0.376  -1.468  1.00  0.00    -0.033 A 
ATOM      8  C   UNL     1      -1.604   1.605  -1.502  1.00  0.00     0.005 A 
ATOM      9  C   UNL     1      -1.685  -0.805  -1.486  1.00  0.00     0.044 A 
ATOM     10  C   UNL     1      -3.003   1.650  -1.516  1.00  0.00     0.012 A 
ATOM     11  C   UNL     1      -3.071  -0.752  -1.509  1.00  0.00     0.131 A 
ATOM     12  C   UNL     1      -3.760   0.468  -1.494  1.00  0.00     0.018 A 
ATOM     13  F   UNL     1      -3.746  -1.913  -1.504  1.00  0.00    -0.206 F 
BRANCH  12  14
ATOM     14  C   UNL     1      -5.219   0.498  -1.342  1.00  0.00    -0.012 A 
ATOM     15  C   UNL     1      -6.057   1.195  -2.223  1.00  0.00     0.009 A 
ATOM     16  C   UNL     1      -5.802  -0.189  -0.264  1.00  0.00     0.056 A 
ATOM     17  C   UNL     1      -7.443   1.196  -2.034  1.00  0.00     0.004 A 
ATOM     18  C   UNL     1      -7.176  -0.176  -0.068  1.00  0.00     0.133 A 
ATOM     19  C   UNL     1      -8.004   0.510  -0.956  1.00  0.00     0.047 A 
BRANCH  18  20
ATOM     20  O   UNL     1      -7.827  -0.869   0.978  1.00  0.00    -0.410 OA
BRANCH  20  21
ATOM     21  C   UNL     1      -7.196  -1.450   2.077  1.00  0.00     0.412 C 
ATOM     22  O   UNL     1      -6.006  -1.393   2.359  1.00  0.00    -0.224 OA
ATOM     23  N   UNL     1      -8.062  -2.115   2.899  1.00  0.00    -0.321 N 
ATOM     24  H   UNL     1      -7.671  -2.657   3.622  1.00  0.00     0.167 HD
BRANCH  23  25
ATOM     25  C   UNL     1      -9.499  -2.091   2.796  1.00  0.00     0.120 C 
BRANCH  25  26
ATOM     26  C   UNL     1     -10.196  -3.338   3.336  1.00  0.00     0.026 C 
BRANCH  26  27
ATOM     27  C   UNL     1      -9.637  -3.998   4.603  1.00  0.00     0.037 C 
BRANCH  27  28
ATOM     28  C   UNL     1      -9.780  -3.328   5.951  1.00  0.00    -0.048 A 
ATOM     29  C   UNL     1      -9.995  -1.960   6.143  1.00  0.00     0.004 A 
ATOM     30  C   UNL     1      -9.621  -4.134   7.094  1.00  0.00     0.004 A 
ATOM     31  C   UNL     1     -10.045  -1.413   7.430  1.00  0.00     0.000 A 
ATOM     32  C   UNL     1      -9.681  -3.592   8.379  1.00  0.00     0.000 A 
ATOM     33  C   UNL     1      -9.889  -2.228   8.547  1.00  0.00     0.000 A 
ENDBRANCH  27  28
ENDBRANCH  26  27
ENDBRANCH  25  26
ENDBRANCH  23  25
ENDBRANCH  20  21
ENDBRANCH  18  20
ENDBRANCH  12  14
ENDBRANCH   5   7
ENDBRANCH   1   5
BRANCH   3  34
ATOM     34  C   UNL     1       3.622   0.220  -1.862  1.00  0.00     0.116 C 
BRANCH  34  35
ATOM     35  C   UNL     1       4.402  -0.795  -1.026  1.00  0.00     0.023 C 
BRANCH  35  36
ATOM     36  C   UNL     1       5.176  -1.834  -1.841  1.00  0.00     0.023 C 
BRANCH  36  37
ATOM     37  C   UNL     1       6.129  -1.263  -2.884  1.00  0.00     0.116 C 
BRANCH  37  38
ATOM     38  N   UNL     1       7.119  -0.363  -2.309  1.00  0.00    -0.352 N 
ATOM     39  C   UNL     1       8.481  -0.344  -2.497  1.00  0.00     0.251 C 
ATOM     40  H   UNL     1       6.765   0.326  -1.702  1.00  0.00     0.163 HD
ATOM     41  O   UNL     1       9.187   0.401  -1.826  1.00  0.00    -0.269 OA
BRANCH  39  42
ATOM     42  C   UNL     1       9.085  -1.259  -3.487  1.00  0.00     0.039 A 
ATOM     43  C   UNL     1      10.135  -2.088  -3.085  1.00  0.00     0.014 A 
ATOM     44  C   UNL     1       8.573  -1.340  -4.785  1.00  0.00     0.014 A 
ATOM     45  C   UNL     1      10.609  -3.069  -3.959  1.00  0.00     0.010 A 
ATOM     46  C   UNL     1       9.005  -2.357  -5.631  1.00  0.00     0.010 A 
ATOM     47  C   UNL     1      10.010  -3.246  -5.218  1.00  0.00    -0.014 A 
BRANCH  47  48
ATOM     48  C   UNL     1      10.362  -4.399  -6.086  1.00  0.00     0.031 A 
ATOM     49  C   UNL     1      10.986  -4.173  -7.435  1.00  0.00     0.074 A 
ATOM     50  C   UNL     1      10.020  -5.644  -5.695  1.00  0.00     0.049 A 
ATOM     51  N   UNL     1      11.256  -5.047  -8.370  1.00  0.00    -0.248 NA
ATOM     52  C   UNL     1      11.331  -2.787  -7.790  1.00  0.00     0.031 C 
ATOM     53  C   UNL     1       9.368  -5.987  -4.428  1.00  0.00     0.029 A 
ATOM     54  N   UNL     1      10.150  -6.853  -6.334  1.00  0.00    -0.354 N 
ATOM     55  C   UNL     1      11.779  -4.318  -9.431  1.00  0.00     0.074 A 
ATOM     56  C   UNL     1      11.767  -2.927  -9.036  1.00  0.00     0.031 C 
ATOM     57  C   UNL     1       9.158  -7.312  -4.382  1.00  0.00     0.029 A 
ATOM     58  C   UNL     1       9.615  -7.910  -5.632  1.00  0.00     0.049 A 
ATOM     59  H   UNL     1      10.585  -6.955  -7.211  1.00  0.00     0.167 HD
ATOM     60  C   UNL     1      12.235  -4.772 -10.622  1.00  0.00     0.031 A 
ATOM     61  C   UNL     1       9.478  -9.208  -5.966  1.00  0.00     0.031 A 
ATOM     62  C   UNL     1      12.264  -6.160 -11.001  1.00  0.00     0.049 A 
ATOM     63  C   UNL     1       9.977  -9.677  -7.306  1.00  0.00     0.074 A 
ATOM     64  C   UNL     1      12.794  -6.722 -12.150  1.00  0.00     0.029 A 
ATOM     65  N   UNL     1      11.732  -7.199 -10.256  1.00  0.00    -0.354 N 
ATOM     66  N   UNL     1      10.566  -8.986  -8.252  1.00  0.00    -0.248 NA
ATOM     67  C   UNL     1       9.793 -11.100  -7.625  1.00  0.00     0.031 C 
ATOM     68  C   UNL     1      12.523  -8.092 -12.131  1.00  0.00     0.029 A 
ATOM     69  C   UNL     1      11.879  -8.393 -10.942  1.00  0.00     0.049 A 
ATOM     70  H   UNL     1      11.312  -7.104  -9.371  1.00  0.00     0.167 HD
ATOM     71  C   UNL     1      10.837  -9.894  -9.269  1.00  0.00     0.074 A 
ATOM     72  C   UNL     1      10.373 -11.187  -8.814  1.00  0.00     0.031 C 
ATOM     73  C   UNL     1      11.413  -9.674 -10.476  1.00  0.00     0.031 A 
BRANCH  60  74
ATOM     74  C   UNL     1      12.738  -3.766 -11.622  1.00  0.00    -0.014 A 
ATOM     75  C   UNL     1      13.976  -3.123 -11.447  1.00  0.00     0.010 A 
ATOM     76  C   UNL     1      12.012  -3.547 -12.808  1.00  0.00     0.010 A 
ATOM     77  C   UNL     1      14.474  -2.271 -12.436  1.00  0.00     0.020 A 
ATOM     78  C   UNL     1      12.518  -2.714 -13.809  1.00  0.00     0.020 A 
ATOM     79  C   UNL     1      13.745  -2.077 -13.614  1.00  0.00     0.054 A 
BRANCH  79  80
ATOM     80  S   UNL     1      14.455  -1.025 -14.911  1.00  0.00     0.124 S 
ATOM     81  O   UNL     1      14.330   0.305 -14.321  1.00  0.00    -0.237 OA
ATOM     82  O   UNL     1      15.819  -1.536 -15.025  1.00  0.00    -0.237 OA
ATOM     83  O   UNL     1      13.600  -1.275 -16.069  1.00  0.00    -0.744 OA
ENDBRANCH  79  80
ENDBRANCH  60  74
BRANCH  61  84
ATOM     84  C   UNL     1       8.803 -10.157  -5.037  1.00  0.00    -0.014 A 
ATOM     85  C   UNL     1       9.523 -11.195  -4.420  1.00  0.00     0.010 A 
ATOM     86  C   UNL     1       7.422 -10.044  -4.789  1.00  0.00     0.010 A 
ATOM     87  C   UNL     1       8.870 -12.124  -3.605  1.00  0.00     0.020 A 
ATOM     88  C   UNL     1       6.771 -10.951  -3.949  1.00  0.00     0.020 A 
ATOM     89  C   UNL     1       7.496 -11.999  -3.379  1.00  0.00     0.054 A 
BRANCH  89  90
ATOM     90  S   UNL     1       6.669 -13.208  -2.309  1.00  0.00     0.124 S 
ATOM     91  O   UNL     1       6.602 -14.381  -3.174  1.00  0.00    -0.237 OA
ATOM     92  O   UNL     1       7.586 -13.308  -1.176  1.00  0.00    -0.237 OA
ATOM     93  O   UNL     1       5.386 -12.576  -2.008  1.00  0.00    -0.744 OA
ENDBRANCH  89  90
ENDBRANCH  61  84
BRANCH  73  94
ATOM     94  C   UNL     1      11.590 -10.857 -11.389  1.00  0.00    -0.014 A 
ATOM     95  C   UNL     1      10.489 -11.436 -12.045  1.00  0.00     0.010 A 
ATOM     96  C   UNL     1      12.881 -11.351 -11.649  1.00  0.00     0.010 A 
ATOM     97  C   UNL     1      10.675 -12.500 -12.931  1.00  0.00     0.020 A 
ATOM     98  C   UNL     1      13.074 -12.397 -12.556  1.00  0.00     0.020 A 
ATOM     99  C   UNL     1      11.967 -12.971 -13.184  1.00  0.00     0.054 A 
BRANCH  99 100
ATOM    100  S   UNL     1      12.185 -14.311 -14.386  1.00  0.00     0.124 S 
ATOM    101  O   UNL     1      11.673 -15.465 -13.652  1.00  0.00    -0.237 OA
ATOM    102  O   UNL     1      11.367 -13.868 -15.512  1.00  0.00    -0.237 OA
ATOM    103  O   UNL     1      13.625 -14.322 -14.636  1.00  0.00    -0.744 OA
ENDBRANCH  99 100
ENDBRANCH  73  94
ENDBRANCH  47  48
ENDBRANCH  39  42
ENDBRANCH  37  38
ENDBRANCH  36  37
ENDBRANCH  35  36
ENDBRANCH  34  35
ENDBRANCH   3  34
TORSDOF 22
