REMARK SMILES CC(C)[C@H](CO)NS(=O)(=O)c1ccc(C(=O)NCCCCNC(=O)c2ccc(-c3c4nc(c(-c5ccc(S(=O)(=O)[O-])cc5)c5ccc([nH]5)c(-c5ccc(S(=O)(=O)[O-])cc5)c5nc(c(-c6ccc(S(=O)(=O)[O-])cc6)c6ccc3[nH]6)C=C5)C=C4)cc2)cn1
REMARK SMILES IDX 18 1 17 2 15 3 16 4 14 6 11 7 12 8 86 9 13 10 85 11 8 12
REMARK SMILES IDX 9 13 10 14 7 15 4 17 2 18 1 19 3 20 5 21 6 22 19 24 20 25
REMARK SMILES IDX 21 26 22 27 23 28 24 30 25 31 26 32 84 33 27 34 83 35 28 36
REMARK SMILES IDX 29 37 30 38 77 39 31 40 82 41 76 42 78 43 32 44 81 45 75 46
REMARK SMILES IDX 74 47 33 49 63 50 44 51 62 52 45 53 48 54 61 55 79 56 46 57
REMARK SMILES IDX 47 58 60 60 80 61 49 62 34 63 35 64 43 65 36 66 42 67 37 68
REMARK SMILES IDX 38 69 39 70 40 71 41 72 64 73 65 74 73 75 66 76 72 77 67 78
REMARK SMILES IDX 68 79 69 80 70 81 71 82 50 83 51 84 59 85 52 86 58 87 53 88
REMARK SMILES IDX 54 89 55 90 56 91 57 92
REMARK H PARENT 17 5 7 16 6 23 22 29 78 48 48 59
REMARK Flexibility Score: inf
ROOT
ATOM      1  C   UNL     1      -4.668  -6.358   2.601  1.00  0.00     0.116 C 
ENDROOT
BRANCH   1   2
ATOM      2  N   UNL     1      -4.850  -5.090   3.279  1.00  0.00    -0.352 N 
ATOM      3  C   UNL     1      -4.744  -3.798   2.836  1.00  0.00     0.252 C 
ATOM      4  O   UNL     1      -4.991  -2.891   3.630  1.00  0.00    -0.269 OA
ATOM      5  H   UNL     1      -5.094  -5.172   4.229  1.00  0.00     0.163 HD
BRANCH   3   6
ATOM      6  C   UNL     1      -4.372  -3.436   1.446  1.00  0.00     0.058 A 
ATOM      7  C   UNL     1      -3.778  -2.488  -1.054  1.00  0.00     0.170 A 
ATOM      8  C   UNL     1      -3.275  -3.728  -0.693  1.00  0.00     0.043 A 
ATOM      9  N   UNL     1      -4.534  -1.700  -0.252  1.00  0.00    -0.243 NA
ATOM     10  C   UNL     1      -3.562  -4.189   0.590  1.00  0.00     0.018 A 
ATOM     11  C   UNL     1      -4.817  -2.201   0.975  1.00  0.00     0.126 A 
BRANCH   7  12
ATOM     12  S   UNL     1      -3.283  -1.768  -2.611  1.00  0.00     0.258 S 
ATOM     13  O   UNL     1      -3.928  -0.491  -2.826  1.00  0.00    -0.205 OA
ATOM     14  O   UNL     1      -3.351  -2.801  -3.620  1.00  0.00    -0.205 OA
BRANCH  12  15
ATOM     15  N   UNL     1      -1.630  -1.464  -2.391  1.00  0.00    -0.204 NA
ATOM     16  H   UNL     1      -1.171  -2.374  -2.360  1.00  0.00     0.141 HD
BRANCH  15  17
ATOM     17  C   UNL     1      -1.127  -0.693  -1.200  1.00  0.00     0.098 C 
BRANCH  17  18
ATOM     18  C   UNL     1      -1.400   0.832  -1.359  1.00  0.00     0.003 C 
ATOM     19  C   UNL     1      -2.598   1.251  -0.487  1.00  0.00     0.009 C 
ATOM     20  C   UNL     1      -0.230   1.746  -0.979  1.00  0.00     0.009 C 
ENDBRANCH  17  18
BRANCH  17  21
ATOM     21  C   UNL     1       0.364  -1.105  -1.067  1.00  0.00     0.176 C 
BRANCH  21  22
ATOM     22  O   UNL     1       1.006  -1.138  -2.344  1.00  0.00    -0.395 OA
ATOM     23  H   UNL     1       0.566  -1.789  -2.911  1.00  0.00     0.210 HD
ENDBRANCH  21  22
ENDBRANCH  17  21
ENDBRANCH  15  17
ENDBRANCH  12  15
ENDBRANCH   7  12
ENDBRANCH   3   6
ENDBRANCH   1   2
BRANCH   1  24
ATOM     24  C   UNL     1      -3.256  -6.896   2.838  1.00  0.00     0.023 C 
BRANCH  24  25
ATOM     25  C   UNL     1      -3.077  -7.638   4.165  1.00  0.00     0.023 C 
BRANCH  25  26
ATOM     26  C   UNL     1      -3.920  -8.900   4.311  1.00  0.00     0.116 C 
BRANCH  26  27
ATOM     27  N   UNL     1      -3.707  -9.858   3.238  1.00  0.00    -0.352 N 
ATOM     28  C   UNL     1      -3.851 -11.223   3.269  1.00  0.00     0.251 C 
ATOM     29  H   UNL     1      -3.422  -9.478   2.376  1.00  0.00     0.163 HD
ATOM     30  O   UNL     1      -3.519 -11.893   2.296  1.00  0.00    -0.269 OA
BRANCH  28  31
ATOM     31  C   UNL     1      -4.363 -11.877   4.491  1.00  0.00     0.039 A 
ATOM     32  C   UNL     1      -3.689 -12.998   4.981  1.00  0.00     0.014 A 
ATOM     33  C   UNL     1      -5.491 -11.386   5.154  1.00  0.00     0.014 A 
ATOM     34  C   UNL     1      -4.121 -13.598   6.164  1.00  0.00     0.010 A 
ATOM     35  C   UNL     1      -5.877 -11.942   6.370  1.00  0.00     0.010 A 
ATOM     36  C   UNL     1      -5.203 -13.061   6.880  1.00  0.00    -0.014 A 
BRANCH  36  37
ATOM     37  C   UNL     1      -5.654 -13.677   8.153  1.00  0.00     0.031 A 
ATOM     38  C   UNL     1      -7.012 -14.318   8.242  1.00  0.00     0.074 A 
ATOM     39  C   UNL     1      -4.857 -13.621   9.238  1.00  0.00     0.049 A 
ATOM     40  N   UNL     1      -7.582 -14.902   9.264  1.00  0.00    -0.248 NA
ATOM     41  C   UNL     1      -7.850 -14.275   7.032  1.00  0.00     0.031 C 
ATOM     42  C   UNL     1      -3.542 -12.977   9.293  1.00  0.00     0.029 A 
ATOM     43  N   UNL     1      -5.037 -14.116  10.504  1.00  0.00    -0.354 N 
ATOM     44  C   UNL     1      -8.846 -15.280   8.828  1.00  0.00     0.074 A 
ATOM     45  C   UNL     1      -8.981 -14.813   7.466  1.00  0.00     0.031 C 
ATOM     46  C   UNL     1      -3.021 -13.145  10.519  1.00  0.00     0.029 A 
ATOM     47  C   UNL     1      -3.973 -13.884  11.343  1.00  0.00     0.049 A 
ATOM     48  H   UNL     1      -5.851 -14.592  10.786  1.00  0.00     0.167 HD
ATOM     49  C   UNL     1      -9.802 -15.973   9.492  1.00  0.00     0.031 A 
ATOM     50  C   UNL     1      -3.781 -14.236  12.629  1.00  0.00     0.031 A 
ATOM     51  C   UNL     1      -9.658 -16.453  10.840  1.00  0.00     0.049 A 
ATOM     52  C   UNL     1      -4.840 -15.039  13.332  1.00  0.00     0.074 A 
ATOM     53  C   UNL     1     -10.546 -17.209  11.585  1.00  0.00     0.029 A 
ATOM     54  N   UNL     1      -8.551 -16.228  11.644  1.00  0.00    -0.354 N 
ATOM     55  N   UNL     1      -6.005 -15.442  12.881  1.00  0.00    -0.248 NA
ATOM     56  C   UNL     1      -4.547 -15.457  14.710  1.00  0.00     0.031 C 
ATOM     57  C   UNL     1      -9.989 -17.413  12.853  1.00  0.00     0.029 A 
ATOM     58  C   UNL     1      -8.734 -16.825  12.879  1.00  0.00     0.049 A 
ATOM     59  H   UNL     1      -7.752 -15.719  11.375  1.00  0.00     0.167 HD
ATOM     60  C   UNL     1      -6.569 -16.188  13.910  1.00  0.00     0.074 A 
ATOM     61  C   UNL     1      -5.612 -16.191  14.998  1.00  0.00     0.031 C 
ATOM     62  C   UNL     1      -7.770 -16.817  13.950  1.00  0.00     0.031 A 
BRANCH  49  63
ATOM     63  C   UNL     1     -11.088 -16.254   8.759  1.00  0.00    -0.014 A 
ATOM     64  C   UNL     1     -11.127 -17.166   7.689  1.00  0.00     0.010 A 
ATOM     65  C   UNL     1     -12.276 -15.619   9.160  1.00  0.00     0.010 A 
ATOM     66  C   UNL     1     -12.321 -17.403   7.003  1.00  0.00     0.020 A 
ATOM     67  C   UNL     1     -13.479 -15.874   8.495  1.00  0.00     0.020 A 
ATOM     68  C   UNL     1     -13.489 -16.750   7.407  1.00  0.00     0.054 A 
BRANCH  68  69
ATOM     69  S   UNL     1     -15.029 -17.087   6.510  1.00  0.00     0.124 S 
ATOM     70  O   UNL     1     -14.825 -16.338   5.272  1.00  0.00    -0.237 OA
ATOM     71  O   UNL     1     -15.011 -18.541   6.373  1.00  0.00    -0.237 OA
ATOM     72  O   UNL     1     -16.066 -16.560   7.393  1.00  0.00    -0.744 OA
ENDBRANCH  68  69
ENDBRANCH  49  63
BRANCH  50  73
ATOM     73  C   UNL     1      -2.516 -13.868  13.320  1.00  0.00    -0.014 A 
ATOM     74  C   UNL     1      -1.551 -14.849  13.609  1.00  0.00     0.010 A 
ATOM     75  C   UNL     1      -2.265 -12.533  13.682  1.00  0.00     0.010 A 
ATOM     76  C   UNL     1      -0.368 -14.506  14.270  1.00  0.00     0.020 A 
ATOM     77  C   UNL     1      -1.072 -12.182  14.320  1.00  0.00     0.020 A 
ATOM     78  C   UNL     1      -0.136 -13.174  14.622  1.00  0.00     0.054 A 
BRANCH  78  79
ATOM     79  S   UNL     1       1.427 -12.741  15.435  1.00  0.00     0.124 S 
ATOM     80  O   UNL     1       1.204 -13.218  16.795  1.00  0.00    -0.237 OA
ATOM     81  O   UNL     1       2.409 -13.489  14.653  1.00  0.00    -0.237 OA
ATOM     82  O   UNL     1       1.499 -11.289  15.282  1.00  0.00    -0.744 OA
ENDBRANCH  78  79
ENDBRANCH  50  73
BRANCH  62  83
ATOM     83  C   UNL     1      -8.094 -17.598  15.195  1.00  0.00    -0.014 A 
ATOM     84  C   UNL     1      -8.399 -16.951  16.406  1.00  0.00     0.010 A 
ATOM     85  C   UNL     1      -8.111 -19.003  15.143  1.00  0.00     0.010 A 
ATOM     86  C   UNL     1      -8.666 -17.698  17.556  1.00  0.00     0.020 A 
ATOM     87  C   UNL     1      -8.404 -19.753  16.285  1.00  0.00     0.020 A 
ATOM     88  C   UNL     1      -8.659 -19.095  17.489  1.00  0.00     0.054 A 
BRANCH  88  89
ATOM     89  S   UNL     1      -9.016 -20.047  18.991  1.00  0.00     0.124 S 
ATOM     90  O   UNL     1      -7.755 -19.945  19.721  1.00  0.00    -0.237 OA
ATOM     91  O   UNL     1     -10.141 -19.319  19.575  1.00  0.00    -0.237 OA
ATOM     92  O   UNL     1      -9.340 -21.379  18.487  1.00  0.00    -0.744 OA
ENDBRANCH  88  89
ENDBRANCH  62  83
ENDBRANCH  36  37
ENDBRANCH  28  31
ENDBRANCH  26  27
ENDBRANCH  25  26
ENDBRANCH  24  25
ENDBRANCH   1  24
TORSDOF 20
