REMARK SMILES CN1C(=O)N(CC(=O)NCCCCNC(=O)c2ccc(-c3c4nc(c(-c5ccc(S(=O)(=O)[O-])cc5)c5ccc([nH]5)c(-c5ccc(S(=O)(=O)[O-])cc5)c5nc(c(-c6ccc(S(=O)(=O)[O-])cc6)c6ccc3[nH]6)C=C5)C=C4)cc2)C(=O)C12CCCCC2
REMARK SMILES IDX 12 1 11 2 10 3 9 4 7 5 8 6 6 8 5 9 1 10 2 11 3 12 79 13 4 14
REMARK SMILES IDX 77 15 80 16 84 17 78 18 81 19 83 20 82 21 13 22 14 23 15 24
REMARK SMILES IDX 16 26 17 27 18 28 76 29 19 30 75 31 20 32 21 33 22 34 69 35
REMARK SMILES IDX 23 36 74 37 68 38 70 39 24 40 73 41 67 42 66 43 25 45 55 46
REMARK SMILES IDX 36 47 54 48 37 49 40 50 53 51 71 52 38 53 39 54 52 56 72 57
REMARK SMILES IDX 41 58 26 59 27 60 35 61 28 62 34 63 29 64 30 65 31 66 32 67
REMARK SMILES IDX 33 68 56 69 57 70 65 71 58 72 64 73 59 74 60 75 61 76 62 77
REMARK SMILES IDX 63 78 42 79 43 80 51 81 44 82 50 83 45 84 46 85 47 86 48 87
REMARK SMILES IDX 49 88
REMARK H PARENT 9 7 14 25 70 44 40 55
REMARK Flexibility Score: inf
ROOT
ATOM      1  C   UNL     1      -3.512  -2.608   0.731  1.00  0.00     0.023 C 
ENDROOT
BRANCH   1   2
ATOM      2  C   UNL     1      -2.548  -2.332  -0.409  1.00  0.00     0.023 C 
BRANCH   2   3
ATOM      3  C   UNL     1      -3.160  -2.146  -1.794  1.00  0.00     0.116 C 
BRANCH   3   4
ATOM      4  N   UNL     1      -3.676  -0.808  -1.980  1.00  0.00    -0.355 N 
ATOM      5  C   UNL     1      -3.247   0.198  -2.795  1.00  0.00     0.240 C 
ATOM      6  O   UNL     1      -4.025   1.143  -2.965  1.00  0.00    -0.273 OA
ATOM      7  H   UNL     1      -4.464  -0.589  -1.432  1.00  0.00     0.163 HD
BRANCH   5   8
ATOM      8  C   UNL     1      -1.964   0.098  -3.635  1.00  0.00     0.230 C 
BRANCH   8   9
ATOM      9  N   UNL     1      -0.786  -0.355  -2.925  1.00  0.00    -0.253 N 
ATOM     10  C   UNL     1       1.552  -0.035  -0.211  1.00  0.00     0.150 C 
ATOM     11  N   UNL     1       0.893  -0.352  -1.462  1.00  0.00    -0.313 N 
ATOM     12  C   UNL     1      -0.252   0.320  -1.869  1.00  0.00     0.327 C 
ATOM     13  C   UNL     1       1.140  -1.573  -2.239  1.00  0.00     0.124 C 
ATOM     14  O   UNL     1      -0.706   1.327  -1.361  1.00  0.00    -0.248 OA
ATOM     15  C   UNL     1       0.068  -1.339  -3.337  1.00  0.00     0.257 C 
ATOM     16  C   UNL     1       2.568  -1.690  -2.778  1.00  0.00     0.039 C 
ATOM     17  C   UNL     1       0.753  -2.817  -1.437  1.00  0.00     0.039 C 
ATOM     18  O   UNL     1      -0.046  -1.984  -4.371  1.00  0.00    -0.272 OA
ATOM     19  C   UNL     1       2.871  -3.045  -3.433  1.00  0.00     0.003 C 
ATOM     20  C   UNL     1       0.989  -4.128  -2.170  1.00  0.00     0.003 C 
ATOM     21  C   UNL     1       2.445  -4.238  -2.579  1.00  0.00     0.000 C 
ENDBRANCH   8   9
ENDBRANCH   5   8
ENDBRANCH   3   4
ENDBRANCH   2   3
ENDBRANCH   1   2
BRANCH   1  22
ATOM     22  C   UNL     1      -4.269  -3.926   0.596  1.00  0.00     0.116 C 
BRANCH  22  23
ATOM     23  N   UNL     1      -3.420  -5.091   0.334  1.00  0.00    -0.352 N 
ATOM     24  C   UNL     1      -3.383  -6.315   0.963  1.00  0.00     0.251 C 
ATOM     25  H   UNL     1      -2.779  -4.982  -0.405  1.00  0.00     0.163 HD
ATOM     26  O   UNL     1      -2.528  -7.141   0.658  1.00  0.00    -0.269 OA
BRANCH  24  27
ATOM     27  C   UNL     1      -4.357  -6.603   2.033  1.00  0.00     0.039 A 
ATOM     28  C   UNL     1      -3.915  -7.148   3.240  1.00  0.00     0.014 A 
ATOM     29  C   UNL     1      -5.694  -6.243   1.866  1.00  0.00     0.014 A 
ATOM     30  C   UNL     1      -4.796  -7.220   4.320  1.00  0.00     0.010 A 
ATOM     31  C   UNL     1      -6.529  -6.201   2.972  1.00  0.00     0.010 A 
ATOM     32  C   UNL     1      -6.091  -6.687   4.212  1.00  0.00    -0.014 A 
BRANCH  32  33
ATOM     33  C   UNL     1      -7.013  -6.612   5.373  1.00  0.00     0.031 A 
ATOM     34  C   UNL     1      -8.362  -7.278   5.295  1.00  0.00     0.074 A 
ATOM     35  C   UNL     1      -6.688  -5.855   6.441  1.00  0.00     0.049 A 
ATOM     36  N   UNL     1      -9.360  -7.218   6.137  1.00  0.00    -0.248 NA
ATOM     37  C   UNL     1      -8.644  -8.077   4.089  1.00  0.00     0.031 C 
ATOM     38  C   UNL     1      -5.443  -5.097   6.604  1.00  0.00     0.029 A 
ATOM     39  N   UNL     1      -7.388  -5.583   7.590  1.00  0.00    -0.354 N 
ATOM     40  C   UNL     1     -10.395  -7.931   5.544  1.00  0.00     0.074 A 
ATOM     41  C   UNL     1      -9.925  -8.371   4.251  1.00  0.00     0.031 C 
ATOM     42  C   UNL     1      -5.458  -4.472   7.793  1.00  0.00     0.029 A 
ATOM     43  C   UNL     1      -6.726  -4.746   8.458  1.00  0.00     0.049 A 
ATOM     44  H   UNL     1      -8.282  -5.954   7.776  1.00  0.00     0.167 HD
ATOM     45  C   UNL     1     -11.620  -8.217   6.043  1.00  0.00     0.031 A 
ATOM     46  C   UNL     1      -7.102  -4.247   9.652  1.00  0.00     0.031 A 
ATOM     47  C   UNL     1     -12.062  -7.824   7.352  1.00  0.00     0.049 A 
ATOM     48  C   UNL     1      -8.447  -4.627  10.209  1.00  0.00     0.074 A 
ATOM     49  C   UNL     1     -13.246  -8.147   7.991  1.00  0.00     0.029 A 
ATOM     50  N   UNL     1     -11.335  -7.032   8.227  1.00  0.00    -0.354 N 
ATOM     51  N   UNL     1      -9.379  -5.376   9.669  1.00  0.00    -0.248 NA
ATOM     52  C   UNL     1      -8.786  -4.107  11.541  1.00  0.00     0.031 C 
ATOM     53  C   UNL     1     -13.254  -7.513   9.237  1.00  0.00     0.029 A 
ATOM     54  C   UNL     1     -12.052  -6.840   9.394  1.00  0.00     0.049 A 
ATOM     55  H   UNL     1     -10.442  -6.662   8.044  1.00  0.00     0.167 HD
ATOM     56  C   UNL     1     -10.404  -5.438  10.607  1.00  0.00     0.074 A 
ATOM     57  C   UNL     1      -9.970  -4.666  11.753  1.00  0.00     0.031 C 
ATOM     58  C   UNL     1     -11.597  -6.076  10.526  1.00  0.00     0.031 A 
BRANCH  45  59
ATOM     59  C   UNL     1     -12.565  -9.004   5.174  1.00  0.00    -0.014 A 
ATOM     60  C   UNL     1     -12.334 -10.363   4.895  1.00  0.00     0.010 A 
ATOM     61  C   UNL     1     -13.725  -8.388   4.671  1.00  0.00     0.010 A 
ATOM     62  C   UNL     1     -13.229 -11.083   4.100  1.00  0.00     0.020 A 
ATOM     63  C   UNL     1     -14.637  -9.113   3.899  1.00  0.00     0.020 A 
ATOM     64  C   UNL     1     -14.376 -10.453   3.607  1.00  0.00     0.054 A 
BRANCH  64  65
ATOM     65  S   UNL     1     -15.541 -11.426   2.615  1.00  0.00     0.124 S 
ATOM     66  O   UNL     1     -14.822 -11.559   1.351  1.00  0.00    -0.237 OA
ATOM     67  O   UNL     1     -15.676 -12.655   3.393  1.00  0.00    -0.237 OA
ATOM     68  O   UNL     1     -16.738 -10.589   2.567  1.00  0.00    -0.744 OA
ENDBRANCH  64  65
ENDBRANCH  45  59
BRANCH  46  69
ATOM     69  C   UNL     1      -6.189  -3.348  10.410  1.00  0.00    -0.014 A 
ATOM     70  C   UNL     1      -5.561  -3.796  11.586  1.00  0.00     0.010 A 
ATOM     71  C   UNL     1      -5.943  -2.038   9.962  1.00  0.00     0.010 A 
ATOM     72  C   UNL     1      -4.727  -2.942  12.315  1.00  0.00     0.020 A 
ATOM     73  C   UNL     1      -5.087  -1.190  10.672  1.00  0.00     0.020 A 
ATOM     74  C   UNL     1      -4.497  -1.643  11.853  1.00  0.00     0.054 A 
BRANCH  74  75
ATOM     75  S   UNL     1      -3.382  -0.563  12.794  1.00  0.00     0.124 S 
ATOM     76  O   UNL     1      -4.213  -0.189  13.934  1.00  0.00    -0.237 OA
ATOM     77  O   UNL     1      -2.259  -1.449  13.092  1.00  0.00    -0.237 OA
ATOM     78  O   UNL     1      -3.081   0.516  11.856  1.00  0.00    -0.744 OA
ENDBRANCH  74  75
ENDBRANCH  46  69
BRANCH  58  79
ATOM     79  C   UNL     1     -12.505  -6.000  11.723  1.00  0.00    -0.014 A 
ATOM     80  C   UNL     1     -13.196  -4.818  12.038  1.00  0.00     0.010 A 
ATOM     81  C   UNL     1     -12.717  -7.152  12.503  1.00  0.00     0.010 A 
ATOM     82  C   UNL     1     -14.064  -4.781  13.133  1.00  0.00     0.020 A 
ATOM     83  C   UNL     1     -13.604  -7.126  13.581  1.00  0.00     0.020 A 
ATOM     84  C   UNL     1     -14.262  -5.936  13.897  1.00  0.00     0.054 A 
BRANCH  84  85
ATOM     85  S   UNL     1     -15.429  -5.876  15.283  1.00  0.00     0.124 S 
ATOM     86  O   UNL     1     -14.671  -5.132  16.286  1.00  0.00    -0.237 OA
ATOM     87  O   UNL     1     -16.573  -5.172  14.710  1.00  0.00    -0.237 OA
ATOM     88  O   UNL     1     -15.665  -7.283  15.598  1.00  0.00    -0.744 OA
ENDBRANCH  84  85
ENDBRANCH  58  79
ENDBRANCH  32  33
ENDBRANCH  24  27
ENDBRANCH  22  23
ENDBRANCH   1  22
TORSDOF 15
