REMARK SMILES Cc1cccc(Nc2nc(C)c(CCO)c(OCC(=O)NCCCCNC(=O)c3ccc(-c4c5nc(c(-c6ccc(S(=O)(=O)[O-])cc6)c6ccc([nH]6)c(-c6ccc(S(=O)(=O)[O-])cc6)c6nc(c(-c7ccc(S(=O)(=O)[O-])cc7)c7ccc4[nH]7)C=C6)C=C5)cc3)n2)c1
REMARK SMILES IDX 22 1 21 2 19 3 20 4 18 6 17 7 16 8 8 9 9 10 89 11 10 12
REMARK SMILES IDX 11 13 12 14 7 15 6 17 1 18 2 19 3 20 90 21 4 22 5 23 13 24
REMARK SMILES IDX 14 25 15 26 23 28 24 29 25 30 26 31 27 32 28 34 29 35 30 36
REMARK SMILES IDX 88 37 31 38 87 39 32 40 33 41 34 42 81 43 35 44 86 45 80 46
REMARK SMILES IDX 82 47 36 48 85 49 79 50 78 51 37 53 67 54 48 55 66 56 49 57
REMARK SMILES IDX 52 58 65 59 83 60 50 61 51 62 64 64 84 65 53 66 38 67 39 68
REMARK SMILES IDX 47 69 40 70 46 71 41 72 42 73 43 74 44 75 45 76 68 77 69 78
REMARK SMILES IDX 77 79 70 80 76 81 71 82 72 83 73 84 74 85 75 86 54 87 55 88
REMARK SMILES IDX 63 89 56 90 62 91 57 92 58 93 59 94 60 95 61 96
REMARK H PARENT 21 5 7 16 15 27 26 33 82 52 52 63
REMARK Flexibility Score: inf
ROOT
ATOM      1  C   UNL     1      -6.301   3.097   4.631  1.00  0.00     0.116 C 
ENDROOT
BRANCH   1   2
ATOM      2  N   UNL     1      -7.371   3.437   3.709  1.00  0.00    -0.353 N 
ATOM      3  C   UNL     1      -7.882   2.736   2.665  1.00  0.00     0.258 C 
ATOM      4  O   UNL     1      -8.768   3.272   1.991  1.00  0.00    -0.271 OA
ATOM      5  H   UNL     1      -7.791   4.313   3.866  1.00  0.00     0.163 HD
BRANCH   3   6
ATOM      6  C   UNL     1      -7.420   1.294   2.380  1.00  0.00     0.331 C 
BRANCH   6   7
ATOM      7  O   UNL     1      -6.195   0.932   1.779  1.00  0.00    -0.467 OA
BRANCH   7   8
ATOM      8  C   UNL     1      -5.600   1.751   0.871  1.00  0.00     0.222 A 
ATOM      9  C   UNL     1      -3.508   2.436   0.191  1.00  0.00     0.230 A 
ATOM     10  N   UNL     1      -4.019   3.193  -0.782  1.00  0.00    -0.218 NA
ATOM     11  N   UNL     1      -4.267   1.754   1.050  1.00  0.00    -0.177 NA
ATOM     12  C   UNL     1      -5.346   3.100  -1.017  1.00  0.00     0.050 A 
ATOM     13  C   UNL     1      -5.795   3.828  -2.252  1.00  0.00     0.067 C 
ATOM     14  C   UNL     1      -6.198   2.304  -0.250  1.00  0.00     0.038 A 
BRANCH   9  15
ATOM     15  N   UNL     1      -2.119   2.303   0.185  1.00  0.00    -0.324 N 
ATOM     16  H   UNL     1      -1.611   3.147   0.188  1.00  0.00     0.170 HD
BRANCH  15  17
ATOM     17  C   UNL     1      -1.343   1.128   0.176  1.00  0.00     0.041 A 
ATOM     18  C   UNL     1       2.371   0.202   0.028  1.00  0.00     0.044 C 
ATOM     19  C   UNL     1       0.876   0.087   0.083  1.00  0.00    -0.049 A 
ATOM     20  C   UNL     1       0.281  -1.178   0.092  1.00  0.00     0.003 A 
ATOM     21  C   UNL     1       0.058   1.229   0.133  1.00  0.00     0.029 A 
ATOM     22  C   UNL     1      -1.103  -1.297   0.172  1.00  0.00     0.002 A 
ATOM     23  C   UNL     1      -1.903  -0.154   0.229  1.00  0.00     0.026 A 
ENDBRANCH  15  17
ENDBRANCH   9  15
BRANCH  14  24
ATOM     24  C   UNL     1      -7.583   1.949  -0.730  1.00  0.00     0.071 C 
BRANCH  24  25
ATOM     25  C   UNL     1      -7.662   0.560  -1.372  1.00  0.00     0.161 C 
BRANCH  25  26
ATOM     26  O   UNL     1      -7.490  -0.497  -0.436  1.00  0.00    -0.396 OA
ATOM     27  H   UNL     1      -6.609  -0.433  -0.035  1.00  0.00     0.210 HD
ENDBRANCH  25  26
ENDBRANCH  24  25
ENDBRANCH  14  24
ENDBRANCH   7   8
ENDBRANCH   6   7
ENDBRANCH   3   6
ENDBRANCH   1   2
BRANCH   1  28
ATOM     28  C   UNL     1      -5.018   3.887   4.354  1.00  0.00     0.023 C 
BRANCH  28  29
ATOM     29  C   UNL     1      -5.192   5.392   4.124  1.00  0.00     0.023 C 
BRANCH  29  30
ATOM     30  C   UNL     1      -5.880   6.142   5.259  1.00  0.00     0.116 C 
BRANCH  30  31
ATOM     31  N   UNL     1      -4.991   6.958   6.072  1.00  0.00    -0.352 N 
ATOM     32  C   UNL     1      -5.342   7.885   7.035  1.00  0.00     0.251 C 
ATOM     33  H   UNL     1      -4.026   6.834   5.919  1.00  0.00     0.163 HD
ATOM     34  O   UNL     1      -4.538   8.689   7.506  1.00  0.00    -0.269 OA
BRANCH  32  35
ATOM     35  C   UNL     1      -6.692   7.778   7.624  1.00  0.00     0.039 A 
ATOM     36  C   UNL     1      -6.764   7.442   8.982  1.00  0.00     0.014 A 
ATOM     37  C   UNL     1      -7.823   7.727   6.814  1.00  0.00     0.014 A 
ATOM     38  C   UNL     1      -7.923   6.855   9.476  1.00  0.00     0.010 A 
ATOM     39  C   UNL     1      -8.931   7.044   7.273  1.00  0.00     0.010 A 
ATOM     40  C   UNL     1      -8.957   6.562   8.586  1.00  0.00    -0.014 A 
BRANCH  40  41
ATOM     41  C   UNL     1     -10.093   5.724   8.946  1.00  0.00     0.031 A 
ATOM     42  C   UNL     1     -11.368   6.377   9.314  1.00  0.00     0.074 A 
ATOM     43  C   UNL     1      -9.976   4.378   8.938  1.00  0.00     0.049 A 
ATOM     44  N   UNL     1     -12.270   5.862  10.078  1.00  0.00    -0.248 NA
ATOM     45  C   UNL     1     -11.686   7.734   8.880  1.00  0.00     0.031 C 
ATOM     46  C   UNL     1     -11.052   3.404   9.104  1.00  0.00     0.029 A 
ATOM     47  N   UNL     1      -8.810   3.611   9.025  1.00  0.00    -0.354 N 
ATOM     48  C   UNL     1     -13.382   6.674  10.006  1.00  0.00     0.074 A 
ATOM     49  C   UNL     1     -12.941   7.861   9.315  1.00  0.00     0.031 C 
ATOM     50  C   UNL     1     -10.523   2.270   9.592  1.00  0.00     0.029 A 
ATOM     51  C   UNL     1      -9.119   2.535   9.871  1.00  0.00     0.049 A 
ATOM     52  H   UNL     1      -7.949   3.789   8.583  1.00  0.00     0.167 HD
ATOM     53  C   UNL     1     -14.597   6.202  10.407  1.00  0.00     0.031 A 
ATOM     54  C   UNL     1      -8.505   2.325  11.072  1.00  0.00     0.031 A 
ATOM     55  C   UNL     1     -14.478   4.883  11.021  1.00  0.00     0.049 A 
ATOM     56  C   UNL     1      -9.476   2.353  12.238  1.00  0.00     0.074 A 
ATOM     57  C   UNL     1     -14.653   3.597  10.537  1.00  0.00     0.029 A 
ATOM     58  N   UNL     1     -13.789   4.760  12.223  1.00  0.00    -0.354 N 
ATOM     59  N   UNL     1     -10.690   2.830  12.166  1.00  0.00    -0.248 NA
ATOM     60  C   UNL     1      -9.152   1.870  13.578  1.00  0.00     0.031 C 
ATOM     61  C   UNL     1     -13.943   2.710  11.392  1.00  0.00     0.029 A 
ATOM     62  C   UNL     1     -13.383   3.453  12.418  1.00  0.00     0.049 A 
ATOM     63  H   UNL     1     -13.615   5.501  12.848  1.00  0.00     0.167 HD
ATOM     64  C   UNL     1     -11.311   2.704  13.381  1.00  0.00     0.074 A 
ATOM     65  C   UNL     1     -10.305   2.094  14.234  1.00  0.00     0.031 C 
ATOM     66  C   UNL     1     -12.601   3.100  13.595  1.00  0.00     0.031 A 
BRANCH  53  67
ATOM     67  C   UNL     1     -15.893   6.819   9.925  1.00  0.00    -0.014 A 
ATOM     68  C   UNL     1     -17.003   5.993   9.655  1.00  0.00     0.010 A 
ATOM     69  C   UNL     1     -16.050   8.186   9.626  1.00  0.00     0.010 A 
ATOM     70  C   UNL     1     -18.151   6.479   9.007  1.00  0.00     0.020 A 
ATOM     71  C   UNL     1     -17.169   8.678   8.935  1.00  0.00     0.020 A 
ATOM     72  C   UNL     1     -18.210   7.815   8.614  1.00  0.00     0.054 A 
BRANCH  72  73
ATOM     73  S   UNL     1     -19.639   8.401   7.665  1.00  0.00     0.124 S 
ATOM     74  O   UNL     1     -19.700   7.449   6.559  1.00  0.00    -0.237 OA
ATOM     75  O   UNL     1     -20.722   8.306   8.640  1.00  0.00    -0.237 OA
ATOM     76  O   UNL     1     -19.266   9.762   7.282  1.00  0.00    -0.744 OA
ENDBRANCH  72  73
ENDBRANCH  53  67
BRANCH  54  77
ATOM     77  C   UNL     1      -7.068   2.714  11.118  1.00  0.00    -0.014 A 
ATOM     78  C   UNL     1      -6.154   1.895  10.422  1.00  0.00     0.010 A 
ATOM     79  C   UNL     1      -6.677   4.022  11.453  1.00  0.00     0.010 A 
ATOM     80  C   UNL     1      -4.953   2.415   9.929  1.00  0.00     0.020 A 
ATOM     81  C   UNL     1      -5.474   4.549  10.953  1.00  0.00     0.020 A 
ATOM     82  C   UNL     1      -4.658   3.761  10.136  1.00  0.00     0.054 A 
BRANCH  82  83
ATOM     83  S   UNL     1      -3.261   4.498   9.233  1.00  0.00     0.124 S 
ATOM     84  O   UNL     1      -2.247   3.450   9.293  1.00  0.00    -0.237 OA
ATOM     85  O   UNL     1      -3.845   4.727   7.912  1.00  0.00    -0.237 OA
ATOM     86  O   UNL     1      -2.963   5.699  10.007  1.00  0.00    -0.744 OA
ENDBRANCH  82  83
ENDBRANCH  54  77
BRANCH  66  87
ATOM     87  C   UNL     1     -13.295   3.136  14.934  1.00  0.00    -0.014 A 
ATOM     88  C   UNL     1     -12.637   3.360  16.152  1.00  0.00     0.010 A 
ATOM     89  C   UNL     1     -14.711   3.093  14.962  1.00  0.00     0.010 A 
ATOM     90  C   UNL     1     -13.355   3.491  17.350  1.00  0.00     0.020 A 
ATOM     91  C   UNL     1     -15.437   3.264  16.143  1.00  0.00     0.020 A 
ATOM     92  C   UNL     1     -14.751   3.444  17.338  1.00  0.00     0.054 A 
BRANCH  92  93
ATOM     93  S   UNL     1     -15.679   3.708  18.870  1.00  0.00     0.124 S 
ATOM     94  O   UNL     1     -15.829   2.343  19.369  1.00  0.00    -0.237 OA
ATOM     95  O   UNL     1     -14.792   4.566  19.652  1.00  0.00    -0.237 OA
ATOM     96  O   UNL     1     -16.910   4.349  18.414  1.00  0.00    -0.744 OA
ENDBRANCH  92  93
ENDBRANCH  66  87
ENDBRANCH  40  41
ENDBRANCH  32  35
ENDBRANCH  30  31
ENDBRANCH  29  30
ENDBRANCH  28  29
ENDBRANCH   1  28
TORSDOF 21
