REMARK SMILES [NH3+][C@H](C(=O)NCCCCNC(=O)c1ccc(-c2c3nc(c(-c4ccc(S(=O)(=O)[O-])cc4)c4ccc([nH]4)c(-c4ccc(S(=O)(=O)[O-])cc4)c4nc(c(-c5ccc(S(=O)(=O)[O-])cc5)c5ccc2[nH]5)C=C4)C=C3)cc1)c1ccc(OCC(=O)N2CCCC2)cc1
REMARK SMILES IDX 7 1 6 2 5 3 3 4 4 5 2 7 1 8 73 12 74 13 87 14 75 15 86 16
REMARK SMILES IDX 76 17 77 18 78 19 79 20 80 21 81 22 82 23 85 24 83 25 84 26
REMARK SMILES IDX 8 27 9 28 10 29 11 30 12 32 13 33 14 34 72 35 15 36 71 37
REMARK SMILES IDX 16 38 17 39 18 40 65 41 19 42 70 43 64 44 66 45 20 46 69 47
REMARK SMILES IDX 63 48 62 49 21 51 51 52 32 53 50 54 33 55 36 56 49 57 67 58
REMARK SMILES IDX 34 59 35 60 48 62 68 63 37 64 22 65 23 66 31 67 24 68 30 69
REMARK SMILES IDX 25 70 26 71 27 72 28 73 29 74 52 75 53 76 61 77 54 78 60 79
REMARK SMILES IDX 55 80 56 81 57 82 58 83 59 84 38 85 39 86 47 87 40 88 46 89
REMARK SMILES IDX 41 90 42 91 43 92 44 93 45 94
REMARK H PARENT 5 6 1 9 1 10 1 11 10 31 66 50 36 61
REMARK Flexibility Score: inf
ROOT
ATOM      1  C   UNL     1      -1.476  -1.945   0.205  1.00  0.00     0.023 C 
ENDROOT
BRANCH   1   2
ATOM      2  C   UNL     1      -0.005  -1.770   0.596  1.00  0.00     0.116 C 
BRANCH   2   3
ATOM      3  N   UNL     1       0.643  -0.804  -0.269  1.00  0.00    -0.351 N 
ATOM      4  C   UNL     1       0.711   0.556  -0.158  1.00  0.00     0.283 C 
ATOM      5  O   UNL     1       1.173   1.179  -1.123  1.00  0.00    -0.268 OA
ATOM      6  H   UNL     1       1.102  -1.184  -1.052  1.00  0.00     0.163 HD
BRANCH   4   7
ATOM      7  C   UNL     1       0.326   1.303   1.165  1.00  0.00     0.302 C 
BRANCH   7   8
ATOM      8  N   UNL     1       1.075   2.591   1.182  1.00  0.00    -0.343 N 
ATOM      9  H   UNL     1       0.848   3.105   2.033  1.00  0.00     0.345 HD
ATOM     10  H   UNL     1       0.813   3.147   0.368  1.00  0.00     0.345 HD
ATOM     11  H   UNL     1       2.077   2.401   1.156  1.00  0.00     0.345 HD
ENDBRANCH   7   8
BRANCH   7  12
ATOM     12  C   UNL     1      -1.173   1.526   1.324  1.00  0.00     0.019 A 
ATOM     13  C   UNL     1      -1.843   2.626   0.769  1.00  0.00     0.014 A 
ATOM     14  C   UNL     1      -1.948   0.586   2.019  1.00  0.00     0.014 A 
ATOM     15  C   UNL     1      -3.238   2.715   0.823  1.00  0.00     0.047 A 
ATOM     16  C   UNL     1      -3.345   0.632   2.007  1.00  0.00     0.047 A 
ATOM     17  C   UNL     1      -3.994   1.683   1.375  1.00  0.00     0.120 A 
BRANCH  17  18
ATOM     18  O   UNL     1      -5.346   1.820   1.258  1.00  0.00    -0.484 OA
BRANCH  18  19
ATOM     19  C   UNL     1      -6.102   0.622   1.206  1.00  0.00     0.329 C 
BRANCH  19  20
ATOM     20  C   UNL     1      -5.887  -0.370   0.046  1.00  0.00     0.260 C 
ATOM     21  O   UNL     1      -5.729  -1.571   0.280  1.00  0.00    -0.271 OA
ATOM     22  N   UNL     1      -6.003   0.110  -1.240  1.00  0.00    -0.340 N 
ATOM     23  C   UNL     1      -5.981   1.494  -1.671  1.00  0.00     0.119 C 
ATOM     24  C   UNL     1      -6.136  -0.790  -2.375  1.00  0.00     0.119 C 
ATOM     25  C   UNL     1      -6.704   1.468  -3.005  1.00  0.00     0.023 C 
ATOM     26  C   UNL     1      -6.315   0.114  -3.591  1.00  0.00     0.023 C 
ENDBRANCH  19  20
ENDBRANCH  18  19
ENDBRANCH  17  18
ENDBRANCH   7  12
ENDBRANCH   4   7
ENDBRANCH   2   3
ENDBRANCH   1   2
BRANCH   1  27
ATOM     27  C   UNL     1      -1.739  -3.087  -0.771  1.00  0.00     0.023 C 
BRANCH  27  28
ATOM     28  C   UNL     1      -1.668  -4.468  -0.135  1.00  0.00     0.116 C 
BRANCH  28  29
ATOM     29  N   UNL     1      -2.686  -4.703   0.884  1.00  0.00    -0.352 N 
ATOM     30  C   UNL     1      -3.344  -5.878   1.172  1.00  0.00     0.251 C 
ATOM     31  H   UNL     1      -2.934  -3.925   1.433  1.00  0.00     0.163 HD
ATOM     32  O   UNL     1      -4.209  -5.925   2.039  1.00  0.00    -0.269 OA
BRANCH  30  33
ATOM     33  C   UNL     1      -3.020  -7.075   0.371  1.00  0.00     0.039 A 
ATOM     34  C   UNL     1      -4.048  -7.736  -0.305  1.00  0.00     0.014 A 
ATOM     35  C   UNL     1      -1.689  -7.455   0.196  1.00  0.00     0.014 A 
ATOM     36  C   UNL     1      -3.730  -8.731  -1.230  1.00  0.00     0.010 A 
ATOM     37  C   UNL     1      -1.372  -8.376  -0.791  1.00  0.00     0.010 A 
ATOM     38  C   UNL     1      -2.387  -9.024  -1.516  1.00  0.00    -0.014 A 
BRANCH  38  39
ATOM     39  C   UNL     1      -1.995 -10.019  -2.545  1.00  0.00     0.031 A 
ATOM     40  C   UNL     1      -1.172 -11.210  -2.135  1.00  0.00     0.074 A 
ATOM     41  C   UNL     1      -2.272  -9.801  -3.846  1.00  0.00     0.049 A 
ATOM     42  N   UNL     1      -0.560 -12.091  -2.882  1.00  0.00    -0.248 NA
ATOM     43  C   UNL     1      -0.967 -11.401  -0.688  1.00  0.00     0.031 C 
ATOM     44  C   UNL     1      -3.022  -8.661  -4.380  1.00  0.00     0.029 A 
ATOM     45  N   UNL     1      -1.937 -10.526  -4.962  1.00  0.00    -0.354 N 
ATOM     46  C   UNL     1       0.145 -12.903  -2.001  1.00  0.00     0.074 A 
ATOM     47  C   UNL     1      -0.079 -12.382  -0.670  1.00  0.00     0.031 C 
ATOM     48  C   UNL     1      -3.110  -8.777  -5.715  1.00  0.00     0.029 A 
ATOM     49  C   UNL     1      -2.387  -9.973  -6.138  1.00  0.00     0.049 A 
ATOM     50  H   UNL     1      -1.421 -11.364  -4.924  1.00  0.00     0.167 HD
ATOM     51  C   UNL     1       0.896 -13.996  -2.272  1.00  0.00     0.031 A 
ATOM     52  C   UNL     1      -2.229 -10.380  -7.412  1.00  0.00     0.031 A 
ATOM     53  C   UNL     1       1.067 -14.541  -3.590  1.00  0.00     0.049 A 
ATOM     54  C   UNL     1      -1.446 -11.634  -7.687  1.00  0.00     0.074 A 
ATOM     55  C   UNL     1       1.747 -15.684  -3.968  1.00  0.00     0.029 A 
ATOM     56  N   UNL     1       0.533 -13.989  -4.745  1.00  0.00    -0.354 N 
ATOM     57  N   UNL     1      -0.817 -12.412  -6.838  1.00  0.00    -0.248 NA
ATOM     58  C   UNL     1      -1.362 -12.073  -9.087  1.00  0.00     0.031 C 
ATOM     59  C   UNL     1       1.644 -15.811  -5.358  1.00  0.00     0.029 A 
ATOM     60  C   UNL     1       0.866 -14.768  -5.838  1.00  0.00     0.049 A 
ATOM     61  H   UNL     1      -0.003 -13.164  -4.781  1.00  0.00     0.167 HD
ATOM     62  C   UNL     1      -0.284 -13.448  -7.598  1.00  0.00     0.074 A 
ATOM     63  C   UNL     1      -0.672 -13.201  -8.972  1.00  0.00     0.031 C 
ATOM     64  C   UNL     1       0.456 -14.509  -7.194  1.00  0.00     0.031 A 
BRANCH  51  65
ATOM     65  C   UNL     1       1.582 -14.664  -1.110  1.00  0.00    -0.014 A 
ATOM     66  C   UNL     1       0.845 -15.351  -0.127  1.00  0.00     0.010 A 
ATOM     67  C   UNL     1       2.981 -14.593  -0.991  1.00  0.00     0.010 A 
ATOM     68  C   UNL     1       1.487 -15.896   0.987  1.00  0.00     0.020 A 
ATOM     69  C   UNL     1       3.631 -15.165   0.106  1.00  0.00     0.020 A 
ATOM     70  C   UNL     1       2.876 -15.790   1.102  1.00  0.00     0.054 A 
BRANCH  70  71
ATOM     71  S   UNL     1       3.687 -16.496   2.562  1.00  0.00     0.124 S 
ATOM     72  O   UNL     1       3.397 -15.489   3.581  1.00  0.00    -0.237 OA
ATOM     73  O   UNL     1       2.998 -17.773   2.729  1.00  0.00    -0.237 OA
ATOM     74  O   UNL     1       5.089 -16.595   2.164  1.00  0.00    -0.744 OA
ENDBRANCH  70  71
ENDBRANCH  51  65
BRANCH  52  75
ATOM     75  C   UNL     1      -2.858  -9.611  -8.520  1.00  0.00    -0.014 A 
ATOM     76  C   UNL     1      -4.003 -10.110  -9.166  1.00  0.00     0.010 A 
ATOM     77  C   UNL     1      -2.339  -8.364  -8.915  1.00  0.00     0.010 A 
ATOM     78  C   UNL     1      -4.613  -9.383 -10.192  1.00  0.00     0.020 A 
ATOM     79  C   UNL     1      -2.959  -7.624  -9.926  1.00  0.00     0.020 A 
ATOM     80  C   UNL     1      -4.089  -8.142 -10.564  1.00  0.00     0.054 A 
BRANCH  80  81
ATOM     81  S   UNL     1      -4.937  -7.183 -11.851  1.00  0.00     0.124 S 
ATOM     82  O   UNL     1      -4.538  -7.885 -13.066  1.00  0.00    -0.237 OA
ATOM     83  O   UNL     1      -6.342  -7.319 -11.473  1.00  0.00    -0.237 OA
ATOM     84  O   UNL     1      -4.387  -5.839 -11.693  1.00  0.00    -0.744 OA
ENDBRANCH  80  81
ENDBRANCH  52  75
BRANCH  64  85
ATOM     85  C   UNL     1       0.860 -15.511  -8.240  1.00  0.00    -0.014 A 
ATOM     86  C   UNL     1       1.897 -15.237  -9.147  1.00  0.00     0.010 A 
ATOM     87  C   UNL     1       0.242 -16.774  -8.258  1.00  0.00     0.010 A 
ATOM     88  C   UNL     1       2.297 -16.207 -10.070  1.00  0.00     0.020 A 
ATOM     89  C   UNL     1       0.654 -17.753  -9.165  1.00  0.00     0.020 A 
ATOM     90  C   UNL     1       1.674 -17.459 -10.072  1.00  0.00     0.054 A 
BRANCH  90  91
ATOM     91  S   UNL     1       2.253 -18.724 -11.236  1.00  0.00     0.124 S 
ATOM     92  O   UNL     1       1.661 -18.273 -12.493  1.00  0.00    -0.237 OA
ATOM     93  O   UNL     1       3.706 -18.603 -11.147  1.00  0.00    -0.237 OA
ATOM     94  O   UNL     1       1.704 -19.966 -10.698  1.00  0.00    -0.744 OA
ENDBRANCH  90  91
ENDBRANCH  64  85
ENDBRANCH  38  39
ENDBRANCH  30  33
ENDBRANCH  28  29
ENDBRANCH  27  28
ENDBRANCH   1  27
TORSDOF 19
