REMARK SMILES Cc1cccc2nc(C(=O)NCC(=O)NCCCCNC(=O)c3ccc(-c4c5nc(c(-c6ccc(S(=O)(=O)[O-])cc6)c6ccc([nH]6)c(-c6ccc(S(=O)(=O)[O-])cc6)c6nc(c(-c7ccc(S(=O)(=O)[O-])cc7)c7ccc4[nH]7)C=C6)C=C5)cc3)cn12
REMARK SMILES IDX 18 1 17 2 16 3 15 4 13 5 14 6 12 8 11 9 9 10 10 11 8 13 1 14
REMARK SMILES IDX 2 15 3 16 84 17 4 18 6 19 83 20 5 21 7 22 19 23 20 24 21 25
REMARK SMILES IDX 22 27 23 28 24 29 82 30 25 31 81 32 26 33 27 34 28 35 75 36
REMARK SMILES IDX 29 37 80 38 74 39 76 40 30 41 79 42 73 43 72 44 31 46 61 47
REMARK SMILES IDX 42 48 60 49 43 50 46 51 59 52 77 53 44 54 45 55 58 57 78 58
REMARK SMILES IDX 47 59 32 60 33 61 41 62 34 63 40 64 35 65 36 66 37 67 38 68
REMARK SMILES IDX 39 69 62 70 63 71 71 72 64 73 70 74 65 75 66 76 67 77 68 78
REMARK SMILES IDX 69 79 48 80 49 81 57 82 50 83 56 84 51 85 52 86 53 87 54 88
REMARK SMILES IDX 55 89
REMARK H PARENT 15 7 11 12 20 26 76 45 46 56
REMARK Flexibility Score: inf
ROOT
ATOM      1  C   UNL     1       7.103   5.675   0.688  1.00  0.00     0.023 C 
ENDROOT
BRANCH   1   2
ATOM      2  C   UNL     1       5.766   5.269   0.046  1.00  0.00     0.023 C 
BRANCH   2   3
ATOM      3  C   UNL     1       4.532   5.713   0.833  1.00  0.00     0.116 C 
BRANCH   3   4
ATOM      4  N   UNL     1       4.334   7.144   0.750  1.00  0.00    -0.355 N 
ATOM      5  C   UNL     1       3.410   7.855   0.043  1.00  0.00     0.239 C 
ATOM      6  O   UNL     1       3.413   9.083   0.171  1.00  0.00    -0.273 OA
ATOM      7  H   UNL     1       4.959   7.685   1.284  1.00  0.00     0.163 HD
BRANCH   5   8
ATOM      8  C   UNL     1       2.320   7.161  -0.784  1.00  0.00     0.216 C 
BRANCH   8   9
ATOM      9  N   UNL     1       2.812   6.230  -1.792  1.00  0.00    -0.342 N 
ATOM     10  C   UNL     1       2.607   4.883  -1.966  1.00  0.00     0.271 C 
ATOM     11  O   UNL     1       3.156   4.346  -2.929  1.00  0.00    -0.267 OA
ATOM     12  H   UNL     1       3.395   6.641  -2.471  1.00  0.00     0.164 HD
BRANCH  10  13
ATOM     13  C   UNL     1       1.811   4.104  -1.008  1.00  0.00     0.147 A 
ATOM     14  C   UNL     1       1.039  -0.115  -0.092  1.00  0.00     0.065 C 
ATOM     15  C   UNL     1       0.594   1.129   0.614  1.00  0.00     0.021 A 
ATOM     16  C   UNL     1      -0.158   1.093   1.735  1.00  0.00     0.022 A 
ATOM     17  N   UNL     1       0.969   2.388   0.111  1.00  0.00    -0.304 N 
ATOM     18  C   UNL     1      -0.542   2.336   2.387  1.00  0.00     0.006 A 
ATOM     19  C   UNL     1       0.607   3.592   0.708  1.00  0.00     0.137 A 
ATOM     20  C   UNL     1       1.728   2.721  -0.985  1.00  0.00     0.127 A 
ATOM     21  C   UNL     1      -0.174   3.532   1.893  1.00  0.00     0.048 A 
ATOM     22  N   UNL     1       1.089   4.621   0.048  1.00  0.00    -0.223 NA
ENDBRANCH  10  13
ENDBRANCH   8   9
ENDBRANCH   5   8
ENDBRANCH   3   4
ENDBRANCH   2   3
ENDBRANCH   1   2
BRANCH   1  23
ATOM     23  C   UNL     1       7.368   5.009   2.035  1.00  0.00     0.116 C 
BRANCH  23  24
ATOM     24  N   UNL     1       7.530   3.568   1.903  1.00  0.00    -0.352 N 
ATOM     25  C   UNL     1       7.920   2.663   2.866  1.00  0.00     0.251 C 
ATOM     26  H   UNL     1       7.335   3.193   1.014  1.00  0.00     0.163 HD
ATOM     27  O   UNL     1       8.389   1.582   2.537  1.00  0.00    -0.269 OA
BRANCH  25  28
ATOM     28  C   UNL     1       7.734   2.989   4.293  1.00  0.00     0.039 A 
ATOM     29  C   UNL     1       8.681   2.575   5.239  1.00  0.00     0.014 A 
ATOM     30  C   UNL     1       6.561   3.632   4.693  1.00  0.00     0.014 A 
ATOM     31  C   UNL     1       8.461   2.848   6.586  1.00  0.00     0.010 A 
ATOM     32  C   UNL     1       6.369   3.954   6.017  1.00  0.00     0.010 A 
ATOM     33  C   UNL     1       7.302   3.535   6.964  1.00  0.00    -0.014 A 
BRANCH  33  34
ATOM     34  C   UNL     1       7.104   3.964   8.342  1.00  0.00     0.031 A 
ATOM     35  C   UNL     1       7.985   5.097   8.749  1.00  0.00     0.074 A 
ATOM     36  C   UNL     1       6.034   3.564   9.061  1.00  0.00     0.049 A 
ATOM     37  N   UNL     1       8.895   5.117   9.666  1.00  0.00    -0.248 NA
ATOM     38  C   UNL     1       7.944   6.325   7.929  1.00  0.00     0.031 C 
ATOM     39  C   UNL     1       4.918   2.722   8.614  1.00  0.00     0.029 A 
ATOM     40  N   UNL     1       5.639   3.936  10.308  1.00  0.00    -0.354 N 
ATOM     41  C   UNL     1       9.394   6.418   9.676  1.00  0.00     0.074 A 
ATOM     42  C   UNL     1       8.927   7.046   8.467  1.00  0.00     0.031 C 
ATOM     43  C   UNL     1       3.881   2.853   9.473  1.00  0.00     0.029 A 
ATOM     44  C   UNL     1       4.301   3.672  10.598  1.00  0.00     0.049 A 
ATOM     45  H   UNL     1       6.250   4.359  10.954  1.00  0.00     0.167 HD
ATOM     46  C   UNL     1       9.934   6.984  10.791  1.00  0.00     0.031 A 
ATOM     47  C   UNL     1       3.588   4.153  11.653  1.00  0.00     0.031 A 
ATOM     48  C   UNL     1      10.221   6.008  11.803  1.00  0.00     0.049 A 
ATOM     49  C   UNL     1       4.584   4.618  12.653  1.00  0.00     0.074 A 
ATOM     50  C   UNL     1      11.047   4.905  11.875  1.00  0.00     0.029 A 
ATOM     51  N   UNL     1       9.282   5.853  12.796  1.00  0.00    -0.354 N 
ATOM     52  N   UNL     1       5.421   3.826  13.263  1.00  0.00    -0.248 NA
ATOM     53  C   UNL     1       4.957   6.024  12.628  1.00  0.00     0.031 C 
ATOM     54  C   UNL     1      10.286   3.926  12.576  1.00  0.00     0.029 A 
ATOM     55  C   UNL     1       9.077   4.508  12.966  1.00  0.00     0.049 A 
ATOM     56  H   UNL     1       8.837   6.576  13.293  1.00  0.00     0.167 HD
ATOM     57  C   UNL     1       6.607   4.543  13.322  1.00  0.00     0.074 A 
ATOM     58  C   UNL     1       6.238   5.918  12.991  1.00  0.00     0.031 C 
ATOM     59  C   UNL     1       7.815   3.910  13.352  1.00  0.00     0.031 A 
BRANCH  46  60
ATOM     60  C   UNL     1       9.833   8.456  11.095  1.00  0.00    -0.014 A 
ATOM     61  C   UNL     1      10.597   9.012  12.138  1.00  0.00     0.010 A 
ATOM     62  C   UNL     1       8.820   9.268  10.540  1.00  0.00     0.010 A 
ATOM     63  C   UNL     1      10.353  10.314  12.601  1.00  0.00     0.020 A 
ATOM     64  C   UNL     1       8.600  10.579  10.959  1.00  0.00     0.020 A 
ATOM     65  C   UNL     1       9.359  11.091  12.002  1.00  0.00     0.054 A 
BRANCH  65  66
ATOM     66  S   UNL     1       9.015  12.749  12.641  1.00  0.00     0.124 S 
ATOM     67  O   UNL     1       8.693  12.479  14.038  1.00  0.00    -0.237 OA
ATOM     68  O   UNL     1      10.282  13.435  12.402  1.00  0.00    -0.237 OA
ATOM     69  O   UNL     1       7.898  13.210  11.819  1.00  0.00    -0.744 OA
ENDBRANCH  65  66
ENDBRANCH  46  60
BRANCH  47  70
ATOM     70  C   UNL     1       2.155   4.571  11.713  1.00  0.00    -0.014 A 
ATOM     71  C   UNL     1       1.583   5.001  12.931  1.00  0.00     0.010 A 
ATOM     72  C   UNL     1       1.429   4.838  10.535  1.00  0.00     0.010 A 
ATOM     73  C   UNL     1       0.393   5.753  12.958  1.00  0.00     0.020 A 
ATOM     74  C   UNL     1       0.236   5.577  10.555  1.00  0.00     0.020 A 
ATOM     75  C   UNL     1      -0.254   6.066  11.763  1.00  0.00     0.054 A 
BRANCH  75  76
ATOM     76  S   UNL     1      -1.671   7.207  11.784  1.00  0.00     0.124 S 
ATOM     77  O   UNL     1      -2.620   6.520  12.654  1.00  0.00    -0.237 OA
ATOM     78  O   UNL     1      -1.080   8.425  12.329  1.00  0.00    -0.237 OA
ATOM     79  O   UNL     1      -2.068   7.289  10.379  1.00  0.00    -0.744 OA
ENDBRANCH  75  76
ENDBRANCH  47  70
BRANCH  59  80
ATOM     80  C   UNL     1       7.851   2.418  13.589  1.00  0.00    -0.014 A 
ATOM     81  C   UNL     1       7.443   1.462  12.636  1.00  0.00     0.010 A 
ATOM     82  C   UNL     1       8.553   1.979  14.724  1.00  0.00     0.010 A 
ATOM     83  C   UNL     1       7.758   0.103  12.808  1.00  0.00     0.020 A 
ATOM     84  C   UNL     1       8.883   0.633  14.892  1.00  0.00     0.020 A 
ATOM     85  C   UNL     1       8.496  -0.298  13.928  1.00  0.00     0.054 A 
BRANCH  85  86
ATOM     86  S   UNL     1       9.005  -2.034  14.095  1.00  0.00     0.124 S 
ATOM     87  O   UNL     1       7.729  -2.744  14.113  1.00  0.00    -0.237 OA
ATOM     88  O   UNL     1       9.824  -2.242  12.903  1.00  0.00    -0.237 OA
ATOM     89  O   UNL     1       9.743  -2.062  15.357  1.00  0.00    -0.744 OA
ENDBRANCH  85  86
ENDBRANCH  59  80
ENDBRANCH  33  34
ENDBRANCH  25  28
ENDBRANCH  23  24
ENDBRANCH   1  23
TORSDOF 16
