REMARK SMILES O=C(CSc1ccc2ccccc2n1)NCc1ccc(C(=O)NCCCCNC(=O)c2ccc(-c3c4nc(c(-c5ccc(S(=O)(=O)[O-])cc5)c5ccc([nH]5)c(-c5ccc(S(=O)(=O)[O-])cc5)c5nc(c(-c6ccc(S(=O)(=O)[O-])cc6)c6ccc3[nH]6)C=C5)C=C4)cc2)cc1
REMARK SMILES IDX 24 1 23 2 21 3 22 4 20 6 17 7 18 8 92 9 19 10 91 11 16 12
REMARK SMILES IDX 15 13 1 14 2 15 3 17 4 18 5 19 6 20 14 21 7 22 13 23 8 24
REMARK SMILES IDX 12 25 9 26 11 27 10 28 25 29 26 30 27 31 28 32 29 33 30 35
REMARK SMILES IDX 31 36 32 37 90 38 33 39 89 40 34 41 35 42 36 43 83 44 37 45
REMARK SMILES IDX 88 46 82 47 84 48 38 49 87 50 81 51 80 52 39 54 69 55 50 56
REMARK SMILES IDX 68 57 51 58 54 59 67 60 85 61 52 62 53 63 66 65 86 66 55 67
REMARK SMILES IDX 40 68 41 69 49 70 42 71 48 72 43 73 44 74 45 75 46 76 47 77
REMARK SMILES IDX 70 78 71 79 79 80 72 81 78 82 73 83 74 84 75 85 76 86 77 87
REMARK SMILES IDX 56 88 57 89 65 90 58 91 64 92 59 93 60 94 61 95 62 96 63 97
REMARK H PARENT 23 5 15 16 28 34 84 53 54 64
REMARK Flexibility Score: inf
ROOT
ATOM      1  C   UNL     1       3.666   1.709   8.424  1.00  0.00     0.116 C 
ENDROOT
BRANCH   1   2
ATOM      2  N   UNL     1       3.336   0.302   8.315  1.00  0.00    -0.352 N 
ATOM      3  C   UNL     1       2.931  -0.468   7.254  1.00  0.00     0.251 C 
ATOM      4  O   UNL     1       2.760  -1.671   7.458  1.00  0.00    -0.269 OA
ATOM      5  H   UNL     1       3.417  -0.194   9.161  1.00  0.00     0.163 HD
BRANCH   3   6
ATOM      6  C   UNL     1       2.737   0.062   5.873  1.00  0.00     0.039 A 
ATOM      7  C   UNL     1       2.413   0.886   3.178  1.00  0.00    -0.029 A 
ATOM      8  C   UNL     1       2.712  -0.446   3.485  1.00  0.00     0.006 A 
ATOM      9  C   UNL     1       2.227   1.785   4.237  1.00  0.00     0.006 A 
ATOM     10  C   UNL     1       2.884  -0.848   4.816  1.00  0.00     0.014 A 
ATOM     11  C   UNL     1       2.364   1.371   5.567  1.00  0.00     0.014 A 
BRANCH   7  12
ATOM     12  C   UNL     1       2.180   1.374   1.770  1.00  0.00     0.151 C 
BRANCH  12  13
ATOM     13  N   UNL     1       2.823   0.572   0.756  1.00  0.00    -0.351 N 
ATOM     14  O   UNL     1       0.882  -0.061  -0.287  1.00  0.00    -0.274 OA
ATOM     15  C   UNL     1       2.110  -0.047  -0.250  1.00  0.00     0.230 C 
ATOM     16  H   UNL     1       3.801   0.463   0.783  1.00  0.00     0.163 HD
BRANCH  15  17
ATOM     17  C   UNL     1       2.957  -0.790  -1.270  1.00  0.00     0.176 C 
BRANCH  17  18
ATOM     18  S   UNL     1       4.269   0.276  -1.955  1.00  0.00    -0.096 SA
BRANCH  18  19
ATOM     19  C   UNL     1       3.259   1.530  -2.722  1.00  0.00     0.097 A 
ATOM     20  C   UNL     1       3.609   2.862  -2.567  1.00  0.00     0.036 A 
ATOM     21  N   UNL     1       2.210   1.124  -3.467  1.00  0.00    -0.241 NA
ATOM     22  C   UNL     1       2.836   3.829  -3.199  1.00  0.00     0.013 A 
ATOM     23  C   UNL     1       1.463   2.060  -4.083  1.00  0.00     0.072 A 
ATOM     24  C   UNL     1       1.743   3.439  -3.979  1.00  0.00     0.000 A 
ATOM     25  C   UNL     1       0.377   1.675  -4.861  1.00  0.00     0.029 A 
ATOM     26  C   UNL     1       0.945   4.383  -4.651  1.00  0.00     0.010 A 
ATOM     27  C   UNL     1      -0.417   2.610  -5.534  1.00  0.00     0.002 A 
ATOM     28  C   UNL     1      -0.131   3.966  -5.430  1.00  0.00     0.001 A 
ENDBRANCH  18  19
ENDBRANCH  17  18
ENDBRANCH  15  17
ENDBRANCH  12  13
ENDBRANCH   7  12
ENDBRANCH   3   6
ENDBRANCH   1   2
BRANCH   1  29
ATOM     29  C   UNL     1       2.475   2.503   8.965  1.00  0.00     0.023 C 
BRANCH  29  30
ATOM     30  C   UNL     1       2.283   2.398  10.481  1.00  0.00     0.023 C 
BRANCH  30  31
ATOM     31  C   UNL     1       3.432   2.953  11.317  1.00  0.00     0.116 C 
BRANCH  31  32
ATOM     32  N   UNL     1       3.732   4.344  11.023  1.00  0.00    -0.352 N 
ATOM     33  C   UNL     1       4.236   5.312  11.860  1.00  0.00     0.251 C 
ATOM     34  H   UNL     1       3.552   4.632  10.099  1.00  0.00     0.163 HD
ATOM     35  O   UNL     1       4.322   6.468  11.474  1.00  0.00    -0.269 OA
BRANCH  33  36
ATOM     36  C   UNL     1       4.630   4.949  13.239  1.00  0.00     0.039 A 
ATOM     37  C   UNL     1       4.203   5.761  14.291  1.00  0.00     0.014 A 
ATOM     38  C   UNL     1       5.404   3.813  13.495  1.00  0.00     0.014 A 
ATOM     39  C   UNL     1       4.507   5.404  15.606  1.00  0.00     0.010 A 
ATOM     40  C   UNL     1       5.643   3.420  14.809  1.00  0.00     0.010 A 
ATOM     41  C   UNL     1       5.204   4.214  15.877  1.00  0.00    -0.014 A 
BRANCH  41  42
ATOM     42  C   UNL     1       5.474   3.796  17.276  1.00  0.00     0.031 A 
ATOM     43  C   UNL     1       6.888   3.715  17.785  1.00  0.00     0.074 A 
ATOM     44  C   UNL     1       4.445   3.452  18.075  1.00  0.00     0.049 A 
ATOM     45  N   UNL     1       7.315   3.383  18.977  1.00  0.00    -0.248 NA
ATOM     46  C   UNL     1       7.963   4.022  16.828  1.00  0.00     0.031 C 
ATOM     47  C   UNL     1       3.034   3.434  17.679  1.00  0.00     0.029 A 
ATOM     48  N   UNL     1       4.426   3.054  19.388  1.00  0.00    -0.354 N 
ATOM     49  C   UNL     1       8.702   3.432  18.910  1.00  0.00     0.074 A 
ATOM     50  C   UNL     1       9.047   3.769  17.547  1.00  0.00     0.031 C 
ATOM     51  C   UNL     1       2.285   3.083  18.737  1.00  0.00     0.029 A 
ATOM     52  C   UNL     1       3.161   2.819  19.874  1.00  0.00     0.049 A 
ATOM     53  H   UNL     1       5.240   2.946  19.930  1.00  0.00     0.167 HD
ATOM     54  C   UNL     1       9.608   3.236  19.898  1.00  0.00     0.031 A 
ATOM     55  C   UNL     1       2.751   2.442  21.101  1.00  0.00     0.031 A 
ATOM     56  C   UNL     1       9.260   2.910  21.256  1.00  0.00     0.049 A 
ATOM     57  C   UNL     1       3.774   2.244  22.185  1.00  0.00     0.074 A 
ATOM     58  C   UNL     1      10.100   2.748  22.344  1.00  0.00     0.029 A 
ATOM     59  N   UNL     1       7.968   2.694  21.712  1.00  0.00    -0.354 N 
ATOM     60  N   UNL     1       5.078   2.370  22.120  1.00  0.00    -0.248 NA
ATOM     61  C   UNL     1       3.267   1.873  23.513  1.00  0.00     0.031 C 
ATOM     62  C   UNL     1       9.319   2.386  23.448  1.00  0.00     0.029 A 
ATOM     63  C   UNL     1       7.989   2.381  23.061  1.00  0.00     0.049 A 
ATOM     64  H   UNL     1       7.157   2.755  21.158  1.00  0.00     0.167 HD
ATOM     65  C   UNL     1       5.546   2.120  23.405  1.00  0.00     0.074 A 
ATOM     66  C   UNL     1       4.383   1.854  24.228  1.00  0.00     0.031 C 
ATOM     67  C   UNL     1       6.823   2.112  23.864  1.00  0.00     0.031 A 
BRANCH  54  68
ATOM     68  C   UNL     1      11.066   3.372  19.542  1.00  0.00    -0.014 A 
ATOM     69  C   UNL     1      11.621   4.625  19.224  1.00  0.00     0.010 A 
ATOM     70  C   UNL     1      11.900   2.240  19.556  1.00  0.00     0.010 A 
ATOM     71  C   UNL     1      12.972   4.737  18.884  1.00  0.00     0.020 A 
ATOM     72  C   UNL     1      13.258   2.351  19.245  1.00  0.00     0.020 A 
ATOM     73  C   UNL     1      13.782   3.597  18.893  1.00  0.00     0.054 A 
BRANCH  73  74
ATOM     74  S   UNL     1      15.536   3.774  18.466  1.00  0.00     0.124 S 
ATOM     75  O   UNL     1      15.473   3.982  17.021  1.00  0.00    -0.237 OA
ATOM     76  O   UNL     1      15.941   4.938  19.250  1.00  0.00    -0.237 OA
ATOM     77  O   UNL     1      16.125   2.506  18.887  1.00  0.00    -0.744 OA
ENDBRANCH  73  74
ENDBRANCH  54  68
BRANCH  55  78
ATOM     78  C   UNL     1       1.299   2.260  21.375  1.00  0.00    -0.014 A 
ATOM     79  C   UNL     1       0.606   3.175  22.186  1.00  0.00     0.010 A 
ATOM     80  C   UNL     1       0.599   1.177  20.812  1.00  0.00     0.010 A 
ATOM     81  C   UNL     1      -0.756   3.000  22.448  1.00  0.00     0.020 A 
ATOM     82  C   UNL     1      -0.770   1.015  21.048  1.00  0.00     0.020 A 
ATOM     83  C   UNL     1      -1.436   1.921  21.875  1.00  0.00     0.054 A 
BRANCH  83  84
ATOM     84  S   UNL     1      -3.215   1.743  22.185  1.00  0.00     0.124 S 
ATOM     85  O   UNL     1      -3.236   1.268  23.565  1.00  0.00    -0.237 OA
ATOM     86  O   UNL     1      -3.710   3.101  21.975  1.00  0.00    -0.237 OA
ATOM     87  O   UNL     1      -3.641   0.771  21.181  1.00  0.00    -0.744 OA
ENDBRANCH  83  84
ENDBRANCH  55  78
BRANCH  67  88
ATOM     88  C   UNL     1       7.026   1.837  25.330  1.00  0.00    -0.014 A 
ATOM     89  C   UNL     1       6.820   0.555  25.869  1.00  0.00     0.010 A 
ATOM     90  C   UNL     1       7.462   2.874  26.175  1.00  0.00     0.010 A 
ATOM     91  C   UNL     1       7.004   0.326  27.235  1.00  0.00     0.020 A 
ATOM     92  C   UNL     1       7.676   2.642  27.535  1.00  0.00     0.020 A 
ATOM     93  C   UNL     1       7.427   1.372  28.061  1.00  0.00     0.054 A 
BRANCH  93  94
ATOM     94  S   UNL     1       7.681   1.045  29.826  1.00  0.00     0.124 S 
ATOM     95  O   UNL     1       6.310   0.972  30.321  1.00  0.00    -0.237 OA
ATOM     96  O   UNL     1       8.415  -0.218  29.817  1.00  0.00    -0.237 OA
ATOM     97  O   UNL     1       8.449   2.201  30.285  1.00  0.00    -0.744 OA
ENDBRANCH  93  94
ENDBRANCH  67  88
ENDBRANCH  41  42
ENDBRANCH  33  36
ENDBRANCH  31  32
ENDBRANCH  30  31
ENDBRANCH  29  30
ENDBRANCH   1  29
TORSDOF 19
