REMARK SMILES Cc1nc2ccccc2c2c1C(=O)N(c1cccc(C(=O)NCCCCNC(=O)c3ccc(-c4c5nc(c(-c6ccc(S(=O)(=O)[O-])cc6)c6ccc([nH]6)c(-c6ccc(S(=O)(=O)[O-])cc6)c6nc(c(-c7ccc(S(=O)(=O)[O-])cc7)c7ccc4[nH]7)C=C6)C=C5)cc3)c1)C2=O
REMARK SMILES IDX 25 1 24 2 23 3 22 4 20 5 21 6 19 8 15 9 16 10 90 11 17 12
REMARK SMILES IDX 18 13 14 14 1 15 2 16 3 17 11 18 4 19 10 20 12 21 5 22 9 23
REMARK SMILES IDX 91 24 13 25 6 26 8 27 92 28 7 29 26 30 27 31 28 32 29 34
REMARK SMILES IDX 30 35 31 36 89 37 32 38 88 39 33 40 34 41 35 42 82 43 36 44
REMARK SMILES IDX 87 45 81 46 83 47 37 48 86 49 80 50 79 51 38 53 68 54 49 55
REMARK SMILES IDX 67 56 50 57 53 58 66 59 84 60 51 61 52 62 65 64 85 65 54 66
REMARK SMILES IDX 39 67 40 68 48 69 41 70 47 71 42 72 43 73 44 74 45 75 46 76
REMARK SMILES IDX 69 77 70 78 78 79 71 80 77 81 72 82 73 83 74 84 75 85 76 86
REMARK SMILES IDX 55 87 56 88 64 89 57 90 63 91 58 92 59 93 60 94 61 95 62 96
REMARK H PARENT 22 7 27 33 83 52 53 63
REMARK Flexibility Score: inf
ROOT
ATOM      1  C   UNL     1       5.230   6.535  -7.196  1.00  0.00     0.023 C 
ENDROOT
BRANCH   1   2
ATOM      2  C   UNL     1       4.616   5.905  -5.952  1.00  0.00     0.023 C 
BRANCH   2   3
ATOM      3  C   UNL     1       3.102   6.010  -5.798  1.00  0.00     0.116 C 
BRANCH   3   4
ATOM      4  N   UNL     1       2.360   5.580  -6.962  1.00  0.00    -0.352 N 
ATOM      5  C   UNL     1       1.019   5.450  -7.198  1.00  0.00     0.251 C 
ATOM      6  O   UNL     1       0.691   5.237  -8.368  1.00  0.00    -0.269 OA
ATOM      7  H   UNL     1       2.926   5.335  -7.729  1.00  0.00     0.163 HD
BRANCH   5   8
ATOM      8  C   UNL     1      -0.053   5.522  -6.155  1.00  0.00     0.041 A 
ATOM      9  C   UNL     1      -0.955   5.231  -3.905  1.00  0.00     0.053 A 
ATOM     10  C   UNL     1      -2.252   5.389  -4.436  1.00  0.00     0.027 A 
ATOM     11  C   UNL     1       0.138   5.412  -4.765  1.00  0.00     0.040 A 
ATOM     12  C   UNL     1      -2.464   5.494  -5.804  1.00  0.00     0.003 A 
ATOM     13  C   UNL     1      -1.370   5.523  -6.657  1.00  0.00     0.014 A 
BRANCH   9  14
ATOM     14  N   UNL     1      -0.810   4.483  -2.685  1.00  0.00    -0.242 N 
ATOM     15  C   UNL     1       1.973   1.703  -0.241  1.00  0.00     0.067 C 
ATOM     16  C   UNL     1       0.946   1.605  -1.320  1.00  0.00     0.052 A 
ATOM     17  N   UNL     1       0.833   0.405  -1.961  1.00  0.00    -0.252 NA
ATOM     18  C   UNL     1       0.079   2.629  -1.620  1.00  0.00     0.075 A 
ATOM     19  C   UNL     1       0.061   0.349  -3.070  1.00  0.00     0.071 A 
ATOM     20  C   UNL     1      -1.028   2.302  -2.346  1.00  0.00     0.064 A 
ATOM     21  C   UNL     1       0.351   4.042  -2.060  1.00  0.00     0.268 C 
ATOM     22  C   UNL     1       0.266  -0.629  -4.033  1.00  0.00     0.029 A 
ATOM     23  C   UNL     1      -0.852   1.369  -3.359  1.00  0.00     0.014 A 
ATOM     24  C   UNL     1      -1.765   3.536  -2.463  1.00  0.00     0.266 C 
ATOM     25  O   UNL     1       1.456   4.554  -2.013  1.00  0.00    -0.268 OA
ATOM     26  C   UNL     1      -0.222  -0.478  -5.337  1.00  0.00     0.002 A 
ATOM     27  C   UNL     1      -1.346   1.531  -4.674  1.00  0.00     0.011 A 
ATOM     28  O   UNL     1      -2.954   3.609  -2.257  1.00  0.00    -0.268 OA
ATOM     29  C   UNL     1      -0.974   0.640  -5.673  1.00  0.00     0.001 A 
ENDBRANCH   9  14
ENDBRANCH   5   8
ENDBRANCH   3   4
ENDBRANCH   2   3
ENDBRANCH   1   2
BRANCH   1  30
ATOM     30  C   UNL     1       4.713   7.920  -7.559  1.00  0.00     0.116 C 
BRANCH  30  31
ATOM     31  N   UNL     1       4.961   8.923  -6.533  1.00  0.00    -0.352 N 
ATOM     32  C   UNL     1       5.879   9.947  -6.478  1.00  0.00     0.251 C 
ATOM     33  H   UNL     1       4.373   8.858  -5.746  1.00  0.00     0.163 HD
ATOM     34  O   UNL     1       5.981  10.620  -5.456  1.00  0.00    -0.269 OA
BRANCH  32  35
ATOM     35  C   UNL     1       6.779  10.199  -7.623  1.00  0.00     0.039 A 
ATOM     36  C   UNL     1       6.291  10.219  -8.928  1.00  0.00     0.014 A 
ATOM     37  C   UNL     1       8.146  10.374  -7.387  1.00  0.00     0.014 A 
ATOM     38  C   UNL     1       7.182  10.167  -9.993  1.00  0.00     0.010 A 
ATOM     39  C   UNL     1       9.035  10.437  -8.465  1.00  0.00     0.010 A 
ATOM     40  C   UNL     1       8.567  10.258  -9.775  1.00  0.00    -0.014 A 
BRANCH  40  41
ATOM     41  C   UNL     1       9.498  10.126 -10.927  1.00  0.00     0.031 A 
ATOM     42  C   UNL     1      10.464   8.971 -11.005  1.00  0.00     0.074 A 
ATOM     43  C   UNL     1       9.407  10.993 -11.955  1.00  0.00     0.049 A 
ATOM     44  N   UNL     1      11.320   8.678 -11.951  1.00  0.00    -0.248 NA
ATOM     45  C   UNL     1      10.472   8.019  -9.881  1.00  0.00     0.031 C 
ATOM     46  C   UNL     1       8.475  12.121 -12.019  1.00  0.00     0.029 A 
ATOM     47  N   UNL     1      10.062  11.034 -13.160  1.00  0.00    -0.354 N 
ATOM     48  C   UNL     1      11.972   7.522 -11.534  1.00  0.00     0.074 A 
ATOM     49  C   UNL     1      11.441   7.184 -10.233  1.00  0.00     0.031 C 
ATOM     50  C   UNL     1       8.553  12.684 -13.232  1.00  0.00     0.029 A 
ATOM     51  C   UNL     1       9.597  12.015 -14.004  1.00  0.00     0.049 A 
ATOM     52  H   UNL     1      10.794  10.420 -13.398  1.00  0.00     0.167 HD
ATOM     53  C   UNL     1      12.916   6.800 -12.183  1.00  0.00     0.031 A 
ATOM     54  C   UNL     1       9.963  12.349 -15.257  1.00  0.00     0.031 A 
ATOM     55  C   UNL     1      13.438   7.136 -13.482  1.00  0.00     0.049 A 
ATOM     56  C   UNL     1      11.063  11.581 -15.926  1.00  0.00     0.074 A 
ATOM     57  C   UNL     1      14.419   6.482 -14.207  1.00  0.00     0.029 A 
ATOM     58  N   UNL     1      13.016   8.207 -14.255  1.00  0.00    -0.354 N 
ATOM     59  N   UNL     1      11.709  10.528 -15.488  1.00  0.00    -0.248 NA
ATOM     60  C   UNL     1      11.497  12.052 -17.248  1.00  0.00     0.031 C 
ATOM     61  C   UNL     1      14.625   7.186 -15.396  1.00  0.00     0.029 A 
ATOM     62  C   UNL     1      13.729   8.242 -15.441  1.00  0.00     0.049 A 
ATOM     63  H   UNL     1      12.314   8.847 -13.998  1.00  0.00     0.167 HD
ATOM     64  C   UNL     1      12.628  10.208 -16.480  1.00  0.00     0.074 A 
ATOM     65  C   UNL     1      12.440  11.167 -17.550  1.00  0.00     0.031 C 
ATOM     66  C   UNL     1      13.546   9.212 -16.494  1.00  0.00     0.031 A 
BRANCH  53  67
ATOM     67  C   UNL     1      13.460   5.571 -11.500  1.00  0.00    -0.014 A 
ATOM     68  C   UNL     1      14.789   5.554 -11.038  1.00  0.00     0.010 A 
ATOM     69  C   UNL     1      12.683   4.403 -11.386  1.00  0.00     0.010 A 
ATOM     70  C   UNL     1      15.337   4.392 -10.487  1.00  0.00     0.020 A 
ATOM     71  C   UNL     1      13.219   3.246 -10.812  1.00  0.00     0.020 A 
ATOM     72  C   UNL     1      14.549   3.243 -10.382  1.00  0.00     0.054 A 
BRANCH  72  73
ATOM     73  S   UNL     1      15.266   1.747  -9.647  1.00  0.00     0.124 S 
ATOM     74  O   UNL     1      16.046   1.203 -10.754  1.00  0.00    -0.237 OA
ATOM     75  O   UNL     1      16.042   2.277  -8.528  1.00  0.00    -0.237 OA
ATOM     76  O   UNL     1      14.094   0.964  -9.261  1.00  0.00    -0.744 OA
ENDBRANCH  72  73
ENDBRANCH  53  67
BRANCH  54  77
ATOM     77  C   UNL     1       9.244  13.457 -15.941  1.00  0.00    -0.014 A 
ATOM     78  C   UNL     1       9.374  14.782 -15.482  1.00  0.00     0.010 A 
ATOM     79  C   UNL     1       8.324  13.174 -16.965  1.00  0.00     0.010 A 
ATOM     80  C   UNL     1       8.543  15.788 -15.977  1.00  0.00     0.020 A 
ATOM     81  C   UNL     1       7.509  14.186 -17.483  1.00  0.00     0.020 A 
ATOM     82  C   UNL     1       7.598  15.477 -16.959  1.00  0.00     0.054 A 
BRANCH  82  83
ATOM     83  S   UNL     1       6.463  16.777 -17.520  1.00  0.00     0.124 S 
ATOM     84  O   UNL     1       5.508  16.834 -16.416  1.00  0.00    -0.237 OA
ATOM     85  O   UNL     1       7.342  17.936 -17.652  1.00  0.00    -0.237 OA
ATOM     86  O   UNL     1       5.937  16.251 -18.776  1.00  0.00    -0.744 OA
ENDBRANCH  82  83
ENDBRANCH  54  77
BRANCH  66  87
ATOM     87  C   UNL     1      14.446   9.097 -17.694  1.00  0.00    -0.014 A 
ATOM     88  C   UNL     1      14.299   8.011 -18.576  1.00  0.00     0.010 A 
ATOM     89  C   UNL     1      15.521   9.986 -17.870  1.00  0.00     0.010 A 
ATOM     90  C   UNL     1      15.230   7.794 -19.594  1.00  0.00     0.020 A 
ATOM     91  C   UNL     1      16.442   9.785 -18.902  1.00  0.00     0.020 A 
ATOM     92  C   UNL     1      16.305   8.676 -19.741  1.00  0.00     0.054 A 
BRANCH  92  93
ATOM     93  S   UNL     1      17.529   8.355 -21.040  1.00  0.00     0.124 S 
ATOM     94  O   UNL     1      18.330   7.287 -20.451  1.00  0.00    -0.237 OA
ATOM     95  O   UNL     1      16.699   7.966 -22.178  1.00  0.00    -0.237 OA
ATOM     96  O   UNL     1      18.212   9.639 -21.190  1.00  0.00    -0.744 OA
ENDBRANCH  92  93
ENDBRANCH  66  87
ENDBRANCH  40  41
ENDBRANCH  32  35
ENDBRANCH  30  31
ENDBRANCH   1  30
TORSDOF 15
