REMARK SMILES O=C(N/N=C/c1ccccc1O)C(=O)Nc1cccc(C(=O)NCCCCNC(=O)c2ccc(-c3c4nc(c(-c5ccc(S(=O)(=O)[O-])cc5)c5ccc([nH]5)c(-c5ccc(S(=O)(=O)[O-])cc5)c5nc(c(-c6ccc(S(=O)(=O)[O-])cc6)c6ccc3[nH]6)C=C5)C=C4)cc2)c1
REMARK SMILES IDX 24 1 23 2 21 3 22 4 20 6 16 7 17 8 91 9 18 10 19 11 15 12
REMARK SMILES IDX 13 13 14 14 2 16 1 17 3 18 4 20 5 21 6 22 7 23 11 24 8 25
REMARK SMILES IDX 10 26 9 27 12 28 25 30 26 31 27 32 28 33 29 34 30 36 31 37
REMARK SMILES IDX 32 38 90 39 33 40 89 41 34 42 35 43 36 44 83 45 37 46 88 47
REMARK SMILES IDX 82 48 84 49 38 50 87 51 81 52 80 53 39 55 69 56 50 57 68 58
REMARK SMILES IDX 51 59 54 60 67 61 85 62 52 63 53 64 66 66 86 67 55 68 40 69
REMARK SMILES IDX 41 70 49 71 42 72 48 73 43 74 44 75 45 76 46 77 47 78 70 79
REMARK SMILES IDX 71 80 79 81 72 82 78 83 73 84 74 85 75 86 76 87 77 88 56 89
REMARK SMILES IDX 57 90 65 91 58 92 64 93 59 94 60 95 61 96 62 97 63 98
REMARK H PARENT 23 5 15 15 3 19 12 29 28 35 84 54 54 65
REMARK Flexibility Score: inf
ROOT
ATOM      1  C   UNL     1       3.132  -2.635   2.539  1.00  0.00     0.116 C 
ENDROOT
BRANCH   1   2
ATOM      2  N   UNL     1       4.282  -2.471   3.408  1.00  0.00    -0.352 N 
ATOM      3  C   UNL     1       5.335  -1.599   3.337  1.00  0.00     0.251 C 
ATOM      4  O   UNL     1       6.133  -1.524   4.274  1.00  0.00    -0.269 OA
ATOM      5  H   UNL     1       4.309  -3.087   4.175  1.00  0.00     0.163 HD
BRANCH   3   6
ATOM      6  C   UNL     1       5.621  -0.740   2.158  1.00  0.00     0.041 A 
ATOM      7  C   UNL     1       5.268   0.121  -0.858  1.00  0.00     0.042 A 
ATOM      8  C   UNL     1       6.001   1.761  -0.498  1.00  0.00     0.026 A 
ATOM      9  C   UNL     1       5.157  -1.156   0.432  1.00  0.00     0.040 A 
ATOM     10  C   UNL     1       6.641   2.097   1.183  1.00  0.00     0.003 A 
ATOM     11  C   UNL     1       6.404   0.873   2.504  1.00  0.00     0.014 A 
BRANCH   7  12
ATOM     12  N   UNL     1       4.292   0.136  -1.852  1.00  0.00    -0.318 N 
ATOM     13  C   UNL     1       2.925   0.305  -1.661  1.00  0.00     0.315 C 
ATOM     14  O   UNL     1       2.247   0.510  -2.673  1.00  0.00    -0.263 OA
ATOM     15  H   UNL     1       4.600   0.015  -2.779  1.00  0.00     0.170 HD
BRANCH  13  16
ATOM     16  C   UNL     1       2.186   0.331  -0.297  1.00  0.00     0.329 C 
ATOM     17  O   UNL     1       1.033  -0.098  -0.245  1.00  0.00    -0.262 OA
ATOM     18  N   UNL     1       2.732   0.966   0.826  1.00  0.00    -0.239 N 
ATOM     19  H   UNL     1       2.360   1.805   1.182  1.00  0.00     0.194 HD
BRANCH  18  20
ATOM     20  N   UNL     1       3.814   0.349   1.401  1.00  0.00    -0.180 NA
ATOM     21  C   UNL     1       5.040   0.822   0.999  1.00  0.00     0.145 C 
BRANCH  21  22
ATOM     22  C   UNL     1       6.967   0.025   0.563  1.00  0.00     0.036 A 
ATOM     23  C   UNL     1       7.909   0.413  -0.577  1.00  0.00     0.013 A 
ATOM     24  C   UNL     1       7.885  -0.991   1.244  1.00  0.00     0.124 A 
ATOM     25  C   UNL     1       9.312   0.223  -0.748  1.00  0.00     0.001 A 
ATOM     26  C   UNL     1       9.308  -1.149   1.124  1.00  0.00     0.047 A 
ATOM     27  C   UNL     1      10.033  -0.488   0.168  1.00  0.00     0.004 A 
BRANCH  24  28
ATOM     28  O   UNL     1       7.467  -2.137   1.927  1.00  0.00    -0.507 OA
ATOM     29  H   UNL     1       6.560  -2.260   2.125  1.00  0.00     0.293 HD
ENDBRANCH  24  28
ENDBRANCH  21  22
ENDBRANCH  18  20
ENDBRANCH  13  16
ENDBRANCH   7  12
ENDBRANCH   3   6
ENDBRANCH   1   2
BRANCH   1  30
ATOM     30  C   UNL     1       3.216  -3.908   1.700  1.00  0.00     0.023 C 
BRANCH  30  31
ATOM     31  C   UNL     1       2.692  -5.165   2.396  1.00  0.00     0.023 C 
BRANCH  31  32
ATOM     32  C   UNL     1       1.233  -5.101   2.841  1.00  0.00     0.116 C 
BRANCH  32  33
ATOM     33  N   UNL     1       0.304  -4.790   1.768  1.00  0.00    -0.352 N 
ATOM     34  C   UNL     1      -1.016  -5.158   1.654  1.00  0.00     0.251 C 
ATOM     35  H   UNL     1       0.664  -4.247   1.030  1.00  0.00     0.163 HD
ATOM     36  O   UNL     1      -1.640  -4.914   0.626  1.00  0.00    -0.269 OA
BRANCH  34  37
ATOM     37  C   UNL     1      -1.668  -5.886   2.763  1.00  0.00     0.039 A 
ATOM     38  C   UNL     1      -2.418  -7.027   2.466  1.00  0.00     0.014 A 
ATOM     39  C   UNL     1      -1.536  -5.454   4.085  1.00  0.00     0.014 A 
ATOM     40  C   UNL     1      -2.995  -7.762   3.503  1.00  0.00     0.010 A 
ATOM     41  C   UNL     1      -2.052  -6.225   5.122  1.00  0.00     0.010 A 
ATOM     42  C   UNL     1      -2.797  -7.379   4.840  1.00  0.00    -0.014 A 
BRANCH  42  43
ATOM     43  C   UNL     1      -3.395  -8.159   5.950  1.00  0.00     0.031 A 
ATOM     44  C   UNL     1      -4.478  -7.549   6.797  1.00  0.00     0.074 A 
ATOM     45  C   UNL     1      -2.938  -9.397   6.219  1.00  0.00     0.049 A 
ATOM     46  N   UNL     1      -5.121  -8.067   7.811  1.00  0.00    -0.248 NA
ATOM     47  C   UNL     1      -4.871  -6.166   6.479  1.00  0.00     0.031 C 
ATOM     48  C   UNL     1      -1.855 -10.077   5.503  1.00  0.00     0.029 A 
ATOM     49  N   UNL     1      -3.331 -10.307   7.167  1.00  0.00    -0.354 N 
ATOM     50  C   UNL     1      -5.979  -7.071   8.262  1.00  0.00     0.074 A 
ATOM     51  C   UNL     1      -5.738  -5.902   7.445  1.00  0.00     0.031 C 
ATOM     52  C   UNL     1      -1.696 -11.309   6.014  1.00  0.00     0.029 A 
ATOM     53  C   UNL     1      -2.647 -11.498   7.105  1.00  0.00     0.049 A 
ATOM     54  H   UNL     1      -4.036 -10.124   7.830  1.00  0.00     0.167 HD
ATOM     55  C   UNL     1      -6.903  -7.128   9.252  1.00  0.00     0.031 A 
ATOM     56  C   UNL     1      -2.785 -12.622   7.834  1.00  0.00     0.031 A 
ATOM     57  C   UNL     1      -7.157  -8.298  10.048  1.00  0.00     0.049 A 
ATOM     58  C   UNL     1      -3.850 -12.680   8.893  1.00  0.00     0.074 A 
ATOM     59  C   UNL     1      -8.097  -8.476  11.048  1.00  0.00     0.029 A 
ATOM     60  N   UNL     1      -6.471  -9.497   9.924  1.00  0.00    -0.354 N 
ATOM     61  N   UNL     1      -4.689 -11.745   9.271  1.00  0.00    -0.248 NA
ATOM     62  C   UNL     1      -4.004 -13.955   9.607  1.00  0.00     0.031 C 
ATOM     63  C   UNL     1      -7.965  -9.778  11.544  1.00  0.00     0.029 A 
ATOM     64  C   UNL     1      -6.969 -10.421  10.826  1.00  0.00     0.049 A 
ATOM     65  H   UNL     1      -5.739  -9.666   9.288  1.00  0.00     0.167 HD
ATOM     66  C   UNL     1      -5.492 -12.329  10.243  1.00  0.00     0.074 A 
ATOM     67  C   UNL     1      -5.044 -13.699  10.389  1.00  0.00     0.031 C 
ATOM     68  C   UNL     1      -6.513 -11.782  10.949  1.00  0.00     0.031 A 
BRANCH  55  69
ATOM     69  C   UNL     1      -7.705  -5.882   9.515  1.00  0.00    -0.014 A 
ATOM     70  C   UNL     1      -8.680  -5.444   8.600  1.00  0.00     0.010 A 
ATOM     71  C   UNL     1      -7.484  -5.138  10.688  1.00  0.00     0.010 A 
ATOM     72  C   UNL     1      -9.382  -4.258   8.826  1.00  0.00     0.020 A 
ATOM     73  C   UNL     1      -8.203  -3.964  10.931  1.00  0.00     0.020 A 
ATOM     74  C   UNL     1      -9.131  -3.520   9.986  1.00  0.00     0.054 A 
BRANCH  74  75
ATOM     75  S   UNL     1     -10.053  -1.982  10.260  1.00  0.00     0.124 S 
ATOM     76  O   UNL     1      -9.355  -1.052   9.375  1.00  0.00    -0.237 OA
ATOM     77  O   UNL     1     -11.409  -2.339   9.850  1.00  0.00    -0.237 OA
ATOM     78  O   UNL     1      -9.886  -1.728  11.689  1.00  0.00    -0.744 OA
ENDBRANCH  74  75
ENDBRANCH  55  69
BRANCH  56  79
ATOM     79  C   UNL     1      -1.931 -13.804   7.543  1.00  0.00    -0.014 A 
ATOM     80  C   UNL     1      -2.469 -14.920   6.879  1.00  0.00     0.010 A 
ATOM     81  C   UNL     1      -0.574 -13.814   7.913  1.00  0.00     0.010 A 
ATOM     82  C   UNL     1      -1.672 -16.035   6.606  1.00  0.00     0.020 A 
ATOM     83  C   UNL     1       0.232 -14.919   7.622  1.00  0.00     0.020 A 
ATOM     84  C   UNL     1      -0.326 -16.028   6.981  1.00  0.00     0.054 A 
BRANCH  84  85
ATOM     85  S   UNL     1       0.707 -17.463   6.572  1.00  0.00     0.124 S 
ATOM     86  O   UNL     1       0.311 -18.423   7.598  1.00  0.00    -0.237 OA
ATOM     87  O   UNL     1       0.285 -17.782   5.210  1.00  0.00    -0.237 OA
ATOM     88  O   UNL     1       2.069 -16.946   6.688  1.00  0.00    -0.744 OA
ENDBRANCH  84  85
ENDBRANCH  56  79
BRANCH  68  89
ATOM     89  C   UNL     1      -7.241 -12.681  11.908  1.00  0.00    -0.014 A 
ATOM     90  C   UNL     1      -6.665 -13.063  13.132  1.00  0.00     0.010 A 
ATOM     91  C   UNL     1      -8.538 -13.123  11.589  1.00  0.00     0.010 A 
ATOM     92  C   UNL     1      -7.358 -13.905  14.005  1.00  0.00     0.020 A 
ATOM     93  C   UNL     1      -9.243 -13.947  12.469  1.00  0.00     0.020 A 
ATOM     94  C   UNL     1      -8.641 -14.347  13.664  1.00  0.00     0.054 A 
BRANCH  94  95
ATOM     95  S   UNL     1      -9.536 -15.419  14.822  1.00  0.00     0.124 S 
ATOM     96  O   UNL     1      -8.925 -16.720  14.564  1.00  0.00    -0.237 OA
ATOM     97  O   UNL     1      -9.227 -14.825  16.120  1.00  0.00    -0.237 OA
ATOM     98  O   UNL     1     -10.930 -15.290  14.402  1.00  0.00    -0.744 OA
ENDBRANCH  94  95
ENDBRANCH  68  89
ENDBRANCH  42  43
ENDBRANCH  34  37
ENDBRANCH  32  33
ENDBRANCH  31  32
ENDBRANCH  30  31
ENDBRANCH   1  30
TORSDOF 19
