REMARK SMILES C=Cc1cncc(-c2ccc([C@@H](C)C(=O)NCCCCNC(=O)c3ccc(-c4c5nc(c(-c6ccc(S(=O)(=O)[O-])cc6)c6ccc([nH]6)c(-c6ccc(S(=O)(=O)[O-])cc6)c6nc(c(-c7ccc(S(=O)(=O)[O-])cc7)c7ccc4[nH]7)C=C6)C=C5)cc3)cc2)c1
REMARK SMILES IDX 18 1 17 2 16 3 14 4 15 5 12 7 13 8 11 9 8 10 9 11 85 12
REMARK SMILES IDX 10 13 84 14 7 15 3 16 4 17 86 18 5 19 6 20 2 21 1 22 19 23
REMARK SMILES IDX 20 24 21 25 22 26 23 28 24 29 25 30 83 31 26 32 82 33 27 34
REMARK SMILES IDX 28 35 29 36 76 37 30 38 81 39 75 40 77 41 31 42 80 43 74 44
REMARK SMILES IDX 73 45 32 47 62 48 43 49 61 50 44 51 47 52 60 53 78 54 45 55
REMARK SMILES IDX 46 56 59 58 79 59 48 60 33 61 34 62 42 63 35 64 41 65 36 66
REMARK SMILES IDX 37 67 38 68 39 69 40 70 63 71 64 72 72 73 65 74 71 75 66 76
REMARK SMILES IDX 67 77 68 78 69 79 70 80 49 81 50 82 58 83 51 84 57 85 52 86
REMARK SMILES IDX 53 87 54 88 55 89 56 90
REMARK H PARENT 16 6 21 27 77 46 47 57
REMARK Flexibility Score: inf
ROOT
ATOM      1  C   UNL     1      -6.120   4.065   0.466  1.00  0.00     0.023 C 
ENDROOT
BRANCH   1   2
ATOM      2  C   UNL     1      -7.138   4.689  -0.489  1.00  0.00     0.116 C 
BRANCH   2   3
ATOM      3  N   UNL     1      -6.503   5.343  -1.615  1.00  0.00    -0.356 N 
ATOM      4  C   UNL     1      -6.222   4.898  -2.871  1.00  0.00     0.227 C 
ATOM      5  O   UNL     1      -5.593   5.671  -3.605  1.00  0.00    -0.274 OA
ATOM      6  H   UNL     1      -6.225   6.271  -1.441  1.00  0.00     0.163 HD
BRANCH   4   7
ATOM      7  C   UNL     1      -6.654   3.523  -3.406  1.00  0.00     0.105 C 
ATOM      8  C   UNL     1      -8.170   3.340  -3.474  1.00  0.00     0.023 C 
BRANCH   7   9
ATOM      9  C   UNL     1      -5.856   2.370  -2.815  1.00  0.00    -0.036 A 
ATOM     10  C   UNL     1      -4.173   0.395  -1.614  1.00  0.00    -0.017 A 
ATOM     11  C   UNL     1      -5.452   0.681  -1.110  1.00  0.00     0.009 A 
ATOM     12  C   UNL     1      -3.780   1.082  -2.773  1.00  0.00     0.009 A 
ATOM     13  C   UNL     1      -6.290   1.625  -1.717  1.00  0.00     0.005 A 
ATOM     14  C   UNL     1      -4.597   2.063  -3.352  1.00  0.00     0.005 A 
BRANCH  10  15
ATOM     15  C   UNL     1      -3.278  -0.564  -0.931  1.00  0.00     0.001 A 
ATOM     16  C   UNL     1      -1.065  -1.278  -0.171  1.00  0.00    -0.007 A 
ATOM     17  C   UNL     1      -1.686  -2.370   0.426  1.00  0.00     0.119 A 
ATOM     18  C   UNL     1      -1.886  -0.377  -0.863  1.00  0.00     0.020 A 
ATOM     19  N   UNL     1      -3.015  -2.609   0.385  1.00  0.00    -0.263 NA
ATOM     20  C   UNL     1      -3.767  -1.704  -0.287  1.00  0.00     0.119 A 
BRANCH  16  21
ATOM     21  C   UNL     1       0.394  -1.144  -0.106  1.00  0.00     0.002 C 
ATOM     22  C   UNL     1       1.039   0.019   0.047  1.00  0.00     0.009 C 
ENDBRANCH  16  21
ENDBRANCH  10  15
ENDBRANCH   7   9
ENDBRANCH   4   7
ENDBRANCH   2   3
ENDBRANCH   1   2
BRANCH   1  23
ATOM     23  C   UNL     1      -5.591   5.001   1.552  1.00  0.00     0.023 C 
BRANCH  23  24
ATOM     24  C   UNL     1      -6.642   5.543   2.515  1.00  0.00     0.116 C 
BRANCH  24  25
ATOM     25  N   UNL     1      -7.408   4.513   3.194  1.00  0.00    -0.352 N 
ATOM     26  C   UNL     1      -7.986   4.558   4.448  1.00  0.00     0.251 C 
ATOM     27  H   UNL     1      -7.532   3.673   2.696  1.00  0.00     0.163 HD
ATOM     28  O   UNL     1      -8.531   3.566   4.906  1.00  0.00    -0.269 OA
BRANCH  26  29
ATOM     29  C   UNL     1      -7.895   5.803   5.242  1.00  0.00     0.039 A 
ATOM     30  C   UNL     1      -7.508   5.718   6.582  1.00  0.00     0.014 A 
ATOM     31  C   UNL     1      -8.161   7.047   4.666  1.00  0.00     0.014 A 
ATOM     32  C   UNL     1      -7.331   6.888   7.326  1.00  0.00     0.010 A 
ATOM     33  C   UNL     1      -7.905   8.213   5.382  1.00  0.00     0.010 A 
ATOM     34  C   UNL     1      -7.498   8.145   6.723  1.00  0.00    -0.014 A 
BRANCH  34  35
ATOM     35  C   UNL     1      -7.277   9.399   7.487  1.00  0.00     0.031 A 
ATOM     36  C   UNL     1      -8.423  10.344   7.731  1.00  0.00     0.074 A 
ATOM     37  C   UNL     1      -6.038   9.711   7.917  1.00  0.00     0.049 A 
ATOM     38  N   UNL     1      -8.425  11.493   8.356  1.00  0.00    -0.248 NA
ATOM     39  C   UNL     1      -9.732   9.964   7.173  1.00  0.00     0.031 C 
ATOM     40  C   UNL     1      -4.833   8.907   7.692  1.00  0.00     0.029 A 
ATOM     41  N   UNL     1      -5.587  10.790   8.634  1.00  0.00    -0.354 N 
ATOM     42  C   UNL     1      -9.723  11.979   8.250  1.00  0.00     0.074 A 
ATOM     43  C   UNL     1     -10.466  11.030   7.451  1.00  0.00     0.031 C 
ATOM     44  C   UNL     1      -3.789   9.504   8.291  1.00  0.00     0.029 A 
ATOM     45  C   UNL     1      -4.242  10.742   8.916  1.00  0.00     0.049 A 
ATOM     46  H   UNL     1      -6.171  11.528   8.921  1.00  0.00     0.167 HD
ATOM     47  C   UNL     1     -10.259  13.100   8.790  1.00  0.00     0.031 A 
ATOM     48  C   UNL     1      -3.463  11.597   9.607  1.00  0.00     0.031 A 
ATOM     49  C   UNL     1      -9.525  14.030   9.604  1.00  0.00     0.049 A 
ATOM     50  C   UNL     1      -4.085  12.820  10.222  1.00  0.00     0.074 A 
ATOM     51  C   UNL     1      -9.989  15.160  10.253  1.00  0.00     0.029 A 
ATOM     52  N   UNL     1      -8.170  13.933   9.886  1.00  0.00    -0.354 N 
ATOM     53  N   UNL     1      -5.332  13.223  10.172  1.00  0.00    -0.248 NA
ATOM     54  C   UNL     1      -3.197  13.693  11.001  1.00  0.00     0.031 C 
ATOM     55  C   UNL     1      -8.905  15.770  10.895  1.00  0.00     0.029 A 
ATOM     56  C   UNL     1      -7.777  14.992  10.686  1.00  0.00     0.049 A 
ATOM     57  H   UNL     1      -7.576  13.217   9.565  1.00  0.00     0.167 HD
ATOM     58  C   UNL     1      -5.383  14.387  10.931  1.00  0.00     0.074 A 
ATOM     59  C   UNL     1      -4.047  14.610  11.445  1.00  0.00     0.031 C 
ATOM     60  C   UNL     1      -6.440  15.201  11.179  1.00  0.00     0.031 A 
BRANCH  47  61
ATOM     61  C   UNL     1     -11.715  13.372   8.515  1.00  0.00    -0.014 A 
ATOM     62  C   UNL     1     -12.721  12.570   9.085  1.00  0.00     0.010 A 
ATOM     63  C   UNL     1     -12.084  14.451   7.693  1.00  0.00     0.010 A 
ATOM     64  C   UNL     1     -14.067  12.811   8.797  1.00  0.00     0.020 A 
ATOM     65  C   UNL     1     -13.431  14.714   7.426  1.00  0.00     0.020 A 
ATOM     66  C   UNL     1     -14.413  13.878   7.964  1.00  0.00     0.054 A 
BRANCH  66  67
ATOM     67  S   UNL     1     -16.168  14.176   7.616  1.00  0.00     0.124 S 
ATOM     68  O   UNL     1     -16.473  13.102   6.673  1.00  0.00    -0.237 OA
ATOM     69  O   UNL     1     -16.784  14.046   8.934  1.00  0.00    -0.237 OA
ATOM     70  O   UNL     1     -16.186  15.523   7.052  1.00  0.00    -0.744 OA
ENDBRANCH  66  67
ENDBRANCH  47  61
BRANCH  48  71
ATOM     71  C   UNL     1      -2.014  11.305   9.785  1.00  0.00    -0.014 A 
ATOM     72  C   UNL     1      -1.518  10.901  11.037  1.00  0.00     0.010 A 
ATOM     73  C   UNL     1      -1.125  11.419   8.701  1.00  0.00     0.010 A 
ATOM     74  C   UNL     1      -0.157  10.635  11.208  1.00  0.00     0.020 A 
ATOM     75  C   UNL     1       0.234  11.129   8.862  1.00  0.00     0.020 A 
ATOM     76  C   UNL     1       0.711  10.750  10.118  1.00  0.00     0.054 A 
BRANCH  76  77
ATOM     77  S   UNL     1       2.466  10.349  10.350  1.00  0.00     0.124 S 
ATOM     78  O   UNL     1       2.953  11.522  11.069  1.00  0.00    -0.237 OA
ATOM     79  O   UNL     1       2.409   9.111  11.122  1.00  0.00    -0.237 OA
ATOM     80  O   UNL     1       2.963  10.199   8.984  1.00  0.00    -0.744 OA
ENDBRANCH  76  77
ENDBRANCH  48  71
BRANCH  60  81
ATOM     81  C   UNL     1      -6.193  16.394  12.062  1.00  0.00    -0.014 A 
ATOM     82  C   UNL     1      -5.463  17.502  11.598  1.00  0.00     0.010 A 
ATOM     83  C   UNL     1      -6.729  16.419  13.363  1.00  0.00     0.010 A 
ATOM     84  C   UNL     1      -5.238  18.599  12.433  1.00  0.00     0.020 A 
ATOM     85  C   UNL     1      -6.528  17.525  14.192  1.00  0.00     0.020 A 
ATOM     86  C   UNL     1      -5.768  18.601  13.727  1.00  0.00     0.054 A 
BRANCH  86  87
ATOM     87  S   UNL     1      -5.483  20.045  14.787  1.00  0.00     0.124 S 
ATOM     88  O   UNL     1      -4.095  19.850  15.197  1.00  0.00    -0.237 OA
ATOM     89  O   UNL     1      -5.719  21.164  13.877  1.00  0.00    -0.237 OA
ATOM     90  O   UNL     1      -6.474  19.895  15.850  1.00  0.00    -0.744 OA
ENDBRANCH  86  87
ENDBRANCH  60  81
ENDBRANCH  34  35
ENDBRANCH  26  29
ENDBRANCH  24  25
ENDBRANCH  23  24
ENDBRANCH   1  23
TORSDOF 17
