REMARK SMILES Cc1ccc(N2C(=O)/C(=C\c3ccccc3O[C@H](C)C(=O)NCCCCNC(=O)c3ccc(-c4c5nc(c(-c6ccc(S(=O)(=O)[O-])cc6)c6ccc([nH]6)c(-c6ccc(S(=O)(=O)[O-])cc6)c6nc(c(-c7ccc(S(=O)(=O)[O-])cc7)c7ccc4[nH]7)C=C6)C=C5)cc3)SC2=S)c(C)c1
REMARK SMILES IDX 24 1 23 2 22 3 20 4 21 5 18 7 19 8 17 9 16 10 11 11 12 12
REMARK SMILES IDX 13 13 15 14 14 15 10 16 6 17 7 18 91 19 8 20 9 21 90 22
REMARK SMILES IDX 92 23 5 24 1 25 2 26 3 27 95 28 4 29 93 30 94 31 25 32 26 33
REMARK SMILES IDX 27 34 28 35 29 37 30 38 31 39 89 40 32 41 88 42 33 43 34 44
REMARK SMILES IDX 35 45 82 46 36 47 87 48 81 49 83 50 37 51 86 52 80 53 79 54
REMARK SMILES IDX 38 56 68 57 49 58 67 59 50 60 53 61 66 62 84 63 51 64 52 65
REMARK SMILES IDX 65 67 85 68 54 69 39 70 40 71 48 72 41 73 47 74 42 75 43 76
REMARK SMILES IDX 44 77 45 78 46 79 69 80 70 81 78 82 71 83 77 84 72 85 73 86
REMARK SMILES IDX 74 87 75 88 76 89 55 90 56 91 64 92 57 93 63 94 58 95 59 96
REMARK SMILES IDX 60 97 61 98 62 99
REMARK H PARENT 22 6 27 36 83 55 53 66
REMARK Flexibility Score: inf
ROOT
ATOM      1  C   UNL     1      -6.964  -1.925  -3.628  1.00  0.00     0.023 C 
ENDROOT
BRANCH   1   2
ATOM      2  C   UNL     1      -6.242  -2.128  -2.300  1.00  0.00     0.116 C 
BRANCH   2   3
ATOM      3  N   UNL     1      -5.869  -3.515  -2.069  1.00  0.00    -0.353 N 
ATOM      4  C   UNL     1      -4.620  -4.088  -2.076  1.00  0.00     0.260 C 
ATOM      5  O   UNL     1      -4.524  -5.281  -1.775  1.00  0.00    -0.271 OA
ATOM      6  H   UNL     1      -6.616  -4.129  -1.881  1.00  0.00     0.163 HD
BRANCH   4   7
ATOM      7  C   UNL     1      -3.391  -3.260  -2.488  1.00  0.00     0.258 C 
ATOM      8  C   UNL     1      -3.522  -2.926  -3.971  1.00  0.00     0.064 C 
BRANCH   7   9
ATOM      9  O   UNL     1      -3.403  -2.190  -1.551  1.00  0.00    -0.480 OA
BRANCH   9  10
ATOM     10  C   UNL     1      -2.627  -1.076  -1.583  1.00  0.00     0.127 A 
ATOM     11  C   UNL     1      -2.777  -0.227  -0.462  1.00  0.00     0.018 A 
ATOM     12  C   UNL     1      -2.138   1.018  -0.437  1.00  0.00     0.012 A 
ATOM     13  C   UNL     1      -1.313   1.397  -1.494  1.00  0.00     0.001 A 
ATOM     14  C   UNL     1      -1.754  -0.713  -2.601  1.00  0.00     0.047 A 
ATOM     15  C   UNL     1      -1.107   0.526  -2.561  1.00  0.00     0.004 A 
BRANCH  11  16
ATOM     16  C   UNL     1      -3.579  -0.627   0.709  1.00  0.00     0.033 C 
ATOM     17  N   UNL     1      -2.343  -3.719   2.243  1.00  0.00    -0.261 N 
ATOM     18  C   UNL     1      -2.209  -2.683   1.323  1.00  0.00     0.270 C 
ATOM     19  C   UNL     1      -3.410  -3.633   3.123  1.00  0.00     0.152 C 
ATOM     20  O   UNL     1      -1.303  -2.555   0.507  1.00  0.00    -0.268 OA
ATOM     21  C   UNL     1      -3.336  -1.711   1.466  1.00  0.00     0.081 C 
ATOM     22  S   UNL     1      -4.355  -2.184   2.772  1.00  0.00    -0.054 SA
ATOM     23  S   UNL     1      -3.791  -4.606   4.431  1.00  0.00    -0.051 S 
BRANCH  17  24
ATOM     24  C   UNL     1      -1.417  -4.805   2.202  1.00  0.00     0.054 A 
ATOM     25  C   UNL     1       1.286  -8.138   1.655  1.00  0.00     0.044 C 
ATOM     26  C   UNL     1       0.337  -6.997   1.864  1.00  0.00    -0.051 A 
ATOM     27  C   UNL     1      -1.044  -7.190   1.839  1.00  0.00     0.005 A 
ATOM     28  C   UNL     1       0.837  -5.708   2.076  1.00  0.00     0.009 A 
ATOM     29  C   UNL     1      -1.911  -6.106   2.002  1.00  0.00     0.027 A 
ATOM     30  C   UNL     1      -0.021  -4.607   2.263  1.00  0.00    -0.027 A 
ATOM     31  C   UNL     1       0.628  -3.272   2.520  1.00  0.00     0.046 C 
ENDBRANCH  17  24
ENDBRANCH  11  16
ENDBRANCH   9  10
ENDBRANCH   7   9
ENDBRANCH   4   7
ENDBRANCH   2   3
ENDBRANCH   1   2
BRANCH   1  32
ATOM     32  C   UNL     1      -8.371  -2.512  -3.681  1.00  0.00     0.023 C 
BRANCH  32  33
ATOM     33  C   UNL     1      -9.308  -2.043  -2.574  1.00  0.00     0.116 C 
BRANCH  33  34
ATOM     34  N   UNL     1      -9.467  -0.595  -2.533  1.00  0.00    -0.352 N 
ATOM     35  C   UNL     1     -10.625   0.143  -2.453  1.00  0.00     0.251 C 
ATOM     36  H   UNL     1      -8.632  -0.074  -2.566  1.00  0.00     0.163 HD
ATOM     37  O   UNL     1     -10.589   1.363  -2.559  1.00  0.00    -0.269 OA
BRANCH  35  38
ATOM     38  C   UNL     1     -11.915  -0.557  -2.277  1.00  0.00     0.039 A 
ATOM     39  C   UNL     1     -12.976  -0.246  -3.129  1.00  0.00     0.014 A 
ATOM     40  C   UNL     1     -12.052  -1.557  -1.310  1.00  0.00     0.014 A 
ATOM     41  C   UNL     1     -14.150  -1.000  -3.069  1.00  0.00     0.010 A 
ATOM     42  C   UNL     1     -13.190  -2.357  -1.306  1.00  0.00     0.010 A 
ATOM     43  C   UNL     1     -14.247  -2.093  -2.191  1.00  0.00    -0.014 A 
BRANCH  43  44
ATOM     44  C   UNL     1     -15.431  -2.990  -2.195  1.00  0.00     0.031 A 
ATOM     45  C   UNL     1     -16.291  -3.110  -0.967  1.00  0.00     0.074 A 
ATOM     46  C   UNL     1     -15.682  -3.757  -3.276  1.00  0.00     0.049 A 
ATOM     47  N   UNL     1     -17.304  -3.907  -0.746  1.00  0.00    -0.248 NA
ATOM     48  C   UNL     1     -15.954  -2.236   0.169  1.00  0.00     0.031 C 
ATOM     49  C   UNL     1     -14.903  -3.757  -4.517  1.00  0.00     0.029 A 
ATOM     50  N   UNL     1     -16.657  -4.697  -3.500  1.00  0.00    -0.354 N 
ATOM     51  C   UNL     1     -17.716  -3.643   0.555  1.00  0.00     0.074 A 
ATOM     52  C   UNL     1     -16.813  -2.648   1.090  1.00  0.00     0.031 C 
ATOM     53  C   UNL     1     -15.444  -4.634  -5.377  1.00  0.00     0.029 A 
ATOM     54  C   UNL     1     -16.574  -5.298  -4.735  1.00  0.00     0.049 A 
ATOM     55  H   UNL     1     -17.352  -4.920  -2.839  1.00  0.00     0.167 HD
ATOM     56  C   UNL     1     -18.762  -4.168   1.236  1.00  0.00     0.031 A 
ATOM     57  C   UNL     1     -17.310  -6.285  -5.283  1.00  0.00     0.031 A 
ATOM     58  C   UNL     1     -19.659  -5.157   0.698  1.00  0.00     0.049 A 
ATOM     59  C   UNL     1     -18.439  -6.883  -4.489  1.00  0.00     0.074 A 
ATOM     60  C   UNL     1     -20.779  -5.714   1.290  1.00  0.00     0.029 A 
ATOM     61  N   UNL     1     -19.535  -5.743  -0.553  1.00  0.00    -0.354 N 
ATOM     62  N   UNL     1     -18.856  -6.571  -3.285  1.00  0.00    -0.248 NA
ATOM     63  C   UNL     1     -19.201  -7.964  -5.130  1.00  0.00     0.031 C 
ATOM     64  C   UNL     1     -21.294  -6.683   0.424  1.00  0.00     0.029 A 
ATOM     65  C   UNL     1     -20.538  -6.682  -0.736  1.00  0.00     0.049 A 
ATOM     66  H   UNL     1     -18.839  -5.525  -1.213  1.00  0.00     0.167 HD
ATOM     67  C   UNL     1     -19.942  -7.402  -3.033  1.00  0.00     0.074 A 
ATOM     68  C   UNL     1     -20.131  -8.214  -4.217  1.00  0.00     0.031 C 
ATOM     69  C   UNL     1     -20.712  -7.487  -1.920  1.00  0.00     0.031 A 
BRANCH  56  70
ATOM     70  C   UNL     1     -18.989  -3.689   2.646  1.00  0.00    -0.014 A 
ATOM     71  C   UNL     1     -19.423  -2.377   2.908  1.00  0.00     0.010 A 
ATOM     72  C   UNL     1     -18.811  -4.577   3.723  1.00  0.00     0.010 A 
ATOM     73  C   UNL     1     -19.637  -1.950   4.221  1.00  0.00     0.020 A 
ATOM     74  C   UNL     1     -19.054  -4.163   5.036  1.00  0.00     0.020 A 
ATOM     75  C   UNL     1     -19.451  -2.847   5.277  1.00  0.00     0.054 A 
BRANCH  75  76
ATOM     76  S   UNL     1     -19.765  -2.271   6.968  1.00  0.00     0.124 S 
ATOM     77  O   UNL     1     -18.642  -1.363   7.191  1.00  0.00    -0.237 OA
ATOM     78  O   UNL     1     -21.074  -1.633   6.850  1.00  0.00    -0.237 OA
ATOM     79  O   UNL     1     -19.741  -3.496   7.763  1.00  0.00    -0.744 OA
ENDBRANCH  75  76
ENDBRANCH  56  70
BRANCH  57  80
ATOM     80  C   UNL     1     -16.998  -6.775  -6.655  1.00  0.00    -0.014 A 
ATOM     81  C   UNL     1     -17.888  -6.539  -7.718  1.00  0.00     0.010 A 
ATOM     82  C   UNL     1     -15.806  -7.479  -6.907  1.00  0.00     0.010 A 
ATOM     83  C   UNL     1     -17.602  -7.015  -9.001  1.00  0.00     0.020 A 
ATOM     84  C   UNL     1     -15.501  -7.928  -8.195  1.00  0.00     0.020 A 
ATOM     85  C   UNL     1     -16.407  -7.703  -9.232  1.00  0.00     0.054 A 
BRANCH  85  86
ATOM     86  S   UNL     1     -16.036  -8.269 -10.916  1.00  0.00     0.124 S 
ATOM     87  O   UNL     1     -16.983  -9.367 -11.084  1.00  0.00    -0.237 OA
ATOM     88  O   UNL     1     -16.303  -7.074 -11.714  1.00  0.00    -0.237 OA
ATOM     89  O   UNL     1     -14.630  -8.658 -10.844  1.00  0.00    -0.744 OA
ENDBRANCH  85  86
ENDBRANCH  57  80
BRANCH  69  90
ATOM     90  C   UNL     1     -21.846  -8.477  -1.933  1.00  0.00    -0.014 A 
ATOM     91  C   UNL     1     -21.605  -9.861  -1.870  1.00  0.00     0.010 A 
ATOM     92  C   UNL     1     -23.175  -8.013  -1.941  1.00  0.00     0.010 A 
ATOM     93  C   UNL     1     -22.672 -10.763  -1.842  1.00  0.00     0.020 A 
ATOM     94  C   UNL     1     -24.244  -8.910  -1.881  1.00  0.00     0.020 A 
ATOM     95  C   UNL     1     -23.985 -10.281  -1.843  1.00  0.00     0.054 A 
BRANCH  95  96
ATOM     96  S   UNL     1     -25.349 -11.473  -1.747  1.00  0.00     0.124 S 
ATOM     97  O   UNL     1     -25.311 -12.087  -3.071  1.00  0.00    -0.237 OA
ATOM     98  O   UNL     1     -24.942 -12.336  -0.641  1.00  0.00    -0.237 OA
ATOM     99  O   UNL     1     -26.520 -10.639  -1.480  1.00  0.00    -0.744 OA
ENDBRANCH  95  96
ENDBRANCH  69  90
ENDBRANCH  43  44
ENDBRANCH  35  38
ENDBRANCH  33  34
ENDBRANCH  32  33
ENDBRANCH   1  32
TORSDOF 18
