REMARK SMILES CC(C)(C)OC(=O)N1C[C@@H](C(=O)NCCCCNC(=O)c2ccc(-c3c4nc(c(-c5ccc(S(=O)(=O)[O-])cc5)c5ccc([nH]5)c(-c5ccc(S(=O)(=O)[O-])cc5)c5nc(c(-c6ccc(S(=O)(=O)[O-])cc6)c6ccc3[nH]6)C=C5)C=C4)cc2)[C@@]2(C1)C(=O)Nc1ccccc12
REMARK SMILES IDX 15 1 14 2 13 3 11 4 12 5 10 7 8 8 9 9 82 10 81 11 83 12
REMARK SMILES IDX 91 13 84 14 85 15 86 16 90 17 87 19 89 20 88 21 6 22 7 23
REMARK SMILES IDX 5 24 2 25 1 26 3 27 4 28 16 29 17 30 18 31 19 32 20 34 21 35
REMARK SMILES IDX 22 36 80 37 23 38 79 39 24 40 25 41 26 42 73 43 27 44 78 45
REMARK SMILES IDX 72 46 74 47 28 48 77 49 71 50 70 51 29 53 59 54 40 55 58 56
REMARK SMILES IDX 41 57 44 58 57 59 75 60 42 61 43 62 56 64 76 65 45 66 30 67
REMARK SMILES IDX 31 68 39 69 32 70 38 71 33 72 34 73 35 74 36 75 37 76 60 77
REMARK SMILES IDX 61 78 69 79 62 80 68 81 63 82 64 83 65 84 66 85 67 86 46 87
REMARK SMILES IDX 47 88 55 89 48 90 54 91 49 92 50 93 51 94 52 95 53 96
REMARK H PARENT 13 6 85 18 18 33 74 52 44 63
REMARK Flexibility Score: inf
ROOT
ATOM      1  C   UNL     1       2.780   4.548  -3.924  1.00  0.00     0.023 C 
ENDROOT
BRANCH   1   2
ATOM      2  C   UNL     1       1.333   4.368  -4.391  1.00  0.00     0.116 C 
BRANCH   2   3
ATOM      3  N   UNL     1       1.156   4.568  -5.819  1.00  0.00    -0.356 N 
ATOM      4  C   UNL     1       1.088   3.745  -6.896  1.00  0.00     0.226 C 
ATOM      5  O   UNL     1       0.867   4.306  -7.978  1.00  0.00    -0.275 OA
ATOM      6  H   UNL     1       1.064   5.518  -6.061  1.00  0.00     0.163 HD
BRANCH   4   7
ATOM      7  C   UNL     1       1.277   2.232  -6.889  1.00  0.00     0.120 C 
ATOM      8  N   UNL     1       1.099   1.056  -4.838  1.00  0.00    -0.306 N 
ATOM      9  C   UNL     1       0.311   1.518  -5.964  1.00  0.00     0.138 C 
ATOM     10  C   UNL     1       2.538   1.248  -5.052  1.00  0.00     0.145 C 
ATOM     11  C   UNL     1       2.657   1.650  -6.542  1.00  0.00     0.107 C 
ATOM     12  C   UNL     1       2.846   0.278  -7.272  1.00  0.00     0.237 C 
ATOM     13  C   UNL     1       3.875   2.396  -7.069  1.00  0.00    -0.006 A 
ATOM     14  O   UNL     1       2.082  -0.674  -7.281  1.00  0.00    -0.274 OA
ATOM     15  N   UNL     1       4.072   0.289  -7.907  1.00  0.00    -0.325 N 
ATOM     16  C   UNL     1       4.666   1.531  -7.828  1.00  0.00     0.045 A 
ATOM     17  C   UNL     1       4.227   3.739  -7.059  1.00  0.00     0.007 A 
ATOM     18  H   UNL     1       4.471  -0.490  -8.357  1.00  0.00     0.169 HD
ATOM     19  C   UNL     1       5.812   1.916  -8.502  1.00  0.00     0.026 A 
ATOM     20  C   UNL     1       5.372   4.168  -7.745  1.00  0.00     0.000 A 
ATOM     21  C   UNL     1       6.167   3.261  -8.453  1.00  0.00     0.002 A 
BRANCH   8  22
ATOM     22  C   UNL     1       0.466   0.370  -3.828  1.00  0.00     0.410 C 
ATOM     23  O   UNL     1      -0.688  -0.020  -3.943  1.00  0.00    -0.224 OA
BRANCH  22  24
ATOM     24  O   UNL     1       1.222   0.237  -2.709  1.00  0.00    -0.444 OA
BRANCH  24  25
ATOM     25  C   UNL     1       0.706  -0.488  -1.551  1.00  0.00     0.106 C 
ATOM     26  C   UNL     1       1.462   0.072  -0.337  1.00  0.00     0.056 C 
ATOM     27  C   UNL     1       1.052  -1.969  -1.731  1.00  0.00     0.056 C 
ATOM     28  C   UNL     1      -0.798  -0.317  -1.265  1.00  0.00     0.056 C 
ENDBRANCH  24  25
ENDBRANCH  22  24
ENDBRANCH   8  22
ENDBRANCH   4   7
ENDBRANCH   2   3
ENDBRANCH   1   2
BRANCH   1  29
ATOM     29  C   UNL     1       3.309   5.981  -3.962  1.00  0.00     0.023 C 
BRANCH  29  30
ATOM     30  C   UNL     1       2.658   6.913  -2.952  1.00  0.00     0.116 C 
BRANCH  30  31
ATOM     31  N   UNL     1       2.791   6.442  -1.580  1.00  0.00    -0.352 N 
ATOM     32  C   UNL     1       2.918   7.181  -0.431  1.00  0.00     0.251 C 
ATOM     33  H   UNL     1       2.789   5.465  -1.462  1.00  0.00     0.163 HD
ATOM     34  O   UNL     1       3.138   6.625   0.640  1.00  0.00    -0.269 OA
BRANCH  32  35
ATOM     35  C   UNL     1       2.829   8.651  -0.511  1.00  0.00     0.039 A 
ATOM     36  C   UNL     1       3.821   9.419   0.102  1.00  0.00     0.014 A 
ATOM     37  C   UNL     1       1.795   9.261  -1.226  1.00  0.00     0.014 A 
ATOM     38  C   UNL     1       3.811  10.805  -0.058  1.00  0.00     0.010 A 
ATOM     39  C   UNL     1       1.828  10.631  -1.445  1.00  0.00     0.010 A 
ATOM     40  C   UNL     1       2.834  11.415  -0.861  1.00  0.00    -0.014 A 
BRANCH  40  41
ATOM     41  C   UNL     1       2.839  12.877  -1.101  1.00  0.00     0.031 A 
ATOM     42  C   UNL     1       1.702  13.720  -0.596  1.00  0.00     0.074 A 
ATOM     43  C   UNL     1       3.824  13.425  -1.839  1.00  0.00     0.049 A 
ATOM     44  N   UNL     1       1.483  14.997  -0.773  1.00  0.00    -0.248 NA
ATOM     45  C   UNL     1       0.661  13.032   0.186  1.00  0.00     0.031 C 
ATOM     46  C   UNL     1       4.954  12.697  -2.422  1.00  0.00     0.029 A 
ATOM     47  N   UNL     1       4.027  14.723  -2.233  1.00  0.00    -0.354 N 
ATOM     48  C   UNL     1       0.271  15.260  -0.146  1.00  0.00     0.074 A 
ATOM     49  C   UNL     1      -0.220  14.003   0.375  1.00  0.00     0.031 C 
ATOM     50  C   UNL     1       5.743  13.562  -3.079  1.00  0.00     0.029 A 
ATOM     51  C   UNL     1       5.158  14.897  -2.995  1.00  0.00     0.049 A 
ATOM     52  H   UNL     1       3.421  15.460  -1.992  1.00  0.00     0.167 HD
ATOM     53  C   UNL     1      -0.366  16.445  -0.000  1.00  0.00     0.031 A 
ATOM     54  C   UNL     1       5.664  16.007  -3.566  1.00  0.00     0.031 A 
ATOM     55  C   UNL     1       0.138  17.694  -0.504  1.00  0.00     0.049 A 
ATOM     56  C   UNL     1       4.946  17.314  -3.379  1.00  0.00     0.074 A 
ATOM     57  C   UNL     1      -0.399  18.961  -0.360  1.00  0.00     0.029 A 
ATOM     58  N   UNL     1       1.300  17.833  -1.248  1.00  0.00    -0.354 N 
ATOM     59  N   UNL     1       3.831  17.554  -2.730  1.00  0.00    -0.248 NA
ATOM     60  C   UNL     1       5.559  18.500  -3.990  1.00  0.00     0.031 C 
ATOM     61  C   UNL     1       0.418  19.861  -1.051  1.00  0.00     0.029 A 
ATOM     62  C   UNL     1       1.490  19.162  -1.584  1.00  0.00     0.049 A 
ATOM     63  H   UNL     1       1.902  17.095  -1.499  1.00  0.00     0.167 HD
ATOM     64  C   UNL     1       3.620  18.924  -2.836  1.00  0.00     0.074 A 
ATOM     65  C   UNL     1       4.731  19.460  -3.598  1.00  0.00     0.031 C 
ATOM     66  C   UNL     1       2.601  19.672  -2.346  1.00  0.00     0.031 A 
BRANCH  53  67
ATOM     67  C   UNL     1      -1.680  16.439   0.734  1.00  0.00    -0.014 A 
ATOM     68  C   UNL     1      -1.734  16.212   2.121  1.00  0.00     0.010 A 
ATOM     69  C   UNL     1      -2.875  16.684   0.033  1.00  0.00     0.010 A 
ATOM     70  C   UNL     1      -2.962  16.184   2.786  1.00  0.00     0.020 A 
ATOM     71  C   UNL     1      -4.104  16.684   0.700  1.00  0.00     0.020 A 
ATOM     72  C   UNL     1      -4.140  16.414   2.070  1.00  0.00     0.054 A 
BRANCH  72  73
ATOM     73  S   UNL     1      -5.720  16.386   2.960  1.00  0.00     0.124 S 
ATOM     74  O   UNL     1      -5.920  14.954   3.171  1.00  0.00    -0.237 OA
ATOM     75  O   UNL     1      -5.426  17.162   4.162  1.00  0.00    -0.237 OA
ATOM     76  O   UNL     1      -6.654  17.015   2.030  1.00  0.00    -0.744 OA
ENDBRANCH  72  73
ENDBRANCH  53  67
BRANCH  54  77
ATOM     77  C   UNL     1       6.927  15.929  -4.347  1.00  0.00    -0.014 A 
ATOM     78  C   UNL     1       8.120  16.458  -3.824  1.00  0.00     0.010 A 
ATOM     79  C   UNL     1       6.949  15.305  -5.608  1.00  0.00     0.010 A 
ATOM     80  C   UNL     1       9.309  16.378  -4.554  1.00  0.00     0.020 A 
ATOM     81  C   UNL     1       8.142  15.202  -6.329  1.00  0.00     0.020 A 
ATOM     82  C   UNL     1       9.313  15.748  -5.801  1.00  0.00     0.054 A 
BRANCH  82  83
ATOM     83  S   UNL     1      10.880  15.602  -6.705  1.00  0.00     0.124 S 
ATOM     84  O   UNL     1      11.060  16.955  -7.221  1.00  0.00    -0.237 OA
ATOM     85  O   UNL     1      11.813  15.194  -5.658  1.00  0.00    -0.237 OA
ATOM     86  O   UNL     1      10.599  14.579  -7.710  1.00  0.00    -0.744 OA
ENDBRANCH  82  83
ENDBRANCH  54  77
BRANCH  66  87
ATOM     87  C   UNL     1       2.653  21.154  -2.596  1.00  0.00    -0.014 A 
ATOM     88  C   UNL     1       2.374  21.685  -3.867  1.00  0.00     0.010 A 
ATOM     89  C   UNL     1       2.932  22.027  -1.529  1.00  0.00     0.010 A 
ATOM     90  C   UNL     1       2.401  23.067  -4.073  1.00  0.00     0.020 A 
ATOM     91  C   UNL     1       2.935  23.410  -1.726  1.00  0.00     0.020 A 
ATOM     92  C   UNL     1       2.683  23.920  -3.002  1.00  0.00     0.054 A 
BRANCH  92  93
ATOM     93  S   UNL     1       2.668  25.712  -3.283  1.00  0.00     0.124 S 
ATOM     94  O   UNL     1       3.935  25.920  -3.978  1.00  0.00    -0.237 OA
ATOM     95  O   UNL     1       1.467  25.900  -4.094  1.00  0.00    -0.237 OA
ATOM     96  O   UNL     1       2.596  26.272  -1.936  1.00  0.00    -0.744 OA
ENDBRANCH  92  93
ENDBRANCH  66  87
ENDBRANCH  40  41
ENDBRANCH  32  35
ENDBRANCH  30  31
ENDBRANCH  29  30
ENDBRANCH   1  29
TORSDOF 17
