REMARK SMILES COC(=O)[C@H]1CC[C@]2(C)[C@H](CC[C@]3(C)[C@H]2CC=C2[C@H]4CC(C)(C)CC[C@]4(C(=O)NCCCCNC(=O)c4ccc(-c5c6nc(c(-c7ccc(S(=O)(=O)[O-])cc7)c7ccc([nH]7)c(-c7ccc(S(=O)(=O)[O-])cc7)c7nc(c(-c8ccc(S(=O)(=O)[O-])cc8)c8ccc5[nH]8)C=C7)C=C6)cc4)CC[C@@]23C)C1(C)C
REMARK SMILES IDX 32 1 31 2 30 3 29 4 27 5 28 6 26 8 5 9 6 10 101 11 7 12
REMARK SMILES IDX 10 13 102 14 103 15 8 16 11 17 15 18 9 19 12 20 16 21 13 22
REMARK SMILES IDX 17 23 99 24 14 25 18 26 98 27 100 28 19 29 97 30 20 31 21 32
REMARK SMILES IDX 25 33 24 34 22 35 23 36 3 37 4 38 2 39 1 40 33 41 34 42
REMARK SMILES IDX 35 43 36 45 37 46 38 47 96 48 39 49 95 50 40 51 41 52 42 53
REMARK SMILES IDX 89 54 43 55 94 56 88 57 90 58 44 59 93 60 87 61 86 62 45 64
REMARK SMILES IDX 75 65 56 66 74 67 57 68 60 69 73 70 91 71 58 72 59 73 72 75
REMARK SMILES IDX 92 76 61 77 46 78 47 79 55 80 48 81 54 82 49 83 50 84 51 85
REMARK SMILES IDX 52 86 53 87 76 88 77 89 85 90 78 91 84 92 79 93 80 94 81 95
REMARK SMILES IDX 82 96 83 97 62 98 63 99 71 100 64 101 70 102 65 103 66 104
REMARK SMILES IDX 67 105 68 106 69 107
REMARK H PARENT 29 7 34 44 90 63 60 74
REMARK Flexibility Score: inf
ROOT
ATOM      1  C   UNL     1      -8.930   2.967   3.330  1.00  0.00     0.023 C 
ENDROOT
BRANCH   1   2
ATOM      2  C   UNL     1      -8.553   4.364   3.827  1.00  0.00     0.023 C 
BRANCH   2   3
ATOM      3  C   UNL     1      -7.413   4.421   4.828  1.00  0.00     0.116 C 
BRANCH   3   4
ATOM      4  N   UNL     1      -6.155   3.934   4.337  1.00  0.00    -0.356 N 
ATOM      5  C   UNL     1      -5.108   4.807   4.171  1.00  0.00     0.226 C 
ATOM      6  O   UNL     1      -5.286   5.960   3.785  1.00  0.00    -0.274 OA
ATOM      7  H   UNL     1      -6.044   2.980   4.120  1.00  0.00     0.163 HD
BRANCH   5   8
ATOM      8  C   UNL     1      -3.748   4.297   4.675  1.00  0.00     0.056 C 
ATOM      9  C   UNL     1       1.215  -1.999   3.538  1.00  0.00     0.105 C 
ATOM     10  C   UNL     1       0.181  -3.059   4.046  1.00  0.00     0.016 C 
ATOM     11  C   UNL     1       0.755  -0.484   3.446  1.00  0.00    -0.019 C 
ATOM     12  C   UNL     1      -0.986  -2.571   4.943  1.00  0.00     0.008 C 
ATOM     13  C   UNL     1      -0.327  -0.285   4.576  1.00  0.00     0.002 C 
ATOM     14  C   UNL     1       0.234  -0.100   2.019  1.00  0.00     0.012 C 
ATOM     15  C   UNL     1       1.968   0.487   3.590  1.00  0.00     0.012 C 
ATOM     16  C   UNL     1      -1.585  -1.224   4.439  1.00  0.00    -0.026 C 
ATOM     17  C   UNL     1      -0.676   1.143   4.891  1.00  0.00     0.005 C 
ATOM     18  C   UNL     1      -2.899  -0.792   5.302  1.00  0.00     0.006 C 
ATOM     19  C   UNL     1      -2.047  -1.550   2.991  1.00  0.00     0.012 C 
ATOM     20  C   UNL     1      -1.438   1.258   6.210  1.00  0.00     0.008 C 
ATOM     21  C   UNL     1      -4.243  -0.698   4.414  1.00  0.00     0.032 C 
ATOM     22  C   UNL     1      -2.782   0.489   6.329  1.00  0.00    -0.020 C 
ATOM     23  C   UNL     1      -4.426   0.679   3.825  1.00  0.00    -0.027 C 
ATOM     24  C   UNL     1      -4.053   1.473   6.112  1.00  0.00    -0.006 C 
ATOM     25  C   UNL     1      -2.801  -0.067   7.788  1.00  0.00     0.012 C 
ATOM     26  C   UNL     1      -4.064   1.718   4.595  1.00  0.00    -0.064 C 
ATOM     27  C   UNL     1      -4.200   2.846   6.850  1.00  0.00     0.013 C 
ATOM     28  C   UNL     1      -5.347   0.743   6.681  1.00  0.00     0.017 C 
ATOM     29  C   UNL     1      -3.339   2.969   4.059  1.00  0.00     0.031 C 
ATOM     30  C   UNL     1      -3.754   4.168   6.223  1.00  0.00     0.018 C 
ATOM     31  C   UNL     1      -3.042   3.068   2.542  1.00  0.00     0.015 C 
ATOM     32  C   UNL     1      -2.000   4.171   2.166  1.00  0.00    -0.035 C 
ATOM     33  C   UNL     1      -2.653   5.361   4.364  1.00  0.00     0.018 C 
ATOM     34  C   UNL     1      -2.281   5.501   2.892  1.00  0.00     0.007 C 
ATOM     35  C   UNL     1      -2.072   4.430   0.648  1.00  0.00     0.011 C 
ATOM     36  C   UNL     1      -0.549   3.729   2.463  1.00  0.00     0.011 C 
BRANCH   9  37
ATOM     37  C   UNL     1       2.480  -2.219   4.369  1.00  0.00     0.309 C 
ATOM     38  O   UNL     1       3.433  -2.865   3.984  1.00  0.00    -0.252 OA
BRANCH  37  39
ATOM     39  O   UNL     1       2.363  -1.644   5.598  1.00  0.00    -0.469 OA
ATOM     40  C   UNL     1       3.526  -1.672   6.426  1.00  0.00     0.282 C 
ENDBRANCH  37  39
ENDBRANCH   9  37
ENDBRANCH   5   8
ENDBRANCH   3   4
ENDBRANCH   2   3
ENDBRANCH   1   2
BRANCH   1  41
ATOM     41  C   UNL     1      -9.060   1.894   4.409  1.00  0.00     0.116 C 
BRANCH  41  42
ATOM     42  N   UNL     1      -9.857   2.337   5.545  1.00  0.00    -0.352 N 
ATOM     43  C   UNL     1     -11.132   2.012   5.916  1.00  0.00     0.251 C 
ATOM     44  H   UNL     1      -9.403   2.974   6.143  1.00  0.00     0.163 HD
ATOM     45  O   UNL     1     -11.716   2.701   6.747  1.00  0.00    -0.269 OA
BRANCH  43  46
ATOM     46  C   UNL     1     -11.797   0.839   5.324  1.00  0.00     0.039 A 
ATOM     47  C   UNL     1     -13.130   0.952   4.931  1.00  0.00     0.014 A 
ATOM     48  C   UNL     1     -11.120  -0.378   5.202  1.00  0.00     0.014 A 
ATOM     49  C   UNL     1     -13.774  -0.150   4.374  1.00  0.00     0.010 A 
ATOM     50  C   UNL     1     -11.740  -1.454   4.574  1.00  0.00     0.010 A 
ATOM     51  C   UNL     1     -13.077  -1.354   4.167  1.00  0.00    -0.014 A 
BRANCH  51  52
ATOM     52  C   UNL     1     -13.751  -2.501   3.514  1.00  0.00     0.031 A 
ATOM     53  C   UNL     1     -13.997  -3.778   4.269  1.00  0.00     0.074 A 
ATOM     54  C   UNL     1     -14.135  -2.383   2.228  1.00  0.00     0.049 A 
ATOM     55  N   UNL     1     -14.634  -4.852   3.879  1.00  0.00    -0.248 NA
ATOM     56  C   UNL     1     -13.441  -3.872   5.628  1.00  0.00     0.031 C 
ATOM     57  C   UNL     1     -13.892  -1.214   1.377  1.00  0.00     0.029 A 
ATOM     58  N   UNL     1     -14.824  -3.246   1.415  1.00  0.00    -0.354 N 
ATOM     59  C   UNL     1     -14.558  -5.745   4.941  1.00  0.00     0.074 A 
ATOM     60  C   UNL     1     -13.758  -5.113   5.967  1.00  0.00     0.031 C 
ATOM     61  C   UNL     1     -14.466  -1.414   0.181  1.00  0.00     0.029 A 
ATOM     62  C   UNL     1     -15.086  -2.734   0.167  1.00  0.00     0.049 A 
ATOM     63  H   UNL     1     -15.104  -4.146   1.699  1.00  0.00     0.167 HD
ATOM     64  C   UNL     1     -15.127  -6.968   5.062  1.00  0.00     0.031 A 
ATOM     65  C   UNL     1     -15.759  -3.265  -0.871  1.00  0.00     0.031 A 
ATOM     66  C   UNL     1     -15.918  -7.591   4.033  1.00  0.00     0.049 A 
ATOM     67  C   UNL     1     -16.385  -4.622  -0.710  1.00  0.00     0.074 A 
ATOM     68  C   UNL     1     -16.574  -8.809   4.068  1.00  0.00     0.029 A 
ATOM     69  N   UNL     1     -16.157  -7.045   2.780  1.00  0.00    -0.354 N 
ATOM     70  N   UNL     1     -16.366  -5.420   0.332  1.00  0.00    -0.248 NA
ATOM     71  C   UNL     1     -17.141  -5.139  -1.857  1.00  0.00     0.031 C 
ATOM     72  C   UNL     1     -17.163  -9.024   2.817  1.00  0.00     0.029 A 
ATOM     73  C   UNL     1     -16.930  -7.911   2.024  1.00  0.00     0.049 A 
ATOM     74  H   UNL     1     -15.826  -6.170   2.473  1.00  0.00     0.167 HD
ATOM     75  C   UNL     1     -17.121  -6.530  -0.030  1.00  0.00     0.074 A 
ATOM     76  C   UNL     1     -17.609  -6.281  -1.372  1.00  0.00     0.031 C 
ATOM     77  C   UNL     1     -17.384  -7.656   0.680  1.00  0.00     0.031 A 
BRANCH  64  78
ATOM     78  C   UNL     1     -14.912  -7.711   6.357  1.00  0.00    -0.014 A 
ATOM     79  C   UNL     1     -15.494  -7.260   7.557  1.00  0.00     0.010 A 
ATOM     80  C   UNL     1     -14.154  -8.896   6.371  1.00  0.00     0.010 A 
ATOM     81  C   UNL     1     -15.289  -7.956   8.751  1.00  0.00     0.020 A 
ATOM     82  C   UNL     1     -13.971  -9.612   7.559  1.00  0.00     0.020 A 
ATOM     83  C   UNL     1     -14.527  -9.129   8.745  1.00  0.00     0.054 A 
BRANCH  83  84
ATOM     84  S   UNL     1     -14.302 -10.026  10.305  1.00  0.00     0.124 S 
ATOM     85  O   UNL     1     -13.398  -9.139  11.034  1.00  0.00    -0.237 OA
ATOM     86  O   UNL     1     -15.663 -10.102  10.829  1.00  0.00    -0.237 OA
ATOM     87  O   UNL     1     -13.723 -11.302   9.892  1.00  0.00    -0.744 OA
ENDBRANCH  83  84
ENDBRANCH  64  78
BRANCH  65  88
ATOM     88  C   UNL     1     -15.888  -2.499  -2.141  1.00  0.00    -0.014 A 
ATOM     89  C   UNL     1     -17.130  -1.982  -2.549  1.00  0.00     0.010 A 
ATOM     90  C   UNL     1     -14.756  -2.268  -2.944  1.00  0.00     0.010 A 
ATOM     91  C   UNL     1     -17.242  -1.267  -3.745  1.00  0.00     0.020 A 
ATOM     92  C   UNL     1     -14.857  -1.527  -4.124  1.00  0.00     0.020 A 
ATOM     93  C   UNL     1     -16.104  -1.042  -4.524  1.00  0.00     0.054 A 
BRANCH  93  94
ATOM     94  S   UNL     1     -16.262  -0.071  -6.049  1.00  0.00     0.124 S 
ATOM     95  O   UNL     1     -16.948  -1.007  -6.934  1.00  0.00    -0.237 OA
ATOM     96  O   UNL     1     -17.049   1.079  -5.609  1.00  0.00    -0.237 OA
ATOM     97  O   UNL     1     -14.878   0.231  -6.407  1.00  0.00    -0.744 OA
ENDBRANCH  93  94
ENDBRANCH  65  88
BRANCH  77  98
ATOM     98  C   UNL     1     -18.247  -8.694   0.012  1.00  0.00    -0.014 A 
ATOM     99  C   UNL     1     -17.779  -9.431  -1.092  1.00  0.00     0.010 A 
ATOM    100  C   UNL     1     -19.545  -8.938   0.497  1.00  0.00     0.010 A 
ATOM    101  C   UNL     1     -18.615 -10.347  -1.736  1.00  0.00     0.020 A 
ATOM    102  C   UNL     1     -20.371  -9.879  -0.122  1.00  0.00     0.020 A 
ATOM    103  C   UNL     1     -19.909 -10.559  -1.250  1.00  0.00     0.054 A 
BRANCH 103 104
ATOM    104  S   UNL     1     -20.976 -11.749  -2.106  1.00  0.00     0.124 S 
ATOM    105  O   UNL     1     -21.331 -11.018  -3.320  1.00  0.00    -0.237 OA
ATOM    106  O   UNL     1     -20.090 -12.895  -2.298  1.00  0.00    -0.237 OA
ATOM    107  O   UNL     1     -22.073 -11.968  -1.167  1.00  0.00    -0.744 OA
ENDBRANCH 103 104
ENDBRANCH  77  98
ENDBRANCH  51  52
ENDBRANCH  43  46
ENDBRANCH  41  42
ENDBRANCH   1  41
TORSDOF 16
