REMARK SMILES Cc1ccc(S(=O)(=O)N2CCN(C(=O)[C@H]3CCCC[C@H]3C(=O)NCCCCNC(=O)c3ccc(-c4c5nc(c(-c6ccc(S(=O)(=O)[O-])cc6)c6ccc([nH]6)c(-c6ccc(S(=O)(=O)[O-])cc6)c6nc(c(-c7ccc(S(=O)(=O)[O-])cc7)c7ccc4[nH]7)C=C6)C=C5)cc3)CC2)cc1C
REMARK SMILES IDX 25 1 24 2 23 3 21 4 22 5 20 7 15 8 16 9 17 10 19 11 18 12
REMARK SMILES IDX 13 13 9 14 10 15 92 16 11 17 91 18 12 19 14 20 6 21 7 22
REMARK SMILES IDX 8 23 5 24 1 25 2 26 3 27 94 28 4 29 93 30 95 31 26 32 27 33
REMARK SMILES IDX 28 34 29 35 30 37 31 38 32 39 90 40 33 41 89 42 34 43 35 44
REMARK SMILES IDX 36 45 83 46 37 47 88 48 82 49 84 50 38 51 87 52 81 53 80 54
REMARK SMILES IDX 39 56 69 57 50 58 68 59 51 60 54 61 67 62 85 63 52 64 53 65
REMARK SMILES IDX 66 67 86 68 55 69 40 70 41 71 49 72 42 73 48 74 43 75 44 76
REMARK SMILES IDX 45 77 46 78 47 79 70 80 71 81 79 82 72 83 78 84 73 85 74 86
REMARK SMILES IDX 75 87 76 88 77 89 56 90 57 91 65 92 58 93 64 94 59 95 60 96
REMARK SMILES IDX 61 97 62 98 63 99
REMARK H PARENT 23 6 28 36 84 55 54 66
REMARK Flexibility Score: inf
ROOT
ATOM      1  C   UNL     1      -5.175   7.595   2.996  1.00  0.00     0.023 C 
ENDROOT
BRANCH   1   2
ATOM      2  C   UNL     1      -5.002   7.503   1.483  1.00  0.00     0.116 C 
BRANCH   2   3
ATOM      3  N   UNL     1      -3.905   6.636   1.111  1.00  0.00    -0.356 N 
ATOM      4  C   UNL     1      -3.871   5.486   0.387  1.00  0.00     0.223 C 
ATOM      5  O   UNL     1      -2.792   4.885   0.337  1.00  0.00    -0.275 OA
ATOM      6  H   UNL     1      -3.026   6.933   1.440  1.00  0.00     0.163 HD
BRANCH   4   7
ATOM      7  C   UNL     1      -5.070   4.938  -0.401  1.00  0.00     0.091 C 
ATOM      8  C   UNL     1      -6.075   4.035   0.372  1.00  0.00     0.091 C 
ATOM      9  C   UNL     1      -7.291   3.649  -0.483  1.00  0.00     0.014 C 
ATOM     10  C   UNL     1      -7.887   4.825  -1.241  1.00  0.00     0.001 C 
ATOM     11  C   UNL     1      -5.668   5.974  -1.370  1.00  0.00     0.014 C 
ATOM     12  C   UNL     1      -6.846   5.433  -2.167  1.00  0.00     0.001 C 
BRANCH   8  13
ATOM     13  C   UNL     1      -6.374   4.436   1.816  1.00  0.00     0.226 C 
ATOM     14  N   UNL     1      -9.676   4.877   4.319  1.00  0.00    -0.194 NA
ATOM     15  C   UNL     1      -9.373   6.042   3.482  1.00  0.00     0.124 C 
ATOM     16  C   UNL     1      -9.590   3.590   3.612  1.00  0.00     0.124 C 
ATOM     17  C   UNL     1      -7.992   5.875   2.855  1.00  0.00     0.136 C 
ATOM     18  C   UNL     1      -8.227   3.408   2.931  1.00  0.00     0.136 C 
ATOM     19  N   UNL     1      -7.709   4.585   2.213  1.00  0.00    -0.340 N 
ATOM     20  O   UNL     1      -5.473   4.503   2.652  1.00  0.00    -0.275 OA
BRANCH  14  21
ATOM     21  S   UNL     1      -9.985   5.013   5.959  1.00  0.00     0.243 S 
ATOM     22  O   UNL     1     -10.564   3.756   6.401  1.00  0.00    -0.207 OA
ATOM     23  O   UNL     1     -10.680   6.264   6.152  1.00  0.00    -0.207 OA
BRANCH  21  24
ATOM     24  C   UNL     1      -8.423   5.164   6.804  1.00  0.00     0.082 A 
ATOM     25  C   UNL     1      -4.715   5.449   9.010  1.00  0.00     0.044 C 
ATOM     26  C   UNL     1      -6.024   5.383   8.269  1.00  0.00    -0.048 A 
ATOM     27  C   UNL     1      -6.024   4.928   6.942  1.00  0.00     0.005 A 
ATOM     28  C   UNL     1      -7.246   5.741   8.870  1.00  0.00    -0.047 A 
ATOM     29  C   UNL     1      -7.214   4.812   6.220  1.00  0.00     0.022 A 
ATOM     30  C   UNL     1      -8.437   5.642   8.121  1.00  0.00     0.025 A 
ATOM     31  C   UNL     1      -7.343   6.237  10.288  1.00  0.00     0.044 C 
ENDBRANCH  21  24
ENDBRANCH  14  21
ENDBRANCH   8  13
ENDBRANCH   4   7
ENDBRANCH   2   3
ENDBRANCH   1   2
BRANCH   1  32
ATOM     32  C   UNL     1      -4.300   8.602   3.712  1.00  0.00     0.023 C 
BRANCH  32  33
ATOM     33  C   UNL     1      -4.595  10.048   3.348  1.00  0.00     0.116 C 
BRANCH  33  34
ATOM     34  N   UNL     1      -6.003  10.421   3.486  1.00  0.00    -0.352 N 
ATOM     35  C   UNL     1      -6.576  11.439   4.215  1.00  0.00     0.251 C 
ATOM     36  H   UNL     1      -6.636   9.861   2.981  1.00  0.00     0.163 HD
ATOM     37  O   UNL     1      -7.796  11.530   4.298  1.00  0.00    -0.269 OA
BRANCH  35  38
ATOM     38  C   UNL     1      -5.697  12.396   4.913  1.00  0.00     0.039 A 
ATOM     39  C   UNL     1      -5.941  12.718   6.249  1.00  0.00     0.014 A 
ATOM     40  C   UNL     1      -4.578  12.904   4.253  1.00  0.00     0.014 A 
ATOM     41  C   UNL     1      -5.000  13.474   6.952  1.00  0.00     0.010 A 
ATOM     42  C   UNL     1      -3.588  13.537   4.985  1.00  0.00     0.010 A 
ATOM     43  C   UNL     1      -3.792  13.843   6.338  1.00  0.00    -0.014 A 
BRANCH  43  44
ATOM     44  C   UNL     1      -2.729  14.588   7.056  1.00  0.00     0.031 A 
ATOM     45  C   UNL     1      -2.270  15.915   6.508  1.00  0.00     0.074 A 
ATOM     46  C   UNL     1      -2.108  14.036   8.117  1.00  0.00     0.049 A 
ATOM     47  N   UNL     1      -1.243  16.643   6.858  1.00  0.00    -0.248 NA
ATOM     48  C   UNL     1      -3.035  16.464   5.373  1.00  0.00     0.031 C 
ATOM     49  C   UNL     1      -2.412  12.725   8.700  1.00  0.00     0.029 A 
ATOM     50  N   UNL     1      -1.075  14.506   8.888  1.00  0.00    -0.354 N 
ATOM     51  C   UNL     1      -1.214  17.704   5.959  1.00  0.00     0.074 A 
ATOM     52  C   UNL     1      -2.282  17.490   5.011  1.00  0.00     0.031 C 
ATOM     53  C   UNL     1      -1.604  12.512   9.752  1.00  0.00     0.029 A 
ATOM     54  C   UNL     1      -0.702  13.649   9.897  1.00  0.00     0.049 A 
ATOM     55  H   UNL     1      -0.641  15.376   8.732  1.00  0.00     0.167 HD
ATOM     56  C   UNL     1      -0.394  18.781   5.943  1.00  0.00     0.031 A 
ATOM     57  C   UNL     1       0.259  13.771  10.832  1.00  0.00     0.031 A 
ATOM     58  C   UNL     1       0.624  19.020   6.928  1.00  0.00     0.049 A 
ATOM     59  C   UNL     1       1.097  15.020  10.852  1.00  0.00     0.074 A 
ATOM     60  C   UNL     1       1.477  20.102   7.042  1.00  0.00     0.029 A 
ATOM     61  N   UNL     1       0.900  18.174   7.991  1.00  0.00    -0.354 N 
ATOM     62  N   UNL     1       1.091  16.028  10.012  1.00  0.00    -0.248 NA
ATOM     63  C   UNL     1       2.056  15.159  11.956  1.00  0.00     0.031 C 
ATOM     64  C   UNL     1       2.278  19.905   8.173  1.00  0.00     0.029 A 
ATOM     65  C   UNL     1       1.897  18.717   8.778  1.00  0.00     0.049 A 
ATOM     66  H   UNL     1       0.453  17.313   8.159  1.00  0.00     0.167 HD
ATOM     67  C   UNL     1       2.023  16.934  10.502  1.00  0.00     0.074 A 
ATOM     68  C   UNL     1       2.564  16.360  11.718  1.00  0.00     0.031 C 
ATOM     69  C   UNL     1       2.401  18.132   9.993  1.00  0.00     0.031 A 
BRANCH  56  70
ATOM     70  C   UNL     1      -0.597  19.785   4.841  1.00  0.00    -0.014 A 
ATOM     71  C   UNL     1      -1.748  20.594   4.808  1.00  0.00     0.010 A 
ATOM     72  C   UNL     1       0.368  19.928   3.829  1.00  0.00     0.010 A 
ATOM     73  C   UNL     1      -1.958  21.486   3.755  1.00  0.00     0.020 A 
ATOM     74  C   UNL     1       0.177  20.843   2.789  1.00  0.00     0.020 A 
ATOM     75  C   UNL     1      -0.997  21.600   2.748  1.00  0.00     0.054 A 
BRANCH  75  76
ATOM     76  S   UNL     1      -1.288  22.775   1.397  1.00  0.00     0.124 S 
ATOM     77  O   UNL     1      -2.264  22.057   0.581  1.00  0.00    -0.237 OA
ATOM     78  O   UNL     1      -1.799  23.951   2.096  1.00  0.00    -0.237 OA
ATOM     79  O   UNL     1       0.032  22.939   0.791  1.00  0.00    -0.744 OA
ENDBRANCH  75  76
ENDBRANCH  56  70
BRANCH  57  80
ATOM     80  C   UNL     1       0.453  12.702  11.849  1.00  0.00    -0.014 A 
ATOM     81  C   UNL     1       0.041  12.903  13.178  1.00  0.00     0.010 A 
ATOM     82  C   UNL     1       1.038  11.474  11.494  1.00  0.00     0.010 A 
ATOM     83  C   UNL     1       0.234  11.908  14.140  1.00  0.00     0.020 A 
ATOM     84  C   UNL     1       1.212  10.466  12.448  1.00  0.00     0.020 A 
ATOM     85  C   UNL     1       0.822  10.696  13.769  1.00  0.00     0.054 A 
BRANCH  85  86
ATOM     86  S   UNL     1       1.024   9.398  15.022  1.00  0.00     0.124 S 
ATOM     87  O   UNL     1       2.192   9.870  15.760  1.00  0.00    -0.237 OA
ATOM     88  O   UNL     1      -0.245   9.451  15.744  1.00  0.00    -0.237 OA
ATOM     89  O   UNL     1       1.230   8.189  14.228  1.00  0.00    -0.744 OA
ENDBRANCH  85  86
ENDBRANCH  57  80
BRANCH  69  90
ATOM     90  C   UNL     1       3.410  18.925  10.775  1.00  0.00    -0.014 A 
ATOM     91  C   UNL     1       4.769  18.572  10.776  1.00  0.00     0.010 A 
ATOM     92  C   UNL     1       2.993  20.075  11.469  1.00  0.00     0.010 A 
ATOM     93  C   UNL     1       5.694  19.342  11.484  1.00  0.00     0.020 A 
ATOM     94  C   UNL     1       3.918  20.860  12.159  1.00  0.00     0.020 A 
ATOM     95  C   UNL     1       5.262  20.480  12.174  1.00  0.00     0.054 A 
BRANCH  95  96
ATOM     96  S   UNL     1       6.487  21.491  13.049  1.00  0.00     0.124 S 
ATOM     97  O   UNL     1       6.725  20.702  14.254  1.00  0.00    -0.237 OA
ATOM     98  O   UNL     1       7.598  21.544  12.101  1.00  0.00    -0.237 OA
ATOM     99  O   UNL     1       5.797  22.762  13.260  1.00  0.00    -0.744 OA
ENDBRANCH  95  96
ENDBRANCH  69  90
ENDBRANCH  43  44
ENDBRANCH  35  38
ENDBRANCH  33  34
ENDBRANCH  32  33
ENDBRANCH   1  32
TORSDOF 17
