REMARK SMILES Cc1cc(NC(=O)c2ccc(Br)cc2N)ccc1C(=O)NCCCCNC(=O)c1ccc(-c2c3nc(c(-c4ccc(S(=O)(=O)[O-])cc4)c4ccc([nH]4)c(-c4ccc(S(=O)(=O)[O-])cc4)c4nc(c(-c5ccc(S(=O)(=O)[O-])cc5)c5ccc2[nH]5)C=C4)C=C3)cc1
REMARK SMILES IDX 23 1 22 2 21 3 19 4 20 5 18 7 1 8 2 9 3 10 4 11 17 12 16 13
REMARK SMILES IDX 5 14 6 15 7 17 8 18 9 19 14 20 10 21 13 22 11 23 12 24 15 25
REMARK SMILES IDX 24 28 25 29 26 30 27 31 28 33 29 34 30 35 88 36 31 37 87 38
REMARK SMILES IDX 32 39 33 40 34 41 81 42 35 43 86 44 80 45 82 46 36 47 85 48
REMARK SMILES IDX 79 49 78 50 37 52 67 53 48 54 66 55 49 56 52 57 65 58 83 59
REMARK SMILES IDX 50 60 51 61 64 63 84 64 53 65 38 66 39 67 47 68 40 69 46 70
REMARK SMILES IDX 41 71 42 72 43 73 44 74 45 75 68 76 69 77 77 78 70 79 76 80
REMARK SMILES IDX 71 81 72 82 73 83 74 84 75 85 54 86 55 87 63 88 56 89 62 90
REMARK SMILES IDX 57 91 58 92 59 93 60 94 61 95
REMARK H PARENT 21 6 5 16 15 26 15 27 26 32 82 51 52 62
REMARK Flexibility Score: inf
ROOT
ATOM      1  C   UNL     1       4.260   1.319  -1.313  1.00  0.00     0.023 C 
ENDROOT
BRANCH   1   2
ATOM      2  C   UNL     1       3.456   1.706  -0.061  1.00  0.00     0.116 C 
BRANCH   2   3
ATOM      3  N   UNL     1       2.255   2.426  -0.441  1.00  0.00    -0.352 N 
ATOM      4  C   UNL     1       0.958   2.081  -0.705  1.00  0.00     0.251 C 
ATOM      5  O   UNL     1       0.236   3.012  -1.086  1.00  0.00    -0.269 OA
ATOM      6  H   UNL     1       2.410   3.394  -0.530  1.00  0.00     0.163 HD
BRANCH   4   7
ATOM      7  C   UNL     1       0.304   0.742  -0.499  1.00  0.00     0.042 A 
ATOM      8  C   UNL     1       2.119  -0.944  -1.295  1.00  0.00     0.045 C 
ATOM      9  C   UNL     1       0.792  -0.558  -0.725  1.00  0.00    -0.036 A 
ATOM     10  C   UNL     1      -0.054  -1.661  -0.469  1.00  0.00     0.030 A 
ATOM     11  C   UNL     1      -1.371  -1.518  -0.048  1.00  0.00     0.041 A 
ATOM     12  C   UNL     1      -1.064   0.861  -0.133  1.00  0.00     0.016 A 
ATOM     13  C   UNL     1      -1.902  -0.244   0.054  1.00  0.00     0.027 A 
BRANCH  11  14
ATOM     14  N   UNL     1      -2.173  -2.625   0.269  1.00  0.00    -0.322 N 
ATOM     15  C   UNL     1      -1.777  -3.866   0.737  1.00  0.00     0.257 C 
ATOM     16  H   UNL     1      -3.142  -2.503   0.143  1.00  0.00     0.170 HD
ATOM     17  O   UNL     1      -2.535  -4.830   0.639  1.00  0.00    -0.269 OA
BRANCH  15  18
ATOM     18  C   UNL     1      -0.466  -4.035   1.429  1.00  0.00     0.063 A 
ATOM     19  C   UNL     1       0.318  -5.132   1.033  1.00  0.00     0.017 A 
ATOM     20  C   UNL     1      -0.007  -3.154   2.435  1.00  0.00     0.045 A 
ATOM     21  C   UNL     1       1.561  -5.359   1.624  1.00  0.00     0.016 A 
ATOM     22  C   UNL     1       1.235  -3.416   3.032  1.00  0.00     0.042 A 
ATOM     23  C   UNL     1       2.010  -4.502   2.624  1.00  0.00     0.020 A 
ATOM     24  Br  UNL     1       3.665  -4.839   3.471  1.00  0.00    -0.051 Br
BRANCH  20  25
ATOM     25  N   UNL     1      -0.789  -2.135   2.983  1.00  0.00    -0.398 N 
ATOM     26  H   UNL     1      -1.667  -1.923   2.591  1.00  0.00     0.156 HD
ATOM     27  H   UNL     1      -0.463  -1.629   3.762  1.00  0.00     0.156 HD
ENDBRANCH  20  25
ENDBRANCH  15  18
ENDBRANCH  11  14
ENDBRANCH   4   7
ENDBRANCH   2   3
ENDBRANCH   1   2
BRANCH   1  28
ATOM     28  C   UNL     1       5.062   2.449  -1.950  1.00  0.00     0.023 C 
BRANCH  28  29
ATOM     29  C   UNL     1       6.352   2.724  -1.202  1.00  0.00     0.116 C 
BRANCH  29  30
ATOM     30  N   UNL     1       7.559   2.324  -1.918  1.00  0.00    -0.352 N 
ATOM     31  C   UNL     1       8.870   2.492  -1.504  1.00  0.00     0.251 C 
ATOM     32  H   UNL     1       7.426   1.887  -2.790  1.00  0.00     0.163 HD
ATOM     33  O   UNL     1       9.820   2.276  -2.249  1.00  0.00    -0.269 OA
BRANCH  31  34
ATOM     34  C   UNL     1       9.084   2.869  -0.091  1.00  0.00     0.039 A 
ATOM     35  C   UNL     1       9.653   1.915   0.757  1.00  0.00     0.014 A 
ATOM     36  C   UNL     1       8.421   3.980   0.420  1.00  0.00     0.014 A 
ATOM     37  C   UNL     1       9.375   1.966   2.121  1.00  0.00     0.010 A 
ATOM     38  C   UNL     1       8.034   3.950   1.745  1.00  0.00     0.010 A 
ATOM     39  C   UNL     1       8.470   2.917   2.590  1.00  0.00    -0.014 A 
BRANCH  39  40
ATOM     40  C   UNL     1       7.846   2.869   3.911  1.00  0.00     0.031 A 
ATOM     41  C   UNL     1       8.135   3.934   4.904  1.00  0.00     0.074 A 
ATOM     42  C   UNL     1       6.925   1.922   4.206  1.00  0.00     0.049 A 
ATOM     43  N   UNL     1       7.926   3.834   6.176  1.00  0.00    -0.248 NA
ATOM     44  C   UNL     1       8.769   5.196   4.532  1.00  0.00     0.031 C 
ATOM     45  C   UNL     1       5.974   1.951   5.316  1.00  0.00     0.029 A 
ATOM     46  N   UNL     1       6.797   0.627   3.696  1.00  0.00    -0.354 N 
ATOM     47  C   UNL     1       8.070   5.094   6.717  1.00  0.00     0.074 A 
ATOM     48  C   UNL     1       8.710   5.868   5.683  1.00  0.00     0.031 C 
ATOM     49  C   UNL     1       5.610   0.692   5.603  1.00  0.00     0.029 A 
ATOM     50  C   UNL     1       6.422  -0.186   4.779  1.00  0.00     0.049 A 
ATOM     51  H   UNL     1       6.941   0.342   2.764  1.00  0.00     0.167 HD
ATOM     52  C   UNL     1       7.486   5.384   7.916  1.00  0.00     0.031 A 
ATOM     53  C   UNL     1       7.148  -1.247   5.238  1.00  0.00     0.031 A 
ATOM     54  C   UNL     1       6.979   4.179   8.575  1.00  0.00     0.049 A 
ATOM     55  C   UNL     1       7.529  -1.127   6.698  1.00  0.00     0.074 A 
ATOM     56  C   UNL     1       5.711   3.653   8.758  1.00  0.00     0.029 A 
ATOM     57  N   UNL     1       7.875   3.176   8.934  1.00  0.00    -0.354 N 
ATOM     58  N   UNL     1       7.397  -0.031   7.392  1.00  0.00    -0.248 NA
ATOM     59  C   UNL     1       8.141  -2.202   7.476  1.00  0.00     0.031 C 
ATOM     60  C   UNL     1       5.852   2.291   9.137  1.00  0.00     0.029 A 
ATOM     61  C   UNL     1       7.203   2.002   9.216  1.00  0.00     0.049 A 
ATOM     62  H   UNL     1       8.852   3.288   8.981  1.00  0.00     0.167 HD
ATOM     63  C   UNL     1       7.910  -0.213   8.649  1.00  0.00     0.074 A 
ATOM     64  C   UNL     1       8.345  -1.598   8.661  1.00  0.00     0.031 C 
ATOM     65  C   UNL     1       7.949   0.799   9.563  1.00  0.00     0.031 A 
BRANCH  52  66
ATOM     66  C   UNL     1       7.108   6.795   8.341  1.00  0.00    -0.014 A 
ATOM     67  C   UNL     1       6.093   6.986   9.304  1.00  0.00     0.010 A 
ATOM     68  C   UNL     1       7.626   7.972   7.768  1.00  0.00     0.010 A 
ATOM     69  C   UNL     1       5.559   8.256   9.589  1.00  0.00     0.020 A 
ATOM     70  C   UNL     1       7.092   9.243   8.023  1.00  0.00     0.020 A 
ATOM     71  C   UNL     1       6.043   9.377   8.921  1.00  0.00     0.054 A 
BRANCH  71  72
ATOM     72  S   UNL     1       5.286  10.995   9.213  1.00  0.00     0.124 S 
ATOM     73  O   UNL     1       3.892  10.760   8.849  1.00  0.00    -0.237 OA
ATOM     74  O   UNL     1       5.542  11.210  10.634  1.00  0.00    -0.237 OA
ATOM     75  O   UNL     1       6.014  11.887   8.311  1.00  0.00    -0.744 OA
ENDBRANCH  71  72
ENDBRANCH  52  66
BRANCH  53  76
ATOM     76  C   UNL     1       7.950  -1.943   4.198  1.00  0.00    -0.014 A 
ATOM     77  C   UNL     1       7.235  -2.692   3.241  1.00  0.00     0.010 A 
ATOM     78  C   UNL     1       9.254  -1.513   3.895  1.00  0.00     0.010 A 
ATOM     79  C   UNL     1       7.727  -2.841   1.945  1.00  0.00     0.020 A 
ATOM     80  C   UNL     1       9.752  -1.666   2.593  1.00  0.00     0.020 A 
ATOM     81  C   UNL     1       8.951  -2.262   1.613  1.00  0.00     0.054 A 
BRANCH  81  82
ATOM     82  S   UNL     1       9.354  -2.093  -0.151  1.00  0.00     0.124 S 
ATOM     83  O   UNL     1       9.312  -3.475  -0.617  1.00  0.00    -0.237 OA
ATOM     84  O   UNL     1       8.265  -1.236  -0.617  1.00  0.00    -0.237 OA
ATOM     85  O   UNL     1      10.675  -1.472  -0.133  1.00  0.00    -0.744 OA
ENDBRANCH  81  82
ENDBRANCH  53  76
BRANCH  65  86
ATOM     86  C   UNL     1       8.640   0.746  10.902  1.00  0.00    -0.014 A 
ATOM     87  C   UNL     1       9.758  -0.056  11.180  1.00  0.00     0.010 A 
ATOM     88  C   UNL     1       8.230   1.652  11.910  1.00  0.00     0.010 A 
ATOM     89  C   UNL     1      10.402   0.001  12.426  1.00  0.00     0.020 A 
ATOM     90  C   UNL     1       8.889   1.746  13.139  1.00  0.00     0.020 A 
ATOM     91  C   UNL     1       9.960   0.900  13.399  1.00  0.00     0.054 A 
BRANCH  91  92
ATOM     92  S   UNL     1      10.836   1.024  14.980  1.00  0.00     0.124 S 
ATOM     93  O   UNL     1      10.119   0.049  15.798  1.00  0.00    -0.237 OA
ATOM     94  O   UNL     1      12.207   0.658  14.629  1.00  0.00    -0.237 OA
ATOM     95  O   UNL     1      10.651   2.421  15.361  1.00  0.00    -0.744 OA
ENDBRANCH  91  92
ENDBRANCH  65  86
ENDBRANCH  39  40
ENDBRANCH  31  34
ENDBRANCH  29  30
ENDBRANCH  28  29
ENDBRANCH   1  28
TORSDOF 17
