REMARK SMILES O=C(NCCCCNC(=O)[C@H]1Cc2ccc(Cl)cc2C[N@@H+]1Cc1ccc(Cl)cc1)c1ccc(-c2c3nc(c(-c4ccc(S(=O)(=O)[O-])cc4)c4ccc([nH]4)c(-c4ccc(S(=O)(=O)[O-])cc4)c4nc(c(-c5ccc(S(=O)(=O)[O-])cc5)c5ccc2[nH]5)C=C4)C=C3)cc1
REMARK SMILES IDX 5 1 4 2 3 3 1 4 2 5 30 7 31 8 89 9 32 10 88 11 33 12 34 13
REMARK SMILES IDX 35 14 82 15 36 16 87 17 81 18 83 19 37 20 86 21 80 22 79 23
REMARK SMILES IDX 38 25 68 26 49 27 67 28 50 29 53 30 66 31 84 32 51 33 52 34
REMARK SMILES IDX 65 36 85 37 54 38 39 39 40 40 48 41 41 42 47 43 42 44 43 45
REMARK SMILES IDX 44 46 45 47 46 48 69 49 70 50 78 51 71 52 77 53 72 54 73 55
REMARK SMILES IDX 74 56 75 57 76 58 55 59 56 60 64 61 57 62 63 63 58 64 59 65
REMARK SMILES IDX 60 66 61 67 62 68 6 69 7 70 8 71 9 72 10 74 11 75 12 76
REMARK SMILES IDX 21 77 13 78 20 79 14 81 19 82 15 83 18 84 16 85 17 86 22 87
REMARK SMILES IDX 23 88 24 89 29 90 25 91 28 92 26 93 27 94
REMARK H PARENT 3 6 83 24 53 35 8 73 21 80
REMARK Flexibility Score: inf
ROOT
ATOM      1  C   UNL     1       5.083   0.060   2.042  1.00  0.00     0.023 C 
ENDROOT
BRANCH   1   2
ATOM      2  C   UNL     1       4.541  -0.687   0.842  1.00  0.00     0.116 C 
BRANCH   2   3
ATOM      3  N   UNL     1       3.087  -0.667   0.795  1.00  0.00    -0.352 N 
ATOM      4  O   UNL     1       1.049   0.009   0.127  1.00  0.00    -0.269 OA
ATOM      5  C   UNL     1       2.245  -0.088  -0.123  1.00  0.00     0.251 C 
ATOM      6  H   UNL     1       2.638  -1.140   1.533  1.00  0.00     0.163 HD
BRANCH   5   7
ATOM      7  C   UNL     1       2.783   0.415  -1.406  1.00  0.00     0.039 A 
ATOM      8  C   UNL     1       2.240   1.572  -1.970  1.00  0.00     0.014 A 
ATOM      9  C   UNL     1       3.795  -0.278  -2.072  1.00  0.00     0.014 A 
ATOM     10  C   UNL     1       2.731   2.040  -3.191  1.00  0.00     0.010 A 
ATOM     11  C   UNL     1       4.368   0.256  -3.215  1.00  0.00     0.010 A 
ATOM     12  C   UNL     1       3.804   1.388  -3.817  1.00  0.00    -0.014 A 
BRANCH  12  13
ATOM     13  C   UNL     1       4.285   1.772  -5.165  1.00  0.00     0.031 A 
ATOM     14  C   UNL     1       4.181   0.763  -6.280  1.00  0.00     0.074 A 
ATOM     15  C   UNL     1       4.860   2.971  -5.373  1.00  0.00     0.049 A 
ATOM     16  N   UNL     1       4.672   0.821  -7.489  1.00  0.00    -0.248 NA
ATOM     17  C   UNL     1       3.467  -0.494  -5.986  1.00  0.00     0.031 C 
ATOM     18  C   UNL     1       5.028   4.016  -4.362  1.00  0.00     0.029 A 
ATOM     19  N   UNL     1       5.417   3.510  -6.506  1.00  0.00    -0.354 N 
ATOM     20  C   UNL     1       4.353  -0.396  -8.081  1.00  0.00     0.074 A 
ATOM     21  C   UNL     1       3.686  -1.200  -7.085  1.00  0.00     0.031 C 
ATOM     22  C   UNL     1       5.622   5.079  -4.927  1.00  0.00     0.029 A 
ATOM     23  C   UNL     1       5.925   4.774  -6.324  1.00  0.00     0.049 A 
ATOM     24  H   UNL     1       5.450   3.035  -7.368  1.00  0.00     0.167 HD
ATOM     25  C   UNL     1       4.562  -0.792  -9.355  1.00  0.00     0.031 A 
ATOM     26  C   UNL     1       6.570   5.592  -7.181  1.00  0.00     0.031 A 
ATOM     27  C   UNL     1       5.163   0.046 -10.355  1.00  0.00     0.049 A 
ATOM     28  C   UNL     1       6.785   5.135  -8.599  1.00  0.00     0.074 A 
ATOM     29  C   UNL     1       5.359  -0.234 -11.695  1.00  0.00     0.029 A 
ATOM     30  N   UNL     1       5.640   1.329 -10.135  1.00  0.00    -0.354 N 
ATOM     31  N   UNL     1       6.441   3.996  -9.153  1.00  0.00    -0.248 NA
ATOM     32  C   UNL     1       7.460   6.067  -9.512  1.00  0.00     0.031 C 
ATOM     33  C   UNL     1       6.014   0.853 -12.270  1.00  0.00     0.029 A 
ATOM     34  C   UNL     1       6.154   1.844 -11.310  1.00  0.00     0.049 A 
ATOM     35  H   UNL     1       5.617   1.801  -9.271  1.00  0.00     0.167 HD
ATOM     36  C   UNL     1       6.840   4.082 -10.482  1.00  0.00     0.074 A 
ATOM     37  C   UNL     1       7.435   5.391 -10.655  1.00  0.00     0.031 C 
ATOM     38  C   UNL     1       6.729   3.158 -11.466  1.00  0.00     0.031 A 
BRANCH  25  39
ATOM     39  C   UNL     1       4.106  -2.165  -9.772  1.00  0.00    -0.014 A 
ATOM     40  C   UNL     1       5.053  -3.118 -10.190  1.00  0.00     0.010 A 
ATOM     41  C   UNL     1       2.736  -2.465  -9.889  1.00  0.00     0.010 A 
ATOM     42  C   UNL     1       4.641  -4.322 -10.767  1.00  0.00     0.020 A 
ATOM     43  C   UNL     1       2.320  -3.681 -10.434  1.00  0.00     0.020 A 
ATOM     44  C   UNL     1       3.275  -4.587 -10.900  1.00  0.00     0.054 A 
BRANCH  44  45
ATOM     45  S   UNL     1       2.760  -6.120 -11.721  1.00  0.00     0.124 S 
ATOM     46  O   UNL     1       3.080  -5.843 -13.118  1.00  0.00    -0.237 OA
ATOM     47  O   UNL     1       3.594  -7.126 -11.068  1.00  0.00    -0.237 OA
ATOM     48  O   UNL     1       1.334  -6.211 -11.412  1.00  0.00    -0.744 OA
ENDBRANCH  44  45
ENDBRANCH  25  39
BRANCH  26  49
ATOM     49  C   UNL     1       7.017   6.933  -6.708  1.00  0.00    -0.014 A 
ATOM     50  C   UNL     1       8.023   7.044  -5.728  1.00  0.00     0.010 A 
ATOM     51  C   UNL     1       6.375   8.099  -7.158  1.00  0.00     0.010 A 
ATOM     52  C   UNL     1       8.332   8.284  -5.163  1.00  0.00     0.020 A 
ATOM     53  C   UNL     1       6.704   9.348  -6.618  1.00  0.00     0.020 A 
ATOM     54  C   UNL     1       7.657   9.427  -5.600  1.00  0.00     0.054 A 
BRANCH  54  55
ATOM     55  S   UNL     1       8.024  11.014  -4.801  1.00  0.00     0.124 S 
ATOM     56  O   UNL     1       7.350  10.862  -3.514  1.00  0.00    -0.237 OA
ATOM     57  O   UNL     1       9.484  11.015  -4.750  1.00  0.00    -0.237 OA
ATOM     58  O   UNL     1       7.434  11.997  -5.704  1.00  0.00    -0.744 OA
ENDBRANCH  54  55
ENDBRANCH  26  49
BRANCH  38  59
ATOM     59  C   UNL     1       7.250   3.497 -12.838  1.00  0.00    -0.014 A 
ATOM     60  C   UNL     1       6.350   3.599 -13.916  1.00  0.00     0.010 A 
ATOM     61  C   UNL     1       8.632   3.518 -13.092  1.00  0.00     0.010 A 
ATOM     62  C   UNL     1       6.821   3.656 -15.229  1.00  0.00     0.020 A 
ATOM     63  C   UNL     1       9.107   3.608 -14.403  1.00  0.00     0.020 A 
ATOM     64  C   UNL     1       8.198   3.643 -15.464  1.00  0.00     0.054 A 
BRANCH  64  65
ATOM     65  S   UNL     1       8.790   3.638 -17.178  1.00  0.00     0.124 S 
ATOM     66  O   UNL     1       8.491   2.274 -17.603  1.00  0.00    -0.237 OA
ATOM     67  O   UNL     1       7.980   4.684 -17.799  1.00  0.00    -0.237 OA
ATOM     68  O   UNL     1      10.211   3.955 -17.051  1.00  0.00    -0.744 OA
ENDBRANCH  64  65
ENDBRANCH  38  59
ENDBRANCH  12  13
ENDBRANCH   5   7
ENDBRANCH   2   3
ENDBRANCH   1   2
BRANCH   1  69
ATOM     69  C   UNL     1       4.627  -0.508   3.376  1.00  0.00     0.023 C 
BRANCH  69  70
ATOM     70  C   UNL     1       5.083  -1.926   3.693  1.00  0.00     0.116 C 
BRANCH  70  71
ATOM     71  N   UNL     1       6.491  -1.921   4.042  1.00  0.00    -0.351 N 
ATOM     72  C   UNL     1       7.094  -2.042   5.261  1.00  0.00     0.278 C 
ATOM     73  H   UNL     1       7.107  -1.814   3.282  1.00  0.00     0.163 HD
ATOM     74  O   UNL     1       8.291  -1.749   5.321  1.00  0.00    -0.268 OA
BRANCH  72  75
ATOM     75  C   UNL     1       6.322  -2.626   6.465  1.00  0.00     0.279 C 
ATOM     76  C   UNL     1       6.925  -4.053   6.629  1.00  0.00     0.111 C 
ATOM     77  N   UNL     1       6.496  -1.816   7.698  1.00  0.00    -0.317 N 
ATOM     78  C   UNL     1       6.555  -4.734   7.919  1.00  0.00    -0.033 A 
ATOM     79  C   UNL     1       5.924  -2.479   8.868  1.00  0.00     0.300 C 
ATOM     80  H   UNL     1       7.508  -1.767   7.808  1.00  0.00     0.349 HD
ATOM     81  C   UNL     1       6.623  -6.127   8.054  1.00  0.00     0.006 A 
ATOM     82  C   UNL     1       6.175  -3.954   9.015  1.00  0.00     0.011 A 
ATOM     83  C   UNL     1       6.261  -6.739   9.257  1.00  0.00     0.021 A 
ATOM     84  C   UNL     1       5.819  -4.575  10.224  1.00  0.00     0.030 A 
ATOM     85  C   UNL     1       5.856  -5.960  10.336  1.00  0.00     0.041 A 
ATOM     86  Cl  UNL     1       5.358  -6.705  11.805  1.00  0.00    -0.084 Cl
BRANCH  77  87
ATOM     87  C   UNL     1       6.096  -0.388   7.615  1.00  0.00     0.299 C 
BRANCH  87  88
ATOM     88  C   UNL     1       4.638  -0.025   7.331  1.00  0.00     0.006 A 
ATOM     89  C   UNL     1       3.546  -0.496   8.074  1.00  0.00     0.011 A 
ATOM     90  C   UNL     1       4.342   0.895   6.316  1.00  0.00     0.011 A 
ATOM     91  C   UNL     1       2.228  -0.302   7.648  1.00  0.00     0.021 A 
ATOM     92  C   UNL     1       3.023   1.123   5.894  1.00  0.00     0.021 A 
ATOM     93  C   UNL     1       1.974   0.471   6.526  1.00  0.00     0.041 A 
ATOM     94  Cl  UNL     1       0.368   0.628   5.939  1.00  0.00    -0.084 Cl
ENDBRANCH  87  88
ENDBRANCH  77  87
ENDBRANCH  72  75
ENDBRANCH  70  71
ENDBRANCH  69  70
ENDBRANCH   1  69
TORSDOF 16
