REMARK SMILES O=C(NCCCCNC(=O)[C@@H]([NH2+]Cc1ccc([N+](=O)[O-])c(F)c1)C1CC1)c1ccc(-c2c3nc(c(-c4ccc(S(=O)(=O)[O-])cc4)c4ccc([nH]4)c(-c4ccc(S(=O)(=O)[O-])cc4)c4nc(c(-c5ccc(S(=O)(=O)[O-])cc5)c5ccc2[nH]5)C=C4)C=C3)cc1
REMARK SMILES IDX 6 1 5 2 4 3 3 4 1 5 2 6 27 8 28 9 86 10 29 11 85 12 30 13
REMARK SMILES IDX 31 14 32 15 79 16 33 17 84 18 78 19 80 20 34 21 83 22 77 23
REMARK SMILES IDX 76 24 35 26 65 27 46 28 64 29 47 30 50 31 63 32 81 33 48 34
REMARK SMILES IDX 49 35 62 37 82 38 51 39 36 40 37 41 45 42 38 43 44 44 39 45
REMARK SMILES IDX 40 46 41 47 42 48 43 49 66 50 67 51 75 52 68 53 74 54 69 55
REMARK SMILES IDX 70 56 71 57 72 58 73 59 52 60 53 61 61 62 54 63 60 64 55 65
REMARK SMILES IDX 56 66 57 67 58 68 59 69 7 70 8 71 9 72 10 74 11 75 12 76
REMARK SMILES IDX 13 79 14 80 15 81 23 82 16 83 21 84 17 85 22 86 18 87 19 88
REMARK SMILES IDX 20 89 24 90 25 91 26 92
REMARK H PARENT 3 7 80 25 50 36 8 73 12 77 12 78
REMARK Flexibility Score: inf
ROOT
ATOM      1  C   UNL     1       4.330   3.816   0.317  1.00  0.00     0.023 C 
ENDROOT
BRANCH   1   2
ATOM      2  C   UNL     1       4.820   2.586  -0.444  1.00  0.00     0.023 C 
BRANCH   2   3
ATOM      3  C   UNL     1       4.499   1.248   0.210  1.00  0.00     0.116 C 
BRANCH   3   4
ATOM      4  N   UNL     1       3.071   1.028   0.369  1.00  0.00    -0.352 N 
ATOM      5  O   UNL     1       1.099  -0.015   0.025  1.00  0.00    -0.269 OA
ATOM      6  C   UNL     1       2.316  -0.040  -0.062  1.00  0.00     0.251 C 
ATOM      7  H   UNL     1       2.580   1.734   0.847  1.00  0.00     0.163 HD
BRANCH   6   8
ATOM      8  C   UNL     1       3.008  -1.204  -0.655  1.00  0.00     0.039 A 
ATOM      9  C   UNL     1       4.094  -1.785   0.004  1.00  0.00     0.014 A 
ATOM     10  C   UNL     1       2.581  -1.694  -1.891  1.00  0.00     0.014 A 
ATOM     11  C   UNL     1       4.829  -2.778  -0.628  1.00  0.00     0.010 A 
ATOM     12  C   UNL     1       3.275  -2.748  -2.490  1.00  0.00     0.010 A 
ATOM     13  C   UNL     1       4.413  -3.287  -1.870  1.00  0.00    -0.014 A 
BRANCH  13  14
ATOM     14  C   UNL     1       5.114  -4.463  -2.438  1.00  0.00     0.031 A 
ATOM     15  C   UNL     1       5.896  -4.374  -3.718  1.00  0.00     0.074 A 
ATOM     16  C   UNL     1       5.032  -5.628  -1.764  1.00  0.00     0.049 A 
ATOM     17  N   UNL     1       6.557  -5.318  -4.337  1.00  0.00    -0.248 NA
ATOM     18  C   UNL     1       5.942  -3.067  -4.394  1.00  0.00     0.031 C 
ATOM     19  C   UNL     1       4.280  -5.829  -0.520  1.00  0.00     0.029 A 
ATOM     20  N   UNL     1       5.585  -6.855  -2.016  1.00  0.00    -0.354 N 
ATOM     21  C   UNL     1       7.077  -4.732  -5.485  1.00  0.00     0.074 A 
ATOM     22  C   UNL     1       6.650  -3.349  -5.482  1.00  0.00     0.031 C 
ATOM     23  C   UNL     1       4.450  -7.090  -0.101  1.00  0.00     0.029 A 
ATOM     24  C   UNL     1       5.263  -7.804  -1.076  1.00  0.00     0.049 A 
ATOM     25  H   UNL     1       6.159  -7.039  -2.795  1.00  0.00     0.167 HD
ATOM     26  C   UNL     1       7.838  -5.303  -6.450  1.00  0.00     0.031 A 
ATOM     27  C   UNL     1       5.560  -9.115  -1.017  1.00  0.00     0.031 A 
ATOM     28  C   UNL     1       8.267  -6.678  -6.433  1.00  0.00     0.049 A 
ATOM     29  C   UNL     1       6.386  -9.719  -2.113  1.00  0.00     0.074 A 
ATOM     30  C   UNL     1       9.093  -7.331  -7.332  1.00  0.00     0.029 A 
ATOM     31  N   UNL     1       7.898  -7.614  -5.479  1.00  0.00    -0.354 N 
ATOM     32  N   UNL     1       6.916  -9.131  -3.158  1.00  0.00    -0.248 NA
ATOM     33  C   UNL     1       6.647 -11.161  -2.026  1.00  0.00     0.031 C 
ATOM     34  C   UNL     1       9.178  -8.674  -6.953  1.00  0.00     0.029 A 
ATOM     35  C   UNL     1       8.447  -8.847  -5.789  1.00  0.00     0.049 A 
ATOM     36  H   UNL     1       7.330  -7.429  -4.696  1.00  0.00     0.167 HD
ATOM     37  C   UNL     1       7.575 -10.134  -3.857  1.00  0.00     0.074 A 
ATOM     38  C   UNL     1       7.404 -11.357  -3.097  1.00  0.00     0.031 C 
ATOM     39  C   UNL     1       8.252 -10.053  -5.028  1.00  0.00     0.031 A 
BRANCH  26  40
ATOM     40  C   UNL     1       8.249  -4.460  -7.628  1.00  0.00    -0.014 A 
ATOM     41  C   UNL     1       9.279  -3.510  -7.521  1.00  0.00     0.010 A 
ATOM     42  C   UNL     1       7.673  -4.707  -8.889  1.00  0.00     0.010 A 
ATOM     43  C   UNL     1       9.719  -2.814  -8.652  1.00  0.00     0.020 A 
ATOM     44  C   UNL     1       8.121  -4.026 -10.025  1.00  0.00     0.020 A 
ATOM     45  C   UNL     1       9.139  -3.079  -9.898  1.00  0.00     0.054 A 
BRANCH  45  46
ATOM     46  S   UNL     1       9.775  -2.210 -11.359  1.00  0.00     0.124 S 
ATOM     47  O   UNL     1       9.243  -0.864 -11.164  1.00  0.00    -0.237 OA
ATOM     48  O   UNL     1      11.222  -2.341 -11.205  1.00  0.00    -0.237 OA
ATOM     49  O   UNL     1       9.202  -2.950 -12.480  1.00  0.00    -0.744 OA
ENDBRANCH  45  46
ENDBRANCH  26  40
BRANCH  27  50
ATOM     50  C   UNL     1       5.023  -9.946   0.092  1.00  0.00    -0.014 A 
ATOM     51  C   UNL     1       5.875 -10.472   1.077  1.00  0.00     0.010 A 
ATOM     52  C   UNL     1       3.641 -10.205   0.169  1.00  0.00     0.010 A 
ATOM     53  C   UNL     1       5.357 -11.264   2.106  1.00  0.00     0.020 A 
ATOM     54  C   UNL     1       3.117 -10.970   1.211  1.00  0.00     0.020 A 
ATOM     55  C   UNL     1       3.982 -11.511   2.164  1.00  0.00     0.054 A 
BRANCH  55  56
ATOM     56  S   UNL     1       3.322 -12.513   3.524  1.00  0.00     0.124 S 
ATOM     57  O   UNL     1       3.639 -13.867   3.082  1.00  0.00    -0.237 OA
ATOM     58  O   UNL     1       4.079 -12.028   4.676  1.00  0.00    -0.237 OA
ATOM     59  O   UNL     1       1.900 -12.173   3.537  1.00  0.00    -0.744 OA
ENDBRANCH  55  56
ENDBRANCH  27  50
BRANCH  39  60
ATOM     60  C   UNL     1       8.855 -11.326  -5.552  1.00  0.00    -0.014 A 
ATOM     61  C   UNL     1       8.044 -12.323  -6.123  1.00  0.00     0.010 A 
ATOM     62  C   UNL     1      10.247 -11.513  -5.502  1.00  0.00     0.010 A 
ATOM     63  C   UNL     1       8.614 -13.502  -6.606  1.00  0.00     0.020 A 
ATOM     64  C   UNL     1      10.823 -12.681  -6.007  1.00  0.00     0.020 A 
ATOM     65  C   UNL     1      10.001 -13.674  -6.543  1.00  0.00     0.054 A 
BRANCH  65  66
ATOM     66  S   UNL     1      10.722 -15.198  -7.210  1.00  0.00     0.124 S 
ATOM     67  O   UNL     1      10.403 -16.167  -6.165  1.00  0.00    -0.237 OA
ATOM     68  O   UNL     1      10.002 -15.372  -8.470  1.00  0.00    -0.237 OA
ATOM     69  O   UNL     1      12.141 -14.876  -7.349  1.00  0.00    -0.744 OA
ENDBRANCH  65  66
ENDBRANCH  39  60
ENDBRANCH  13  14
ENDBRANCH   6   8
ENDBRANCH   3   4
ENDBRANCH   2   3
ENDBRANCH   1   2
BRANCH   1  70
ATOM     70  C   UNL     1       4.657   3.833   1.806  1.00  0.00     0.116 C 
BRANCH  70  71
ATOM     71  N   UNL     1       6.077   3.720   2.069  1.00  0.00    -0.351 N 
ATOM     72  C   UNL     1       6.828   4.308   3.043  1.00  0.00     0.278 C 
ATOM     73  H   UNL     1       6.573   3.133   1.454  1.00  0.00     0.163 HD
ATOM     74  O   UNL     1       7.995   3.919   3.166  1.00  0.00    -0.268 OA
BRANCH  72  75
ATOM     75  C   UNL     1       6.270   5.414   3.973  1.00  0.00     0.275 C 
BRANCH  75  76
ATOM     76  N   UNL     1       5.597   6.468   3.193  1.00  0.00    -0.332 N 
ATOM     77  H   UNL     1       4.851   6.024   2.658  1.00  0.00     0.347 HD
ATOM     78  H   UNL     1       6.340   6.893   2.637  1.00  0.00     0.347 HD
BRANCH  76  79
ATOM     79  C   UNL     1       5.005   7.576   3.929  1.00  0.00     0.298 C 
BRANCH  79  80
ATOM     80  C   UNL     1       5.959   8.648   4.413  1.00  0.00     0.010 A 
ATOM     81  C   UNL     1       5.822   9.968   3.949  1.00  0.00     0.017 A 
ATOM     82  C   UNL     1       6.923   8.388   5.400  1.00  0.00     0.056 A 
ATOM     83  C   UNL     1       6.631  10.994   4.449  1.00  0.00     0.089 A 
ATOM     84  C   UNL     1       7.747   9.401   5.887  1.00  0.00     0.201 A 
ATOM     85  C   UNL     1       7.601  10.698   5.415  1.00  0.00     0.304 A 
ATOM     86  F   UNL     1       8.630   9.084   6.843  1.00  0.00    -0.199 F 
BRANCH  85  87
ATOM     87  N   UNL     1       8.432  11.764   5.951  1.00  0.00     0.065 N 
ATOM     88  O   UNL     1       7.956  12.909   5.941  1.00  0.00    -0.258 OA
ATOM     89  O   UNL     1       9.564  11.479   6.361  1.00  0.00    -0.258 OA
ENDBRANCH  85  87
ENDBRANCH  79  80
ENDBRANCH  76  79
ENDBRANCH  75  76
BRANCH  75  90
ATOM     90  C   UNL     1       5.509   4.916   5.183  1.00  0.00     0.057 C 
ATOM     91  C   UNL     1       4.023   4.620   5.188  1.00  0.00     0.011 C 
ATOM     92  C   UNL     1       5.005   3.498   5.348  1.00  0.00     0.011 C 
ENDBRANCH  75  90
ENDBRANCH  72  75
ENDBRANCH  70  71
ENDBRANCH   1  70
TORSDOF 19
