REMARK SMILES C#Cc1ccc2c(c1)C=C(C(=O)NCCCCNC(=O)c1ccc(-c3c4nc(c(-c5ccc(S(=O)(=O)[O-])cc5)c5ccc([nH]5)c(-c5ccc(S(=O)(=O)[O-])cc5)c5nc(c(-c6ccc(S(=O)(=O)[O-])cc6)c6ccc3[nH]6)C=C5)C=C4)cc1)[C@@H](C(F)(F)F)O2
REMARK SMILES IDX 16 1 15 2 14 3 13 4 11 5 12 6 10 8 3 9 4 10 8 11 5 12 7 13
REMARK SMILES IDX 6 14 9 15 86 16 81 17 2 18 1 19 82 20 83 21 84 22 85 23
REMARK SMILES IDX 17 24 18 25 19 26 20 28 21 29 22 30 80 31 23 32 79 33 24 34
REMARK SMILES IDX 25 35 26 36 73 37 27 38 78 39 72 40 74 41 28 42 77 43 71 44
REMARK SMILES IDX 70 45 29 47 59 48 40 49 58 50 41 51 44 52 57 53 75 54 42 55
REMARK SMILES IDX 43 56 56 58 76 59 45 60 30 61 31 62 39 63 32 64 38 65 33 66
REMARK SMILES IDX 34 67 35 68 36 69 37 70 60 71 61 72 69 73 62 74 68 75 63 76
REMARK SMILES IDX 64 77 65 78 66 79 67 80 46 81 47 82 55 83 48 84 54 85 49 86
REMARK SMILES IDX 50 87 51 88 52 89 53 90
REMARK H PARENT 13 7 18 27 74 46 44 57
REMARK Flexibility Score: inf
ROOT
ATOM      1  C   UNL     1     -10.825   3.554   1.692  1.00  0.00     0.023 C 
ENDROOT
BRANCH   1   2
ATOM      2  C   UNL     1      -9.767   2.472   1.531  1.00  0.00     0.023 C 
BRANCH   2   3
ATOM      3  C   UNL     1      -9.018   2.560   0.208  1.00  0.00     0.116 C 
BRANCH   3   4
ATOM      4  N   UNL     1      -7.921   3.514   0.256  1.00  0.00    -0.352 N 
ATOM      5  C   UNL     1      -6.569   3.469   0.174  1.00  0.00     0.251 C 
ATOM      6  O   UNL     1      -5.990   4.559   0.207  1.00  0.00    -0.270 OA
ATOM      7  H   UNL     1      -8.247   4.435   0.379  1.00  0.00     0.163 HD
BRANCH   5   8
ATOM      8  C   UNL     1      -5.768   2.213   0.058  1.00  0.00     0.067 C 
ATOM      9  C   UNL     1      -1.461   0.015   0.046  1.00  0.00     0.025 A 
ATOM     10  C   UNL     1      -2.098  -1.228   0.045  1.00  0.00     0.021 A 
ATOM     11  C   UNL     1      -2.214   1.196   0.069  1.00  0.00     0.029 A 
ATOM     12  C   UNL     1      -3.486  -1.294   0.064  1.00  0.00     0.048 A 
ATOM     13  C   UNL     1      -3.611   1.132   0.088  1.00  0.00     0.018 A 
ATOM     14  C   UNL     1      -4.231  -0.119   0.076  1.00  0.00     0.128 A 
ATOM     15  C   UNL     1      -4.433   2.335   0.172  1.00  0.00     0.025 C 
ATOM     16  O   UNL     1      -5.580  -0.285   0.122  1.00  0.00    -0.475 OA
ATOM     17  C   UNL     1      -6.389   0.871  -0.197  1.00  0.00     0.314 C 
BRANCH   9  18
ATOM     18  C   UNL     1      -0.033   0.064   0.039  1.00  0.00    -0.070 C 
ATOM     19  C   UNL     1       1.169   0.069   0.038  1.00  0.00     0.010 C 
ENDBRANCH   9  18
BRANCH  17  20
ATOM     20  C   UNL     1      -6.910   0.731  -1.641  1.00  0.00     0.429 C 
ATOM     21  F   UNL     1      -7.819  -0.274  -1.718  1.00  0.00    -0.167 F 
ATOM     22  F   UNL     1      -7.535   1.845  -2.090  1.00  0.00    -0.167 F 
ATOM     23  F   UNL     1      -5.924   0.454  -2.524  1.00  0.00    -0.167 F 
ENDBRANCH  17  20
ENDBRANCH   5   8
ENDBRANCH   3   4
ENDBRANCH   2   3
ENDBRANCH   1   2
BRANCH   1  24
ATOM     24  C   UNL     1     -11.833   3.623   0.553  1.00  0.00     0.116 C 
BRANCH  24  25
ATOM     25  N   UNL     1     -12.544   2.370   0.310  1.00  0.00    -0.352 N 
ATOM     26  C   UNL     1     -13.892   2.202   0.072  1.00  0.00     0.251 C 
ATOM     27  H   UNL     1     -11.998   1.551   0.317  1.00  0.00     0.163 HD
ATOM     28  O   UNL     1     -14.388   1.086  -0.013  1.00  0.00    -0.269 OA
BRANCH  26  29
ATOM     29  C   UNL     1     -14.724   3.418  -0.023  1.00  0.00     0.039 A 
ATOM     30  C   UNL     1     -14.300   4.465  -0.841  1.00  0.00     0.014 A 
ATOM     31  C   UNL     1     -15.805   3.578   0.844  1.00  0.00     0.014 A 
ATOM     32  C   UNL     1     -14.802   5.736  -0.617  1.00  0.00     0.010 A 
ATOM     33  C   UNL     1     -16.399   4.835   0.965  1.00  0.00     0.010 A 
ATOM     34  C   UNL     1     -15.860   5.941   0.286  1.00  0.00    -0.014 A 
BRANCH  34  35
ATOM     35  C   UNL     1     -16.384   7.317   0.492  1.00  0.00     0.031 A 
ATOM     36  C   UNL     1     -16.353   7.973   1.849  1.00  0.00     0.074 A 
ATOM     37  C   UNL     1     -16.845   7.998  -0.577  1.00  0.00     0.049 A 
ATOM     38  N   UNL     1     -16.761   9.169   2.189  1.00  0.00    -0.248 NA
ATOM     39  C   UNL     1     -15.799   7.195   2.971  1.00  0.00     0.031 C 
ATOM     40  C   UNL     1     -16.897   7.474  -1.944  1.00  0.00     0.029 A 
ATOM     41  N   UNL     1     -17.326   9.278  -0.696  1.00  0.00    -0.354 N 
ATOM     42  C   UNL     1     -16.534   9.281   3.557  1.00  0.00     0.074 A 
ATOM     43  C   UNL     1     -15.987   8.017   3.996  1.00  0.00     0.031 C 
ATOM     44  C   UNL     1     -17.312   8.441  -2.771  1.00  0.00     0.029 A 
ATOM     45  C   UNL     1     -17.656   9.621  -1.987  1.00  0.00     0.049 A 
ATOM     46  H   UNL     1     -17.425   9.891   0.068  1.00  0.00     0.167 HD
ATOM     47  C   UNL     1     -16.748  10.348   4.364  1.00  0.00     0.031 A 
ATOM     48  C   UNL     1     -18.197  10.747  -2.493  1.00  0.00     0.031 A 
ATOM     49  C   UNL     1     -17.277  11.608   3.903  1.00  0.00     0.049 A 
ATOM     50  C   UNL     1     -18.483  11.891  -1.565  1.00  0.00     0.074 A 
ATOM     51  C   UNL     1     -17.503  12.758   4.640  1.00  0.00     0.029 A 
ATOM     52  N   UNL     1     -17.658  11.892   2.599  1.00  0.00    -0.354 N 
ATOM     53  N   UNL     1     -18.234  11.986  -0.281  1.00  0.00    -0.248 NA
ATOM     54  C   UNL     1     -19.114  13.081  -2.149  1.00  0.00     0.031 C 
ATOM     55  C   UNL     1     -18.106  13.700   3.807  1.00  0.00     0.029 A 
ATOM     56  C   UNL     1     -18.158  13.182   2.522  1.00  0.00     0.049 A 
ATOM     57  H   UNL     1     -17.583  11.269   1.840  1.00  0.00     0.167 HD
ATOM     58  C   UNL     1     -18.659  13.254   0.094  1.00  0.00     0.074 A 
ATOM     59  C   UNL     1     -19.156  13.899  -1.105  1.00  0.00     0.031 C 
ATOM     60  C   UNL     1     -18.645  13.825   1.323  1.00  0.00     0.031 A 
BRANCH  47  61
ATOM     61  C   UNL     1     -16.412  10.231   5.833  1.00  0.00    -0.014 A 
ATOM     62  C   UNL     1     -17.431  10.375   6.796  1.00  0.00     0.010 A 
ATOM     63  C   UNL     1     -15.078  10.135   6.270  1.00  0.00     0.010 A 
ATOM     64  C   UNL     1     -17.122  10.480   8.155  1.00  0.00     0.020 A 
ATOM     65  C   UNL     1     -14.767  10.200   7.633  1.00  0.00     0.020 A 
ATOM     66  C   UNL     1     -15.788  10.404   8.564  1.00  0.00     0.054 A 
BRANCH  66  67
ATOM     67  S   UNL     1     -15.402  10.606  10.325  1.00  0.00     0.124 S 
ATOM     68  O   UNL     1     -15.684  12.021  10.543  1.00  0.00    -0.237 OA
ATOM     69  O   UNL     1     -16.326   9.671  10.961  1.00  0.00    -0.237 OA
ATOM     70  O   UNL     1     -13.992  10.230  10.412  1.00  0.00    -0.744 OA
ENDBRANCH  66  67
ENDBRANCH  47  61
BRANCH  48  71
ATOM     71  C   UNL     1     -18.469  10.823  -3.957  1.00  0.00    -0.014 A 
ATOM     72  C   UNL     1     -19.378   9.931  -4.561  1.00  0.00     0.010 A 
ATOM     73  C   UNL     1     -17.741  11.706  -4.773  1.00  0.00     0.010 A 
ATOM     74  C   UNL     1     -19.490   9.861  -5.951  1.00  0.00     0.020 A 
ATOM     75  C   UNL     1     -17.886  11.671  -6.164  1.00  0.00     0.020 A 
ATOM     76  C   UNL     1     -18.730  10.723  -6.744  1.00  0.00     0.054 A 
BRANCH  76  77
ATOM     77  S   UNL     1     -18.832  10.553  -8.546  1.00  0.00     0.124 S 
ATOM     78  O   UNL     1     -18.144   9.284  -8.767  1.00  0.00    -0.237 OA
ATOM     79  O   UNL     1     -20.273  10.537  -8.782  1.00  0.00    -0.237 OA
ATOM     80  O   UNL     1     -18.134  11.736  -9.043  1.00  0.00    -0.744 OA
ENDBRANCH  76  77
ENDBRANCH  48  71
BRANCH  60  81
ATOM     81  C   UNL     1     -19.180  15.229   1.468  1.00  0.00    -0.014 A 
ATOM     82  C   UNL     1     -18.325  16.260   1.904  1.00  0.00     0.010 A 
ATOM     83  C   UNL     1     -20.552  15.498   1.322  1.00  0.00     0.010 A 
ATOM     84  C   UNL     1     -18.839  17.512   2.250  1.00  0.00     0.020 A 
ATOM     85  C   UNL     1     -21.064  16.763   1.625  1.00  0.00     0.020 A 
ATOM     86  C   UNL     1     -20.209  17.751   2.120  1.00  0.00     0.054 A 
BRANCH  86  87
ATOM     87  S   UNL     1     -20.866  19.358   2.643  1.00  0.00     0.124 S 
ATOM     88  O   UNL     1     -20.734  19.287   4.095  1.00  0.00    -0.237 OA
ATOM     89  O   UNL     1     -19.972  20.300   1.974  1.00  0.00    -0.237 OA
ATOM     90  O   UNL     1     -22.239  19.350   2.141  1.00  0.00    -0.744 OA
ENDBRANCH  86  87
ENDBRANCH  60  81
ENDBRANCH  34  35
ENDBRANCH  26  29
ENDBRANCH  24  25
ENDBRANCH   1  24
TORSDOF 16
