REMARK SMILES CC(C)Cc1ccc([C@H](CF)C(=O)NCCCCNC(=O)c2ccc(-c3c4nc(c(-c5ccc(S(=O)(=O)[O-])cc5)c5ccc([nH]5)c(-c5ccc(S(=O)(=O)[O-])cc5)c5nc(c(-c6ccc(S(=O)(=O)[O-])cc6)c6ccc3[nH]6)C=C5)C=C4)cc2)cc1
REMARK SMILES IDX 16 1 15 2 14 3 12 4 13 5 9 7 8 8 5 9 6 10 83 11 7 12 82 13
REMARK SMILES IDX 4 14 2 15 1 16 3 17 10 18 11 19 17 20 18 21 19 22 20 23
REMARK SMILES IDX 21 25 22 26 23 27 81 28 24 29 80 30 25 31 26 32 27 33 74 34
REMARK SMILES IDX 28 35 79 36 73 37 75 38 29 39 78 40 72 41 71 42 30 44 60 45
REMARK SMILES IDX 41 46 59 47 42 48 45 49 58 50 76 51 43 52 44 53 57 55 77 56
REMARK SMILES IDX 46 57 31 58 32 59 40 60 33 61 39 62 34 63 35 64 36 65 37 66
REMARK SMILES IDX 38 67 61 68 62 69 70 70 63 71 69 72 64 73 65 74 66 75 67 76
REMARK SMILES IDX 68 77 47 78 48 79 56 80 49 81 55 82 50 83 51 84 52 85 53 86
REMARK SMILES IDX 54 87
REMARK H PARENT 14 6 19 24 75 43 45 54
REMARK Flexibility Score: inf
ROOT
ATOM      1  C   UNL     1      -2.439   0.728  -3.446  1.00  0.00     0.023 C 
ENDROOT
BRANCH   1   2
ATOM      2  C   UNL     1      -3.168  -0.417  -4.144  1.00  0.00     0.116 C 
BRANCH   2   3
ATOM      3  N   UNL     1      -2.255  -1.322  -4.816  1.00  0.00    -0.355 N 
ATOM      4  C   UNL     1      -2.063  -2.664  -4.657  1.00  0.00     0.230 C 
ATOM      5  O   UNL     1      -1.271  -3.221  -5.423  1.00  0.00    -0.274 OA
ATOM      6  H   UNL     1      -1.681  -0.901  -5.496  1.00  0.00     0.163 HD
BRANCH   4   7
ATOM      7  C   UNL     1      -2.771  -3.467  -3.562  1.00  0.00     0.139 C 
BRANCH   7   8
ATOM      8  C   UNL     1      -4.280  -3.516  -3.773  1.00  0.00    -0.033 A 
ATOM      9  C   UNL     1      -7.024  -3.382  -4.437  1.00  0.00    -0.048 A 
ATOM     10  C   UNL     1      -6.123  -4.035  -5.282  1.00  0.00     0.004 A 
ATOM     11  C   UNL     1      -6.559  -2.870  -3.220  1.00  0.00     0.004 A 
ATOM     12  C   UNL     1      -4.768  -4.095  -4.957  1.00  0.00     0.005 A 
ATOM     13  C   UNL     1      -5.206  -2.961  -2.880  1.00  0.00     0.005 A 
BRANCH   9  14
ATOM     14  C   UNL     1      -8.457  -3.173  -4.863  1.00  0.00     0.038 C 
BRANCH  14  15
ATOM     15  C   UNL     1      -8.701  -1.785  -5.495  1.00  0.00    -0.013 C 
ATOM     16  C   UNL     1      -7.961  -1.609  -6.825  1.00  0.00     0.008 C 
ATOM     17  C   UNL     1     -10.200  -1.569  -5.715  1.00  0.00     0.008 C 
ENDBRANCH  14  15
ENDBRANCH   9  14
ENDBRANCH   7   8
BRANCH   7  18
ATOM     18  C   UNL     1      -2.232  -3.021  -2.207  1.00  0.00     0.232 C 
ATOM     19  F   UNL     1      -2.583  -3.929  -1.254  1.00  0.00    -0.250 F 
ENDBRANCH   7  18
ENDBRANCH   4   7
ENDBRANCH   2   3
ENDBRANCH   1   2
BRANCH   1  20
ATOM     20  C   UNL     1      -1.858   1.783  -4.385  1.00  0.00     0.023 C 
BRANCH  20  21
ATOM     21  C   UNL     1      -2.862   2.450  -5.321  1.00  0.00     0.116 C 
BRANCH  21  22
ATOM     22  N   UNL     1      -3.968   3.094  -4.625  1.00  0.00    -0.352 N 
ATOM     23  C   UNL     1      -4.545   4.315  -4.887  1.00  0.00     0.251 C 
ATOM     24  H   UNL     1      -4.351   2.591  -3.870  1.00  0.00     0.163 HD
ATOM     25  O   UNL     1      -5.415   4.767  -4.150  1.00  0.00    -0.269 OA
BRANCH  23  26
ATOM     26  C   UNL     1      -4.068   5.091  -6.050  1.00  0.00     0.039 A 
ATOM     27  C   UNL     1      -3.610   6.396  -5.854  1.00  0.00     0.014 A 
ATOM     28  C   UNL     1      -3.998   4.493  -7.310  1.00  0.00     0.014 A 
ATOM     29  C   UNL     1      -2.992   7.073  -6.908  1.00  0.00     0.010 A 
ATOM     30  C   UNL     1      -3.328   5.145  -8.339  1.00  0.00     0.010 A 
ATOM     31  C   UNL     1      -2.804   6.434  -8.143  1.00  0.00    -0.014 A 
BRANCH  31  32
ATOM     32  C   UNL     1      -2.044   7.070  -9.248  1.00  0.00     0.031 A 
ATOM     33  C   UNL     1      -2.735   7.380 -10.546  1.00  0.00     0.074 A 
ATOM     34  C   UNL     1      -0.716   7.263  -9.125  1.00  0.00     0.049 A 
ATOM     35  N   UNL     1      -2.220   7.774 -11.681  1.00  0.00    -0.248 NA
ATOM     36  C   UNL     1      -4.195   7.192 -10.578  1.00  0.00     0.031 C 
ATOM     37  C   UNL     1       0.080   6.972  -7.930  1.00  0.00     0.029 A 
ATOM     38  N   UNL     1       0.205   7.732 -10.029  1.00  0.00    -0.354 N 
ATOM     39  C   UNL     1      -3.284   7.845 -12.572  1.00  0.00     0.074 A 
ATOM     40  C   UNL     1      -4.468   7.426 -11.853  1.00  0.00     0.031 C 
ATOM     41  C   UNL     1       1.365   7.280  -8.171  1.00  0.00     0.029 A 
ATOM     42  C   UNL     1       1.494   7.747  -9.548  1.00  0.00     0.049 A 
ATOM     43  H   UNL     1      -0.034   8.030 -10.936  1.00  0.00     0.167 HD
ATOM     44  C   UNL     1      -3.277   8.232 -13.870  1.00  0.00     0.031 A 
ATOM     45  C   UNL     1       2.651   8.083 -10.151  1.00  0.00     0.031 A 
ATOM     46  C   UNL     1      -2.105   8.674 -14.575  1.00  0.00     0.049 A 
ATOM     47  C   UNL     1       2.631   8.526 -11.587  1.00  0.00     0.074 A 
ATOM     48  C   UNL     1      -2.007   9.137 -15.875  1.00  0.00     0.029 A 
ATOM     49  N   UNL     1      -0.829   8.715 -14.036  1.00  0.00    -0.354 N 
ATOM     50  N   UNL     1       1.609   8.623 -12.403  1.00  0.00    -0.248 NA
ATOM     51  C   UNL     1       3.919   8.909 -12.183  1.00  0.00     0.031 C 
ATOM     52  C   UNL     1      -0.663   9.432 -16.132  1.00  0.00     0.029 A 
ATOM     53  C   UNL     1       0.066   9.188 -14.979  1.00  0.00     0.049 A 
ATOM     54  H   UNL     1      -0.593   8.447 -13.118  1.00  0.00     0.167 HD
ATOM     55  C   UNL     1       2.126   9.103 -13.601  1.00  0.00     0.074 A 
ATOM     56  C   UNL     1       3.550   9.281 -13.402  1.00  0.00     0.031 C 
ATOM     57  C   UNL     1       1.478   9.372 -14.760  1.00  0.00     0.031 A 
BRANCH  44  58
ATOM     58  C   UNL     1      -4.586   8.185 -14.609  1.00  0.00    -0.014 A 
ATOM     59  C   UNL     1      -5.602   9.120 -14.341  1.00  0.00     0.010 A 
ATOM     60  C   UNL     1      -4.797   7.205 -15.595  1.00  0.00     0.010 A 
ATOM     61  C   UNL     1      -6.825   9.045 -15.012  1.00  0.00     0.020 A 
ATOM     62  C   UNL     1      -6.010   7.143 -16.286  1.00  0.00     0.020 A 
ATOM     63  C   UNL     1      -7.024   8.051 -15.974  1.00  0.00     0.054 A 
BRANCH  63  64
ATOM     64  S   UNL     1      -8.619   7.976 -16.835  1.00  0.00     0.124 S 
ATOM     65  O   UNL     1      -9.472   7.348 -15.829  1.00  0.00    -0.237 OA
ATOM     66  O   UNL     1      -8.905   9.381 -17.111  1.00  0.00    -0.237 OA
ATOM     67  O   UNL     1      -8.338   7.158 -18.012  1.00  0.00    -0.744 OA
ENDBRANCH  63  64
ENDBRANCH  44  58
BRANCH  45  68
ATOM     68  C   UNL     1       3.928   8.022  -9.391  1.00  0.00    -0.014 A 
ATOM     69  C   UNL     1       4.550   9.205  -8.958  1.00  0.00     0.010 A 
ATOM     70  C   UNL     1       4.517   6.783  -9.079  1.00  0.00     0.010 A 
ATOM     71  C   UNL     1       5.747   9.153  -8.238  1.00  0.00     0.020 A 
ATOM     72  C   UNL     1       5.703   6.727  -8.341  1.00  0.00     0.020 A 
ATOM     73  C   UNL     1       6.316   7.913  -7.934  1.00  0.00     0.054 A 
BRANCH  73  74
ATOM     74  S   UNL     1       7.838   7.865  -6.946  1.00  0.00     0.124 S 
ATOM     75  O   UNL     1       8.852   8.207  -7.937  1.00  0.00    -0.237 OA
ATOM     76  O   UNL     1       7.586   8.876  -5.922  1.00  0.00    -0.237 OA
ATOM     77  O   UNL     1       7.878   6.489  -6.454  1.00  0.00    -0.744 OA
ENDBRANCH  73  74
ENDBRANCH  45  68
BRANCH  57  78
ATOM     78  C   UNL     1       2.288   9.928 -15.896  1.00  0.00    -0.014 A 
ATOM     79  C   UNL     1       3.110   9.097 -16.676  1.00  0.00     0.010 A 
ATOM     80  C   UNL     1       2.157  11.286 -16.239  1.00  0.00     0.010 A 
ATOM     81  C   UNL     1       3.797   9.618 -17.775  1.00  0.00     0.020 A 
ATOM     82  C   UNL     1       2.827  11.806 -17.349  1.00  0.00     0.020 A 
ATOM     83  C   UNL     1       3.649  10.969 -18.106  1.00  0.00     0.054 A 
BRANCH  83  84
ATOM     84  S   UNL     1       4.490  11.607 -19.582  1.00  0.00     0.124 S 
ATOM     85  O   UNL     1       5.864  11.751 -19.110  1.00  0.00    -0.237 OA
ATOM     86  O   UNL     1       4.270  10.548 -20.563  1.00  0.00    -0.237 OA
ATOM     87  O   UNL     1       3.792  12.860 -19.861  1.00  0.00    -0.744 OA
ENDBRANCH  83  84
ENDBRANCH  57  78
ENDBRANCH  31  32
ENDBRANCH  23  26
ENDBRANCH  21  22
ENDBRANCH  20  21
ENDBRANCH   1  20
TORSDOF 18
