REMARK SMILES O=C(NCCCCNC(=O)[C@H]1Sc2[nH]c(=O)sc2[C@H]2c3cc(Br)cc(Br)c3OC(=O)[C@H]21)c1ccc(-c2c3nc(c(-c4ccc(S(=O)(=O)[O-])cc4)c4ccc([nH]4)c(-c4ccc(S(=O)(=O)[O-])cc4)c4nc(c(-c5ccc(S(=O)(=O)[O-])cc5)c5ccc2[nH]5)C=C4)C=C3)cc1
REMARK SMILES IDX 4 1 3 2 1 3 2 4 32 6 33 7 91 8 34 9 90 10 35 11 36 12 37 13
REMARK SMILES IDX 84 14 38 15 89 16 83 17 85 18 39 19 88 20 82 21 81 22 40 24
REMARK SMILES IDX 70 25 51 26 69 27 52 28 55 29 68 30 86 31 53 32 54 33 67 35
REMARK SMILES IDX 87 36 56 37 41 38 42 39 50 40 43 41 49 42 44 43 45 44 46 45
REMARK SMILES IDX 47 46 48 47 71 48 72 49 80 50 73 51 79 52 74 53 75 54 76 55
REMARK SMILES IDX 77 56 78 57 57 58 58 59 66 60 59 61 65 62 60 63 61 64 62 65
REMARK SMILES IDX 63 66 64 67 5 68 6 69 7 70 8 71 9 72 10 74 11 75 12 76 31 77
REMARK SMILES IDX 13 78 19 79 29 80 14 81 18 82 20 83 28 84 30 85 15 86 17 88
REMARK SMILES IDX 21 89 27 90 16 91 22 92 25 93 23 94 24 95 26 96
REMARK H PARENT 3 5 85 23 55 34 8 73 14 87
REMARK Flexibility Score: inf
ROOT
ATOM      1  C   UNL     1       4.636   0.580   0.367  1.00  0.00     0.116 C 
ENDROOT
BRANCH   1   2
ATOM      2  N   UNL     1       3.238   0.382   0.701  1.00  0.00    -0.352 N 
ATOM      3  O   UNL     1       1.092  -0.065   0.735  1.00  0.00    -0.269 OA
ATOM      4  C   UNL     1       2.148  -0.187   0.103  1.00  0.00     0.251 C 
ATOM      5  H   UNL     1       3.018   0.752   1.587  1.00  0.00     0.163 HD
BRANCH   4   6
ATOM      6  C   UNL     1       2.121  -0.917  -1.198  1.00  0.00     0.039 A 
ATOM      7  C   UNL     1       3.220  -1.212  -2.004  1.00  0.00     0.014 A 
ATOM      8  C   UNL     1       0.853  -1.371  -1.620  1.00  0.00     0.014 A 
ATOM      9  C   UNL     1       3.054  -1.936  -3.191  1.00  0.00     0.010 A 
ATOM     10  C   UNL     1       0.683  -2.096  -2.801  1.00  0.00     0.010 A 
ATOM     11  C   UNL     1       1.787  -2.377  -3.599  1.00  0.00    -0.014 A 
BRANCH  11  12
ATOM     12  C   UNL     1       1.689  -3.206  -4.805  1.00  0.00     0.031 A 
ATOM     13  C   UNL     1       2.442  -4.497  -4.783  1.00  0.00     0.074 A 
ATOM     14  C   UNL     1       0.897  -2.957  -5.868  1.00  0.00     0.049 A 
ATOM     15  N   UNL     1       3.468  -4.833  -5.495  1.00  0.00    -0.248 NA
ATOM     16  C   UNL     1       2.030  -5.518  -3.810  1.00  0.00     0.031 C 
ATOM     17  C   UNL     1      -0.151  -1.945  -6.014  1.00  0.00     0.029 A 
ATOM     18  N   UNL     1       0.827  -3.647  -7.045  1.00  0.00    -0.354 N 
ATOM     19  C   UNL     1       3.750  -6.163  -5.182  1.00  0.00     0.074 A 
ATOM     20  C   UNL     1       2.894  -6.502  -4.070  1.00  0.00     0.031 C 
ATOM     21  C   UNL     1      -0.886  -2.220  -7.119  1.00  0.00     0.029 A 
ATOM     22  C   UNL     1      -0.266  -3.323  -7.834  1.00  0.00     0.049 A 
ATOM     23  H   UNL     1       1.496  -4.318  -7.311  1.00  0.00     0.167 HD
ATOM     24  C   UNL     1       4.561  -6.944  -5.952  1.00  0.00     0.031 A 
ATOM     25  C   UNL     1      -0.652  -3.938  -8.979  1.00  0.00     0.031 A 
ATOM     26  C   UNL     1       5.304  -6.176  -6.915  1.00  0.00     0.049 A 
ATOM     27  C   UNL     1       0.531  -4.627  -9.543  1.00  0.00     0.074 A 
ATOM     28  C   UNL     1       6.263  -5.186  -6.856  1.00  0.00     0.029 A 
ATOM     29  N   UNL     1       4.847  -6.179  -8.211  1.00  0.00    -0.354 N 
ATOM     30  N   UNL     1       1.569  -4.000 -10.019  1.00  0.00    -0.248 NA
ATOM     31  C   UNL     1       0.733  -6.038  -9.262  1.00  0.00     0.031 C 
ATOM     32  C   UNL     1       5.992  -4.341  -7.974  1.00  0.00     0.029 A 
ATOM     33  C   UNL     1       4.902  -4.884  -8.658  1.00  0.00     0.049 A 
ATOM     34  H   UNL     1       4.539  -6.963  -8.721  1.00  0.00     0.167 HD
ATOM     35  C   UNL     1       2.650  -4.808  -9.705  1.00  0.00     0.074 A 
ATOM     36  C   UNL     1       2.064  -6.099  -9.361  1.00  0.00     0.031 C 
ATOM     37  C   UNL     1       3.891  -4.274  -9.496  1.00  0.00     0.031 A 
BRANCH  24  38
ATOM     38  C   UNL     1       4.461  -8.448  -6.067  1.00  0.00    -0.014 A 
ATOM     39  C   UNL     1       5.439  -9.141  -6.814  1.00  0.00     0.010 A 
ATOM     40  C   UNL     1       3.300  -9.165  -5.713  1.00  0.00     0.010 A 
ATOM     41  C   UNL     1       5.224 -10.453  -7.261  1.00  0.00     0.020 A 
ATOM     42  C   UNL     1       3.096 -10.489  -6.117  1.00  0.00     0.020 A 
ATOM     43  C   UNL     1       4.041 -11.109  -6.927  1.00  0.00     0.054 A 
BRANCH  43  44
ATOM     44  S   UNL     1       3.702 -12.737  -7.645  1.00  0.00     0.124 S 
ATOM     45  O   UNL     1       3.568 -12.417  -9.063  1.00  0.00    -0.237 OA
ATOM     46  O   UNL     1       4.895 -13.495  -7.277  1.00  0.00    -0.237 OA
ATOM     47  O   UNL     1       2.472 -13.157  -6.977  1.00  0.00    -0.744 OA
ENDBRANCH  43  44
ENDBRANCH  24  38
BRANCH  25  48
ATOM     48  C   UNL     1      -2.027  -4.195  -9.467  1.00  0.00    -0.014 A 
ATOM     49  C   UNL     1      -2.261  -4.608 -10.792  1.00  0.00     0.010 A 
ATOM     50  C   UNL     1      -3.080  -4.326  -8.540  1.00  0.00     0.010 A 
ATOM     51  C   UNL     1      -3.481  -5.200 -11.158  1.00  0.00     0.020 A 
ATOM     52  C   UNL     1      -4.301  -4.908  -8.899  1.00  0.00     0.020 A 
ATOM     53  C   UNL     1      -4.485  -5.370 -10.201  1.00  0.00     0.054 A 
BRANCH  53  54
ATOM     54  S   UNL     1      -5.977  -6.312 -10.631  1.00  0.00     0.124 S 
ATOM     55  O   UNL     1      -6.647  -5.423 -11.575  1.00  0.00    -0.237 OA
ATOM     56  O   UNL     1      -5.424  -7.538 -11.200  1.00  0.00    -0.237 OA
ATOM     57  O   UNL     1      -6.659  -6.482  -9.349  1.00  0.00    -0.744 OA
ENDBRANCH  53  54
ENDBRANCH  25  48
BRANCH  37  58
ATOM     58  C   UNL     1       4.127  -2.840  -9.917  1.00  0.00    -0.014 A 
ATOM     59  C   UNL     1       3.391  -1.754  -9.401  1.00  0.00     0.010 A 
ATOM     60  C   UNL     1       5.210  -2.566 -10.771  1.00  0.00     0.010 A 
ATOM     61  C   UNL     1       3.700  -0.436  -9.765  1.00  0.00     0.020 A 
ATOM     62  C   UNL     1       5.537  -1.252 -11.121  1.00  0.00     0.020 A 
ATOM     63  C   UNL     1       4.772  -0.194 -10.627  1.00  0.00     0.054 A 
BRANCH  63  64
ATOM     64  S   UNL     1       5.183   1.518 -11.069  1.00  0.00     0.124 S 
ATOM     65  O   UNL     1       4.042   1.919 -11.886  1.00  0.00    -0.237 OA
ATOM     66  O   UNL     1       5.284   2.175  -9.767  1.00  0.00    -0.237 OA
ATOM     67  O   UNL     1       6.449   1.398 -11.791  1.00  0.00    -0.744 OA
ENDBRANCH  63  64
ENDBRANCH  37  58
ENDBRANCH  11  12
ENDBRANCH   4   6
ENDBRANCH   1   2
BRANCH   1  68
ATOM     68  C   UNL     1       4.864   1.807  -0.511  1.00  0.00     0.023 C 
BRANCH  68  69
ATOM     69  C   UNL     1       4.228   3.100   0.022  1.00  0.00     0.023 C 
BRANCH  69  70
ATOM     70  C   UNL     1       4.799   3.683   1.319  1.00  0.00     0.116 C 
BRANCH  70  71
ATOM     71  N   UNL     1       6.225   3.954   1.325  1.00  0.00    -0.355 N 
ATOM     72  C   UNL     1       6.936   5.124   1.265  1.00  0.00     0.234 C 
ATOM     73  H   UNL     1       6.785   3.147   1.382  1.00  0.00     0.163 HD
ATOM     74  O   UNL     1       8.095   5.076   1.686  1.00  0.00    -0.274 OA
BRANCH  72  75
ATOM     75  C   UNL     1       6.287   6.426   0.723  1.00  0.00     0.157 C 
ATOM     76  S   UNL     1       7.510   7.816   0.844  1.00  0.00    -0.093 SA
ATOM     77  C   UNL     1       5.643   6.299  -0.673  1.00  0.00     0.135 C 
ATOM     78  C   UNL     1       6.618   9.052   0.101  1.00  0.00     0.091 A 
ATOM     79  C   UNL     1       5.447   7.569  -1.571  1.00  0.00     0.082 C 
ATOM     80  C   UNL     1       6.268   5.213  -1.540  1.00  0.00     0.317 C 
ATOM     81  N   UNL     1       6.782  10.353   0.470  1.00  0.00    -0.307 N 
ATOM     82  C   UNL     1       5.759   8.870  -0.902  1.00  0.00     0.049 A 
ATOM     83  C   UNL     1       6.127   7.356  -2.927  1.00  0.00     0.007 A 
ATOM     84  O   UNL     1       5.512   5.055  -2.674  1.00  0.00    -0.425 OA
ATOM     85  O   UNL     1       7.271   4.560  -1.305  1.00  0.00    -0.251 OA
ATOM     86  C   UNL     1       6.032  11.271  -0.212  1.00  0.00     0.305 A 
ATOM     87  H   UNL     1       7.405  10.617   1.185  1.00  0.00     0.171 HD
ATOM     88  S   UNL     1       5.011  10.391  -1.356  1.00  0.00    -0.078 S 
ATOM     89  C   UNL     1       6.852   8.306  -3.650  1.00  0.00     0.024 A 
ATOM     90  C   UNL     1       6.050   6.054  -3.464  1.00  0.00     0.148 A 
ATOM     91  O   UNL     1       6.044  12.489  -0.077  1.00  0.00    -0.257 OA
ATOM     92  C   UNL     1       7.453   7.952  -4.867  1.00  0.00     0.019 A 
ATOM     93  C   UNL     1       6.595   5.716  -4.703  1.00  0.00     0.062 A 
ATOM     94  Br  UNL     1       8.523   9.225  -5.770  1.00  0.00    -0.051 Br
ATOM     95  C   UNL     1       7.310   6.673  -5.408  1.00  0.00     0.035 A 
ATOM     96  Br  UNL     1       6.451   3.960  -5.391  1.00  0.00    -0.047 Br
ENDBRANCH  72  75
ENDBRANCH  70  71
ENDBRANCH  69  70
ENDBRANCH  68  69
ENDBRANCH   1  68
TORSDOF 14
