REMARK SMILES C[C@H](NC(=O)c1cccc(NC(=O)c2ccccc2C(=O)NCCCCNC(=O)c2ccc(-c3c4nc(c(-c5ccc(S(=O)(=O)[O-])cc5)c5ccc([nH]5)c(-c5ccc(S(=O)(=O)[O-])cc5)c5nc(c(-c6ccc(S(=O)(=O)[O-])cc6)c6ccc3[nH]6)C=C5)C=C4)cc2)c1)c1ccccc1
REMARK SMILES IDX 23 1 22 2 20 3 21 4 19 6 14 7 15 8 16 9 18 10 17 11 12 12
REMARK SMILES IDX 11 13 13 15 10 16 6 17 7 18 90 19 8 20 9 21 4 22 3 23 5 25
REMARK SMILES IDX 2 26 1 27 91 28 92 29 96 30 93 31 95 32 94 33 24 34 25 35
REMARK SMILES IDX 26 36 27 37 28 38 29 40 30 41 31 42 89 43 32 44 88 45 33 46
REMARK SMILES IDX 34 47 35 48 82 49 36 50 87 51 81 52 83 53 37 54 86 55 80 56
REMARK SMILES IDX 79 57 38 59 68 60 49 61 67 62 50 63 53 64 66 65 84 66 51 67
REMARK SMILES IDX 52 68 65 70 85 71 54 72 39 73 40 74 48 75 41 76 47 77 42 78
REMARK SMILES IDX 43 79 44 80 45 81 46 82 69 83 70 84 78 85 71 86 77 87 72 88
REMARK SMILES IDX 73 89 74 90 75 91 76 92 55 93 56 94 64 95 57 96 63 97 58 98
REMARK SMILES IDX 59 99 60 100 61 101 62 102
REMARK H PARENT 22 5 11 14 3 24 27 39 83 58 53 69
REMARK Flexibility Score: inf
ROOT
ATOM      1  C   UNL     1       3.627   5.192   2.804  1.00  0.00     0.116 C 
ENDROOT
BRANCH   1   2
ATOM      2  N   UNL     1       3.335   5.109   1.388  1.00  0.00    -0.352 N 
ATOM      3  C   UNL     1       4.167   5.138   0.299  1.00  0.00     0.252 C 
ATOM      4  O   UNL     1       3.653   5.071  -0.818  1.00  0.00    -0.269 OA
ATOM      5  H   UNL     1       2.379   5.016   1.171  1.00  0.00     0.163 HD
BRANCH   3   6
ATOM      6  C   UNL     1       5.638   5.332   0.386  1.00  0.00     0.052 A 
ATOM      7  C   UNL     1       6.529   4.670   1.242  1.00  0.00     0.052 A 
ATOM      8  C   UNL     1       7.900   5.003   1.217  1.00  0.00     0.014 A 
ATOM      9  C   UNL     1       8.402   5.910   0.287  1.00  0.00     0.001 A 
ATOM     10  C   UNL     1       6.172   6.220  -0.574  1.00  0.00     0.014 A 
ATOM     11  C   UNL     1       7.540   6.501  -0.628  1.00  0.00     0.001 A 
BRANCH   7  12
ATOM     12  C   UNL     1       6.175   3.616   2.210  1.00  0.00     0.256 C 
ATOM     13  N   UNL     1       5.441   2.500   1.884  1.00  0.00    -0.322 N 
ATOM     14  H   UNL     1       5.152   1.972   2.663  1.00  0.00     0.170 HD
ATOM     15  O   UNL     1       6.515   3.789   3.382  1.00  0.00    -0.269 OA
BRANCH  13  16
ATOM     16  C   UNL     1       5.028   1.970   0.653  1.00  0.00     0.042 A 
ATOM     17  C   UNL     1       3.413   0.625  -0.537  1.00  0.00     0.041 A 
ATOM     18  C   UNL     1       4.030   0.950  -1.751  1.00  0.00     0.014 A 
ATOM     19  C   UNL     1       3.923   1.106   0.669  1.00  0.00     0.040 A 
ATOM     20  C   UNL     1       5.158   1.761  -1.760  1.00  0.00     0.003 A 
ATOM     21  C   UNL     1       5.664   2.256  -0.559  1.00  0.00     0.026 A 
BRANCH  17  22
ATOM     22  C   UNL     1       2.258  -0.280  -0.611  1.00  0.00     0.251 C 
ATOM     23  N   UNL     1       0.999   0.118  -0.264  1.00  0.00    -0.346 N 
ATOM     24  H   UNL     1       0.304  -0.535  -0.507  1.00  0.00     0.164 HD
ATOM     25  O   UNL     1       2.432  -1.396  -1.095  1.00  0.00    -0.269 OA
BRANCH  23  26
ATOM     26  C   UNL     1       0.460   1.317   0.396  1.00  0.00     0.109 C 
ATOM     27  C   UNL     1       0.819   2.581  -0.400  1.00  0.00     0.036 C 
BRANCH  26  28
ATOM     28  C   UNL     1      -1.055   1.188   0.661  1.00  0.00    -0.026 A 
ATOM     29  C   UNL     1      -1.867   2.323   0.857  1.00  0.00     0.006 A 
ATOM     30  C   UNL     1      -1.689  -0.067   0.784  1.00  0.00     0.006 A 
ATOM     31  C   UNL     1      -3.245   2.213   1.089  1.00  0.00     0.000 A 
ATOM     32  C   UNL     1      -3.070  -0.177   1.000  1.00  0.00     0.000 A 
ATOM     33  C   UNL     1      -3.849   0.964   1.147  1.00  0.00     0.000 A 
ENDBRANCH  26  28
ENDBRANCH  23  26
ENDBRANCH  17  22
ENDBRANCH  13  16
ENDBRANCH   7  12
ENDBRANCH   3   6
ENDBRANCH   1   2
BRANCH   1  34
ATOM     34  C   UNL     1       2.444   5.645   3.655  1.00  0.00     0.023 C 
BRANCH  34  35
ATOM     35  C   UNL     1       1.192   4.763   3.593  1.00  0.00     0.023 C 
BRANCH  35  36
ATOM     36  C   UNL     1       1.402   3.255   3.716  1.00  0.00     0.116 C 
BRANCH  36  37
ATOM     37  N   UNL     1       2.016   2.836   4.965  1.00  0.00    -0.352 N 
ATOM     38  C   UNL     1       1.522   2.049   5.984  1.00  0.00     0.251 C 
ATOM     39  H   UNL     1       2.932   3.169   5.107  1.00  0.00     0.163 HD
ATOM     40  O   UNL     1       2.191   1.874   6.993  1.00  0.00    -0.269 OA
BRANCH  38  41
ATOM     41  C   UNL     1       0.169   1.455   5.885  1.00  0.00     0.039 A 
ATOM     42  C   UNL     1      -0.712   1.613   6.959  1.00  0.00     0.014 A 
ATOM     43  C   UNL     1      -0.243   0.765   4.745  1.00  0.00     0.014 A 
ATOM     44  C   UNL     1      -2.038   1.181   6.843  1.00  0.00     0.010 A 
ATOM     45  C   UNL     1      -1.581   0.403   4.604  1.00  0.00     0.010 A 
ATOM     46  C   UNL     1      -2.501   0.626   5.639  1.00  0.00    -0.014 A 
BRANCH  46  47
ATOM     47  C   UNL     1      -3.942   0.322   5.426  1.00  0.00     0.031 A 
ATOM     48  C   UNL     1      -4.401  -1.086   5.158  1.00  0.00     0.074 A 
ATOM     49  C   UNL     1      -4.837   1.332   5.397  1.00  0.00     0.049 A 
ATOM     50  N   UNL     1      -5.607  -1.523   4.894  1.00  0.00    -0.248 NA
ATOM     51  C   UNL     1      -3.371  -2.136   5.167  1.00  0.00     0.031 C 
ATOM     52  C   UNL     1      -4.522   2.750   5.588  1.00  0.00     0.029 A 
ATOM     53  N   UNL     1      -6.195   1.322   5.193  1.00  0.00    -0.354 N 
ATOM     54  C   UNL     1      -5.479  -2.893   4.692  1.00  0.00     0.074 A 
ATOM     55  C   UNL     1      -4.071  -3.205   4.816  1.00  0.00     0.031 C 
ATOM     56  C   UNL     1      -5.655   3.467   5.524  1.00  0.00     0.029 A 
ATOM     57  C   UNL     1      -6.772   2.570   5.248  1.00  0.00     0.049 A 
ATOM     58  H   UNL     1      -6.708   0.499   5.022  1.00  0.00     0.167 HD
ATOM     59  C   UNL     1      -6.444  -3.811   4.448  1.00  0.00     0.031 A 
ATOM     60  C   UNL     1      -8.054   2.955   5.091  1.00  0.00     0.031 A 
ATOM     61  C   UNL     1      -7.847  -3.506   4.339  1.00  0.00     0.049 A 
ATOM     62  C   UNL     1      -9.108   1.917   4.818  1.00  0.00     0.074 A 
ATOM     63  C   UNL     1      -8.904  -4.379   4.145  1.00  0.00     0.029 A 
ATOM     64  N   UNL     1      -8.389  -2.233   4.416  1.00  0.00    -0.354 N 
ATOM     65  N   UNL     1      -8.971   0.620   4.690  1.00  0.00    -0.248 NA
ATOM     66  C   UNL     1     -10.491   2.396   4.677  1.00  0.00     0.031 C 
ATOM     67  C   UNL     1     -10.081  -3.628   4.059  1.00  0.00     0.029 A 
ATOM     68  C   UNL     1      -9.763  -2.294   4.251  1.00  0.00     0.049 A 
ATOM     69  H   UNL     1      -7.874  -1.408   4.565  1.00  0.00     0.167 HD
ATOM     70  C   UNL     1     -10.253   0.124   4.479  1.00  0.00     0.074 A 
ATOM     71  C   UNL     1     -11.152   1.259   4.509  1.00  0.00     0.031 C 
ATOM     72  C   UNL     1     -10.649  -1.157   4.280  1.00  0.00     0.031 A 
BRANCH  59  73
ATOM     73  C   UNL     1      -6.011  -5.244   4.280  1.00  0.00    -0.014 A 
ATOM     74  C   UNL     1      -5.550  -5.995   5.377  1.00  0.00     0.010 A 
ATOM     75  C   UNL     1      -6.098  -5.859   3.018  1.00  0.00     0.010 A 
ATOM     76  C   UNL     1      -5.141  -7.320   5.206  1.00  0.00     0.020 A 
ATOM     77  C   UNL     1      -5.716  -7.193   2.848  1.00  0.00     0.020 A 
ATOM     78  C   UNL     1      -5.221  -7.909   3.941  1.00  0.00     0.054 A 
BRANCH  78  79
ATOM     79  S   UNL     1      -4.698  -9.635   3.750  1.00  0.00     0.124 S 
ATOM     80  O   UNL     1      -3.243  -9.515   3.813  1.00  0.00    -0.237 OA
ATOM     81  O   UNL     1      -5.324 -10.289   4.896  1.00  0.00    -0.237 OA
ATOM     82  O   UNL     1      -5.236 -10.019   2.447  1.00  0.00    -0.744 OA
ENDBRANCH  78  79
ENDBRANCH  59  73
BRANCH  60  83
ATOM     83  C   UNL     1      -8.417   4.394   5.208  1.00  0.00    -0.014 A 
ATOM     84  C   UNL     1      -9.130   4.860   6.326  1.00  0.00     0.010 A 
ATOM     85  C   UNL     1      -8.039   5.307   4.207  1.00  0.00     0.010 A 
ATOM     86  C   UNL     1      -9.474   6.211   6.434  1.00  0.00     0.020 A 
ATOM     87  C   UNL     1      -8.359   6.663   4.324  1.00  0.00     0.020 A 
ATOM     88  C   UNL     1      -9.084   7.104   5.432  1.00  0.00     0.054 A 
BRANCH  88  89
ATOM     89  S   UNL     1      -9.492   8.863   5.618  1.00  0.00     0.124 S 
ATOM     90  O   UNL     1     -10.915   8.880   5.298  1.00  0.00    -0.237 OA
ATOM     91  O   UNL     1      -9.152   9.121   7.015  1.00  0.00    -0.237 OA
ATOM     92  O   UNL     1      -8.621   9.518   4.644  1.00  0.00    -0.744 OA
ENDBRANCH  88  89
ENDBRANCH  60  83
BRANCH  72  93
ATOM     93  C   UNL     1     -12.122  -1.409   4.106  1.00  0.00    -0.014 A 
ATOM     94  C   UNL     1     -12.786  -1.056   2.918  1.00  0.00     0.010 A 
ATOM     95  C   UNL     1     -12.841  -2.058   5.127  1.00  0.00     0.010 A 
ATOM     96  C   UNL     1     -14.149  -1.323   2.765  1.00  0.00     0.020 A 
ATOM     97  C   UNL     1     -14.198  -2.348   4.968  1.00  0.00     0.020 A 
ATOM     98  C   UNL     1     -14.847  -1.966   3.792  1.00  0.00     0.054 A 
BRANCH  98  99
ATOM     99  S   UNL     1     -16.605  -2.343   3.552  1.00  0.00     0.124 S 
ATOM    100  O   UNL     1     -17.223  -1.032   3.728  1.00  0.00    -0.237 OA
ATOM    101  O   UNL     1     -16.638  -2.875   2.192  1.00  0.00    -0.237 OA
ATOM    102  O   UNL     1     -16.898  -3.316   4.602  1.00  0.00    -0.744 OA
ENDBRANCH  98  99
ENDBRANCH  72  93
ENDBRANCH  46  47
ENDBRANCH  38  41
ENDBRANCH  36  37
ENDBRANCH  35  36
ENDBRANCH  34  35
ENDBRANCH   1  34
TORSDOF 19
