REMARK SMILES O=C(NCCCCNC(=O)c1csc(C[NH2+][C@H]2CCSc3ccc(F)cc32)c1)c1ccc(-c2c3nc(c(-c4ccc(S(=O)(=O)[O-])cc4)c4ccc([nH]4)c(-c4ccc(S(=O)(=O)[O-])cc4)c4nc(c(-c5ccc(S(=O)(=O)[O-])cc5)c5ccc2[nH]5)C=C4)C=C3)cc1
REMARK SMILES IDX 5 1 4 2 3 3 1 4 2 5 29 7 30 8 88 9 31 10 87 11 32 12 33 13
REMARK SMILES IDX 34 14 81 15 35 16 86 17 80 18 82 19 36 20 85 21 79 22 78 23
REMARK SMILES IDX 37 25 67 26 48 27 66 28 49 29 52 30 65 31 83 32 50 33 51 34
REMARK SMILES IDX 64 36 84 37 53 38 38 39 39 40 47 41 40 42 46 43 41 44 42 45
REMARK SMILES IDX 43 46 44 47 45 48 68 49 69 50 77 51 70 52 76 53 71 54 72 55
REMARK SMILES IDX 73 56 74 57 75 58 54 59 55 60 63 61 56 62 62 63 57 64 58 65
REMARK SMILES IDX 59 66 60 67 61 68 6 69 7 70 8 71 9 72 10 74 11 75 12 76
REMARK SMILES IDX 28 77 13 78 14 79 15 80 16 81 17 84 18 85 27 86 19 87 21 88
REMARK SMILES IDX 26 89 20 90 22 91 24 92 23 93 25 94
REMARK H PARENT 3 6 82 24 52 35 8 73 16 82 16 83
REMARK Flexibility Score: inf
ROOT
ATOM      1  C   UNL     1       4.885  -3.237  12.936  1.00  0.00     0.023 C 
ENDROOT
BRANCH   1   2
ATOM      2  C   UNL     1       4.415  -3.075  14.377  1.00  0.00     0.116 C 
BRANCH   2   3
ATOM      3  N   UNL     1       5.243  -3.807  15.319  1.00  0.00    -0.352 N 
ATOM      4  O   UNL     1       6.603  -4.106  17.082  1.00  0.00    -0.269 OA
ATOM      5  C   UNL     1       5.798  -3.384  16.500  1.00  0.00     0.251 C 
ATOM      6  H   UNL     1       5.434  -4.741  15.075  1.00  0.00     0.163 HD
BRANCH   5   7
ATOM      7  C   UNL     1       5.441  -2.065  17.065  1.00  0.00     0.039 A 
ATOM      8  C   UNL     1       6.452  -1.277  17.624  1.00  0.00     0.014 A 
ATOM      9  C   UNL     1       4.113  -1.629  17.096  1.00  0.00     0.014 A 
ATOM     10  C   UNL     1       6.135  -0.043  18.198  1.00  0.00     0.010 A 
ATOM     11  C   UNL     1       3.808  -0.372  17.609  1.00  0.00     0.010 A 
ATOM     12  C   UNL     1       4.811   0.418  18.192  1.00  0.00    -0.014 A 
BRANCH  12  13
ATOM     13  C   UNL     1       4.420   1.669  18.887  1.00  0.00     0.031 A 
ATOM     14  C   UNL     1       3.532   1.576  20.099  1.00  0.00     0.074 A 
ATOM     15  C   UNL     1       4.811   2.870  18.420  1.00  0.00     0.049 A 
ATOM     16  N   UNL     1       2.940   2.534  20.762  1.00  0.00    -0.248 NA
ATOM     17  C   UNL     1       3.252   0.225  20.620  1.00  0.00     0.031 C 
ATOM     18  C   UNL     1       5.681   3.087  17.264  1.00  0.00     0.029 A 
ATOM     19  N   UNL     1       4.517   4.138  18.859  1.00  0.00    -0.354 N 
ATOM     20  C   UNL     1       2.202   1.903  21.756  1.00  0.00     0.074 A 
ATOM     21  C   UNL     1       2.385   0.480  21.589  1.00  0.00     0.031 C 
ATOM     22  C   UNL     1       5.862   4.408  17.094  1.00  0.00     0.029 A 
ATOM     23  C   UNL     1       5.084   5.133  18.097  1.00  0.00     0.049 A 
ATOM     24  H   UNL     1       3.954   4.318  19.646  1.00  0.00     0.167 HD
ATOM     25  C   UNL     1       1.458   2.463  22.735  1.00  0.00     0.031 A 
ATOM     26  C   UNL     1       4.977   6.475  18.184  1.00  0.00     0.031 A 
ATOM     27  C   UNL     1       1.323   3.880  22.927  1.00  0.00     0.049 A 
ATOM     28  C   UNL     1       4.131   7.077  19.274  1.00  0.00     0.074 A 
ATOM     29  C   UNL     1       0.615   4.543  23.913  1.00  0.00     0.029 A 
ATOM     30  N   UNL     1       1.924   4.848  22.139  1.00  0.00    -0.354 N 
ATOM     31  N   UNL     1       3.442   6.464  20.207  1.00  0.00    -0.248 NA
ATOM     32  C   UNL     1       4.046   8.544  19.332  1.00  0.00     0.031 C 
ATOM     33  C   UNL     1       0.752   5.914  23.696  1.00  0.00     0.029 A 
ATOM     34  C   UNL     1       1.594   6.104  22.611  1.00  0.00     0.049 A 
ATOM     35  H   UNL     1       2.499   4.668  21.360  1.00  0.00     0.167 HD
ATOM     36  C   UNL     1       2.862   7.469  20.974  1.00  0.00     0.074 A 
ATOM     37  C   UNL     1       3.286   8.730  20.405  1.00  0.00     0.031 C 
ATOM     38  C   UNL     1       2.049   7.352  22.051  1.00  0.00     0.031 A 
BRANCH  25  39
ATOM     39  C   UNL     1       0.750   1.559  23.707  1.00  0.00    -0.014 A 
ATOM     40  C   UNL     1      -0.656   1.504  23.713  1.00  0.00     0.010 A 
ATOM     41  C   UNL     1       1.469   0.873  24.701  1.00  0.00     0.010 A 
ATOM     42  C   UNL     1      -1.333   0.815  24.721  1.00  0.00     0.020 A 
ATOM     43  C   UNL     1       0.796   0.159  25.696  1.00  0.00     0.020 A 
ATOM     44  C   UNL     1      -0.601   0.158  25.715  1.00  0.00     0.054 A 
BRANCH  44  45
ATOM     45  S   UNL     1      -1.496  -0.690  27.045  1.00  0.00     0.124 S 
ATOM     46  O   UNL     1      -1.940   0.424  27.876  1.00  0.00    -0.237 OA
ATOM     47  O   UNL     1      -2.548  -1.399  26.321  1.00  0.00    -0.237 OA
ATOM     48  O   UNL     1      -0.478  -1.552  27.644  1.00  0.00    -0.744 OA
ENDBRANCH  44  45
ENDBRANCH  25  39
BRANCH  26  49
ATOM     49  C   UNL     1       5.708   7.333  17.210  1.00  0.00    -0.014 A 
ATOM     50  C   UNL     1       5.326   7.362  15.856  1.00  0.00     0.010 A 
ATOM     51  C   UNL     1       6.825   8.083  17.620  1.00  0.00     0.010 A 
ATOM     52  C   UNL     1       6.071   8.088  14.922  1.00  0.00     0.020 A 
ATOM     53  C   UNL     1       7.557   8.833  16.693  1.00  0.00     0.020 A 
ATOM     54  C   UNL     1       7.190   8.809  15.345  1.00  0.00     0.054 A 
BRANCH  54  55
ATOM     55  S   UNL     1       8.161   9.722  14.114  1.00  0.00     0.124 S 
ATOM     56  O   UNL     1       8.950   8.654  13.505  1.00  0.00    -0.237 OA
ATOM     57  O   UNL     1       7.130  10.306  13.260  1.00  0.00    -0.237 OA
ATOM     58  O   UNL     1       8.916  10.679  14.917  1.00  0.00    -0.744 OA
ENDBRANCH  54  55
ENDBRANCH  26  49
BRANCH  38  59
ATOM     59  C   UNL     1       1.557   8.601  22.731  1.00  0.00    -0.014 A 
ATOM     60  C   UNL     1       2.017   8.906  24.027  1.00  0.00     0.010 A 
ATOM     61  C   UNL     1       0.493   9.338  22.185  1.00  0.00     0.010 A 
ATOM     62  C   UNL     1       1.380   9.886  24.790  1.00  0.00     0.020 A 
ATOM     63  C   UNL     1      -0.131  10.336  22.938  1.00  0.00     0.020 A 
ATOM     64  C   UNL     1       0.294  10.579  24.248  1.00  0.00     0.054 A 
BRANCH  64  65
ATOM     65  S   UNL     1      -0.585  11.777  25.288  1.00  0.00     0.124 S 
ATOM     66  O   UNL     1      -1.363  10.908  26.166  1.00  0.00    -0.237 OA
ATOM     67  O   UNL     1       0.506  12.507  25.930  1.00  0.00    -0.237 OA
ATOM     68  O   UNL     1      -1.365  12.556  24.329  1.00  0.00    -0.744 OA
ENDBRANCH  64  65
ENDBRANCH  38  59
ENDBRANCH  12  13
ENDBRANCH   5   7
ENDBRANCH   2   3
ENDBRANCH   1   2
BRANCH   1  69
ATOM     69  C   UNL     1       4.981  -4.681  12.440  1.00  0.00     0.023 C 
BRANCH  69  70
ATOM     70  C   UNL     1       3.731  -5.525  12.680  1.00  0.00     0.116 C 
BRANCH  70  71
ATOM     71  N   UNL     1       2.581  -4.989  11.975  1.00  0.00    -0.352 N 
ATOM     72  C   UNL     1       2.009  -5.431  10.810  1.00  0.00     0.252 C 
ATOM     73  H   UNL     1       2.155  -4.204  12.388  1.00  0.00     0.163 HD
ATOM     74  O   UNL     1       1.237  -4.698  10.199  1.00  0.00    -0.269 OA
BRANCH  72  75
ATOM     75  C   UNL     1       2.355  -6.756  10.322  1.00  0.00     0.051 A 
ATOM     76  C   UNL     1       2.277  -7.911  11.080  1.00  0.00     0.079 A 
ATOM     77  C   UNL     1       2.718  -7.061   8.970  1.00  0.00     0.035 A 
ATOM     78  S   UNL     1       2.723  -9.306  10.207  1.00  0.00    -0.142 S 
ATOM     79  C   UNL     1       2.926  -8.408   8.762  1.00  0.00     0.059 A 
BRANCH  79  80
ATOM     80  C   UNL     1       3.172  -9.114   7.463  1.00  0.00     0.308 C 
BRANCH  80  81
ATOM     81  N   UNL     1       4.482  -9.752   7.414  1.00  0.00    -0.336 N 
ATOM     82  H   UNL     1       4.494 -10.502   8.105  1.00  0.00     0.347 HD
ATOM     83  H   UNL     1       5.162  -9.015   7.599  1.00  0.00     0.347 HD
BRANCH  81  84
ATOM     84  C   UNL     1       4.855 -10.334   6.101  1.00  0.00     0.215 C 
ATOM     85  C   UNL     1       6.388 -10.522   6.185  1.00  0.00     0.081 C 
ATOM     86  C   UNL     1       4.077 -11.599   5.736  1.00  0.00     0.026 A 
ATOM     87  C   UNL     1       6.940 -11.414   5.094  1.00  0.00     0.081 C 
ATOM     88  C   UNL     1       4.674 -12.862   5.561  1.00  0.00     0.017 A 
ATOM     89  C   UNL     1       2.687 -11.517   5.511  1.00  0.00     0.050 A 
ATOM     90  S   UNL     1       6.438 -13.114   5.457  1.00  0.00    -0.125 SA
ATOM     91  C   UNL     1       3.877 -14.007   5.367  1.00  0.00     0.018 A 
ATOM     92  C   UNL     1       1.910 -12.655   5.324  1.00  0.00     0.123 A 
ATOM     93  C   UNL     1       2.491 -13.907   5.280  1.00  0.00     0.040 A 
ATOM     94  F   UNL     1       0.584 -12.531   5.185  1.00  0.00    -0.207 F 
ENDBRANCH  81  84
ENDBRANCH  80  81
ENDBRANCH  79  80
ENDBRANCH  72  75
ENDBRANCH  70  71
ENDBRANCH  69  70
ENDBRANCH   1  69
TORSDOF 17
