REMARK SMILES O=C(NCCCCNC(=O)c1cc2n[nH]cc2cc1[N+](=O)[O-])c1ccc(-c2c3nc(c(-c4ccc(S(=O)(=O)[O-])cc4)c4ccc([nH]4)c(-c4ccc(S(=O)(=O)[O-])cc4)c4nc(c(-c5ccc(S(=O)(=O)[O-])cc5)c5ccc2[nH]5)C=C4)C=C3)cc1
REMARK SMILES IDX 4 1 3 2 1 3 2 4 23 6 24 7 82 8 25 9 81 10 26 11 27 12 28 13
REMARK SMILES IDX 75 14 29 15 80 16 74 17 76 18 30 19 79 20 73 21 72 22 31 24
REMARK SMILES IDX 61 25 42 26 60 27 43 28 46 29 59 30 77 31 44 32 45 33 58 35
REMARK SMILES IDX 78 36 47 37 32 38 33 39 41 40 34 41 40 42 35 43 36 44 37 45
REMARK SMILES IDX 38 46 39 47 62 48 63 49 71 50 64 51 70 52 65 53 66 54 67 55
REMARK SMILES IDX 68 56 69 57 48 58 49 59 57 60 50 61 56 62 51 63 52 64 53 65
REMARK SMILES IDX 54 66 55 67 5 68 6 69 7 70 8 71 9 72 10 74 11 75 12 76 19 77
REMARK SMILES IDX 13 78 18 79 14 80 17 81 15 82 16 83 20 85 21 86 22 87
REMARK H PARENT 3 5 76 23 46 34 8 73 15 84
REMARK Flexibility Score: inf
ROOT
ATOM      1  C   UNL     1       4.655  -0.053  -1.383  1.00  0.00     0.116 C 
ENDROOT
BRANCH   1   2
ATOM      2  N   UNL     1       3.230   0.107  -1.139  1.00  0.00    -0.352 N 
ATOM      3  O   UNL     1       1.280  -0.075  -0.023  1.00  0.00    -0.269 OA
ATOM      4  C   UNL     1       2.504  -0.158  -0.000  1.00  0.00     0.251 C 
ATOM      5  H   UNL     1       2.709   0.456  -1.898  1.00  0.00     0.163 HD
BRANCH   4   6
ATOM      6  C   UNL     1       3.198  -0.578   1.239  1.00  0.00     0.039 A 
ATOM      7  C   UNL     1       4.346   0.084   1.675  1.00  0.00     0.014 A 
ATOM      8  C   UNL     1       2.695  -1.659   1.970  1.00  0.00     0.014 A 
ATOM      9  C   UNL     1       5.078  -0.431   2.740  1.00  0.00     0.010 A 
ATOM     10  C   UNL     1       3.387  -2.124   3.094  1.00  0.00     0.010 A 
ATOM     11  C   UNL     1       4.606  -1.539   3.465  1.00  0.00    -0.014 A 
BRANCH  11  12
ATOM     12  C   UNL     1       5.397  -2.031   4.623  1.00  0.00     0.031 A 
ATOM     13  C   UNL     1       6.049  -3.388   4.607  1.00  0.00     0.074 A 
ATOM     14  C   UNL     1       5.578  -1.209   5.676  1.00  0.00     0.049 A 
ATOM     15  N   UNL     1       6.832  -3.932   5.506  1.00  0.00    -0.248 NA
ATOM     16  C   UNL     1       5.791  -4.247   3.441  1.00  0.00     0.031 C 
ATOM     17  C   UNL     1       4.984   0.124   5.816  1.00  0.00     0.029 A 
ATOM     18  N   UNL     1       6.336  -1.355   6.809  1.00  0.00    -0.354 N 
ATOM     19  C   UNL     1       7.149  -5.196   5.024  1.00  0.00     0.074 A 
ATOM     20  C   UNL     1       6.454  -5.350   3.763  1.00  0.00     0.031 C 
ATOM     21  C   UNL     1       5.446   0.696   6.937  1.00  0.00     0.029 A 
ATOM     22  C   UNL     1       6.327  -0.245   7.620  1.00  0.00     0.049 A 
ATOM     23  H   UNL     1       6.838  -2.174   7.021  1.00  0.00     0.167 HD
ATOM     24  C   UNL     1       7.951  -6.140   5.575  1.00  0.00     0.031 A 
ATOM     25  C   UNL     1       6.956  -0.005   8.785  1.00  0.00     0.031 A 
ATOM     26  C   UNL     1       8.643  -5.987   6.829  1.00  0.00     0.049 A 
ATOM     27  C   UNL     1       7.848  -1.061   9.367  1.00  0.00     0.074 A 
ATOM     28  C   UNL     1       9.474  -6.890   7.471  1.00  0.00     0.029 A 
ATOM     29  N   UNL     1       8.593  -4.855   7.628  1.00  0.00    -0.354 N 
ATOM     30  N   UNL     1       8.135  -2.248   8.889  1.00  0.00    -0.248 NA
ATOM     31  C   UNL     1       8.502  -0.745  10.643  1.00  0.00     0.031 C 
ATOM     32  C   UNL     1       9.904  -6.314   8.673  1.00  0.00     0.029 A 
ATOM     33  C   UNL     1       9.372  -5.038   8.759  1.00  0.00     0.049 A 
ATOM     34  H   UNL     1       8.079  -4.041   7.422  1.00  0.00     0.167 HD
ATOM     35  C   UNL     1       9.003  -2.822   9.808  1.00  0.00     0.074 A 
ATOM     36  C   UNL     1       9.220  -1.841  10.852  1.00  0.00     0.031 C 
ATOM     37  C   UNL     1       9.564  -4.056   9.794  1.00  0.00     0.031 A 
BRANCH  24  38
ATOM     38  C   UNL     1       8.116  -7.436   4.827  1.00  0.00    -0.014 A 
ATOM     39  C   UNL     1       8.925  -7.510   3.680  1.00  0.00     0.010 A 
ATOM     40  C   UNL     1       7.498  -8.606   5.306  1.00  0.00     0.010 A 
ATOM     41  C   UNL     1       9.089  -8.723   3.006  1.00  0.00     0.020 A 
ATOM     42  C   UNL     1       7.676  -9.826   4.646  1.00  0.00     0.020 A 
ATOM     43  C   UNL     1       8.458  -9.873   3.490  1.00  0.00     0.054 A 
BRANCH  43  44
ATOM     44  S   UNL     1       8.704 -11.442   2.611  1.00  0.00     0.124 S 
ATOM     45  O   UNL     1       7.830 -11.277   1.453  1.00  0.00    -0.237 OA
ATOM     46  O   UNL     1      10.136 -11.430   2.322  1.00  0.00    -0.237 OA
ATOM     47  O   UNL     1       8.277 -12.451   3.577  1.00  0.00    -0.744 OA
ENDBRANCH  43  44
ENDBRANCH  24  38
BRANCH  25  48
ATOM     48  C   UNL     1       6.748   1.293   9.478  1.00  0.00    -0.014 A 
ATOM     49  C   UNL     1       7.766   2.261   9.512  1.00  0.00     0.010 A 
ATOM     50  C   UNL     1       5.510   1.576  10.082  1.00  0.00     0.010 A 
ATOM     51  C   UNL     1       7.554   3.485  10.152  1.00  0.00     0.020 A 
ATOM     52  C   UNL     1       5.286   2.808  10.699  1.00  0.00     0.020 A 
ATOM     53  C   UNL     1       6.315   3.751  10.742  1.00  0.00     0.054 A 
BRANCH  53  54
ATOM     54  S   UNL     1       6.029   5.367  11.515  1.00  0.00     0.124 S 
ATOM     55  O   UNL     1       6.633   5.182  12.831  1.00  0.00    -0.237 OA
ATOM     56  O   UNL     1       6.732   6.282  10.619  1.00  0.00    -0.237 OA
ATOM     57  O   UNL     1       4.574   5.494  11.504  1.00  0.00    -0.744 OA
ENDBRANCH  53  54
ENDBRANCH  25  48
BRANCH  37  58
ATOM     58  C   UNL     1      10.467  -4.403  10.944  1.00  0.00    -0.014 A 
ATOM     59  C   UNL     1       9.936  -4.707  12.210  1.00  0.00     0.010 A 
ATOM     60  C   UNL     1      11.860  -4.438  10.754  1.00  0.00     0.010 A 
ATOM     61  C   UNL     1      10.785  -5.002  13.279  1.00  0.00     0.020 A 
ATOM     62  C   UNL     1      12.711  -4.751  11.816  1.00  0.00     0.020 A 
ATOM     63  C   UNL     1      12.169  -5.013  13.077  1.00  0.00     0.054 A 
BRANCH  63  64
ATOM     64  S   UNL     1      13.256  -5.413  14.473  1.00  0.00     0.124 S 
ATOM     65  O   UNL     1      13.292  -4.148  15.201  1.00  0.00    -0.237 OA
ATOM     66  O   UNL     1      12.544  -6.501  15.139  1.00  0.00    -0.237 OA
ATOM     67  O   UNL     1      14.510  -5.801  13.831  1.00  0.00    -0.744 OA
ENDBRANCH  63  64
ENDBRANCH  37  58
ENDBRANCH  11  12
ENDBRANCH   4   6
ENDBRANCH   1   2
BRANCH   1  68
ATOM     68  C   UNL     1       4.964  -0.909  -2.606  1.00  0.00     0.023 C 
BRANCH  68  69
ATOM     69  C   UNL     1       4.460  -0.365  -3.941  1.00  0.00     0.023 C 
BRANCH  69  70
ATOM     70  C   UNL     1       4.803   1.093  -4.229  1.00  0.00     0.116 C 
BRANCH  70  71
ATOM     71  N   UNL     1       6.234   1.362  -4.199  1.00  0.00    -0.352 N 
ATOM     72  C   UNL     1       7.027   1.970  -5.135  1.00  0.00     0.258 C 
ATOM     73  H   UNL     1       6.700   1.063  -3.385  1.00  0.00     0.163 HD
ATOM     74  O   UNL     1       8.239   2.065  -4.986  1.00  0.00    -0.269 OA
BRANCH  72  75
ATOM     75  C   UNL     1       6.419   2.466  -6.378  1.00  0.00     0.119 A 
ATOM     76  C   UNL     1       6.764   1.748  -7.548  1.00  0.00     0.052 A 
ATOM     77  C   UNL     1       5.502   3.567  -6.373  1.00  0.00     0.282 A 
ATOM     78  C   UNL     1       6.067   2.177  -8.687  1.00  0.00     0.093 A 
ATOM     79  C   UNL     1       4.781   4.023  -7.502  1.00  0.00     0.098 A 
ATOM     80  N   UNL     1       6.105   1.715  -9.945  1.00  0.00    -0.176 NA
ATOM     81  C   UNL     1       5.121   3.266  -8.615  1.00  0.00     0.026 A 
ATOM     82  N   UNL     1       5.219   2.469 -10.622  1.00  0.00    -0.285 N 
ATOM     83  C   UNL     1       4.593   3.419  -9.865  1.00  0.00     0.114 A 
ATOM     84  H   UNL     1       5.037   2.346 -11.582  1.00  0.00     0.189 HD
BRANCH  77  85
ATOM     85  N   UNL     1       5.258   4.274  -5.128  1.00  0.00     0.063 N 
ATOM     86  O   UNL     1       4.085   4.311  -4.734  1.00  0.00    -0.258 OA
ATOM     87  O   UNL     1       6.223   4.819  -4.582  1.00  0.00    -0.258 OA
ENDBRANCH  77  85
ENDBRANCH  72  75
ENDBRANCH  70  71
ENDBRANCH  69  70
ENDBRANCH  68  69
ENDBRANCH   1  68
TORSDOF 15
