REMARK SMILES Nc1oc2ccc(F)cc2c(=O)c1[C@@H]1[NH2+][C@H](C(=O)NCCCCNC(=O)c2ccc(-c3c4nc(c(-c5ccc(S(=O)(=O)[O-])cc5)c5ccc([nH]5)c(-c5ccc(S(=O)(=O)[O-])cc5)c5nc(c(-c6ccc(S(=O)(=O)[O-])cc6)c6ccc3[nH]6)C=C5)C=C4)cc2)CS1
REMARK SMILES IDX 22 1 21 2 20 3 19 4 17 5 18 6 16 8 14 9 15 10 88 11 87 14
REMARK SMILES IDX 13 15 2 16 3 17 4 18 11 19 5 20 10 21 12 22 6 23 9 24 7 25
REMARK SMILES IDX 8 26 1 27 23 30 24 31 25 32 26 34 27 35 28 36 86 37 29 38
REMARK SMILES IDX 85 39 30 40 31 41 32 42 79 43 33 44 84 45 78 46 80 47 34 48
REMARK SMILES IDX 83 49 77 50 76 51 35 53 65 54 46 55 64 56 47 57 50 58 63 59
REMARK SMILES IDX 81 60 48 61 49 62 62 64 82 65 51 66 36 67 37 68 45 69 38 70
REMARK SMILES IDX 44 71 39 72 40 73 41 74 42 75 43 76 66 77 67 78 75 79 68 80
REMARK SMILES IDX 74 81 69 82 70 83 71 84 72 85 73 86 52 87 53 88 61 89 54 90
REMARK SMILES IDX 60 91 55 92 56 93 57 94 58 95 59 96
REMARK H PARENT 19 7 15 12 15 13 1 28 1 29 24 33 80 52 50 63
REMARK Flexibility Score: inf
ROOT
ATOM      1  C   UNL     1      -0.609   1.326   1.039  1.00  0.00     0.023 C 
ENDROOT
BRANCH   1   2
ATOM      2  C   UNL     1       0.477   0.883   0.071  1.00  0.00     0.023 C 
BRANCH   2   3
ATOM      3  C   UNL     1       1.754   0.366   0.717  1.00  0.00     0.116 C 
BRANCH   3   4
ATOM      4  N   UNL     1       1.694  -1.073   0.909  1.00  0.00    -0.351 N 
ATOM      5  C   UNL     1       1.943  -2.132   0.098  1.00  0.00     0.279 C 
ATOM      6  O   UNL     1       1.595  -3.236   0.548  1.00  0.00    -0.268 OA
ATOM      7  H   UNL     1       1.413  -1.334   1.816  1.00  0.00     0.163 HD
BRANCH   5   8
ATOM      8  C   UNL     1       2.584  -2.082  -1.310  1.00  0.00     0.283 C 
ATOM      9  C   UNL     1       1.500  -1.003  -3.236  1.00  0.00     0.283 C 
ATOM     10  N   UNL     1       1.559  -2.203  -2.379  1.00  0.00    -0.320 N 
ATOM     11  S   UNL     1       2.807   0.151  -2.677  1.00  0.00    -0.087 SA
ATOM     12  H   UNL     1       1.785  -3.010  -2.961  1.00  0.00     0.348 HD
ATOM     13  H   UNL     1       0.650  -2.311  -1.930  1.00  0.00     0.348 HD
ATOM     14  C   UNL     1       3.636  -1.047  -1.628  1.00  0.00     0.151 C 
BRANCH   9  15
ATOM     15  C   UNL     1       0.160  -0.301  -3.279  1.00  0.00     0.128 A 
ATOM     16  C   UNL     1      -0.974  -0.612  -2.610  1.00  0.00     0.205 A 
ATOM     17  O   UNL     1      -2.079   0.227  -2.544  1.00  0.00    -0.440 OA
ATOM     18  C   UNL     1      -1.967   1.501  -3.031  1.00  0.00     0.140 A 
ATOM     19  C   UNL     1       0.070   0.856  -4.215  1.00  0.00     0.205 A 
ATOM     20  C   UNL     1      -2.915   2.444  -2.636  1.00  0.00     0.051 A 
ATOM     21  C   UNL     1      -0.971   1.848  -3.934  1.00  0.00     0.068 A 
ATOM     22  O   UNL     1       0.830   0.995  -5.166  1.00  0.00    -0.288 OA
ATOM     23  C   UNL     1      -2.883   3.725  -3.192  1.00  0.00     0.043 A 
ATOM     24  C   UNL     1      -0.954   3.112  -4.525  1.00  0.00     0.055 A 
ATOM     25  C   UNL     1      -1.920   4.037  -4.149  1.00  0.00     0.124 A 
ATOM     26  F   UNL     1      -1.923   5.251  -4.715  1.00  0.00    -0.207 F 
BRANCH  16  27
ATOM     27  N   UNL     1      -1.130  -1.732  -1.849  1.00  0.00    -0.369 N 
ATOM     28  H   UNL     1      -1.984  -1.898  -1.387  1.00  0.00     0.159 HD
ATOM     29  H   UNL     1      -0.390  -2.374  -1.760  1.00  0.00     0.159 HD
ENDBRANCH  16  27
ENDBRANCH   9  15
ENDBRANCH   5   8
ENDBRANCH   3   4
ENDBRANCH   2   3
ENDBRANCH   1   2
BRANCH   1  30
ATOM     30  C   UNL     1      -0.301   2.624   1.764  1.00  0.00     0.116 C 
BRANCH  30  31
ATOM     31  N   UNL     1      -0.173   3.785   0.888  1.00  0.00    -0.352 N 
ATOM     32  C   UNL     1      -0.662   5.063   1.068  1.00  0.00     0.251 C 
ATOM     33  H   UNL     1       0.330   3.636   0.055  1.00  0.00     0.163 HD
ATOM     34  O   UNL     1      -0.513   5.915   0.196  1.00  0.00    -0.269 OA
BRANCH  32  35
ATOM     35  C   UNL     1      -1.428   5.370   2.295  1.00  0.00     0.039 A 
ATOM     36  C   UNL     1      -0.982   4.899   3.527  1.00  0.00     0.014 A 
ATOM     37  C   UNL     1      -2.668   6.005   2.193  1.00  0.00     0.014 A 
ATOM     38  C   UNL     1      -1.882   4.807   4.577  1.00  0.00     0.010 A 
ATOM     39  C   UNL     1      -3.518   6.043   3.304  1.00  0.00     0.010 A 
ATOM     40  C   UNL     1      -3.166   5.372   4.485  1.00  0.00    -0.014 A 
BRANCH  40  41
ATOM     41  C   UNL     1      -4.113   5.212   5.626  1.00  0.00     0.031 A 
ATOM     42  C   UNL     1      -5.453   4.539   5.441  1.00  0.00     0.074 A 
ATOM     43  C   UNL     1      -3.719   5.586   6.861  1.00  0.00     0.049 A 
ATOM     44  N   UNL     1      -6.393   4.333   6.330  1.00  0.00    -0.248 NA
ATOM     45  C   UNL     1      -5.791   4.038   4.097  1.00  0.00     0.031 C 
ATOM     46  C   UNL     1      -2.434   6.217   7.178  1.00  0.00     0.029 A 
ATOM     47  N   UNL     1      -4.323   5.442   8.085  1.00  0.00    -0.354 N 
ATOM     48  C   UNL     1      -7.444   3.730   5.647  1.00  0.00     0.074 A 
ATOM     49  C   UNL     1      -7.034   3.604   4.267  1.00  0.00     0.031 C 
ATOM     50  C   UNL     1      -2.299   6.298   8.507  1.00  0.00     0.029 A 
ATOM     51  C   UNL     1      -3.531   5.840   9.138  1.00  0.00     0.049 A 
ATOM     52  H   UNL     1      -5.235   5.089   8.199  1.00  0.00     0.167 HD
ATOM     53  C   UNL     1      -8.640   3.317   6.130  1.00  0.00     0.031 A 
ATOM     54  C   UNL     1      -3.765   5.861  10.464  1.00  0.00     0.031 A 
ATOM     55  C   UNL     1      -9.021   3.398   7.516  1.00  0.00     0.049 A 
ATOM     56  C   UNL     1      -5.101   5.411  10.973  1.00  0.00     0.074 A 
ATOM     57  C   UNL     1     -10.214   3.003   8.100  1.00  0.00     0.029 A 
ATOM     58  N   UNL     1      -8.218   3.882   8.537  1.00  0.00    -0.354 N 
ATOM     59  N   UNL     1      -6.104   4.907  10.296  1.00  0.00    -0.248 NA
ATOM     60  C   UNL     1      -5.350   5.556  12.413  1.00  0.00     0.031 C 
ATOM     61  C   UNL     1     -10.149   3.292   9.464  1.00  0.00     0.029 A 
ATOM     62  C   UNL     1      -8.895   3.811   9.742  1.00  0.00     0.049 A 
ATOM     63  H   UNL     1      -7.303   4.226   8.421  1.00  0.00     0.167 HD
ATOM     64  C   UNL     1      -7.111   4.687  11.226  1.00  0.00     0.074 A 
ATOM     65  C   UNL     1      -6.585   5.080  12.517  1.00  0.00     0.031 C 
ATOM     66  C   UNL     1      -8.364   4.217  11.019  1.00  0.00     0.031 A 
BRANCH  53  67
ATOM     67  C   UNL     1      -9.652   2.747   5.169  1.00  0.00    -0.014 A 
ATOM     68  C   UNL     1     -10.822   3.478   4.885  1.00  0.00     0.010 A 
ATOM     69  C   UNL     1      -9.521   1.444   4.659  1.00  0.00     0.010 A 
ATOM     70  C   UNL     1     -11.857   2.907   4.140  1.00  0.00     0.020 A 
ATOM     71  C   UNL     1     -10.545   0.877   3.892  1.00  0.00     0.020 A 
ATOM     72  C   UNL     1     -11.717   1.603   3.659  1.00  0.00     0.054 A 
BRANCH  72  73
ATOM     73  S   UNL     1     -13.082   0.863   2.720  1.00  0.00     0.124 S 
ATOM     74  O   UNL     1     -14.023   0.502   3.776  1.00  0.00    -0.237 OA
ATOM     75  O   UNL     1     -13.502   1.956   1.847  1.00  0.00    -0.237 OA
ATOM     76  O   UNL     1     -12.451  -0.262   2.032  1.00  0.00    -0.744 OA
ENDBRANCH  72  73
ENDBRANCH  53  67
BRANCH  54  77
ATOM     77  C   UNL     1      -2.697   6.353  11.377  1.00  0.00    -0.014 A 
ATOM     78  C   UNL     1      -2.294   7.701  11.332  1.00  0.00     0.010 A 
ATOM     79  C   UNL     1      -2.001   5.458  12.207  1.00  0.00     0.010 A 
ATOM     80  C   UNL     1      -1.168   8.130  12.036  1.00  0.00     0.020 A 
ATOM     81  C   UNL     1      -0.892   5.892  12.941  1.00  0.00     0.020 A 
ATOM     82  C   UNL     1      -0.462   7.216  12.821  1.00  0.00     0.054 A 
BRANCH  82  83
ATOM     83  S   UNL     1       1.040   7.771  13.674  1.00  0.00     0.124 S 
ATOM     84  O   UNL     1       2.034   7.691  12.607  1.00  0.00    -0.237 OA
ATOM     85  O   UNL     1       0.688   9.122  14.104  1.00  0.00    -0.237 OA
ATOM     86  O   UNL     1       1.196   6.798  14.752  1.00  0.00    -0.744 OA
ENDBRANCH  82  83
ENDBRANCH  54  77
BRANCH  66  87
ATOM     87  C   UNL     1      -9.278   4.108  12.207  1.00  0.00    -0.014 A 
ATOM     88  C   UNL     1      -9.634   2.841  12.703  1.00  0.00     0.010 A 
ATOM     89  C   UNL     1      -9.881   5.256  12.751  1.00  0.00     0.010 A 
ATOM     90  C   UNL     1     -10.602   2.720  13.702  1.00  0.00     0.020 A 
ATOM     91  C   UNL     1     -10.832   5.139  13.767  1.00  0.00     0.020 A 
ATOM     92  C   UNL     1     -11.204   3.870  14.219  1.00  0.00     0.054 A 
BRANCH  92  93
ATOM     93  S   UNL     1     -12.479   3.694  15.496  1.00  0.00     0.124 S 
ATOM     94  O   UNL     1     -13.651   3.320  14.710  1.00  0.00    -0.237 OA
ATOM     95  O   UNL     1     -11.934   2.644  16.354  1.00  0.00    -0.237 OA
ATOM     96  O   UNL     1     -12.533   5.020  16.109  1.00  0.00    -0.744 OA
ENDBRANCH  92  93
ENDBRANCH  66  87
ENDBRANCH  40  41
ENDBRANCH  32  35
ENDBRANCH  30  31
ENDBRANCH   1  30
TORSDOF 16
