REMARK SMILES COc1ccc(-c2cccc(C(=O)NCC(=O)NCCCCNC(=O)c3ccc(-c4c5nc(c(-c6ccc(S(=O)(=O)[O-])cc6)c6ccc([nH]6)c(-c6ccc(S(=O)(=O)[O-])cc6)c6nc(c(-c7ccc(S(=O)(=O)[O-])cc7)c7ccc4[nH]7)C=C6)C=C5)cc3)c2)cc1
REMARK SMILES IDX 20 1 19 2 18 3 16 4 17 5 15 7 14 8 12 9 13 10 11 12 7 13
REMARK SMILES IDX 8 14 86 15 9 16 10 17 6 18 3 19 4 20 88 21 5 22 87 23 2 24
REMARK SMILES IDX 1 25 21 26 22 27 23 28 24 29 25 31 26 32 27 33 85 34 28 35
REMARK SMILES IDX 84 36 29 37 30 38 31 39 78 40 32 41 83 42 77 43 79 44 33 45
REMARK SMILES IDX 82 46 76 47 75 48 34 50 64 51 45 52 63 53 46 54 49 55 62 56
REMARK SMILES IDX 80 57 47 58 48 59 61 61 81 62 50 63 35 64 36 65 44 66 37 67
REMARK SMILES IDX 43 68 38 69 39 70 40 71 41 72 42 73 65 74 66 75 74 76 67 77
REMARK SMILES IDX 73 78 68 79 69 80 70 81 71 82 72 83 51 84 52 85 60 86 53 87
REMARK SMILES IDX 59 88 54 89 55 90 56 91 57 92 58 93
REMARK H PARENT 18 6 14 11 23 30 79 49 49 60
REMARK Flexibility Score: inf
ROOT
ATOM      1  C   UNL     1       2.394  -5.282   8.600  1.00  0.00     0.023 C 
ENDROOT
BRANCH   1   2
ATOM      2  C   UNL     1       2.446  -4.459   7.318  1.00  0.00     0.116 C 
BRANCH   2   3
ATOM      3  N   UNL     1       3.439  -3.414   7.390  1.00  0.00    -0.355 N 
ATOM      4  C   UNL     1       4.686  -3.344   6.856  1.00  0.00     0.239 C 
ATOM      5  O   UNL     1       5.303  -2.285   7.017  1.00  0.00    -0.273 OA
ATOM      6  H   UNL     1       3.169  -2.624   7.911  1.00  0.00     0.163 HD
BRANCH   4   7
ATOM      7  C   UNL     1       5.259  -4.417   5.915  1.00  0.00     0.216 C 
BRANCH   7   8
ATOM      8  N   UNL     1       5.105  -5.837   6.215  1.00  0.00    -0.343 N 
ATOM      9  C   UNL     1       4.417  -6.906   5.702  1.00  0.00     0.251 C 
ATOM     10  O   UNL     1       4.707  -8.008   6.176  1.00  0.00    -0.269 OA
ATOM     11  H   UNL     1       5.641  -6.098   6.999  1.00  0.00     0.164 HD
BRANCH   9  12
ATOM     12  C   UNL     1       3.298  -6.840   4.710  1.00  0.00     0.040 A 
ATOM     13  C   UNL     1       1.802  -5.661   3.159  1.00  0.00    -0.018 A 
ATOM     14  C   UNL     1       0.951  -6.773   3.152  1.00  0.00     0.009 A 
ATOM     15  C   UNL     1       2.997  -5.744   3.902  1.00  0.00     0.022 A 
ATOM     16  C   UNL     1       1.264  -7.912   3.894  1.00  0.00     0.001 A 
ATOM     17  C   UNL     1       2.420  -7.936   4.678  1.00  0.00     0.014 A 
BRANCH  13  18
ATOM     18  C   UNL     1       1.428  -4.383   2.520  1.00  0.00    -0.018 A 
ATOM     19  C   UNL     1       0.766  -1.817   1.528  1.00  0.00     0.118 A 
ATOM     20  C   UNL     1      -0.168  -2.558   2.248  1.00  0.00     0.047 A 
ATOM     21  C   UNL     1       2.034  -2.349   1.303  1.00  0.00     0.047 A 
ATOM     22  C   UNL     1       0.155  -3.829   2.730  1.00  0.00     0.012 A 
ATOM     23  C   UNL     1       2.356  -3.623   1.788  1.00  0.00     0.012 A 
BRANCH  19  24
ATOM     24  O   UNL     1       0.355  -0.572   1.144  1.00  0.00    -0.497 OA
ATOM     25  C   UNL     1       0.947  -0.074  -0.049  1.00  0.00     0.278 C 
ENDBRANCH  19  24
ENDBRANCH  13  18
ENDBRANCH   9  12
ENDBRANCH   7   8
ENDBRANCH   4   7
ENDBRANCH   2   3
ENDBRANCH   1   2
BRANCH   1  26
ATOM     26  C   UNL     1       1.833  -4.517   9.803  1.00  0.00     0.023 C 
BRANCH  26  27
ATOM     27  C   UNL     1       0.422  -3.963   9.619  1.00  0.00     0.116 C 
BRANCH  27  28
ATOM     28  N   UNL     1      -0.560  -4.998   9.343  1.00  0.00    -0.352 N 
ATOM     29  C   UNL     1      -1.839  -5.132   9.830  1.00  0.00     0.251 C 
ATOM     30  H   UNL     1      -0.269  -5.702   8.720  1.00  0.00     0.163 HD
ATOM     31  O   UNL     1      -2.472  -6.155   9.597  1.00  0.00    -0.269 OA
BRANCH  29  32
ATOM     32  C   UNL     1      -2.434  -4.059  10.660  1.00  0.00     0.039 A 
ATOM     33  C   UNL     1      -3.144  -4.420  11.807  1.00  0.00     0.014 A 
ATOM     34  C   UNL     1      -2.300  -2.711  10.317  1.00  0.00     0.014 A 
ATOM     35  C   UNL     1      -3.671  -3.428  12.636  1.00  0.00     0.010 A 
ATOM     36  C   UNL     1      -2.757  -1.721  11.187  1.00  0.00     0.010 A 
ATOM     37  C   UNL     1      -3.451  -2.067  12.354  1.00  0.00    -0.014 A 
BRANCH  37  38
ATOM     38  C   UNL     1      -3.930  -1.019  13.295  1.00  0.00     0.031 A 
ATOM     39  C   UNL     1      -4.970  -0.015  12.871  1.00  0.00     0.074 A 
ATOM     40  C   UNL     1      -3.414  -0.969  14.540  1.00  0.00     0.049 A 
ATOM     41  N   UNL     1      -5.544   0.923  13.581  1.00  0.00    -0.248 NA
ATOM     42  C   UNL     1      -5.409  -0.053  11.466  1.00  0.00     0.031 C 
ATOM     43  C   UNL     1      -2.361  -1.848  15.056  1.00  0.00     0.029 A 
ATOM     44  N   UNL     1      -3.716  -0.158  15.606  1.00  0.00    -0.354 N 
ATOM     45  C   UNL     1      -6.411   1.581  12.716  1.00  0.00     0.074 A 
ATOM     46  C   UNL     1      -6.241   0.977  11.412  1.00  0.00     0.031 C 
ATOM     47  C   UNL     1      -2.144  -1.565  16.350  1.00  0.00     0.029 A 
ATOM     48  C   UNL     1      -3.012  -0.462  16.748  1.00  0.00     0.049 A 
ATOM     49  H   UNL     1      -4.375   0.572  15.557  1.00  0.00     0.167 HD
ATOM     50  C   UNL     1      -7.288   2.578  12.985  1.00  0.00     0.031 A 
ATOM     51  C   UNL     1      -3.063   0.080  17.980  1.00  0.00     0.031 A 
ATOM     52  C   UNL     1      -7.455   3.179  14.283  1.00  0.00     0.049 A 
ATOM     53  C   UNL     1      -4.041   1.191  18.248  1.00  0.00     0.074 A 
ATOM     54  C   UNL     1      -8.347   4.166  14.667  1.00  0.00     0.029 A 
ATOM     55  N   UNL     1      -6.714   2.854  15.409  1.00  0.00    -0.354 N 
ATOM     56  N   UNL     1      -4.905   1.747  17.432  1.00  0.00    -0.248 NA
ATOM     57  C   UNL     1      -4.063   1.734  19.613  1.00  0.00     0.031 C 
ATOM     58  C   UNL     1      -8.107   4.477  16.009  1.00  0.00     0.029 A 
ATOM     59  C   UNL     1      -7.112   3.636  16.482  1.00  0.00     0.049 A 
ATOM     60  H   UNL     1      -6.009   2.167  15.443  1.00  0.00     0.167 HD
ATOM     61  C   UNL     1      -5.592   2.687  18.193  1.00  0.00     0.074 A 
ATOM     62  C   UNL     1      -5.064   2.599  19.539  1.00  0.00     0.031 C 
ATOM     63  C   UNL     1      -6.569   3.549  17.813  1.00  0.00     0.031 A 
BRANCH  50  64
ATOM     64  C   UNL     1      -8.148   3.080  11.851  1.00  0.00    -0.014 A 
ATOM     65  C   UNL     1      -9.165   2.278  11.303  1.00  0.00     0.010 A 
ATOM     66  C   UNL     1      -7.982   4.393  11.371  1.00  0.00     0.010 A 
ATOM     67  C   UNL     1      -9.980   2.766  10.278  1.00  0.00     0.020 A 
ATOM     68  C   UNL     1      -8.814   4.895  10.366  1.00  0.00     0.020 A 
ATOM     69  C   UNL     1      -9.801   4.073   9.817  1.00  0.00     0.054 A 
BRANCH  69  70
ATOM     70  S   UNL     1     -10.904   4.693   8.518  1.00  0.00     0.124 S 
ATOM     71  O   UNL     1     -10.456   3.934   7.353  1.00  0.00    -0.237 OA
ATOM     72  O   UNL     1     -12.227   4.338   9.027  1.00  0.00    -0.237 OA
ATOM     73  O   UNL     1     -10.620   6.125   8.474  1.00  0.00    -0.744 OA
ENDBRANCH  69  70
ENDBRANCH  50  64
BRANCH  51  74
ATOM     74  C   UNL     1      -2.177  -0.431  19.064  1.00  0.00    -0.014 A 
ATOM     75  C   UNL     1      -2.716  -1.099  20.178  1.00  0.00     0.010 A 
ATOM     76  C   UNL     1      -0.786  -0.232  18.997  1.00  0.00     0.010 A 
ATOM     77  C   UNL     1      -1.887  -1.523  21.221  1.00  0.00     0.020 A 
ATOM     78  C   UNL     1       0.050  -0.685  20.020  1.00  0.00     0.020 A 
ATOM     79  C   UNL     1      -0.508  -1.311  21.136  1.00  0.00     0.054 A 
BRANCH  79  80
ATOM     80  S   UNL     1       0.553  -1.887  22.491  1.00  0.00     0.124 S 
ATOM     81  O   UNL     1       0.247  -0.925  23.544  1.00  0.00    -0.237 OA
ATOM     82  O   UNL     1       0.069  -3.247  22.713  1.00  0.00    -0.237 OA
ATOM     83  O   UNL     1       1.900  -1.797  21.931  1.00  0.00    -0.744 OA
ENDBRANCH  79  80
ENDBRANCH  51  74
BRANCH  63  84
ATOM     84  C   UNL     1      -7.146   4.441  18.883  1.00  0.00    -0.014 A 
ATOM     85  C   UNL     1      -6.382   5.462  19.478  1.00  0.00     0.010 A 
ATOM     86  C   UNL     1      -8.475   4.249  19.304  1.00  0.00     0.010 A 
ATOM     87  C   UNL     1      -6.912   6.225  20.522  1.00  0.00     0.020 A 
ATOM     88  C   UNL     1      -9.021   5.035  20.322  1.00  0.00     0.020 A 
ATOM     89  C   UNL     1      -8.225   6.000  20.943  1.00  0.00     0.054 A 
BRANCH  89  90
ATOM     90  S   UNL     1      -8.886   6.992  22.310  1.00  0.00     0.124 S 
ATOM     91  O   UNL     1      -8.197   6.417  23.462  1.00  0.00    -0.237 OA
ATOM     92  O   UNL     1      -8.480   8.348  21.947  1.00  0.00    -0.237 OA
ATOM     93  O   UNL     1     -10.324   6.742  22.256  1.00  0.00    -0.744 OA
ENDBRANCH  89  90
ENDBRANCH  63  84
ENDBRANCH  37  38
ENDBRANCH  29  32
ENDBRANCH  27  28
ENDBRANCH  26  27
ENDBRANCH   1  26
TORSDOF 18
