REMARK SMILES COc1ccc(-n2c(SCC(=O)NCCCCNC(=O)c3ccc(-c4c5nc(c(-c6ccc(S(=O)(=O)[O-])cc6)c6ccc([nH]6)c(-c6ccc(S(=O)(=O)[O-])cc6)c6nc(c(-c7ccc(S(=O)(=O)[O-])cc7)c7ccc4[nH]7)C=C6)C=C5)cc3)nc3sc4c(c3c2=O)CC[N@H+](C)C4)cc1
REMARK SMILES IDX 15 1 14 2 13 3 11 4 12 5 10 7 9 8 8 9 7 10 87 11 81 12 86 13
REMARK SMILES IDX 88 14 82 15 85 16 83 17 84 18 89 19 93 20 90 21 91 22 92 23
REMARK SMILES IDX 6 25 3 26 4 27 95 28 5 29 94 30 2 31 1 32 16 33 17 34 18 35
REMARK SMILES IDX 19 36 20 38 21 39 22 40 80 41 23 42 79 43 24 44 25 45 26 46
REMARK SMILES IDX 73 47 27 48 78 49 72 50 74 51 28 52 77 53 71 54 70 55 29 57
REMARK SMILES IDX 59 58 40 59 58 60 41 61 44 62 57 63 75 64 42 65 43 66 56 68
REMARK SMILES IDX 76 69 45 70 30 71 31 72 39 73 32 74 38 75 33 76 34 77 35 78
REMARK SMILES IDX 36 79 37 80 60 81 61 82 69 83 62 84 68 85 63 86 64 87 65 88
REMARK SMILES IDX 66 89 67 90 46 91 47 92 55 93 48 94 54 95 49 96 50 97 51 98
REMARK SMILES IDX 52 99 53 100
REMARK H PARENT 13 6 91 24 18 37 74 56 44 67
REMARK Flexibility Score: inf
ROOT
ATOM      1  C   UNL     1       6.813  -3.101  -3.699  1.00  0.00     0.023 C 
ENDROOT
BRANCH   1   2
ATOM      2  C   UNL     1       6.161  -3.758  -2.478  1.00  0.00     0.116 C 
BRANCH   2   3
ATOM      3  N   UNL     1       4.914  -3.143  -2.050  1.00  0.00    -0.355 N 
ATOM      4  C   UNL     1       3.702  -3.735  -1.825  1.00  0.00     0.230 C 
ATOM      5  O   UNL     1       3.047  -3.302  -0.871  1.00  0.00    -0.274 OA
ATOM      6  H   UNL     1       4.947  -2.170  -1.903  1.00  0.00     0.163 HD
BRANCH   4   7
ATOM      7  C   UNL     1       3.159  -4.909  -2.630  1.00  0.00     0.178 C 
BRANCH   7   8
ATOM      8  S   UNL     1       3.708  -5.019  -4.317  1.00  0.00    -0.077 SA
BRANCH   8   9
ATOM      9  C   UNL     1       2.650  -4.263  -5.486  1.00  0.00     0.177 A 
ATOM     10  N   UNL     1       1.675  -3.285  -5.243  1.00  0.00    -0.255 N 
ATOM     11  C   UNL     1       0.948  -2.705  -6.305  1.00  0.00     0.267 A 
ATOM     12  N   UNL     1       2.929  -4.716  -6.676  1.00  0.00    -0.212 NA
ATOM     13  C   UNL     1       1.346  -3.146  -7.621  1.00  0.00     0.081 A 
ATOM     14  O   UNL     1       0.049  -1.872  -6.177  1.00  0.00    -0.268 OA
ATOM     15  C   UNL     1       2.283  -4.141  -7.710  1.00  0.00     0.132 A 
ATOM     16  C   UNL     1       0.934  -2.672  -8.900  1.00  0.00    -0.008 A 
ATOM     17  S   UNL     1       2.602  -4.577  -9.330  1.00  0.00    -0.114 S 
ATOM     18  C   UNL     1       1.519  -3.403  -9.916  1.00  0.00     0.065 A 
ATOM     19  C   UNL     1      -0.030  -1.564  -9.204  1.00  0.00     0.099 C 
ATOM     20  C   UNL     1       1.266  -3.182 -11.379  1.00  0.00     0.310 C 
ATOM     21  C   UNL     1      -0.048  -1.240 -10.716  1.00  0.00     0.267 C 
ATOM     22  N   UNL     1       0.016  -2.416 -11.617  1.00  0.00    -0.333 N 
ATOM     23  C   UNL     1      -1.166  -3.269 -11.471  1.00  0.00     0.333 C 
ATOM     24  H   UNL     1       0.024  -2.079 -12.579  1.00  0.00     0.348 HD
BRANCH  10  25
ATOM     25  C   UNL     1       1.379  -2.717  -3.984  1.00  0.00     0.052 A 
ATOM     26  C   UNL     1       0.584  -1.305  -1.697  1.00  0.00     0.119 A 
ATOM     27  C   UNL     1      -0.208  -2.341  -2.196  1.00  0.00     0.048 A 
ATOM     28  C   UNL     1       1.757  -0.952  -2.370  1.00  0.00     0.048 A 
ATOM     29  C   UNL     1       0.174  -3.037  -3.344  1.00  0.00     0.030 A 
ATOM     30  C   UNL     1       2.153  -1.654  -3.514  1.00  0.00     0.030 A 
BRANCH  26  31
ATOM     31  O   UNL     1       0.101  -0.715  -0.562  1.00  0.00    -0.497 OA
ATOM     32  C   UNL     1       0.926   0.274   0.043  1.00  0.00     0.278 C 
ENDBRANCH  26  31
ENDBRANCH  10  25
ENDBRANCH   8   9
ENDBRANCH   7   8
ENDBRANCH   4   7
ENDBRANCH   2   3
ENDBRANCH   1   2
BRANCH   1  33
ATOM     33  C   UNL     1       7.277  -1.634  -3.559  1.00  0.00     0.023 C 
BRANCH  33  34
ATOM     34  C   UNL     1       8.387  -1.312  -2.529  1.00  0.00     0.116 C 
BRANCH  34  35
ATOM     35  N   UNL     1       9.621  -2.026  -2.817  1.00  0.00    -0.352 N 
ATOM     36  C   UNL     1      10.957  -1.705  -2.794  1.00  0.00     0.251 C 
ATOM     37  H   UNL     1       9.462  -2.958  -3.093  1.00  0.00     0.163 HD
ATOM     38  O   UNL     1      11.711  -2.526  -3.325  1.00  0.00    -0.269 OA
BRANCH  36  39
ATOM     39  C   UNL     1      11.571  -0.484  -2.192  1.00  0.00     0.039 A 
ATOM     40  C   UNL     1      12.778  -0.026  -2.761  1.00  0.00     0.014 A 
ATOM     41  C   UNL     1      11.139   0.118  -1.014  1.00  0.00     0.014 A 
ATOM     42  C   UNL     1      13.520   1.029  -2.195  1.00  0.00     0.010 A 
ATOM     43  C   UNL     1      11.893   1.171  -0.442  1.00  0.00     0.010 A 
ATOM     44  C   UNL     1      13.082   1.662  -1.030  1.00  0.00    -0.014 A 
BRANCH  44  45
ATOM     45  C   UNL     1      13.728   2.950  -0.605  1.00  0.00     0.031 A 
ATOM     46  C   UNL     1      12.743   4.008  -0.228  1.00  0.00     0.074 A 
ATOM     47  C   UNL     1      14.995   3.142  -0.152  1.00  0.00     0.049 A 
ATOM     48  N   UNL     1      12.161   3.994   0.934  1.00  0.00    -0.248 NA
ATOM     49  C   UNL     1      12.150   4.950  -1.174  1.00  0.00     0.031 C 
ATOM     50  C   UNL     1      15.796   2.107   0.508  1.00  0.00     0.029 A 
ATOM     51  N   UNL     1      15.734   4.303   0.046  1.00  0.00    -0.354 N 
ATOM     52  C   UNL     1      11.093   4.864   0.875  1.00  0.00     0.074 A 
ATOM     53  C   UNL     1      11.139   5.456  -0.445  1.00  0.00     0.031 C 
ATOM     54  C   UNL     1      16.811   2.699   1.178  1.00  0.00     0.029 A 
ATOM     55  C   UNL     1      16.849   4.138   0.883  1.00  0.00     0.049 A 
ATOM     56  H   UNL     1      15.496   5.165  -0.365  1.00  0.00     0.167 HD
ATOM     57  C   UNL     1      10.238   5.014   1.921  1.00  0.00     0.031 A 
ATOM     58  C   UNL     1      17.324   5.056   1.782  1.00  0.00     0.031 A 
ATOM     59  C   UNL     1      10.539   4.205   3.072  1.00  0.00     0.049 A 
ATOM     60  C   UNL     1      16.161   5.194   2.723  1.00  0.00     0.074 A 
ATOM     61  C   UNL     1      10.175   2.974   3.577  1.00  0.00     0.029 A 
ATOM     62  N   UNL     1      11.514   4.646   3.936  1.00  0.00    -0.354 N 
ATOM     63  N   UNL     1      15.837   4.374   3.676  1.00  0.00    -0.248 NA
ATOM     64  C   UNL     1      15.131   6.173   2.370  1.00  0.00     0.031 C 
ATOM     65  C   UNL     1      11.270   2.558   4.404  1.00  0.00     0.029 A 
ATOM     66  C   UNL     1      12.247   3.547   4.312  1.00  0.00     0.049 A 
ATOM     67  H   UNL     1      11.659   5.574   4.230  1.00  0.00     0.167 HD
ATOM     68  C   UNL     1      14.463   4.522   3.840  1.00  0.00     0.074 A 
ATOM     69  C   UNL     1      14.095   5.669   3.028  1.00  0.00     0.031 C 
ATOM     70  C   UNL     1      13.684   3.593   4.469  1.00  0.00     0.031 A 
BRANCH  57  71
ATOM     71  C   UNL     1       9.165   6.027   2.001  1.00  0.00    -0.014 A 
ATOM     72  C   UNL     1       9.403   7.147   2.819  1.00  0.00     0.010 A 
ATOM     73  C   UNL     1       7.877   5.809   1.491  1.00  0.00     0.010 A 
ATOM     74  C   UNL     1       8.363   7.994   3.189  1.00  0.00     0.020 A 
ATOM     75  C   UNL     1       6.829   6.669   1.849  1.00  0.00     0.020 A 
ATOM     76  C   UNL     1       7.075   7.736   2.720  1.00  0.00     0.054 A 
BRANCH  76  77
ATOM     77  S   UNL     1       5.730   8.790   3.325  1.00  0.00     0.124 S 
ATOM     78  O   UNL     1       5.726   8.494   4.755  1.00  0.00    -0.237 OA
ATOM     79  O   UNL     1       6.194  10.126   2.959  1.00  0.00    -0.237 OA
ATOM     80  O   UNL     1       4.562   8.315   2.588  1.00  0.00    -0.744 OA
ENDBRANCH  76  77
ENDBRANCH  57  71
BRANCH  58  81
ATOM     81  C   UNL     1      18.047   6.300   1.341  1.00  0.00    -0.014 A 
ATOM     82  C   UNL     1      18.974   6.241   0.284  1.00  0.00     0.010 A 
ATOM     83  C   UNL     1      17.878   7.551   1.977  1.00  0.00     0.010 A 
ATOM     84  C   UNL     1      19.573   7.405  -0.222  1.00  0.00     0.020 A 
ATOM     85  C   UNL     1      18.442   8.724   1.457  1.00  0.00     0.020 A 
ATOM     86  C   UNL     1      19.261   8.646   0.335  1.00  0.00     0.054 A 
BRANCH  86  87
ATOM     87  S   UNL     1      19.845  10.153  -0.492  1.00  0.00     0.124 S 
ATOM     88  O   UNL     1      21.279  10.122  -0.225  1.00  0.00    -0.237 OA
ATOM     89  O   UNL     1      19.456   9.912  -1.880  1.00  0.00    -0.237 OA
ATOM     90  O   UNL     1      19.106  11.221   0.176  1.00  0.00    -0.744 OA
ENDBRANCH  86  87
ENDBRANCH  58  81
BRANCH  70  91
ATOM     91  C   UNL     1      14.433   2.450   5.096  1.00  0.00    -0.014 A 
ATOM     92  C   UNL     1      15.329   2.680   6.154  1.00  0.00     0.010 A 
ATOM     93  C   UNL     1      14.280   1.135   4.617  1.00  0.00     0.010 A 
ATOM     94  C   UNL     1      16.044   1.626   6.730  1.00  0.00     0.020 A 
ATOM     95  C   UNL     1      14.975   0.071   5.204  1.00  0.00     0.020 A 
ATOM     96  C   UNL     1      15.855   0.325   6.257  1.00  0.00     0.054 A 
BRANCH  96  97
ATOM     97  S   UNL     1      16.750  -1.030   7.063  1.00  0.00     0.124 S 
ATOM     98  O   UNL     1      18.131  -0.782   6.658  1.00  0.00    -0.237 OA
ATOM     99  O   UNL     1      16.461  -0.806   8.478  1.00  0.00    -0.237 OA
ATOM    100  O   UNL     1      16.144  -2.234   6.497  1.00  0.00    -0.744 OA
ENDBRANCH  96  97
ENDBRANCH  70  91
ENDBRANCH  44  45
ENDBRANCH  36  39
ENDBRANCH  34  35
ENDBRANCH  33  34
ENDBRANCH   1  33
TORSDOF 18
