REMARK SMILES Cc1cnc(NC(=O)NC[C@H]2CC[C@H](C(=O)NCCCCNC(=O)c3ccc(-c4c5nc(c(-c6ccc(S(=O)(=O)[O-])cc6)c6ccc([nH]6)c(-c6ccc(S(=O)(=O)[O-])cc6)c6nc(c(-c7ccc(S(=O)(=O)[O-])cc7)c7ccc4[nH]7)C=C6)C=C5)cc3)O2)s1
REMARK SMILES IDX 19 1 18 2 17 3 15 4 16 5 14 7 11 8 12 9 85 10 13 11 10 12
REMARK SMILES IDX 9 13 6 14 7 15 8 17 5 19 1 20 2 21 3 22 86 23 4 24 20 25
REMARK SMILES IDX 21 26 22 27 23 28 24 30 25 31 26 32 84 33 27 34 83 35 28 36
REMARK SMILES IDX 29 37 30 38 77 39 31 40 82 41 76 42 78 43 32 44 81 45 75 46
REMARK SMILES IDX 74 47 33 49 63 50 44 51 62 52 45 53 48 54 61 55 79 56 46 57
REMARK SMILES IDX 47 58 60 60 80 61 49 62 34 63 35 64 43 65 36 66 42 67 37 68
REMARK SMILES IDX 38 69 39 70 40 71 41 72 64 73 65 74 73 75 66 76 72 77 67 78
REMARK SMILES IDX 68 79 69 80 70 81 71 82 50 83 51 84 59 85 52 86 58 87 53 88
REMARK SMILES IDX 54 89 55 90 56 91 57 92
REMARK H PARENT 17 6 6 16 9 18 22 29 78 48 48 59
REMARK Flexibility Score: inf
ROOT
ATOM      1  C   UNL     1      -2.804   4.696  -1.711  1.00  0.00     0.023 C 
ENDROOT
BRANCH   1   2
ATOM      2  C   UNL     1      -2.757   3.179  -1.894  1.00  0.00     0.116 C 
BRANCH   2   3
ATOM      3  N   UNL     1      -2.678   2.800  -3.287  1.00  0.00    -0.354 N 
ATOM      4  C   UNL     1      -1.612   2.393  -4.034  1.00  0.00     0.249 C 
ATOM      5  O   UNL     1      -1.835   2.091  -5.212  1.00  0.00    -0.272 OA
ATOM      6  H   UNL     1      -3.532   2.842  -3.775  1.00  0.00     0.163 HD
BRANCH   4   7
ATOM      7  C   UNL     1      -0.160   2.386  -3.492  1.00  0.00     0.207 C 
ATOM      8  C   UNL     1       0.690   2.747  -1.337  1.00  0.00     0.138 C 
ATOM      9  C   UNL     1       0.682   4.085  -2.038  1.00  0.00     0.037 C 
ATOM     10  O   UNL     1       0.089   1.788  -2.220  1.00  0.00    -0.363 OA
ATOM     11  C   UNL     1       0.441   3.780  -3.489  1.00  0.00     0.045 C 
BRANCH   8  12
ATOM     12  C   UNL     1       2.015   2.239  -0.752  1.00  0.00     0.149 C 
BRANCH  12  13
ATOM     13  N   UNL     1       3.055   1.812  -1.675  1.00  0.00    -0.335 N 
ATOM     14  N   UNL     1       4.447   3.576  -2.508  1.00  0.00    -0.284 N 
ATOM     15  C   UNL     1       4.090   2.302  -2.355  1.00  0.00     0.321 C 
ATOM     16  H   UNL     1       5.111   3.685  -3.227  1.00  0.00     0.174 HD
ATOM     17  O   UNL     1       4.727   1.470  -3.016  1.00  0.00    -0.248 OA
ATOM     18  H   UNL     1       2.966   0.848  -1.855  1.00  0.00     0.165 HD
BRANCH  14  19
ATOM     19  C   UNL     1       4.132   4.762  -1.930  1.00  0.00     0.190 A 
ATOM     20  C   UNL     1       2.388   7.237   0.417  1.00  0.00     0.058 C 
ATOM     21  C   UNL     1       3.214   6.514  -0.580  1.00  0.00     0.023 A 
ATOM     22  C   UNL     1       3.561   6.879  -1.865  1.00  0.00     0.128 A 
ATOM     23  S   UNL     1       3.856   4.953  -0.264  1.00  0.00    -0.102 S 
ATOM     24  N   UNL     1       4.152   5.882  -2.616  1.00  0.00    -0.228 NA
ENDBRANCH  14  19
ENDBRANCH  12  13
ENDBRANCH   8  12
ENDBRANCH   4   7
ENDBRANCH   2   3
ENDBRANCH   1   2
BRANCH   1  25
ATOM     25  C   UNL     1      -4.206   5.304  -1.754  1.00  0.00     0.023 C 
BRANCH  25  26
ATOM     26  C   UNL     1      -5.148   4.824  -0.655  1.00  0.00     0.116 C 
BRANCH  26  27
ATOM     27  N   UNL     1      -4.665   5.084   0.693  1.00  0.00    -0.352 N 
ATOM     28  C   UNL     1      -5.416   5.224   1.841  1.00  0.00     0.251 C 
ATOM     29  H   UNL     1      -3.690   5.170   0.797  1.00  0.00     0.163 HD
ATOM     30  O   UNL     1      -4.886   5.530   2.900  1.00  0.00    -0.269 OA
BRANCH  28  31
ATOM     31  C   UNL     1      -6.881   5.050   1.748  1.00  0.00     0.039 A 
ATOM     32  C   UNL     1      -7.713   6.081   2.186  1.00  0.00     0.014 A 
ATOM     33  C   UNL     1      -7.418   3.910   1.144  1.00  0.00     0.014 A 
ATOM     34  C   UNL     1      -9.086   6.005   1.943  1.00  0.00     0.010 A 
ATOM     35  C   UNL     1      -8.773   3.870   0.838  1.00  0.00     0.010 A 
ATOM     36  C   UNL     1      -9.620   4.919   1.228  1.00  0.00    -0.014 A 
BRANCH  36  37
ATOM     37  C   UNL     1     -11.058   4.866   0.864  1.00  0.00     0.031 A 
ATOM     38  C   UNL     1     -11.934   3.776   1.415  1.00  0.00     0.074 A 
ATOM     39  C   UNL     1     -11.554   5.746  -0.027  1.00  0.00     0.049 A 
ATOM     40  N   UNL     1     -13.191   3.520   1.159  1.00  0.00    -0.248 NA
ATOM     41  C   UNL     1     -11.305   2.831   2.352  1.00  0.00     0.031 C 
ATOM     42  C   UNL     1     -10.792   6.812  -0.682  1.00  0.00     0.029 A 
ATOM     43  N   UNL     1     -12.817   5.875  -0.547  1.00  0.00    -0.354 N 
ATOM     44  C   UNL     1     -13.498   2.378   1.889  1.00  0.00     0.074 A 
ATOM     45  C   UNL     1     -12.282   1.960   2.552  1.00  0.00     0.031 C 
ATOM     46  C   UNL     1     -11.606   7.495  -1.503  1.00  0.00     0.029 A 
ATOM     47  C   UNL     1     -12.938   6.898  -1.458  1.00  0.00     0.049 A 
ATOM     48  H   UNL     1     -13.567   5.289  -0.293  1.00  0.00     0.167 HD
ATOM     49  C   UNL     1     -14.690   1.746   2.016  1.00  0.00     0.031 A 
ATOM     50  C   UNL     1     -13.998   7.309  -2.179  1.00  0.00     0.031 A 
ATOM     51  C   UNL     1     -15.899   2.166   1.361  1.00  0.00     0.049 A 
ATOM     52  C   UNL     1     -15.317   6.609  -2.009  1.00  0.00     0.074 A 
ATOM     53  C   UNL     1     -17.168   1.624   1.462  1.00  0.00     0.029 A 
ATOM     54  N   UNL     1     -15.989   3.234   0.480  1.00  0.00    -0.354 N 
ATOM     55  N   UNL     1     -15.606   5.571  -1.260  1.00  0.00    -0.248 NA
ATOM     56  C   UNL     1     -16.456   7.144  -2.767  1.00  0.00     0.031 C 
ATOM     57  C   UNL     1     -18.018   2.342   0.613  1.00  0.00     0.029 A 
ATOM     58  C   UNL     1     -17.288   3.361   0.020  1.00  0.00     0.049 A 
ATOM     59  H   UNL     1     -15.238   3.816   0.220  1.00  0.00     0.167 HD
ATOM     60  C   UNL     1     -16.964   5.340  -1.442  1.00  0.00     0.074 A 
ATOM     61  C   UNL     1     -17.442   6.355  -2.359  1.00  0.00     0.031 C 
ATOM     62  C   UNL     1     -17.745   4.374  -0.898  1.00  0.00     0.031 A 
BRANCH  49  63
ATOM     63  C   UNL     1     -14.726   0.530   2.903  1.00  0.00    -0.014 A 
ATOM     64  C   UNL     1     -14.578   0.649   4.298  1.00  0.00     0.010 A 
ATOM     65  C   UNL     1     -14.898  -0.747   2.340  1.00  0.00     0.010 A 
ATOM     66  C   UNL     1     -14.535  -0.490   5.105  1.00  0.00     0.020 A 
ATOM     67  C   UNL     1     -14.886  -1.887   3.148  1.00  0.00     0.020 A 
ATOM     68  C   UNL     1     -14.678  -1.752   4.523  1.00  0.00     0.054 A 
BRANCH  68  69
ATOM     69  S   UNL     1     -14.601  -3.216   5.590  1.00  0.00     0.124 S 
ATOM     70  O   UNL     1     -13.166  -3.326   5.844  1.00  0.00    -0.237 OA
ATOM     71  O   UNL     1     -15.412  -2.822   6.739  1.00  0.00    -0.237 OA
ATOM     72  O   UNL     1     -15.171  -4.277   4.763  1.00  0.00    -0.744 OA
ENDBRANCH  68  69
ENDBRANCH  49  63
BRANCH  50  73
ATOM     73  C   UNL     1     -13.851   8.460  -3.110  1.00  0.00    -0.014 A 
ATOM     74  C   UNL     1     -14.385   9.717  -2.780  1.00  0.00     0.010 A 
ATOM     75  C   UNL     1     -13.131   8.315  -4.310  1.00  0.00     0.010 A 
ATOM     76  C   UNL     1     -14.206  10.809  -3.635  1.00  0.00     0.020 A 
ATOM     77  C   UNL     1     -12.930   9.410  -5.156  1.00  0.00     0.020 A 
ATOM     78  C   UNL     1     -13.474  10.649  -4.815  1.00  0.00     0.054 A 
BRANCH  78  79
ATOM     79  S   UNL     1     -13.181  12.099  -5.867  1.00  0.00     0.124 S 
ATOM     80  O   UNL     1     -14.475  12.269  -6.519  1.00  0.00    -0.237 OA
ATOM     81  O   UNL     1     -12.821  13.128  -4.895  1.00  0.00    -0.237 OA
ATOM     82  O   UNL     1     -12.089  11.671  -6.740  1.00  0.00    -0.744 OA
ENDBRANCH  78  79
ENDBRANCH  50  73
BRANCH  62  83
ATOM     83  C   UNL     1     -19.205   4.379  -1.262  1.00  0.00    -0.014 A 
ATOM     84  C   UNL     1     -19.639   3.954  -2.530  1.00  0.00     0.010 A 
ATOM     85  C   UNL     1     -20.159   4.760  -0.301  1.00  0.00     0.010 A 
ATOM     86  C   UNL     1     -21.002   3.935  -2.839  1.00  0.00     0.020 A 
ATOM     87  C   UNL     1     -21.523   4.720  -0.598  1.00  0.00     0.020 A 
ATOM     88  C   UNL     1     -21.935   4.319  -1.871  1.00  0.00     0.054 A 
BRANCH  88  89
ATOM     89  S   UNL     1     -23.701   4.241  -2.279  1.00  0.00     0.124 S 
ATOM     90  O   UNL     1     -23.868   5.416  -3.128  1.00  0.00    -0.237 OA
ATOM     91  O   UNL     1     -23.818   2.952  -2.957  1.00  0.00    -0.237 OA
ATOM     92  O   UNL     1     -24.360   4.313  -0.976  1.00  0.00    -0.744 OA
ENDBRANCH  88  89
ENDBRANCH  62  83
ENDBRANCH  36  37
ENDBRANCH  28  31
ENDBRANCH  26  27
ENDBRANCH  25  26
ENDBRANCH   1  25
TORSDOF 17
