REMARK SMILES CCCCCCNC(=O)Oc1cccc(-c2ccc([C@@H](C)C(=O)NCCCCNC(=O)c3ccc(-c4c5nc(c(-c6ccc(S(=O)(=O)[O-])cc6)c6ccc([nH]6)c(-c6ccc(S(=O)(=O)[O-])cc6)c6nc(c(-c7ccc(S(=O)(=O)[O-])cc7)c7ccc4[nH]7)C=C6)C=C5)cc3)cc2F)c1
REMARK SMILES IDX 20 1 21 2 19 3 16 4 17 5 93 6 18 7 92 8 94 9 15 10 11 11
REMARK SMILES IDX 12 12 95 13 13 14 14 15 10 16 8 17 7 18 9 20 6 21 5 22 4 23
REMARK SMILES IDX 3 24 2 25 1 26 22 27 23 28 24 29 25 31 26 32 27 33 28 34
REMARK SMILES IDX 29 35 30 36 31 38 32 39 33 40 91 41 34 42 90 43 35 44 36 45
REMARK SMILES IDX 37 46 84 47 38 48 89 49 83 50 85 51 39 52 88 53 82 54 81 55
REMARK SMILES IDX 40 57 70 58 51 59 69 60 52 61 55 62 68 63 86 64 53 65 54 66
REMARK SMILES IDX 67 68 87 69 56 70 41 71 42 72 50 73 43 74 49 75 44 76 45 77
REMARK SMILES IDX 46 78 47 79 48 80 71 81 72 82 80 83 73 84 79 85 74 86 75 87
REMARK SMILES IDX 76 88 77 89 78 90 57 91 58 92 66 93 59 94 65 95 60 96 61 97
REMARK SMILES IDX 62 98 63 99 64 100
REMARK H PARENT 7 19 24 30 29 37 85 56 55 67
REMARK Flexibility Score: inf
ROOT
ATOM      1  C   UNL     1      -4.853  13.252   2.100  1.00  0.00     0.105 C 
ATOM      2  C   UNL     1      -6.054  14.188   2.220  1.00  0.00     0.023 C 
ENDROOT
BRANCH   1   3
ATOM      3  C   UNL     1      -5.095  11.804   2.497  1.00  0.00    -0.033 A 
ATOM      4  C   UNL     1      -5.298   9.059   3.295  1.00  0.00     0.018 A 
ATOM      5  C   UNL     1      -5.865  10.096   4.055  1.00  0.00     0.012 A 
ATOM      6  C   UNL     1      -4.677   9.438   2.095  1.00  0.00     0.131 A 
ATOM      7  C   UNL     1      -5.802  11.434   3.643  1.00  0.00     0.005 A 
ATOM      8  C   UNL     1      -4.553  10.777   1.713  1.00  0.00     0.044 A 
ATOM      9  F   UNL     1      -4.176   8.512   1.262  1.00  0.00    -0.206 F 
BRANCH   4  10
ATOM     10  C   UNL     1      -5.349   7.655   3.767  1.00  0.00    -0.012 A 
ATOM     11  C   UNL     1      -4.354   5.443   3.982  1.00  0.00     0.133 A 
ATOM     12  C   UNL     1      -5.447   4.979   4.706  1.00  0.00     0.047 A 
ATOM     13  C   UNL     1      -4.296   6.758   3.515  1.00  0.00     0.056 A 
ATOM     14  C   UNL     1      -6.494   5.851   4.977  1.00  0.00     0.004 A 
ATOM     15  C   UNL     1      -6.448   7.167   4.505  1.00  0.00     0.009 A 
BRANCH  11  16
ATOM     16  O   UNL     1      -3.384   4.493   3.624  1.00  0.00    -0.410 OA
BRANCH  16  17
ATOM     17  C   UNL     1      -2.048   4.783   3.857  1.00  0.00     0.412 C 
ATOM     18  N   UNL     1      -1.205   3.832   3.347  1.00  0.00    -0.321 N 
ATOM     19  H   UNL     1      -0.242   3.964   3.504  1.00  0.00     0.167 HD
ATOM     20  O   UNL     1      -1.614   5.758   4.454  1.00  0.00    -0.224 OA
BRANCH  18  21
ATOM     21  C   UNL     1      -1.587   2.651   2.600  1.00  0.00     0.119 C 
BRANCH  21  22
ATOM     22  C   UNL     1      -0.988   2.645   1.194  1.00  0.00     0.021 C 
BRANCH  22  23
ATOM     23  C   UNL     1       0.542   2.547   1.151  1.00  0.00     0.002 C 
BRANCH  23  24
ATOM     24  C   UNL     1       1.142   1.314   1.836  1.00  0.00    -0.000 C 
BRANCH  24  25
ATOM     25  C   UNL     1       0.653  -0.036   1.306  1.00  0.00    -0.003 C 
ATOM     26  C   UNL     1       1.014  -0.276  -0.151  1.00  0.00     0.004 C 
ENDBRANCH  24  25
ENDBRANCH  23  24
ENDBRANCH  22  23
ENDBRANCH  21  22
ENDBRANCH  18  21
ENDBRANCH  16  17
ENDBRANCH  11  16
ENDBRANCH   4  10
ENDBRANCH   1   3
BRANCH   1  27
ATOM     27  C   UNL     1      -3.545  13.834   2.663  1.00  0.00     0.227 C 
ATOM     28  O   UNL     1      -2.584  14.020   1.906  1.00  0.00    -0.274 OA
ATOM     29  N   UNL     1      -3.369  14.182   3.966  1.00  0.00    -0.356 N 
ATOM     30  H   UNL     1      -2.500  14.604   4.158  1.00  0.00     0.163 HD
BRANCH  29  31
ATOM     31  C   UNL     1      -4.229  14.044   5.122  1.00  0.00     0.116 C 
BRANCH  31  32
ATOM     32  C   UNL     1      -3.908  12.787   5.932  1.00  0.00     0.023 C 
BRANCH  32  33
ATOM     33  C   UNL     1      -2.819  12.961   6.987  1.00  0.00     0.023 C 
BRANCH  33  34
ATOM     34  C   UNL     1      -3.128  13.985   8.072  1.00  0.00     0.116 C 
BRANCH  34  35
ATOM     35  N   UNL     1      -4.362  13.724   8.802  1.00  0.00    -0.352 N 
ATOM     36  C   UNL     1      -4.638  14.008  10.120  1.00  0.00     0.251 C 
ATOM     37  H   UNL     1      -5.084  13.293   8.291  1.00  0.00     0.163 HD
ATOM     38  O   UNL     1      -5.697  13.653  10.626  1.00  0.00    -0.269 OA
BRANCH  36  39
ATOM     39  C   UNL     1      -3.615  14.708  10.925  1.00  0.00     0.039 A 
ATOM     40  C   UNL     1      -3.219  14.158  12.146  1.00  0.00     0.014 A 
ATOM     41  C   UNL     1      -2.997  15.858  10.431  1.00  0.00     0.014 A 
ATOM     42  C   UNL     1      -2.147  14.726  12.838  1.00  0.00     0.010 A 
ATOM     43  C   UNL     1      -1.876  16.366  11.076  1.00  0.00     0.010 A 
ATOM     44  C   UNL     1      -1.442  15.810  12.289  1.00  0.00    -0.014 A 
BRANCH  44  45
ATOM     45  C   UNL     1      -0.257  16.390  12.971  1.00  0.00     0.031 A 
ATOM     46  C   UNL     1      -0.288  17.823  13.432  1.00  0.00     0.074 A 
ATOM     47  C   UNL     1       0.864  15.656  13.113  1.00  0.00     0.049 A 
ATOM     48  N   UNL     1       0.661  18.531  13.988  1.00  0.00    -0.248 NA
ATOM     49  C   UNL     1      -1.539  18.568  13.210  1.00  0.00     0.031 C 
ATOM     50  C   UNL     1       1.038  14.273  12.661  1.00  0.00     0.029 A 
ATOM     51  N   UNL     1       2.076  15.973  13.675  1.00  0.00    -0.354 N 
ATOM     52  C   UNL     1       0.130  19.804  14.160  1.00  0.00     0.074 A 
ATOM     53  C   UNL     1      -1.202  19.788  13.597  1.00  0.00     0.031 C 
ATOM     54  C   UNL     1       2.270  13.853  12.992  1.00  0.00     0.029 A 
ATOM     55  C   UNL     1       2.987  14.944  13.643  1.00  0.00     0.049 A 
ATOM     56  H   UNL     1       2.274  16.855  14.064  1.00  0.00     0.167 HD
ATOM     57  C   UNL     1       0.689  20.884  14.756  1.00  0.00     0.031 A 
ATOM     58  C   UNL     1       4.258  14.885  14.087  1.00  0.00     0.031 A 
ATOM     59  C   UNL     1       2.005  20.890  15.334  1.00  0.00     0.049 A 
ATOM     60  C   UNL     1       4.854  16.094  14.758  1.00  0.00     0.074 A 
ATOM     61  C   UNL     1       2.642  21.913  16.013  1.00  0.00     0.029 A 
ATOM     62  N   UNL     1       2.886  19.819  15.305  1.00  0.00    -0.354 N 
ATOM     63  N   UNL     1       4.311  17.269  14.971  1.00  0.00    -0.248 NA
ATOM     64  C   UNL     1       6.227  15.962  15.263  1.00  0.00     0.031 C 
ATOM     65  C   UNL     1       3.926  21.476  16.354  1.00  0.00     0.029 A 
ATOM     66  C   UNL     1       4.067  20.161  15.940  1.00  0.00     0.049 A 
ATOM     67  H   UNL     1       2.698  18.944  14.893  1.00  0.00     0.167 HD
ATOM     68  C   UNL     1       5.265  18.006  15.664  1.00  0.00     0.074 A 
ATOM     69  C   UNL     1       6.412  17.140  15.845  1.00  0.00     0.031 C 
ATOM     70  C   UNL     1       5.197  19.284  16.114  1.00  0.00     0.031 A 
BRANCH  57  71
ATOM     71  C   UNL     1      -0.129  22.148  14.810  1.00  0.00    -0.014 A 
ATOM     72  C   UNL     1      -1.279  22.235  15.617  1.00  0.00     0.010 A 
ATOM     73  C   UNL     1       0.271  23.273  14.067  1.00  0.00     0.010 A 
ATOM     74  C   UNL     1      -2.039  23.407  15.642  1.00  0.00     0.020 A 
ATOM     75  C   UNL     1      -0.470  24.458  14.114  1.00  0.00     0.020 A 
ATOM     76  C   UNL     1      -1.631  24.510  14.887  1.00  0.00     0.054 A 
BRANCH  76  77
ATOM     77  S   UNL     1      -2.628  26.024  14.954  1.00  0.00     0.124 S 
ATOM     78  O   UNL     1      -3.801  25.646  14.171  1.00  0.00    -0.237 OA
ATOM     79  O   UNL     1      -2.858  26.193  16.387  1.00  0.00    -0.237 OA
ATOM     80  O   UNL     1      -1.768  27.033  14.341  1.00  0.00    -0.744 OA
ENDBRANCH  76  77
ENDBRANCH  57  71
BRANCH  58  81
ATOM     81  C   UNL     1       5.043  13.628  13.939  1.00  0.00    -0.014 A 
ATOM     82  C   UNL     1       5.356  12.846  15.065  1.00  0.00     0.010 A 
ATOM     83  C   UNL     1       5.474  13.201  12.670  1.00  0.00     0.010 A 
ATOM     84  C   UNL     1       6.102  11.672  14.928  1.00  0.00     0.020 A 
ATOM     85  C   UNL     1       6.197  12.012  12.525  1.00  0.00     0.020 A 
ATOM     86  C   UNL     1       6.517  11.262  13.658  1.00  0.00     0.054 A 
BRANCH  86  87
ATOM     87  S   UNL     1       7.445   9.710  13.500  1.00  0.00     0.124 S 
ATOM     88  O   UNL     1       8.752  10.082  14.032  1.00  0.00    -0.237 OA
ATOM     89  O   UNL     1       6.664   8.790  14.323  1.00  0.00    -0.237 OA
ATOM     90  O   UNL     1       7.408   9.435  12.065  1.00  0.00    -0.744 OA
ENDBRANCH  86  87
ENDBRANCH  58  81
BRANCH  70  91
ATOM     91  C   UNL     1       6.377  19.811  16.887  1.00  0.00    -0.014 A 
ATOM     92  C   UNL     1       7.593  20.116  16.251  1.00  0.00     0.010 A 
ATOM     93  C   UNL     1       6.243  20.056  18.266  1.00  0.00     0.010 A 
ATOM     94  C   UNL     1       8.666  20.623  16.988  1.00  0.00     0.020 A 
ATOM     95  C   UNL     1       7.303  20.591  19.000  1.00  0.00     0.020 A 
ATOM     96  C   UNL     1       8.514  20.857  18.358  1.00  0.00     0.054 A 
BRANCH  96  97
ATOM     97  S   UNL     1       9.909  21.553  19.285  1.00  0.00     0.124 S 
ATOM     98  O   UNL     1      10.810  20.409  19.384  1.00  0.00    -0.237 OA
ATOM     99  O   UNL     1      10.362  22.637  18.417  1.00  0.00    -0.237 OA
ATOM    100  O   UNL     1       9.307  21.984  20.546  1.00  0.00    -0.744 OA
ENDBRANCH  96  97
ENDBRANCH  70  91
ENDBRANCH  44  45
ENDBRANCH  36  39
ENDBRANCH  34  35
ENDBRANCH  33  34
ENDBRANCH  32  33
ENDBRANCH  31  32
ENDBRANCH  29  31
ENDBRANCH   1  27
TORSDOF 23
