REMARK SMILES CC(C)(C)OC(=O)[C@@H]1[NH2+][C@H](C(=O)NCCCCNC(=O)c2ccc(-c3c4nc(c(-c5ccc(S(=O)(=O)[O-])cc5)c5ccc([nH]5)c(-c5ccc(S(=O)(=O)[O-])cc5)c5nc(c(-c6ccc(S(=O)(=O)[O-])cc6)c6ccc3[nH]6)C=C5)C=C4)cc2)C(C)(C)S1
REMARK SMILES IDX 15 1 14 2 13 3 11 4 12 5 10 7 8 8 9 9 84 10 81 13 82 14
REMARK SMILES IDX 83 15 6 16 7 17 5 18 2 19 1 20 3 21 4 22 16 23 17 24 18 25
REMARK SMILES IDX 19 26 20 28 21 29 22 30 80 31 23 32 79 33 24 34 25 35 26 36
REMARK SMILES IDX 73 37 27 38 78 39 72 40 74 41 28 42 77 43 71 44 70 45 29 47
REMARK SMILES IDX 59 48 40 49 58 50 41 51 44 52 57 53 75 54 42 55 43 56 56 58
REMARK SMILES IDX 76 59 45 60 30 61 31 62 39 63 32 64 38 65 33 66 34 67 35 68
REMARK SMILES IDX 36 69 37 70 60 71 61 72 69 73 62 74 68 75 63 76 64 77 65 78
REMARK SMILES IDX 66 79 67 80 46 81 47 82 55 83 48 84 54 85 49 86 50 87 51 88
REMARK SMILES IDX 52 89 53 90
REMARK H PARENT 13 6 9 11 9 12 18 27 74 46 44 57
REMARK Flexibility Score: inf
ROOT
ATOM      1  C   UNL     1       3.405  10.426   1.967  1.00  0.00     0.023 C 
ENDROOT
BRANCH   1   2
ATOM      2  C   UNL     1       3.604   9.009   1.422  1.00  0.00     0.116 C 
BRANCH   2   3
ATOM      3  N   UNL     1       3.482   8.038   2.489  1.00  0.00    -0.351 N 
ATOM      4  C   UNL     1       2.386   7.331   2.896  1.00  0.00     0.279 C 
ATOM      5  O   UNL     1       2.451   6.789   3.997  1.00  0.00    -0.268 OA
ATOM      6  H   UNL     1       4.308   7.861   2.994  1.00  0.00     0.163 HD
BRANCH   4   7
ATOM      7  C   UNL     1       1.169   7.198   1.947  1.00  0.00     0.289 C 
ATOM      8  C   UNL     1       1.033   4.809   1.645  1.00  0.00     0.354 C 
ATOM      9  N   UNL     1       1.426   6.084   0.984  1.00  0.00    -0.314 N 
ATOM     10  S   UNL     1      -0.282   5.153   2.848  1.00  0.00    -0.074 SA
ATOM     11  H   UNL     1       0.871   6.222   0.139  1.00  0.00     0.348 HD
ATOM     12  H   UNL     1       2.411   6.060   0.721  1.00  0.00     0.348 HD
ATOM     13  C   UNL     1      -0.207   6.958   2.608  1.00  0.00     0.078 C 
ATOM     14  C   UNL     1      -1.341   7.337   1.631  1.00  0.00     0.030 C 
ATOM     15  C   UNL     1      -0.426   7.715   3.919  1.00  0.00     0.030 C 
BRANCH   8  16
ATOM     16  C   UNL     1       2.258   4.036   2.177  1.00  0.00     0.376 C 
ATOM     17  O   UNL     1       3.060   3.489   1.423  1.00  0.00    -0.244 OA
BRANCH  16  18
ATOM     18  O   UNL     1       2.357   4.041   3.530  1.00  0.00    -0.455 OA
BRANCH  18  19
ATOM     19  C   UNL     1       3.519   3.505   4.212  1.00  0.00     0.104 C 
ATOM     20  C   UNL     1       3.310   3.857   5.694  1.00  0.00     0.056 C 
ATOM     21  C   UNL     1       4.822   4.165   3.739  1.00  0.00     0.056 C 
ATOM     22  C   UNL     1       3.572   1.981   4.072  1.00  0.00     0.056 C 
ENDBRANCH  18  19
ENDBRANCH  16  18
ENDBRANCH   8  16
ENDBRANCH   4   7
ENDBRANCH   2   3
ENDBRANCH   1   2
BRANCH   1  23
ATOM     23  C   UNL     1       4.429  10.848   3.030  1.00  0.00     0.023 C 
BRANCH  23  24
ATOM     24  C   UNL     1       5.891  10.738   2.607  1.00  0.00     0.116 C 
BRANCH  24  25
ATOM     25  N   UNL     1       6.207  11.570   1.457  1.00  0.00    -0.352 N 
ATOM     26  C   UNL     1       7.325  12.338   1.235  1.00  0.00     0.251 C 
ATOM     27  H   UNL     1       5.530  11.585   0.742  1.00  0.00     0.163 HD
ATOM     28  O   UNL     1       7.370  13.091   0.266  1.00  0.00    -0.269 OA
BRANCH  26  29
ATOM     29  C   UNL     1       8.456  12.276   2.186  1.00  0.00     0.039 A 
ATOM     30  C   UNL     1       8.998  13.469   2.671  1.00  0.00     0.014 A 
ATOM     31  C   UNL     1       8.966  11.046   2.610  1.00  0.00     0.014 A 
ATOM     32  C   UNL     1      10.008  13.429   3.636  1.00  0.00     0.010 A 
ATOM     33  C   UNL     1       9.932  11.008   3.613  1.00  0.00     0.010 A 
ATOM     34  C   UNL     1      10.458  12.198   4.141  1.00  0.00    -0.014 A 
BRANCH  34  35
ATOM     35  C   UNL     1      11.477  12.120   5.219  1.00  0.00     0.031 A 
ATOM     36  C   UNL     1      12.814  11.491   4.939  1.00  0.00     0.074 A 
ATOM     37  C   UNL     1      11.173  12.540   6.465  1.00  0.00     0.049 A 
ATOM     38  N   UNL     1      13.776  11.192   5.774  1.00  0.00    -0.248 NA
ATOM     39  C   UNL     1      13.099  11.133   3.539  1.00  0.00     0.031 C 
ATOM     40  C   UNL     1       9.907  13.156   6.870  1.00  0.00     0.029 A 
ATOM     41  N   UNL     1      11.903  12.494   7.627  1.00  0.00    -0.354 N 
ATOM     42  C   UNL     1      14.771  10.597   5.007  1.00  0.00     0.074 A 
ATOM     43  C   UNL     1      14.281  10.541   3.647  1.00  0.00     0.031 C 
ATOM     44  C   UNL     1       9.955  13.439   8.182  1.00  0.00     0.029 A 
ATOM     45  C   UNL     1      11.231  12.982   8.723  1.00  0.00     0.049 A 
ATOM     46  H   UNL     1      12.823  12.144   7.671  1.00  0.00     0.167 HD
ATOM     47  C   UNL     1      15.989  10.153   5.396  1.00  0.00     0.031 A 
ATOM     48  C   UNL     1      11.592  13.038  10.020  1.00  0.00     0.031 A 
ATOM     49  C   UNL     1      16.480  10.222   6.746  1.00  0.00     0.049 A 
ATOM     50  C   UNL     1      12.941  12.508  10.432  1.00  0.00     0.074 A 
ATOM     51  C   UNL     1      17.708   9.812   7.236  1.00  0.00     0.029 A 
ATOM     52  N   UNL     1      15.776  10.746   7.818  1.00  0.00    -0.354 N 
ATOM     53  N   UNL     1      13.874  11.967   9.686  1.00  0.00    -0.248 NA
ATOM     54  C   UNL     1      13.288  12.602  11.857  1.00  0.00     0.031 C 
ATOM     55  C   UNL     1      17.734  10.059   8.611  1.00  0.00     0.029 A 
ATOM     56  C   UNL     1      16.543  10.669   8.967  1.00  0.00     0.049 A 
ATOM     57  H   UNL     1      14.865  11.118   7.770  1.00  0.00     0.167 HD
ATOM     58  C   UNL     1      14.935  11.698  10.546  1.00  0.00     0.074 A 
ATOM     59  C   UNL     1      14.529  12.135  11.865  1.00  0.00     0.031 C 
ATOM     60  C   UNL     1      16.138  11.143  10.265  1.00  0.00     0.031 A 
BRANCH  47  61
ATOM     61  C   UNL     1      16.887   9.560   4.345  1.00  0.00    -0.014 A 
ATOM     62  C   UNL     1      17.506  10.379   3.384  1.00  0.00     0.010 A 
ATOM     63  C   UNL     1      17.174   8.182   4.359  1.00  0.00     0.010 A 
ATOM     64  C   UNL     1      18.376   9.828   2.440  1.00  0.00     0.020 A 
ATOM     65  C   UNL     1      18.063   7.632   3.432  1.00  0.00     0.020 A 
ATOM     66  C   UNL     1      18.650   8.458   2.471  1.00  0.00     0.054 A 
BRANCH  66  67
ATOM     67  S   UNL     1      19.821   7.780   1.263  1.00  0.00     0.124 S 
ATOM     68  O   UNL     1      19.035   7.814   0.032  1.00  0.00    -0.237 OA
ATOM     69  O   UNL     1      20.931   8.727   1.325  1.00  0.00    -0.237 OA
ATOM     70  O   UNL     1      20.116   6.444   1.776  1.00  0.00    -0.744 OA
ENDBRANCH  66  67
ENDBRANCH  47  61
BRANCH  48  71
ATOM     71  C   UNL     1      10.668  13.611  11.037  1.00  0.00    -0.014 A 
ATOM     72  C   UNL     1      10.971  14.831  11.669  1.00  0.00     0.010 A 
ATOM     73  C   UNL     1       9.495  12.926  11.403  1.00  0.00     0.010 A 
ATOM     74  C   UNL     1      10.142  15.334  12.675  1.00  0.00     0.020 A 
ATOM     75  C   UNL     1       8.648  13.441  12.389  1.00  0.00     0.020 A 
ATOM     76  C   UNL     1       8.989  14.631  13.034  1.00  0.00     0.054 A 
BRANCH  76  77
ATOM     77  S   UNL     1       7.920  15.304  14.337  1.00  0.00     0.124 S 
ATOM     78  O   UNL     1       8.672  14.974  15.544  1.00  0.00    -0.237 OA
ATOM     79  O   UNL     1       7.859  16.723  13.997  1.00  0.00    -0.237 OA
ATOM     80  O   UNL     1       6.667  14.574  14.159  1.00  0.00    -0.744 OA
ENDBRANCH  76  77
ENDBRANCH  48  71
BRANCH  60  81
ATOM     81  C   UNL     1      17.142  11.040  11.380  1.00  0.00    -0.014 A 
ATOM     82  C   UNL     1      17.023  10.067  12.386  1.00  0.00     0.010 A 
ATOM     83  C   UNL     1      18.274  11.877  11.361  1.00  0.00     0.010 A 
ATOM     84  C   UNL     1      18.015   9.940  13.363  1.00  0.00     0.020 A 
ATOM     85  C   UNL     1      19.278  11.737  12.321  1.00  0.00     0.020 A 
ATOM     86  C   UNL     1      19.139  10.772  13.321  1.00  0.00     0.054 A 
BRANCH  86  87
ATOM     87  S   UNL     1      20.451  10.533  14.550  1.00  0.00     0.124 S 
ATOM     88  O   UNL     1      19.852  11.110  15.751  1.00  0.00    -0.237 OA
ATOM     89  O   UNL     1      20.617   9.082  14.565  1.00  0.00    -0.237 OA
ATOM     90  O   UNL     1      21.582  11.277  14.000  1.00  0.00    -0.744 OA
ENDBRANCH  86  87
ENDBRANCH  60  81
ENDBRANCH  34  35
ENDBRANCH  26  29
ENDBRANCH  24  25
ENDBRANCH  23  24
ENDBRANCH   1  23
TORSDOF 17
