REMARK SMILES O=C(C[C@H](C(=O)NCCCCNC(=O)c1ccc(-c2c3nc(c(-c4ccc(S(=O)(=O)[O-])cc4)c4ccc([nH]4)c(-c4ccc(S(=O)(=O)[O-])cc4)c4nc(c(-c5ccc(S(=O)(=O)[O-])cc5)c5ccc2[nH]5)C=C4)C=C3)cc1)c1ccccc1)Nc1ccc(Cl)cc1Cl
REMARK SMILES IDX 9 1 8 2 7 3 5 4 6 5 4 7 3 8 2 9 1 10 81 11 82 13 83 14 88 15
REMARK SMILES IDX 84 16 87 17 89 18 85 19 86 20 75 21 76 22 80 23 77 24 79 25
REMARK SMILES IDX 78 26 10 27 11 28 12 29 13 30 14 32 15 33 16 34 74 35 17 36
REMARK SMILES IDX 73 37 18 38 19 39 20 40 67 41 21 42 72 43 66 44 68 45 22 46
REMARK SMILES IDX 71 47 65 48 64 49 23 51 53 52 34 53 52 54 35 55 38 56 51 57
REMARK SMILES IDX 69 58 36 59 37 60 50 62 70 63 39 64 24 65 25 66 33 67 26 68
REMARK SMILES IDX 32 69 27 70 28 71 29 72 30 73 31 74 54 75 55 76 63 77 56 78
REMARK SMILES IDX 62 79 57 80 58 81 59 82 60 83 61 84 40 85 41 86 49 87 42 88
REMARK SMILES IDX 48 89 43 90 44 91 45 92 46 93 47 94
REMARK H PARENT 7 6 81 12 12 31 68 50 38 61
REMARK Flexibility Score: inf
ROOT
ATOM      1  C   UNL     1       2.171  -3.868   2.647  1.00  0.00     0.023 C 
ENDROOT
BRANCH   1   2
ATOM      2  C   UNL     1       1.659  -3.116   1.417  1.00  0.00     0.116 C 
BRANCH   2   3
ATOM      3  N   UNL     1       2.062  -1.722   1.422  1.00  0.00    -0.356 N 
ATOM      4  C   UNL     1       3.138  -1.121   0.829  1.00  0.00     0.228 C 
ATOM      5  O   UNL     1       3.348   0.061   1.095  1.00  0.00    -0.274 OA
ATOM      6  H   UNL     1       1.472  -1.118   1.929  1.00  0.00     0.163 HD
BRANCH   4   7
ATOM      7  C   UNL     1       4.017  -1.915  -0.153  1.00  0.00     0.118 C 
BRANCH   7   8
ATOM      8  C   UNL     1       4.985  -1.001  -0.921  1.00  0.00     0.118 C 
BRANCH   8   9
ATOM      9  C   UNL     1       4.308  -0.050  -1.893  1.00  0.00     0.225 C 
ATOM     10  O   UNL     1       4.319   1.163  -1.712  1.00  0.00    -0.275 OA
ATOM     11  N   UNL     1       3.708  -0.677  -2.974  1.00  0.00    -0.325 N 
ATOM     12  H   UNL     1       3.641  -1.659  -2.957  1.00  0.00     0.169 HD
BRANCH  11  13
ATOM     13  C   UNL     1       3.186   0.002  -4.101  1.00  0.00     0.060 A 
ATOM     14  C   UNL     1       1.984  -0.501  -4.621  1.00  0.00     0.029 A 
ATOM     15  C   UNL     1       3.792   1.102  -4.742  1.00  0.00     0.066 A 
ATOM     16  C   UNL     1       1.354   0.128  -5.699  1.00  0.00     0.023 A 
ATOM     17  C   UNL     1       3.155   1.731  -5.819  1.00  0.00     0.043 A 
ATOM     18  Cl  UNL     1       5.419   1.608  -4.426  1.00  0.00    -0.082 Cl
ATOM     19  C   UNL     1       1.935   1.250  -6.282  1.00  0.00     0.042 A 
ATOM     20  Cl  UNL     1       1.162   2.018  -7.613  1.00  0.00    -0.084 Cl
ENDBRANCH  11  13
ENDBRANCH   8   9
ENDBRANCH   7   8
BRANCH   7  21
ATOM     21  C   UNL     1       4.818  -3.001   0.560  1.00  0.00    -0.035 A 
ATOM     22  C   UNL     1       4.721  -4.339   0.145  1.00  0.00     0.004 A 
ATOM     23  C   UNL     1       5.621  -2.694   1.671  1.00  0.00     0.004 A 
ATOM     24  C   UNL     1       5.359  -5.351   0.864  1.00  0.00     0.000 A 
ATOM     25  C   UNL     1       6.263  -3.708   2.383  1.00  0.00     0.000 A 
ATOM     26  C   UNL     1       6.121  -5.037   1.987  1.00  0.00     0.000 A 
ENDBRANCH   7  21
ENDBRANCH   4   7
ENDBRANCH   2   3
ENDBRANCH   1   2
BRANCH   1  27
ATOM     27  C   UNL     1       1.526  -3.459   3.972  1.00  0.00     0.023 C 
BRANCH  27  28
ATOM     28  C   UNL     1       0.024  -3.685   4.054  1.00  0.00     0.116 C 
BRANCH  28  29
ATOM     29  N   UNL     1      -0.356  -5.078   3.870  1.00  0.00    -0.352 N 
ATOM     30  C   UNL     1      -1.370  -5.772   4.487  1.00  0.00     0.251 C 
ATOM     31  H   UNL     1       0.181  -5.588   3.222  1.00  0.00     0.163 HD
ATOM     32  O   UNL     1      -1.494  -6.979   4.303  1.00  0.00    -0.269 OA
BRANCH  30  33
ATOM     33  C   UNL     1      -2.281  -5.055   5.404  1.00  0.00     0.039 A 
ATOM     34  C   UNL     1      -2.511  -5.580   6.678  1.00  0.00     0.014 A 
ATOM     35  C   UNL     1      -2.867  -3.846   5.022  1.00  0.00     0.014 A 
ATOM     36  C   UNL     1      -3.275  -4.855   7.596  1.00  0.00     0.010 A 
ATOM     37  C   UNL     1      -3.571  -3.096   5.957  1.00  0.00     0.010 A 
ATOM     38  C   UNL     1      -3.780  -3.591   7.254  1.00  0.00    -0.014 A 
BRANCH  38  39
ATOM     39  C   UNL     1      -4.536  -2.763   8.227  1.00  0.00     0.031 A 
ATOM     40  C   UNL     1      -5.977  -2.424   7.956  1.00  0.00     0.074 A 
ATOM     41  C   UNL     1      -3.906  -2.240   9.299  1.00  0.00     0.049 A 
ATOM     42  N   UNL     1      -6.768  -1.609   8.605  1.00  0.00    -0.248 NA
ATOM     43  C   UNL     1      -6.602  -3.061   6.784  1.00  0.00     0.031 C 
ATOM     44  C   UNL     1      -2.502  -2.462   9.653  1.00  0.00     0.029 A 
ATOM     45  N   UNL     1      -4.364  -1.397  10.281  1.00  0.00    -0.354 N 
ATOM     46  C   UNL     1      -7.968  -1.609   7.903  1.00  0.00     0.074 A 
ATOM     47  C   UNL     1      -7.793  -2.481   6.762  1.00  0.00     0.031 C 
ATOM     48  C   UNL     1      -2.217  -1.781  10.776  1.00  0.00     0.029 A 
ATOM     49  C   UNL     1      -3.403  -1.044  11.200  1.00  0.00     0.049 A 
ATOM     50  H   UNL     1      -5.293  -1.073  10.323  1.00  0.00     0.167 HD
ATOM     51  C   UNL     1      -9.116  -0.953   8.191  1.00  0.00     0.031 A 
ATOM     52  C   UNL     1      -3.466  -0.211  12.257  1.00  0.00     0.031 A 
ATOM     53  C   UNL     1      -9.302  -0.120   9.348  1.00  0.00     0.049 A 
ATOM     54  C   UNL     1      -4.763   0.490  12.565  1.00  0.00     0.074 A 
ATOM     55  C   UNL     1     -10.451   0.529   9.762  1.00  0.00     0.029 A 
ATOM     56  N   UNL     1      -8.318   0.171  10.279  1.00  0.00    -0.354 N 
ATOM     57  N   UNL     1      -5.905   0.427  11.922  1.00  0.00    -0.248 NA
ATOM     58  C   UNL     1      -4.783   1.365  13.746  1.00  0.00     0.031 C 
ATOM     59  C   UNL     1     -10.153   1.243  10.927  1.00  0.00     0.029 A 
ATOM     60  C   UNL     1      -8.830   1.000  11.261  1.00  0.00     0.049 A 
ATOM     61  H   UNL     1      -7.392  -0.163  10.247  1.00  0.00     0.167 HD
ATOM     62  C   UNL     1      -6.786   1.226  12.642  1.00  0.00     0.074 A 
ATOM     63  C   UNL     1      -6.050   1.756  13.771  1.00  0.00     0.031 C 
ATOM     64  C   UNL     1      -8.090   1.496  12.391  1.00  0.00     0.031 A 
BRANCH  51  65
ATOM     65  C   UNL     1     -10.272  -1.110   7.241  1.00  0.00    -0.014 A 
ATOM     66  C   UNL     1     -11.005  -2.308   7.185  1.00  0.00     0.010 A 
ATOM     67  C   UNL     1     -10.673  -0.020   6.446  1.00  0.00     0.010 A 
ATOM     68  C   UNL     1     -12.106  -2.422   6.332  1.00  0.00     0.020 A 
ATOM     69  C   UNL     1     -11.788  -0.123   5.610  1.00  0.00     0.020 A 
ATOM     70  C   UNL     1     -12.490  -1.328   5.549  1.00  0.00     0.054 A 
BRANCH  70  71
ATOM     71  S   UNL     1     -13.953  -1.489   4.488  1.00  0.00     0.124 S 
ATOM     72  O   UNL     1     -13.444  -2.321   3.400  1.00  0.00    -0.237 OA
ATOM     73  O   UNL     1     -14.921  -2.134   5.371  1.00  0.00    -0.237 OA
ATOM     74  O   UNL     1     -14.269  -0.111   4.123  1.00  0.00    -0.744 OA
ENDBRANCH  70  71
ENDBRANCH  51  65
BRANCH  52  75
ATOM     75  C   UNL     1      -2.269   0.013  13.113  1.00  0.00    -0.014 A 
ATOM     76  C   UNL     1      -2.225  -0.498  14.422  1.00  0.00     0.010 A 
ATOM     77  C   UNL     1      -1.178   0.759  12.632  1.00  0.00     0.010 A 
ATOM     78  C   UNL     1      -1.129  -0.235  15.249  1.00  0.00     0.020 A 
ATOM     79  C   UNL     1      -0.068   1.001  13.447  1.00  0.00     0.020 A 
ATOM     80  C   UNL     1      -0.060   0.518  14.758  1.00  0.00     0.054 A 
BRANCH  80  81
ATOM     81  S   UNL     1       1.362   0.834  15.840  1.00  0.00     0.124 S 
ATOM     82  O   UNL     1       0.854   1.895  16.703  1.00  0.00    -0.237 OA
ATOM     83  O   UNL     1       1.568  -0.462  16.482  1.00  0.00    -0.237 OA
ATOM     84  O   UNL     1       2.415   1.232  14.908  1.00  0.00    -0.744 OA
ENDBRANCH  80  81
ENDBRANCH  52  75
BRANCH  64  85
ATOM     85  C   UNL     1      -8.829   2.354  13.381  1.00  0.00    -0.014 A 
ATOM     86  C   UNL     1      -8.630   3.744  13.432  1.00  0.00     0.010 A 
ATOM     87  C   UNL     1      -9.795   1.764  14.217  1.00  0.00     0.010 A 
ATOM     88  C   UNL     1      -9.373   4.529  14.318  1.00  0.00     0.020 A 
ATOM     89  C   UNL     1     -10.556   2.548  15.086  1.00  0.00     0.020 A 
ATOM     90  C   UNL     1     -10.333   3.926  15.138  1.00  0.00     0.054 A 
BRANCH  90  91
ATOM     91  S   UNL     1     -11.332   4.972  16.232  1.00  0.00     0.124 S 
ATOM     92  O   UNL     1     -10.392   5.271  17.308  1.00  0.00    -0.237 OA
ATOM     93  O   UNL     1     -11.680   6.099  15.370  1.00  0.00    -0.237 OA
ATOM     94  O   UNL     1     -12.453   4.112  16.604  1.00  0.00    -0.744 OA
ENDBRANCH  90  91
ENDBRANCH  64  85
ENDBRANCH  38  39
ENDBRANCH  30  33
ENDBRANCH  28  29
ENDBRANCH  27  28
ENDBRANCH   1  27
TORSDOF 18
