REMARK SMILES NC(=O)CC[C@H](C(=O)NCCCCNC(=O)c1ccc(-c2c3nc(c(-c4ccc(S(=O)(=O)[O-])cc4)c4ccc([nH]4)c(-c4ccc(S(=O)(=O)[O-])cc4)c4nc(c(-c5ccc(S(=O)(=O)[O-])cc5)c5ccc2[nH]5)C=C4)C=C3)cc1)N1CCOC1=O
REMARK SMILES IDX 11 1 10 2 9 3 7 4 8 5 6 7 5 8 4 9 2 10 1 11 3 14 77 15 78 16
REMARK SMILES IDX 81 17 79 18 80 19 82 20 12 21 13 22 14 23 15 24 16 26 17 27
REMARK SMILES IDX 18 28 76 29 19 30 75 31 20 32 21 33 22 34 69 35 23 36 74 37
REMARK SMILES IDX 68 38 70 39 24 40 73 41 67 42 66 43 25 45 55 46 36 47 54 48
REMARK SMILES IDX 37 49 40 50 53 51 71 52 38 53 39 54 52 56 72 57 41 58 26 59
REMARK SMILES IDX 27 60 35 61 28 62 34 63 29 64 30 65 31 66 32 67 33 68 56 69
REMARK SMILES IDX 57 70 65 71 58 72 64 73 59 74 60 75 61 76 62 77 63 78 42 79
REMARK SMILES IDX 43 80 51 81 44 82 50 83 45 84 46 85 47 86 48 87 49 88
REMARK H PARENT 9 6 1 12 1 13 14 25 70 44 40 55
REMARK Flexibility Score: inf
ROOT
ATOM      1  C   UNL     1       4.228   4.478  -3.756  1.00  0.00     0.023 C 
ENDROOT
BRANCH   1   2
ATOM      2  C   UNL     1       3.493   4.387  -2.423  1.00  0.00     0.116 C 
BRANCH   2   3
ATOM      3  N   UNL     1       2.377   3.474  -2.482  1.00  0.00    -0.354 N 
ATOM      4  C   UNL     1       2.019   2.482  -1.620  1.00  0.00     0.242 C 
ATOM      5  O   UNL     1       1.032   1.803  -1.930  1.00  0.00    -0.273 OA
ATOM      6  H   UNL     1       1.786   3.586  -3.261  1.00  0.00     0.163 HD
BRANCH   4   7
ATOM      7  C   UNL     1       2.905   2.042  -0.414  1.00  0.00     0.178 C 
BRANCH   7   8
ATOM      8  C   UNL     1       3.852   0.905  -0.890  1.00  0.00     0.045 C 
BRANCH   8   9
ATOM      9  C   UNL     1       4.996   1.262  -1.849  1.00  0.00     0.102 C 
BRANCH   9  10
ATOM     10  C   UNL     1       6.302   1.576  -1.153  1.00  0.00     0.217 C 
ATOM     11  N   UNL     1       6.668   2.885  -1.088  1.00  0.00    -0.370 N 
ATOM     12  H   UNL     1       7.509   3.140  -0.645  1.00  0.00     0.159 HD
ATOM     13  H   UNL     1       6.091   3.578  -1.484  1.00  0.00     0.159 HD
ATOM     14  O   UNL     1       7.002   0.716  -0.627  1.00  0.00    -0.275 OA
ENDBRANCH   9  10
ENDBRANCH   8   9
ENDBRANCH   7   8
BRANCH   7  15
ATOM     15  N   UNL     1       3.560   3.091   0.373  1.00  0.00    -0.293 N 
ATOM     16  C   UNL     1       4.493   2.812   1.427  1.00  0.00     0.165 C 
ATOM     17  C   UNL     1       2.893   4.247   0.758  1.00  0.00     0.410 C 
ATOM     18  C   UNL     1       4.861   4.205   1.861  1.00  0.00     0.256 C 
ATOM     19  O   UNL     1       3.640   4.929   1.683  1.00  0.00    -0.448 OA
ATOM     20  O   UNL     1       1.812   4.640   0.351  1.00  0.00    -0.224 OA
ENDBRANCH   7  15
ENDBRANCH   4   7
ENDBRANCH   2   3
ENDBRANCH   1   2
BRANCH   1  21
ATOM     21  C   UNL     1       3.548   5.378  -4.778  1.00  0.00     0.023 C 
BRANCH  21  22
ATOM     22  C   UNL     1       3.302   6.801  -4.296  1.00  0.00     0.116 C 
BRANCH  22  23
ATOM     23  N   UNL     1       4.524   7.476  -3.870  1.00  0.00    -0.352 N 
ATOM     24  C   UNL     1       5.045   8.670  -4.311  1.00  0.00     0.251 C 
ATOM     25  H   UNL     1       5.045   7.015  -3.174  1.00  0.00     0.163 HD
ATOM     26  O   UNL     1       6.163   9.029  -3.960  1.00  0.00    -0.269 OA
BRANCH  24  27
ATOM     27  C   UNL     1       4.246   9.484  -5.247  1.00  0.00     0.039 A 
ATOM     28  C   UNL     1       4.821   9.896  -6.449  1.00  0.00     0.014 A 
ATOM     29  C   UNL     1       2.897   9.731  -4.978  1.00  0.00     0.014 A 
ATOM     30  C   UNL     1       4.010  10.467  -7.430  1.00  0.00     0.010 A 
ATOM     31  C   UNL     1       2.076  10.207  -5.992  1.00  0.00     0.010 A 
ATOM     32  C   UNL     1       2.622  10.567  -7.234  1.00  0.00    -0.014 A 
BRANCH  32  33
ATOM     33  C   UNL     1       1.717  11.001  -8.328  1.00  0.00     0.031 A 
ATOM     34  C   UNL     1       0.866  12.230  -8.164  1.00  0.00     0.074 A 
ATOM     35  C   UNL     1       1.604  10.242  -9.436  1.00  0.00     0.049 A 
ATOM     36  N   UNL     1      -0.029  12.725  -8.979  1.00  0.00    -0.248 NA
ATOM     37  C   UNL     1       1.024  12.986  -6.911  1.00  0.00     0.031 C 
ATOM     38  C   UNL     1       2.336   8.998  -9.691  1.00  0.00     0.029 A 
ATOM     39  N   UNL     1       0.822  10.397 -10.554  1.00  0.00    -0.354 N 
ATOM     40  C   UNL     1      -0.543  13.845  -8.338  1.00  0.00     0.074 A 
ATOM     41  C   UNL     1       0.092  13.919  -7.040  1.00  0.00     0.031 C 
ATOM     42  C   UNL     1       1.989   8.520 -10.896  1.00  0.00     0.029 A 
ATOM     43  C   UNL     1       0.972   9.389 -11.478  1.00  0.00     0.049 A 
ATOM     44  H   UNL     1       0.210  11.158 -10.682  1.00  0.00     0.167 HD
ATOM     45  C   UNL     1      -1.445  14.745  -8.796  1.00  0.00     0.031 A 
ATOM     46  C   UNL     1       0.349   9.174 -12.654  1.00  0.00     0.031 A 
ATOM     47  C   UNL     1      -2.085  14.658 -10.082  1.00  0.00     0.049 A 
ATOM     48  C   UNL     1      -0.681  10.162 -13.125  1.00  0.00     0.074 A 
ATOM     49  C   UNL     1      -2.982  15.540 -10.658  1.00  0.00     0.029 A 
ATOM     50  N   UNL     1      -1.907  13.621 -10.988  1.00  0.00    -0.354 N 
ATOM     51  N   UNL     1      -1.096  11.260 -12.539  1.00  0.00    -0.248 NA
ATOM     52  C   UNL     1      -1.323   9.888 -14.418  1.00  0.00     0.031 C 
ATOM     53  C   UNL     1      -3.397  15.004 -11.881  1.00  0.00     0.029 A 
ATOM     54  C   UNL     1      -2.705  13.823 -12.102  1.00  0.00     0.049 A 
ATOM     55  H   UNL     1      -1.302  12.855 -10.857  1.00  0.00     0.167 HD
ATOM     56  C   UNL     1      -2.037  11.816 -13.399  1.00  0.00     0.074 A 
ATOM     57  C   UNL     1      -2.110  10.947 -14.556  1.00  0.00     0.031 C 
ATOM     58  C   UNL     1      -2.776  12.943 -13.242  1.00  0.00     0.031 A 
BRANCH  45  59
ATOM     59  C   UNL     1      -1.796  15.898  -7.890  1.00  0.00    -0.014 A 
ATOM     60  C   UNL     1      -0.847  16.889  -7.574  1.00  0.00     0.010 A 
ATOM     61  C   UNL     1      -3.096  16.008  -7.365  1.00  0.00     0.010 A 
ATOM     62  C   UNL     1      -1.176  17.937  -6.712  1.00  0.00     0.020 A 
ATOM     63  C   UNL     1      -3.440  17.075  -6.530  1.00  0.00     0.020 A 
ATOM     64  C   UNL     1      -2.471  18.022  -6.193  1.00  0.00     0.054 A 
BRANCH  64  65
ATOM     65  S   UNL     1      -2.870  19.401  -5.085  1.00  0.00     0.124 S 
ATOM     66  O   UNL     1      -2.113  19.052  -3.885  1.00  0.00    -0.237 OA
ATOM     67  O   UNL     1      -2.373  20.558  -5.825  1.00  0.00    -0.237 OA
ATOM     68  O   UNL     1      -4.322  19.329  -4.948  1.00  0.00    -0.744 OA
ENDBRANCH  64  65
ENDBRANCH  45  59
BRANCH  46  69
ATOM     69  C   UNL     1       0.681   7.963 -13.455  1.00  0.00    -0.014 A 
ATOM     70  C   UNL     1       1.364   8.073 -14.679  1.00  0.00     0.010 A 
ATOM     71  C   UNL     1       0.339   6.683 -12.979  1.00  0.00     0.010 A 
ATOM     72  C   UNL     1       1.690   6.929 -15.415  1.00  0.00     0.020 A 
ATOM     73  C   UNL     1       0.691   5.536 -13.694  1.00  0.00     0.020 A 
ATOM     74  C   UNL     1       1.357   5.667 -14.913  1.00  0.00     0.054 A 
BRANCH  74  75
ATOM     75  S   UNL     1       1.852   4.195 -15.852  1.00  0.00     0.124 S 
ATOM     76  O   UNL     1       0.959   4.254 -17.004  1.00  0.00    -0.237 OA
ATOM     77  O   UNL     1       3.262   4.459 -16.128  1.00  0.00    -0.237 OA
ATOM     78  O   UNL     1       1.603   3.096 -14.921  1.00  0.00    -0.744 OA
ENDBRANCH  74  75
ENDBRANCH  46  69
BRANCH  58  79
ATOM     79  C   UNL     1      -3.724  13.312 -14.354  1.00  0.00    -0.014 A 
ATOM     80  C   UNL     1      -4.893  12.567 -14.590  1.00  0.00     0.010 A 
ATOM     81  C   UNL     1      -3.476  14.461 -15.127  1.00  0.00     0.010 A 
ATOM     82  C   UNL     1      -5.784  12.951 -15.595  1.00  0.00     0.020 A 
ATOM     83  C   UNL     1      -4.380  14.866 -16.112  1.00  0.00     0.020 A 
ATOM     84  C   UNL     1      -5.525  14.102 -16.346  1.00  0.00     0.054 A 
BRANCH  84  85
ATOM     85  S   UNL     1      -6.730  14.611 -17.602  1.00  0.00     0.124 S 
ATOM     86  O   UNL     1      -6.560  13.581 -18.623  1.00  0.00    -0.237 OA
ATOM     87  O   UNL     1      -7.993  14.566 -16.869  1.00  0.00    -0.237 OA
ATOM     88  O   UNL     1      -6.287  15.949 -17.988  1.00  0.00    -0.744 OA
ENDBRANCH  84  85
ENDBRANCH  58  79
ENDBRANCH  32  33
ENDBRANCH  24  27
ENDBRANCH  22  23
ENDBRANCH  21  22
ENDBRANCH   1  21
TORSDOF 18
