REMARK SMILES Cc1nsc(N[C@@H](C)C2CCCC2)c1C(=O)NCCCCNC(=O)c1ccc(-c2c3nc(c(-c4ccc(S(=O)(=O)[O-])cc4)c4ccc([nH]4)c(-c4ccc(S(=O)(=O)[O-])cc4)c4nc(c(-c5ccc(S(=O)(=O)[O-])cc5)c5ccc2[nH]5)C=C4)C=C3)cc1
REMARK SMILES IDX 19 1 18 2 17 3 15 4 16 5 14 7 1 8 2 9 3 10 4 11 5 12 6 13
REMARK SMILES IDX 7 15 8 16 9 17 10 18 13 19 11 20 12 21 20 22 21 23 22 24
REMARK SMILES IDX 23 25 24 27 25 28 26 29 84 30 27 31 83 32 28 33 29 34 30 35
REMARK SMILES IDX 77 36 31 37 82 38 76 39 78 40 32 41 81 42 75 43 74 44 33 46
REMARK SMILES IDX 63 47 44 48 62 49 45 50 48 51 61 52 79 53 46 54 47 55 60 57
REMARK SMILES IDX 80 58 49 59 34 60 35 61 43 62 36 63 42 64 37 65 38 66 39 67
REMARK SMILES IDX 40 68 41 69 64 70 65 71 73 72 66 73 72 74 67 75 68 76 69 77
REMARK SMILES IDX 70 78 71 79 50 80 51 81 59 82 52 83 58 84 53 85 54 86 55 87
REMARK SMILES IDX 56 88 57 89
REMARK H PARENT 17 6 6 14 22 26 78 45 48 56
REMARK Flexibility Score: inf
ROOT
ATOM      1  C   UNL     1       3.319  -0.582   0.775  1.00  0.00     0.023 C 
ENDROOT
BRANCH   1   2
ATOM      2  C   UNL     1       2.362   0.288   1.599  1.00  0.00     0.116 C 
BRANCH   2   3
ATOM      3  N   UNL     1       2.624   1.688   1.385  1.00  0.00    -0.352 N 
ATOM      4  C   UNL     1       2.135   2.674   0.572  1.00  0.00     0.256 C 
ATOM      5  O   UNL     1       2.730   3.748   0.747  1.00  0.00    -0.269 OA
ATOM      6  H   UNL     1       3.339   2.021   1.974  1.00  0.00     0.163 HD
BRANCH   4   7
ATOM      7  C   UNL     1       1.020   2.578  -0.400  1.00  0.00     0.097 A 
ATOM      8  C   UNL     1       0.527   0.002  -0.994  1.00  0.00     0.069 C 
ATOM      9  C   UNL     1       0.317   1.472  -1.052  1.00  0.00     0.066 A 
ATOM     10  N   UNL     1      -0.672   1.803  -1.884  1.00  0.00    -0.195 NA
ATOM     11  S   UNL     1      -0.801   3.424  -1.977  1.00  0.00    -0.018 S 
ATOM     12  C   UNL     1       0.484   3.785  -0.908  1.00  0.00     0.122 A 
BRANCH  12  13
ATOM     13  N   UNL     1       0.905   5.048  -0.613  1.00  0.00    -0.372 N 
ATOM     14  H   UNL     1       1.662   5.124   0.012  1.00  0.00     0.161 HD
BRANCH  13  15
ATOM     15  C   UNL     1       0.356   6.295  -1.122  1.00  0.00     0.080 C 
ATOM     16  C   UNL     1      -0.180   7.089   0.070  1.00  0.00     0.031 C 
BRANCH  15  17
ATOM     17  C   UNL     1       1.469   7.041  -1.888  1.00  0.00     0.011 C 
ATOM     18  C   UNL     1       1.736   6.442  -3.273  1.00  0.00     0.006 C 
ATOM     19  C   UNL     1       1.152   8.497  -2.228  1.00  0.00     0.006 C 
ATOM     20  C   UNL     1       2.522   7.524  -4.002  1.00  0.00     0.000 C 
ATOM     21  C   UNL     1       2.089   8.849  -3.379  1.00  0.00     0.000 C 
ENDBRANCH  15  17
ENDBRANCH  13  15
ENDBRANCH  12  13
ENDBRANCH   4   7
ENDBRANCH   2   3
ENDBRANCH   1   2
BRANCH   1  22
ATOM     22  C   UNL     1       4.693  -0.846   1.407  1.00  0.00     0.023 C 
BRANCH  22  23
ATOM     23  C   UNL     1       4.665  -1.752   2.632  1.00  0.00     0.116 C 
BRANCH  23  24
ATOM     24  N   UNL     1       4.159  -3.095   2.339  1.00  0.00    -0.352 N 
ATOM     25  C   UNL     1       3.795  -4.079   3.246  1.00  0.00     0.251 C 
ATOM     26  H   UNL     1       4.067  -3.327   1.387  1.00  0.00     0.163 HD
ATOM     27  O   UNL     1       3.785  -5.257   2.933  1.00  0.00    -0.269 OA
BRANCH  25  28
ATOM     28  C   UNL     1       3.385  -3.648   4.593  1.00  0.00     0.039 A 
ATOM     29  C   UNL     1       3.819  -4.298   5.753  1.00  0.00     0.014 A 
ATOM     30  C   UNL     1       2.580  -2.514   4.659  1.00  0.00     0.014 A 
ATOM     31  C   UNL     1       3.491  -3.743   6.989  1.00  0.00     0.010 A 
ATOM     32  C   UNL     1       2.413  -1.880   5.857  1.00  0.00     0.010 A 
ATOM     33  C   UNL     1       2.796  -2.525   7.028  1.00  0.00    -0.014 A 
BRANCH  33  34
ATOM     34  C   UNL     1       2.547  -1.814   8.275  1.00  0.00     0.031 A 
ATOM     35  C   UNL     1       3.786  -1.403   8.993  1.00  0.00     0.074 A 
ATOM     36  C   UNL     1       1.324  -1.318   8.570  1.00  0.00     0.049 A 
ATOM     37  N   UNL     1       4.248  -1.866  10.106  1.00  0.00    -0.248 NA
ATOM     38  C   UNL     1       4.721  -0.494   8.301  1.00  0.00     0.031 C 
ATOM     39  C   UNL     1       0.109  -1.351   7.740  1.00  0.00     0.029 A 
ATOM     40  N   UNL     1       0.934  -0.540   9.611  1.00  0.00    -0.354 N 
ATOM     41  C   UNL     1       5.384  -1.110  10.387  1.00  0.00     0.074 A 
ATOM     42  C   UNL     1       5.754  -0.482   9.146  1.00  0.00     0.031 C 
ATOM     43  C   UNL     1      -0.762  -0.413   8.174  1.00  0.00     0.029 A 
ATOM     44  C   UNL     1      -0.250   0.164   9.403  1.00  0.00     0.049 A 
ATOM     45  H   UNL     1       1.449  -0.478  10.448  1.00  0.00     0.167 HD
ATOM     46  C   UNL     1       5.738  -0.813  11.671  1.00  0.00     0.031 A 
ATOM     47  C   UNL     1      -0.741   1.183  10.160  1.00  0.00     0.031 A 
ATOM     48  C   UNL     1       4.999  -1.619  12.613  1.00  0.00     0.049 A 
ATOM     49  C   UNL     1      -0.045   1.110  11.472  1.00  0.00     0.074 A 
ATOM     50  C   UNL     1       4.827  -2.975  12.810  1.00  0.00     0.029 A 
ATOM     51  N   UNL     1       3.947  -1.007  13.259  1.00  0.00    -0.354 N 
ATOM     52  N   UNL     1      -0.176   0.106  12.296  1.00  0.00    -0.248 NA
ATOM     53  C   UNL     1       1.175   1.888  11.625  1.00  0.00     0.031 C 
ATOM     54  C   UNL     1       3.442  -3.124  13.112  1.00  0.00     0.029 A 
ATOM     55  C   UNL     1       2.871  -1.851  13.188  1.00  0.00     0.049 A 
ATOM     56  H   UNL     1       3.966  -0.124  13.694  1.00  0.00     0.167 HD
ATOM     57  C   UNL     1       1.110  -0.146  12.755  1.00  0.00     0.074 A 
ATOM     58  C   UNL     1       1.889   1.031  12.363  1.00  0.00     0.031 C 
ATOM     59  C   UNL     1       1.496  -1.400  13.140  1.00  0.00     0.031 A 
BRANCH  46  60
ATOM     60  C   UNL     1       6.378   0.496  12.091  1.00  0.00    -0.014 A 
ATOM     61  C   UNL     1       6.621   0.708  13.466  1.00  0.00     0.010 A 
ATOM     62  C   UNL     1       6.478   1.624  11.252  1.00  0.00     0.010 A 
ATOM     63  C   UNL     1       6.829   1.994  13.982  1.00  0.00     0.020 A 
ATOM     64  C   UNL     1       6.731   2.904  11.749  1.00  0.00     0.020 A 
ATOM     65  C   UNL     1       6.862   3.086  13.118  1.00  0.00     0.054 A 
BRANCH  65  66
ATOM     66  S   UNL     1       7.013   4.753  13.802  1.00  0.00     0.124 S 
ATOM     67  O   UNL     1       5.753   4.892  14.526  1.00  0.00    -0.237 OA
ATOM     68  O   UNL     1       8.212   4.638  14.627  1.00  0.00    -0.237 OA
ATOM     69  O   UNL     1       7.154   5.595  12.617  1.00  0.00    -0.744 OA
ENDBRANCH  65  66
ENDBRANCH  46  60
BRANCH  47  70
ATOM     70  C   UNL     1      -1.472   2.398   9.699  1.00  0.00    -0.014 A 
ATOM     71  C   UNL     1      -2.103   3.270  10.609  1.00  0.00     0.010 A 
ATOM     72  C   UNL     1      -1.312   2.857   8.374  1.00  0.00     0.010 A 
ATOM     73  C   UNL     1      -2.501   4.567  10.224  1.00  0.00     0.020 A 
ATOM     74  C   UNL     1      -1.710   4.142   7.981  1.00  0.00     0.020 A 
ATOM     75  C   UNL     1      -2.282   5.002   8.914  1.00  0.00     0.054 A 
BRANCH  75  76
ATOM     76  S   UNL     1      -2.630   6.732   8.463  1.00  0.00     0.124 S 
ATOM     77  O   UNL     1      -4.089   6.775   8.490  1.00  0.00    -0.237 OA
ATOM     78  O   UNL     1      -1.956   7.480   9.520  1.00  0.00    -0.237 OA
ATOM     79  O   UNL     1      -2.032   6.867   7.135  1.00  0.00    -0.744 OA
ENDBRANCH  75  76
ENDBRANCH  47  70
BRANCH  59  80
ATOM     80  C   UNL     1       0.446  -2.466  13.347  1.00  0.00    -0.014 A 
ATOM     81  C   UNL     1      -0.419  -2.945  12.343  1.00  0.00     0.010 A 
ATOM     82  C   UNL     1       0.463  -3.129  14.587  1.00  0.00     0.010 A 
ATOM     83  C   UNL     1      -1.262  -4.043  12.590  1.00  0.00     0.020 A 
ATOM     84  C   UNL     1      -0.356  -4.231  14.832  1.00  0.00     0.020 A 
ATOM     85  C   UNL     1      -1.224  -4.677  13.837  1.00  0.00     0.054 A 
BRANCH  85  86
ATOM     86  S   UNL     1      -2.294  -6.109  14.155  1.00  0.00     0.124 S 
ATOM     87  O   UNL     1      -3.628  -5.517  14.141  1.00  0.00    -0.237 OA
ATOM     88  O   UNL     1      -1.987  -6.999  13.037  1.00  0.00    -0.237 OA
ATOM     89  O   UNL     1      -1.847  -6.595  15.460  1.00  0.00    -0.744 OA
ENDBRANCH  85  86
ENDBRANCH  59  80
ENDBRANCH  33  34
ENDBRANCH  25  28
ENDBRANCH  23  24
ENDBRANCH  22  23
ENDBRANCH   1  22
TORSDOF 17
