REMARK SMILES CC[C@H](NC(=O)c1ccc(C)nc1)C(=O)NCCCCNC(=O)c1ccc(-c2c3nc(c(-c4ccc(S(=O)(=O)[O-])cc4)c4ccc([nH]4)c(-c4ccc(S(=O)(=O)[O-])cc4)c4nc(c(-c5ccc(S(=O)(=O)[O-])cc5)c5ccc2[nH]5)C=C4)C=C3)cc1
REMARK SMILES IDX 19 1 18 2 17 3 16 4 14 5 15 6 3 8 2 9 1 10 4 11 5 12 6 14
REMARK SMILES IDX 7 15 8 16 13 17 9 18 12 19 10 20 11 21 20 22 21 23 22 24
REMARK SMILES IDX 23 26 24 27 25 28 83 29 26 30 82 31 27 32 28 33 29 34 76 35
REMARK SMILES IDX 30 36 81 37 75 38 77 39 31 40 80 41 74 42 73 43 32 45 62 46
REMARK SMILES IDX 43 47 61 48 44 49 47 50 60 51 78 52 45 53 46 54 59 56 79 57
REMARK SMILES IDX 48 58 33 59 34 60 42 61 35 62 41 63 36 64 37 65 38 66 39 67
REMARK SMILES IDX 40 68 63 69 64 70 72 71 65 72 71 73 66 74 67 75 68 76 69 77
REMARK SMILES IDX 70 78 49 79 50 80 58 81 51 82 57 83 52 84 53 85 54 86 55 87
REMARK SMILES IDX 56 88
REMARK H PARENT 16 7 4 13 21 25 77 44 47 55
REMARK Flexibility Score: inf
ROOT
ATOM      1  C   UNL     1      -3.888  -2.039   2.254  1.00  0.00     0.023 C 
ENDROOT
BRANCH   1   2
ATOM      2  C   UNL     1      -3.172  -0.956   1.449  1.00  0.00     0.023 C 
BRANCH   2   3
ATOM      3  C   UNL     1      -2.557   0.241   2.167  1.00  0.00     0.116 C 
BRANCH   3   4
ATOM      4  N   UNL     1      -1.907   0.003   3.434  1.00  0.00    -0.354 N 
ATOM      5  C   UNL     1      -0.594  -0.129   3.741  1.00  0.00     0.242 C 
ATOM      6  O   UNL     1      -0.263   0.124   4.906  1.00  0.00    -0.273 OA
ATOM      7  H   UNL     1      -2.518  -0.076   4.202  1.00  0.00     0.163 HD
BRANCH   5   8
ATOM      8  C   UNL     1       0.486  -0.477   2.706  1.00  0.00     0.171 C 
BRANCH   8   9
ATOM      9  C   UNL     1       1.035   0.785   1.984  1.00  0.00     0.032 C 
ATOM     10  C   UNL     1       0.619   2.146   2.532  1.00  0.00     0.006 C 
ENDBRANCH   8   9
BRANCH   8  11
ATOM     11  N   UNL     1       0.153  -1.509   1.713  1.00  0.00    -0.340 N 
ATOM     12  C   UNL     1      -0.039  -2.868   1.773  1.00  0.00     0.253 C 
ATOM     13  H   UNL     1       0.044  -1.146   0.804  1.00  0.00     0.164 HD
ATOM     14  O   UNL     1       0.174  -3.473   0.718  1.00  0.00    -0.269 OA
BRANCH  12  15
ATOM     15  C   UNL     1      -0.618  -3.625   2.915  1.00  0.00     0.058 A 
ATOM     16  C   UNL     1      -0.791  -3.193   4.224  1.00  0.00     0.017 A 
ATOM     17  C   UNL     1      -1.178  -4.866   2.608  1.00  0.00     0.125 A 
ATOM     18  C   UNL     1      -1.616  -3.909   5.103  1.00  0.00     0.024 A 
ATOM     19  N   UNL     1      -1.956  -5.601   3.448  1.00  0.00    -0.261 NA
ATOM     20  C   UNL     1      -2.208  -5.089   4.670  1.00  0.00     0.037 A 
ATOM     21  C   UNL     1      -3.142  -5.858   5.556  1.00  0.00     0.066 C 
ENDBRANCH  12  15
ENDBRANCH   8  11
ENDBRANCH   5   8
ENDBRANCH   3   4
ENDBRANCH   2   3
ENDBRANCH   1   2
BRANCH   1  22
ATOM     22  C   UNL     1      -4.734  -1.624   3.446  1.00  0.00     0.116 C 
BRANCH  22  23
ATOM     23  N   UNL     1      -5.870  -0.816   3.064  1.00  0.00    -0.352 N 
ATOM     24  C   UNL     1      -7.192  -0.966   3.399  1.00  0.00     0.251 C 
ATOM     25  H   UNL     1      -5.667  -0.049   2.481  1.00  0.00     0.163 HD
ATOM     26  O   UNL     1      -8.029  -0.281   2.809  1.00  0.00    -0.269 OA
BRANCH  24  27
ATOM     27  C   UNL     1      -7.632  -1.928   4.442  1.00  0.00     0.039 A 
ATOM     28  C   UNL     1      -8.856  -2.581   4.262  1.00  0.00     0.014 A 
ATOM     29  C   UNL     1      -6.918  -2.127   5.630  1.00  0.00     0.014 A 
ATOM     30  C   UNL     1      -9.365  -3.414   5.262  1.00  0.00     0.010 A 
ATOM     31  C   UNL     1      -7.395  -3.013   6.601  1.00  0.00     0.010 A 
ATOM     32  C   UNL     1      -8.643  -3.634   6.446  1.00  0.00    -0.014 A 
BRANCH  32  33
ATOM     33  C   UNL     1      -9.236  -4.437   7.550  1.00  0.00     0.031 A 
ATOM     34  C   UNL     1      -9.627  -3.769   8.845  1.00  0.00     0.074 A 
ATOM     35  C   UNL     1      -9.439  -5.760   7.393  1.00  0.00     0.049 A 
ATOM     36  N   UNL     1     -10.212  -4.285   9.898  1.00  0.00    -0.248 NA
ATOM     37  C   UNL     1      -9.303  -2.340   8.985  1.00  0.00     0.031 C 
ATOM     38  C   UNL     1      -9.079  -6.537   6.205  1.00  0.00     0.029 A 
ATOM     39  N   UNL     1     -10.011  -6.683   8.234  1.00  0.00    -0.354 N 
ATOM     40  C   UNL     1     -10.311  -3.252  10.824  1.00  0.00     0.074 A 
ATOM     41  C   UNL     1      -9.682  -2.094  10.230  1.00  0.00     0.031 C 
ATOM     42  C   UNL     1      -9.474  -7.810   6.378  1.00  0.00     0.029 A 
ATOM     43  C   UNL     1     -10.093  -7.945   7.694  1.00  0.00     0.049 A 
ATOM     44  H   UNL     1     -10.333  -6.461   9.137  1.00  0.00     0.167 HD
ATOM     45  C   UNL     1     -10.892  -3.256  12.049  1.00  0.00     0.031 A 
ATOM     46  C   UNL     1     -10.620  -9.080   8.194  1.00  0.00     0.031 A 
ATOM     47  C   UNL     1     -11.538  -4.400  12.634  1.00  0.00     0.049 A 
ATOM     48  C   UNL     1     -11.277  -9.056   9.549  1.00  0.00     0.074 A 
ATOM     49  C   UNL     1     -12.203  -4.488  13.845  1.00  0.00     0.029 A 
ATOM     50  N   UNL     1     -11.603  -5.656  12.051  1.00  0.00    -0.354 N 
ATOM     51  N   UNL     1     -11.419  -8.051  10.380  1.00  0.00    -0.248 NA
ATOM     52  C   UNL     1     -11.866 -10.318  10.021  1.00  0.00     0.031 C 
ATOM     53  C   UNL     1     -12.634  -5.809  14.013  1.00  0.00     0.029 A 
ATOM     54  C   UNL     1     -12.283  -6.529  12.883  1.00  0.00     0.049 A 
ATOM     55  H   UNL     1     -11.222  -5.892  11.174  1.00  0.00     0.167 HD
ATOM     56  C   UNL     1     -12.145  -8.551  11.457  1.00  0.00     0.074 A 
ATOM     57  C   UNL     1     -12.420  -9.943  11.166  1.00  0.00     0.031 C 
ATOM     58  C   UNL     1     -12.553  -7.912  12.581  1.00  0.00     0.031 A 
BRANCH  45  59
ATOM     59  C   UNL     1     -10.845  -1.976  12.843  1.00  0.00    -0.014 A 
ATOM     60  C   UNL     1     -11.606  -0.855  12.464  1.00  0.00     0.010 A 
ATOM     61  C   UNL     1     -10.052  -1.902  14.002  1.00  0.00     0.010 A 
ATOM     62  C   UNL     1     -11.536   0.331  13.200  1.00  0.00     0.020 A 
ATOM     63  C   UNL     1     -10.001  -0.727  14.758  1.00  0.00     0.020 A 
ATOM     64  C   UNL     1     -10.728   0.390  14.339  1.00  0.00     0.054 A 
BRANCH  64  65
ATOM     65  S   UNL     1     -10.659   1.936  15.284  1.00  0.00     0.124 S 
ATOM     66  O   UNL     1      -9.828   2.776  14.422  1.00  0.00    -0.237 OA
ATOM     67  O   UNL     1     -12.068   2.327  15.365  1.00  0.00    -0.237 OA
ATOM     68  O   UNL     1     -10.051   1.546  16.548  1.00  0.00    -0.744 OA
ENDBRANCH  64  65
ENDBRANCH  45  59
BRANCH  46  69
ATOM     69  C   UNL     1     -10.591 -10.331   7.388  1.00  0.00    -0.014 A 
ATOM     70  C   UNL     1     -11.773 -10.842   6.822  1.00  0.00     0.010 A 
ATOM     71  C   UNL     1      -9.381 -11.015   7.176  1.00  0.00     0.010 A 
ATOM     72  C   UNL     1     -11.750 -12.025   6.079  1.00  0.00     0.020 A 
ATOM     73  C   UNL     1      -9.349 -12.185   6.411  1.00  0.00     0.020 A 
ATOM     74  C   UNL     1     -10.537 -12.689   5.878  1.00  0.00     0.054 A 
BRANCH  74  75
ATOM     75  S   UNL     1     -10.521 -14.198   4.869  1.00  0.00     0.124 S 
ATOM     76  O   UNL     1     -11.103 -15.178   5.781  1.00  0.00    -0.237 OA
ATOM     77  O   UNL     1     -11.352 -13.825   3.727  1.00  0.00    -0.237 OA
ATOM     78  O   UNL     1      -9.105 -14.389   4.564  1.00  0.00    -0.744 OA
ENDBRANCH  74  75
ENDBRANCH  46  69
BRANCH  58  79
ATOM     79  C   UNL     1     -13.380  -8.699  13.563  1.00  0.00    -0.014 A 
ATOM     80  C   UNL     1     -12.812  -9.710  14.357  1.00  0.00     0.010 A 
ATOM     81  C   UNL     1     -14.746  -8.395  13.713  1.00  0.00     0.010 A 
ATOM     82  C   UNL     1     -13.605 -10.433  15.253  1.00  0.00     0.020 A 
ATOM     83  C   UNL     1     -15.536  -9.097  14.627  1.00  0.00     0.020 A 
ATOM     84  C   UNL     1     -14.964 -10.125  15.378  1.00  0.00     0.054 A 
BRANCH  84  85
ATOM     85  S   UNL     1     -15.970 -11.062  16.561  1.00  0.00     0.124 S 
ATOM     86  O   UNL     1     -16.172 -12.324  15.855  1.00  0.00    -0.237 OA
ATOM     87  O   UNL     1     -15.106 -11.131  17.737  1.00  0.00    -0.237 OA
ATOM     88  O   UNL     1     -17.167 -10.240  16.724  1.00  0.00    -0.744 OA
ENDBRANCH  84  85
ENDBRANCH  58  79
ENDBRANCH  32  33
ENDBRANCH  24  27
ENDBRANCH  22  23
ENDBRANCH   1  22
TORSDOF 17
