REMARK SMILES CC(C)CN(C)c1cc2c(cc1Cl)C=C(C(=O)NCCCCNC(=O)c1ccc(-c3c4nc(c(-c5ccc(S(=O)(=O)[O-])cc5)c5ccc([nH]5)c(-c5ccc(S(=O)(=O)[O-])cc5)c5nc(c(-c6ccc(S(=O)(=O)[O-])cc6)c6ccc3[nH]6)C=C5)C=C4)cc1)[C@@H](C(F)(F)F)O2
REMARK SMILES IDX 20 1 19 2 18 3 16 4 17 5 15 7 7 8 8 9 12 10 9 11 11 12 13 13
REMARK SMILES IDX 10 14 91 15 14 16 86 17 5 18 6 19 4 20 2 21 1 22 3 23 87 24
REMARK SMILES IDX 88 25 89 26 90 27 21 28 22 29 23 30 24 31 25 33 26 34 27 35
REMARK SMILES IDX 85 36 28 37 84 38 29 39 30 40 31 41 78 42 32 43 83 44 77 45
REMARK SMILES IDX 79 46 33 47 82 48 76 49 75 50 34 52 64 53 45 54 63 55 46 56
REMARK SMILES IDX 49 57 62 58 80 59 47 60 48 61 61 63 81 64 50 65 35 66 36 67
REMARK SMILES IDX 44 68 37 69 43 70 38 71 39 72 40 73 41 74 42 75 65 76 66 77
REMARK SMILES IDX 74 78 67 79 73 80 68 81 69 82 70 83 71 84 72 85 51 86 52 87
REMARK SMILES IDX 60 88 53 89 59 90 54 91 55 92 56 93 57 94 58 95
REMARK H PARENT 18 6 23 32 79 51 49 62
REMARK Flexibility Score: inf
ROOT
ATOM      1  C   UNL     1      -4.382   5.478   6.378  1.00  0.00     0.023 C 
ENDROOT
BRANCH   1   2
ATOM      2  C   UNL     1      -3.503   6.315   5.452  1.00  0.00     0.116 C 
BRANCH   2   3
ATOM      3  N   UNL     1      -2.093   6.012   5.622  1.00  0.00    -0.352 N 
ATOM      4  C   UNL     1      -1.130   5.388   4.904  1.00  0.00     0.251 C 
ATOM      5  O   UNL     1      -0.004   5.389   5.412  1.00  0.00    -0.270 OA
ATOM      6  H   UNL     1      -1.749   6.347   6.481  1.00  0.00     0.163 HD
BRANCH   4   7
ATOM      7  C   UNL     1      -1.341   4.707   3.597  1.00  0.00     0.067 C 
ATOM      8  C   UNL     1      -0.761   1.803  -0.495  1.00  0.00     0.059 A 
ATOM      9  C   UNL     1      -1.825   2.081   0.377  1.00  0.00     0.074 A 
ATOM     10  C   UNL     1       0.465   2.470  -0.269  1.00  0.00     0.065 A 
ATOM     11  C   UNL     1      -1.651   2.946   1.454  1.00  0.00     0.130 A 
ATOM     12  C   UNL     1       0.656   3.275   0.861  1.00  0.00     0.034 A 
ATOM     13  Cl  UNL     1       1.796   2.324  -1.367  1.00  0.00    -0.082 Cl
ATOM     14  C   UNL     1      -0.401   3.497   1.739  1.00  0.00     0.019 A 
ATOM     15  O   UNL     1      -2.750   3.209   2.229  1.00  0.00    -0.475 OA
ATOM     16  C   UNL     1      -0.235   4.246   2.980  1.00  0.00     0.025 C 
ATOM     17  C   UNL     1      -2.676   4.478   2.947  1.00  0.00     0.314 C 
BRANCH   8  18
ATOM     18  N   UNL     1      -0.922   0.859  -1.523  1.00  0.00    -0.373 N 
ATOM     19  C   UNL     1      -1.945   1.193  -2.511  1.00  0.00     0.143 C 
BRANCH  18  20
ATOM     20  C   UNL     1      -0.838  -0.557  -1.110  1.00  0.00     0.119 C 
BRANCH  20  21
ATOM     21  C   UNL     1       0.620  -1.042  -0.961  1.00  0.00     0.002 C 
ATOM     22  C   UNL     1       1.129  -0.921   0.479  1.00  0.00     0.009 C 
ATOM     23  C   UNL     1       0.752  -2.502  -1.404  1.00  0.00     0.009 C 
ENDBRANCH  20  21
ENDBRANCH  18  20
ENDBRANCH   8  18
BRANCH  17  24
ATOM     24  C   UNL     1      -3.078   5.653   2.024  1.00  0.00     0.429 C 
ATOM     25  F   UNL     1      -4.402   5.600   1.739  1.00  0.00    -0.167 F 
ATOM     26  F   UNL     1      -2.853   6.859   2.599  1.00  0.00    -0.167 F 
ATOM     27  F   UNL     1      -2.414   5.657   0.846  1.00  0.00    -0.167 F 
ENDBRANCH  17  24
ENDBRANCH   4   7
ENDBRANCH   2   3
ENDBRANCH   1   2
BRANCH   1  28
ATOM     28  C   UNL     1      -4.554   6.060   7.782  1.00  0.00     0.023 C 
BRANCH  28  29
ATOM     29  C   UNL     1      -5.115   7.479   7.835  1.00  0.00     0.116 C 
BRANCH  29  30
ATOM     30  N   UNL     1      -6.372   7.659   7.118  1.00  0.00    -0.352 N 
ATOM     31  C   UNL     1      -7.330   8.626   7.337  1.00  0.00     0.251 C 
ATOM     32  H   UNL     1      -6.557   7.018   6.394  1.00  0.00     0.163 HD
ATOM     33  O   UNL     1      -8.383   8.621   6.708  1.00  0.00    -0.269 OA
BRANCH  31  34
ATOM     34  C   UNL     1      -7.084   9.630   8.392  1.00  0.00     0.039 A 
ATOM     35  C   UNL     1      -5.878  10.331   8.415  1.00  0.00     0.014 A 
ATOM     36  C   UNL     1      -8.008   9.771   9.430  1.00  0.00     0.014 A 
ATOM     37  C   UNL     1      -5.510  11.009   9.569  1.00  0.00     0.010 A 
ATOM     38  C   UNL     1      -7.670  10.533  10.552  1.00  0.00     0.010 A 
ATOM     39  C   UNL     1      -6.392  11.100  10.661  1.00  0.00    -0.014 A 
BRANCH  39  40
ATOM     40  C   UNL     1      -5.926  11.771  11.904  1.00  0.00     0.031 A 
ATOM     41  C   UNL     1      -5.749  10.997  13.184  1.00  0.00     0.074 A 
ATOM     42  C   UNL     1      -5.561  13.067  11.846  1.00  0.00     0.049 A 
ATOM     43  N   UNL     1      -5.234  11.398  14.319  1.00  0.00    -0.248 NA
ATOM     44  C   UNL     1      -6.208   9.598  13.202  1.00  0.00     0.031 C 
ATOM     45  C   UNL     1      -5.671  13.914  10.656  1.00  0.00     0.029 A 
ATOM     46  N   UNL     1      -4.973  13.880  12.782  1.00  0.00    -0.354 N 
ATOM     47  C   UNL     1      -5.329  10.317  15.188  1.00  0.00     0.074 A 
ATOM     48  C   UNL     1      -5.972   9.247  14.460  1.00  0.00     0.031 C 
ATOM     49  C   UNL     1      -5.080  15.091  10.902  1.00  0.00     0.029 A 
ATOM     50  C   UNL     1      -4.609  15.110  12.284  1.00  0.00     0.049 A 
ATOM     51  H   UNL     1      -4.825  13.610  13.717  1.00  0.00     0.167 HD
ATOM     52  C   UNL     1      -4.911  10.224  16.473  1.00  0.00     0.031 A 
ATOM     53  C   UNL     1      -3.957  16.138  12.862  1.00  0.00     0.031 A 
ATOM     54  C   UNL     1      -4.246  11.284  17.186  1.00  0.00     0.049 A 
ATOM     55  C   UNL     1      -3.503  16.012  14.286  1.00  0.00     0.074 A 
ATOM     56  C   UNL     1      -3.761  11.269  18.482  1.00  0.00     0.029 A 
ATOM     57  N   UNL     1      -3.966  12.539  16.668  1.00  0.00    -0.354 N 
ATOM     58  N   UNL     1      -3.602  14.980  15.088  1.00  0.00    -0.248 NA
ATOM     59  C   UNL     1      -2.853  17.186  14.884  1.00  0.00     0.031 C 
ATOM     60  C   UNL     1      -3.239  12.533  18.767  1.00  0.00     0.029 A 
ATOM     61  C   UNL     1      -3.337  13.315  17.628  1.00  0.00     0.049 A 
ATOM     62  H   UNL     1      -4.183  12.835  15.755  1.00  0.00     0.167 HD
ATOM     63  C   UNL     1      -3.019  15.376  16.286  1.00  0.00     0.074 A 
ATOM     64  C   UNL     1      -2.554  16.735  16.097  1.00  0.00     0.031 C 
ATOM     65  C   UNL     1      -2.886  14.672  17.436  1.00  0.00     0.031 A 
BRANCH  52  66
ATOM     66  C   UNL     1      -5.164   8.936  17.215  1.00  0.00    -0.014 A 
ATOM     67  C   UNL     1      -6.086   8.919  18.278  1.00  0.00     0.010 A 
ATOM     68  C   UNL     1      -4.423   7.774  16.935  1.00  0.00     0.010 A 
ATOM     69  C   UNL     1      -6.250   7.773  19.061  1.00  0.00     0.020 A 
ATOM     70  C   UNL     1      -4.603   6.616  17.700  1.00  0.00     0.020 A 
ATOM     71  C   UNL     1      -5.501   6.630  18.771  1.00  0.00     0.054 A 
BRANCH  71  72
ATOM     72  S   UNL     1      -5.725   5.149  19.795  1.00  0.00     0.124 S 
ATOM     73  O   UNL     1      -4.937   5.471  20.979  1.00  0.00    -0.237 OA
ATOM     74  O   UNL     1      -7.173   5.108  19.990  1.00  0.00    -0.237 OA
ATOM     75  O   UNL     1      -5.191   4.075  18.958  1.00  0.00    -0.744 OA
ENDBRANCH  71  72
ENDBRANCH  52  66
BRANCH  53  76
ATOM     76  C   UNL     1      -3.658  17.344  12.043  1.00  0.00    -0.014 A 
ATOM     77  C   UNL     1      -4.700  18.181  11.603  1.00  0.00     0.010 A 
ATOM     78  C   UNL     1      -2.349  17.582  11.591  1.00  0.00     0.010 A 
ATOM     79  C   UNL     1      -4.452  19.186  10.665  1.00  0.00     0.020 A 
ATOM     80  C   UNL     1      -2.092  18.607  10.675  1.00  0.00     0.020 A 
ATOM     81  C   UNL     1      -3.152  19.377  10.191  1.00  0.00     0.054 A 
BRANCH  81  82
ATOM     82  S   UNL     1      -2.868  20.624   8.904  1.00  0.00     0.124 S 
ATOM     83  O   UNL     1      -3.361  19.939   7.712  1.00  0.00    -0.237 OA
ATOM     84  O   UNL     1      -3.679  21.749   9.364  1.00  0.00    -0.237 OA
ATOM     85  O   UNL     1      -1.425  20.840   8.951  1.00  0.00    -0.744 OA
ENDBRANCH  81  82
ENDBRANCH  53  76
BRANCH  65  86
ATOM     86  C   UNL     1      -2.212  15.343  18.603  1.00  0.00    -0.014 A 
ATOM     87  C   UNL     1      -0.951  14.890  19.033  1.00  0.00     0.010 A 
ATOM     88  C   UNL     1      -2.874  16.337  19.345  1.00  0.00     0.010 A 
ATOM     89  C   UNL     1      -0.376  15.397  20.200  1.00  0.00     0.020 A 
ATOM     90  C   UNL     1      -2.289  16.866  20.499  1.00  0.00     0.020 A 
ATOM     91  C   UNL     1      -1.054  16.375  20.932  1.00  0.00     0.054 A 
BRANCH  91  92
ATOM     92  S   UNL     1      -0.303  17.012  22.455  1.00  0.00     0.124 S 
ATOM     93  O   UNL     1      -0.622  15.961  23.417  1.00  0.00    -0.237 OA
ATOM     94  O   UNL     1       1.109  17.129  22.096  1.00  0.00    -0.237 OA
ATOM     95  O   UNL     1      -0.989  18.284  22.668  1.00  0.00    -0.744 OA
ENDBRANCH  91  92
ENDBRANCH  65  86
ENDBRANCH  39  40
ENDBRANCH  31  34
ENDBRANCH  29  30
ENDBRANCH  28  29
ENDBRANCH   1  28
TORSDOF 18
