REMARK SMILES CSCC[C@@H](NC1=[NH+]S(=O)(=O)c2ccccc21)C(=O)NCCCCNC(=O)c1ccc(-c2c3nc(c(-c4ccc(S(=O)(=O)[O-])cc4)c4ccc([nH]4)c(-c4ccc(S(=O)(=O)[O-])cc4)c4nc(c(-c5ccc(S(=O)(=O)[O-])cc5)c5ccc2[nH]5)C=C4)C=C3)cc1
REMARK SMILES IDX 22 1 21 2 20 3 18 4 19 5 5 7 4 8 3 9 2 10 1 11 6 12 7 13
REMARK SMILES IDX 8 15 17 16 9 17 12 19 16 20 10 21 11 22 13 23 15 24 14 25
REMARK SMILES IDX 23 26 24 27 25 28 26 29 27 31 28 32 29 33 87 34 30 35 86 36
REMARK SMILES IDX 31 37 32 38 33 39 80 40 34 41 85 42 79 43 81 44 35 45 84 46
REMARK SMILES IDX 78 47 77 48 36 50 66 51 47 52 65 53 48 54 51 55 64 56 82 57
REMARK SMILES IDX 49 58 50 59 63 61 83 62 52 63 37 64 38 65 46 66 39 67 45 68
REMARK SMILES IDX 40 69 41 70 42 71 43 72 44 73 67 74 68 75 76 76 69 77 75 78
REMARK SMILES IDX 70 79 71 80 72 81 73 82 74 83 53 84 54 85 62 86 55 87 61 88
REMARK SMILES IDX 56 89 57 90 58 91 59 92 60 93
REMARK H PARENT 20 6 6 14 8 18 25 30 81 49 51 60
REMARK Flexibility Score: inf
ROOT
ATOM      1  C   UNL     1       0.722  -4.219  -5.303  1.00  0.00     0.023 C 
ENDROOT
BRANCH   1   2
ATOM      2  C   UNL     1       1.457  -2.962  -4.857  1.00  0.00     0.116 C 
BRANCH   2   3
ATOM      3  N   UNL     1       0.591  -1.801  -4.803  1.00  0.00    -0.352 N 
ATOM      4  C   UNL     1       0.440  -0.855  -3.824  1.00  0.00     0.264 C 
ATOM      5  O   UNL     1      -0.373   0.052  -4.021  1.00  0.00    -0.270 OA
ATOM      6  H   UNL     1       0.021  -1.671  -5.596  1.00  0.00     0.163 HD
BRANCH   4   7
ATOM      7  C   UNL     1       1.171  -0.973  -2.461  1.00  0.00     0.262 C 
BRANCH   7   8
ATOM      8  C   UNL     1       0.457  -2.073  -1.654  1.00  0.00     0.071 C 
BRANCH   8   9
ATOM      9  C   UNL     1       0.947  -2.310  -0.227  1.00  0.00     0.074 C 
BRANCH   9  10
ATOM     10  S   UNL     1       0.173  -1.262   1.042  1.00  0.00    -0.165 SA
ATOM     11  C   UNL     1       1.064   0.288   0.781  1.00  0.00     0.085 C 
ENDBRANCH   9  10
ENDBRANCH   8   9
ENDBRANCH   7   8
BRANCH   7  12
ATOM     12  N   UNL     1       2.615  -1.240  -2.597  1.00  0.00    -0.261 N 
ATOM     13  C   UNL     1       3.390  -0.733  -3.613  1.00  0.00     0.292 C 
ATOM     14  H   UNL     1       3.048  -1.812  -1.924  1.00  0.00     0.306 HD
ATOM     15  N   UNL     1       3.087   0.319  -4.313  1.00  0.00    -0.162 N 
ATOM     16  C   UNL     1       4.598  -1.466  -4.060  1.00  0.00     0.087 A 
ATOM     17  S   UNL     1       4.121   0.511  -5.574  1.00  0.00     0.329 S 
ATOM     18  H   UNL     1       2.336   0.923  -4.113  1.00  0.00     0.327 HD
ATOM     19  C   UNL     1       5.083  -0.893  -5.219  1.00  0.00     0.124 A 
ATOM     20  C   UNL     1       5.144  -2.643  -3.575  1.00  0.00     0.018 A 
ATOM     21  O   UNL     1       4.965   1.665  -5.370  1.00  0.00    -0.179 OA
ATOM     22  O   UNL     1       3.439   0.235  -6.823  1.00  0.00    -0.179 OA
ATOM     23  C   UNL     1       6.089  -1.458  -5.978  1.00  0.00     0.025 A 
ATOM     24  C   UNL     1       6.181  -3.231  -4.308  1.00  0.00     0.001 A 
ATOM     25  C   UNL     1       6.642  -2.650  -5.505  1.00  0.00     0.002 A 
ENDBRANCH   7  12
ENDBRANCH   4   7
ENDBRANCH   2   3
ENDBRANCH   1   2
BRANCH   1  26
ATOM     26  C   UNL     1       0.284  -4.217  -6.766  1.00  0.00     0.023 C 
BRANCH  26  27
ATOM     27  C   UNL     1       1.392  -3.950  -7.782  1.00  0.00     0.116 C 
BRANCH  27  28
ATOM     28  N   UNL     1       2.506  -4.884  -7.676  1.00  0.00    -0.352 N 
ATOM     29  C   UNL     1       3.170  -5.540  -8.685  1.00  0.00     0.251 C 
ATOM     30  H   UNL     1       2.824  -5.069  -6.763  1.00  0.00     0.163 HD
ATOM     31  O   UNL     1       4.032  -6.373  -8.422  1.00  0.00    -0.269 OA
BRANCH  29  32
ATOM     32  C   UNL     1       2.803  -5.254 -10.086  1.00  0.00     0.039 A 
ATOM     33  C   UNL     1       2.422  -6.310 -10.917  1.00  0.00     0.014 A 
ATOM     34  C   UNL     1       2.768  -3.935 -10.549  1.00  0.00     0.014 A 
ATOM     35  C   UNL     1       1.923  -6.036 -12.192  1.00  0.00     0.010 A 
ATOM     36  C   UNL     1       2.219  -3.661 -11.797  1.00  0.00     0.010 A 
ATOM     37  C   UNL     1       1.778  -4.707 -12.624  1.00  0.00    -0.014 A 
BRANCH  37  38
ATOM     38  C   UNL     1       1.139  -4.380 -13.923  1.00  0.00     0.031 A 
ATOM     39  C   UNL     1       1.940  -3.729 -15.014  1.00  0.00     0.074 A 
ATOM     40  C   UNL     1      -0.184  -4.585 -14.084  1.00  0.00     0.049 A 
ATOM     41  N   UNL     1       1.538  -3.275 -16.172  1.00  0.00    -0.248 NA
ATOM     42  C   UNL     1       3.378  -3.544 -14.759  1.00  0.00     0.031 C 
ATOM     43  C   UNL     1      -1.082  -5.168 -13.084  1.00  0.00     0.029 A 
ATOM     44  N   UNL     1      -1.008  -4.305 -15.145  1.00  0.00    -0.354 N 
ATOM     45  C   UNL     1       2.663  -2.727 -16.774  1.00  0.00     0.074 A 
ATOM     46  C   UNL     1       3.759  -2.879 -15.841  1.00  0.00     0.031 C 
ATOM     47  C   UNL     1      -2.328  -5.213 -13.584  1.00  0.00     0.029 A 
ATOM     48  C   UNL     1      -2.326  -4.630 -14.922  1.00  0.00     0.049 A 
ATOM     49  H   UNL     1      -0.687  -3.909 -15.987  1.00  0.00     0.167 HD
ATOM     50  C   UNL     1       2.778  -2.160 -17.998  1.00  0.00     0.031 A 
ATOM     51  C   UNL     1      -3.413  -4.465 -15.700  1.00  0.00     0.031 A 
ATOM     52  C   UNL     1       1.694  -2.025 -18.933  1.00  0.00     0.049 A 
ATOM     53  C   UNL     1      -3.260  -3.837 -17.057  1.00  0.00     0.074 A 
ATOM     54  C   UNL     1       1.726  -1.525 -20.222  1.00  0.00     0.029 A 
ATOM     55  N   UNL     1       0.381  -2.390 -18.677  1.00  0.00    -0.354 N 
ATOM     56  N   UNL     1      -2.173  -3.384 -17.634  1.00  0.00    -0.248 NA
ATOM     57  C   UNL     1      -4.478  -3.702 -17.868  1.00  0.00     0.031 C 
ATOM     58  C   UNL     1       0.425  -1.555 -20.735  1.00  0.00     0.029 A 
ATOM     59  C   UNL     1      -0.410  -2.110 -19.778  1.00  0.00     0.049 A 
ATOM     60  H   UNL     1       0.059  -2.789 -17.837  1.00  0.00     0.167 HD
ATOM     61  C   UNL     1      -2.574  -2.926 -18.884  1.00  0.00     0.074 A 
ATOM     62  C   UNL     1      -3.998  -3.167 -18.984  1.00  0.00     0.031 C 
ATOM     63  C   UNL     1      -1.826  -2.357 -19.861  1.00  0.00     0.031 A 
BRANCH  50  64
ATOM     64  C   UNL     1       4.133  -1.639 -18.393  1.00  0.00    -0.014 A 
ATOM     65  C   UNL     1       5.177  -2.521 -18.724  1.00  0.00     0.010 A 
ATOM     66  C   UNL     1       4.357  -0.253 -18.459  1.00  0.00     0.010 A 
ATOM     67  C   UNL     1       6.435  -2.026 -19.072  1.00  0.00     0.020 A 
ATOM     68  C   UNL     1       5.609   0.247 -18.829  1.00  0.00     0.020 A 
ATOM     69  C   UNL     1       6.646  -0.645 -19.116  1.00  0.00     0.054 A 
BRANCH  69  70
ATOM     70  S   UNL     1       8.286  -0.027 -19.583  1.00  0.00     0.124 S 
ATOM     71  O   UNL     1       9.047  -0.239 -18.355  1.00  0.00    -0.237 OA
ATOM     72  O   UNL     1       8.650  -0.891 -20.704  1.00  0.00    -0.237 OA
ATOM     73  O   UNL     1       8.042   1.370 -19.933  1.00  0.00    -0.744 OA
ENDBRANCH  69  70
ENDBRANCH  50  64
BRANCH  51  74
ATOM     74  C   UNL     1      -4.745  -4.912 -15.214  1.00  0.00    -0.014 A 
ATOM     75  C   UNL     1      -5.334  -6.078 -15.733  1.00  0.00     0.010 A 
ATOM     76  C   UNL     1      -5.422  -4.186 -14.217  1.00  0.00     0.010 A 
ATOM     77  C   UNL     1      -6.582  -6.506 -15.271  1.00  0.00     0.020 A 
ATOM     78  C   UNL     1      -6.660  -4.622 -13.739  1.00  0.00     0.020 A 
ATOM     79  C   UNL     1      -7.237  -5.775 -14.276  1.00  0.00     0.054 A 
BRANCH  79  80
ATOM     80  S   UNL     1      -8.827  -6.382 -13.644  1.00  0.00     0.124 S 
ATOM     81  O   UNL     1      -9.750  -5.960 -14.692  1.00  0.00    -0.237 OA
ATOM     82  O   UNL     1      -8.601  -7.822 -13.541  1.00  0.00    -0.237 OA
ATOM     83  O   UNL     1      -8.969  -5.690 -12.364  1.00  0.00    -0.744 OA
ENDBRANCH  79  80
ENDBRANCH  51  74
BRANCH  63  84
ATOM     84  C   UNL     1      -2.528  -1.974 -21.134  1.00  0.00    -0.014 A 
ATOM     85  C   UNL     1      -3.328  -0.820 -21.198  1.00  0.00     0.010 A 
ATOM     86  C   UNL     1      -2.328  -2.740 -22.296  1.00  0.00     0.010 A 
ATOM     87  C   UNL     1      -3.931  -0.448 -22.402  1.00  0.00     0.020 A 
ATOM     88  C   UNL     1      -2.914  -2.361 -23.505  1.00  0.00     0.020 A 
ATOM     89  C   UNL     1      -3.720  -1.221 -23.549  1.00  0.00     0.054 A 
BRANCH  89  90
ATOM     90  S   UNL     1      -4.462  -0.686 -25.116  1.00  0.00     0.124 S 
ATOM     91  O   UNL     1      -5.851  -1.107 -24.953  1.00  0.00    -0.237 OA
ATOM     92  O   UNL     1      -4.237   0.757 -25.105  1.00  0.00    -0.237 OA
ATOM     93  O   UNL     1      -3.702  -1.420 -26.125  1.00  0.00    -0.744 OA
ENDBRANCH  89  90
ENDBRANCH  63  84
ENDBRANCH  37  38
ENDBRANCH  29  32
ENDBRANCH  27  28
ENDBRANCH  26  27
ENDBRANCH   1  26
TORSDOF 18
