REMARK SMILES Cc1cc(Cl)c2c(c1)C=C(C(=O)NCCCCNC(=O)c1ccc(-c3c4nc(c(-c5ccc(S(=O)(=O)[O-])cc5)c5ccc([nH]5)c(-c5ccc(S(=O)(=O)[O-])cc5)c5nc(c(-c6ccc(S(=O)(=O)[O-])cc6)c6ccc3[nH]6)C=C5)C=C4)cc1)[C@@H](C(F)(F)F)O2
REMARK SMILES IDX 16 1 15 2 14 3 13 4 11 5 12 6 10 8 1 9 2 10 3 11 8 12 4 13
REMARK SMILES IDX 7 14 5 15 6 16 9 17 86 18 81 19 82 20 83 21 84 22 85 23
REMARK SMILES IDX 17 24 18 25 19 26 20 28 21 29 22 30 80 31 23 32 79 33 24 34
REMARK SMILES IDX 25 35 26 36 73 37 27 38 78 39 72 40 74 41 28 42 77 43 71 44
REMARK SMILES IDX 70 45 29 47 59 48 40 49 58 50 41 51 44 52 57 53 75 54 42 55
REMARK SMILES IDX 43 56 56 58 76 59 45 60 30 61 31 62 39 63 32 64 38 65 33 66
REMARK SMILES IDX 34 67 35 68 36 69 37 70 60 71 61 72 69 73 62 74 68 75 63 76
REMARK SMILES IDX 64 77 65 78 66 79 67 80 46 81 47 82 55 83 48 84 54 85 49 86
REMARK SMILES IDX 50 87 51 88 52 89 53 90
REMARK H PARENT 13 7 18 27 74 46 44 57
REMARK Flexibility Score: inf
ROOT
ATOM      1  C   UNL     1      -0.824  10.929  -1.481  1.00  0.00     0.023 C 
ENDROOT
BRANCH   1   2
ATOM      2  C   UNL     1      -0.932   9.470  -1.928  1.00  0.00     0.023 C 
BRANCH   2   3
ATOM      3  C   UNL     1       0.399   8.842  -2.330  1.00  0.00     0.116 C 
BRANCH   3   4
ATOM      4  N   UNL     1       1.129   8.338  -1.182  1.00  0.00    -0.352 N 
ATOM      5  C   UNL     1       1.372   7.132  -0.620  1.00  0.00     0.251 C 
ATOM      6  O   UNL     1       2.066   7.158   0.402  1.00  0.00    -0.270 OA
ATOM      7  H   UNL     1       1.560   9.066  -0.678  1.00  0.00     0.163 HD
BRANCH   5   8
ATOM      8  C   UNL     1       0.878   5.821  -1.138  1.00  0.00     0.067 C 
ATOM      9  C   UNL     1       1.202  -0.207   0.194  1.00  0.00     0.044 C 
ATOM     10  C   UNL     1       0.735   1.012  -0.544  1.00  0.00    -0.049 A 
ATOM     11  C   UNL     1      -0.135   0.903  -1.635  1.00  0.00     0.028 A 
ATOM     12  C   UNL     1       1.152   2.285  -0.127  1.00  0.00     0.015 A 
ATOM     13  C   UNL     1      -0.573   2.048  -2.304  1.00  0.00     0.084 A 
ATOM     14  C   UNL     1       0.720   3.433  -0.800  1.00  0.00     0.019 A 
ATOM     15  Cl  UNL     1      -1.646   1.859  -3.644  1.00  0.00    -0.080 Cl
ATOM     16  C   UNL     1      -0.138   3.313  -1.895  1.00  0.00     0.146 A 
ATOM     17  C   UNL     1       1.128   4.759  -0.350  1.00  0.00     0.025 C 
ATOM     18  O   UNL     1      -0.611   4.415  -2.555  1.00  0.00    -0.474 OA
ATOM     19  C   UNL     1       0.191   5.625  -2.459  1.00  0.00     0.314 C 
BRANCH  19  20
ATOM     20  C   UNL     1       1.166   5.685  -3.651  1.00  0.00     0.429 C 
ATOM     21  F   UNL     1       0.486   5.823  -4.816  1.00  0.00    -0.167 F 
ATOM     22  F   UNL     1       2.014   6.737  -3.575  1.00  0.00    -0.167 F 
ATOM     23  F   UNL     1       1.927   4.572  -3.754  1.00  0.00    -0.167 F 
ENDBRANCH  19  20
ENDBRANCH   5   8
ENDBRANCH   3   4
ENDBRANCH   2   3
ENDBRANCH   1   2
BRANCH   1  24
ATOM     24  C   UNL     1      -0.153  11.873  -2.477  1.00  0.00     0.116 C 
BRANCH  24  25
ATOM     25  N   UNL     1      -0.691  11.778  -3.827  1.00  0.00    -0.352 N 
ATOM     26  C   UNL     1      -0.858  12.785  -4.746  1.00  0.00     0.251 C 
ATOM     27  H   UNL     1      -0.970  10.880  -4.117  1.00  0.00     0.163 HD
ATOM     28  O   UNL     1      -1.401  12.565  -5.824  1.00  0.00    -0.269 OA
BRANCH  26  29
ATOM     29  C   UNL     1      -0.409  14.144  -4.392  1.00  0.00     0.039 A 
ATOM     30  C   UNL     1      -1.333  15.189  -4.440  1.00  0.00     0.014 A 
ATOM     31  C   UNL     1       0.897  14.360  -3.944  1.00  0.00     0.014 A 
ATOM     32  C   UNL     1      -0.961  16.449  -3.971  1.00  0.00     0.010 A 
ATOM     33  C   UNL     1       1.245  15.600  -3.421  1.00  0.00     0.010 A 
ATOM     34  C   UNL     1       0.319  16.653  -3.430  1.00  0.00    -0.014 A 
BRANCH  34  35
ATOM     35  C   UNL     1       0.705  17.975  -2.883  1.00  0.00     0.031 A 
ATOM     36  C   UNL     1       1.751  18.795  -3.582  1.00  0.00     0.074 A 
ATOM     37  C   UNL     1       0.137  18.419  -1.745  1.00  0.00     0.049 A 
ATOM     38  N   UNL     1       2.221  19.972  -3.262  1.00  0.00    -0.248 NA
ATOM     39  C   UNL     1       2.364  18.207  -4.785  1.00  0.00     0.031 C 
ATOM     40  C   UNL     1      -0.862  17.693  -0.955  1.00  0.00     0.029 A 
ATOM     41  N   UNL     1       0.312  19.593  -1.059  1.00  0.00    -0.354 N 
ATOM     42  C   UNL     1       3.185  20.263  -4.219  1.00  0.00     0.074 A 
ATOM     43  C   UNL     1       3.274  19.117  -5.097  1.00  0.00     0.031 C 
ATOM     44  C   UNL     1      -1.240  18.457   0.083  1.00  0.00     0.029 A 
ATOM     45  C   UNL     1      -0.495  19.712   0.048  1.00  0.00     0.049 A 
ATOM     46  H   UNL     1       0.956  20.287  -1.333  1.00  0.00     0.167 HD
ATOM     47  C   UNL     1       3.909  21.396  -4.373  1.00  0.00     0.031 A 
ATOM     48  C   UNL     1      -0.627  20.723   0.927  1.00  0.00     0.031 A 
ATOM     49  C   UNL     1       3.805  22.541  -3.513  1.00  0.00     0.049 A 
ATOM     50  C   UNL     1       0.200  21.965   0.746  1.00  0.00     0.074 A 
ATOM     51  C   UNL     1       4.456  23.757  -3.616  1.00  0.00     0.029 A 
ATOM     52  N   UNL     1       2.994  22.611  -2.391  1.00  0.00    -0.354 N 
ATOM     53  N   UNL     1       1.064  22.245  -0.200  1.00  0.00    -0.248 NA
ATOM     54  C   UNL     1       0.032  23.027   1.748  1.00  0.00     0.031 C 
ATOM     55  C   UNL     1       4.063  24.552  -2.534  1.00  0.00     0.029 A 
ATOM     56  C   UNL     1       3.142  23.843  -1.779  1.00  0.00     0.049 A 
ATOM     57  H   UNL     1       2.400  21.891  -2.077  1.00  0.00     0.167 HD
ATOM     58  C   UNL     1       1.537  23.520   0.087  1.00  0.00     0.074 A 
ATOM     59  C   UNL     1       0.852  23.963   1.285  1.00  0.00     0.031 C 
ATOM     60  C   UNL     1       2.457  24.257  -0.582  1.00  0.00     0.031 A 
BRANCH  47  61
ATOM     61  C   UNL     1       4.866  21.444  -5.531  1.00  0.00    -0.014 A 
ATOM     62  C   UNL     1       4.389  21.574  -6.848  1.00  0.00     0.010 A 
ATOM     63  C   UNL     1       6.252  21.370  -5.305  1.00  0.00     0.010 A 
ATOM     64  C   UNL     1       5.279  21.582  -7.924  1.00  0.00     0.020 A 
ATOM     65  C   UNL     1       7.147  21.401  -6.379  1.00  0.00     0.020 A 
ATOM     66  C   UNL     1       6.653  21.487  -7.683  1.00  0.00     0.054 A 
BRANCH  66  67
ATOM     67  S   UNL     1       7.786  21.503  -9.098  1.00  0.00     0.124 S 
ATOM     68  O   UNL     1       7.607  20.159  -9.641  1.00  0.00    -0.237 OA
ATOM     69  O   UNL     1       7.258  22.588  -9.922  1.00  0.00    -0.237 OA
ATOM     70  O   UNL     1       9.091  21.763  -8.494  1.00  0.00    -0.744 OA
ENDBRANCH  66  67
ENDBRANCH  47  61
BRANCH  48  71
ATOM     71  C   UNL     1      -1.610  20.615   2.037  1.00  0.00    -0.014 A 
ATOM     72  C   UNL     1      -2.822  21.324   1.975  1.00  0.00     0.010 A 
ATOM     73  C   UNL     1      -1.356  19.784   3.143  1.00  0.00     0.010 A 
ATOM     74  C   UNL     1      -3.762  21.209   3.003  1.00  0.00     0.020 A 
ATOM     75  C   UNL     1      -2.302  19.654   4.164  1.00  0.00     0.020 A 
ATOM     76  C   UNL     1      -3.497  20.373   4.091  1.00  0.00     0.054 A 
BRANCH  76  77
ATOM     77  S   UNL     1      -4.760  20.190   5.381  1.00  0.00     0.124 S 
ATOM     78  O   UNL     1      -4.643  21.454   6.101  1.00  0.00    -0.237 OA
ATOM     79  O   UNL     1      -5.984  20.015   4.603  1.00  0.00    -0.237 OA
ATOM     80  O   UNL     1      -4.325  19.005   6.118  1.00  0.00    -0.744 OA
ENDBRANCH  76  77
ENDBRANCH  48  71
BRANCH  60  81
ATOM     81  C   UNL     1       2.786  25.617  -0.035  1.00  0.00    -0.014 A 
ATOM     82  C   UNL     1       3.639  25.753   1.073  1.00  0.00     0.010 A 
ATOM     83  C   UNL     1       2.319  26.768  -0.694  1.00  0.00     0.010 A 
ATOM     84  C   UNL     1       4.018  27.021   1.518  1.00  0.00     0.020 A 
ATOM     85  C   UNL     1       2.711  28.038  -0.263  1.00  0.00     0.020 A 
ATOM     86  C   UNL     1       3.555  28.156   0.844  1.00  0.00     0.054 A 
BRANCH  86  87
ATOM     87  S   UNL     1       4.129  29.788   1.390  1.00  0.00     0.124 S 
ATOM     88  O   UNL     1       3.353  29.990   2.610  1.00  0.00    -0.237 OA
ATOM     89  O   UNL     1       5.561  29.576   1.585  1.00  0.00    -0.237 OA
ATOM     90  O   UNL     1       3.782  30.667   0.276  1.00  0.00    -0.744 OA
ENDBRANCH  86  87
ENDBRANCH  60  81
ENDBRANCH  34  35
ENDBRANCH  26  29
ENDBRANCH  24  25
ENDBRANCH   1  24
TORSDOF 15
