REMARK SMILES O=C(NCCCCNC(=O)c1ccn(Cc2c(Cl)cccc2Cl)c1)c1ccc(-c2c3nc(c(-c4ccc(S(=O)(=O)[O-])cc4)c4ccc([nH]4)c(-c4ccc(S(=O)(=O)[O-])cc4)c4nc(c(-c5ccc(S(=O)(=O)[O-])cc5)c5ccc2[nH]5)C=C4)C=C3)cc1
REMARK SMILES IDX 5 1 4 2 3 3 1 4 2 5 25 7 26 8 84 9 27 10 83 11 28 12 29 13
REMARK SMILES IDX 30 14 77 15 31 16 82 17 76 18 78 19 32 20 81 21 75 22 74 23
REMARK SMILES IDX 33 25 63 26 44 27 62 28 45 29 48 30 61 31 79 32 46 33 47 34
REMARK SMILES IDX 60 36 80 37 49 38 34 39 35 40 43 41 36 42 42 43 37 44 38 45
REMARK SMILES IDX 39 46 40 47 41 48 64 49 65 50 73 51 66 52 72 53 67 54 68 55
REMARK SMILES IDX 69 56 70 57 71 58 50 59 51 60 59 61 52 62 58 63 53 64 54 65
REMARK SMILES IDX 55 66 56 67 57 68 6 69 7 70 8 71 9 72 10 74 11 75 12 76
REMARK SMILES IDX 24 77 13 78 14 79 15 80 16 81 17 82 22 83 18 84 19 85 21 86
REMARK SMILES IDX 23 87 20 88
REMARK H PARENT 3 6 78 24 48 35 8 73
REMARK Flexibility Score: inf
ROOT
ATOM      1  C   UNL     1       4.889   1.079   2.029  1.00  0.00     0.023 C 
ENDROOT
BRANCH   1   2
ATOM      2  C   UNL     1       4.590  -0.120   1.129  1.00  0.00     0.116 C 
BRANCH   2   3
ATOM      3  N   UNL     1       3.187  -0.363   0.855  1.00  0.00    -0.352 N 
ATOM      4  O   UNL     1       1.196  -0.348  -0.134  1.00  0.00    -0.269 OA
ATOM      5  C   UNL     1       2.271   0.235   0.025  1.00  0.00     0.251 C 
ATOM      6  H   UNL     1       2.813  -1.113   1.371  1.00  0.00     0.163 HD
BRANCH   5   7
ATOM      7  C   UNL     1       2.467   1.572  -0.596  1.00  0.00     0.039 A 
ATOM      8  C   UNL     1       3.707   2.127  -0.904  1.00  0.00     0.014 A 
ATOM      9  C   UNL     1       1.304   2.321  -0.863  1.00  0.00     0.014 A 
ATOM     10  C   UNL     1       3.796   3.444  -1.342  1.00  0.00     0.010 A 
ATOM     11  C   UNL     1       1.383   3.633  -1.330  1.00  0.00     0.010 A 
ATOM     12  C   UNL     1       2.636   4.203  -1.547  1.00  0.00    -0.014 A 
BRANCH  12  13
ATOM     13  C   UNL     1       2.812   5.519  -2.207  1.00  0.00     0.031 A 
ATOM     14  C   UNL     1       3.071   5.302  -3.723  1.00  0.00     0.074 A 
ATOM     15  C   UNL     1       2.888   6.611  -1.376  1.00  0.00     0.049 A 
ATOM     16  N   UNL     1       3.919   5.877  -4.518  1.00  0.00    -0.248 NA
ATOM     17  C   UNL     1       2.362   4.193  -4.430  1.00  0.00     0.031 C 
ATOM     18  C   UNL     1       2.493   6.627   0.057  1.00  0.00     0.029 A 
ATOM     19  N   UNL     1       3.308   7.918  -1.532  1.00  0.00    -0.354 N 
ATOM     20  C   UNL     1       3.744   5.335  -5.819  1.00  0.00     0.074 A 
ATOM     21  C   UNL     1       2.841   4.236  -5.678  1.00  0.00     0.031 C 
ATOM     22  C   UNL     1       2.782   7.817   0.639  1.00  0.00     0.029 A 
ATOM     23  C   UNL     1       3.412   8.688  -0.332  1.00  0.00     0.049 A 
ATOM     24  H   UNL     1       3.521   8.296  -2.415  1.00  0.00     0.167 HD
ATOM     25  C   UNL     1       4.279   5.904  -6.943  1.00  0.00     0.031 A 
ATOM     26  C   UNL     1       4.037   9.898  -0.131  1.00  0.00     0.031 A 
ATOM     27  C   UNL     1       5.062   7.029  -6.573  1.00  0.00     0.049 A 
ATOM     28  C   UNL     1       4.549  10.259  -1.460  1.00  0.00     0.074 A 
ATOM     29  C   UNL     1       6.324   7.168  -6.064  1.00  0.00     0.029 A 
ATOM     30  N   UNL     1       4.382   8.212  -6.431  1.00  0.00    -0.354 N 
ATOM     31  N   UNL     1       3.826  10.669  -2.454  1.00  0.00    -0.248 NA
ATOM     32  C   UNL     1       5.970  10.024  -1.745  1.00  0.00     0.031 C 
ATOM     33  C   UNL     1       6.192   8.259  -5.179  1.00  0.00     0.029 A 
ATOM     34  C   UNL     1       4.935   8.851  -5.350  1.00  0.00     0.049 A 
ATOM     35  H   UNL     1       3.643   8.537  -6.994  1.00  0.00     0.167 HD
ATOM     36  C   UNL     1       4.614  10.374  -3.536  1.00  0.00     0.074 A 
ATOM     37  C   UNL     1       5.974  10.291  -3.046  1.00  0.00     0.031 C 
ATOM     38  C   UNL     1       4.083   9.755  -4.620  1.00  0.00     0.031 A 
BRANCH  25  39
ATOM     39  C   UNL     1       4.033   5.738  -8.424  1.00  0.00    -0.014 A 
ATOM     40  C   UNL     1       4.974   6.356  -9.295  1.00  0.00     0.010 A 
ATOM     41  C   UNL     1       2.804   5.357  -8.978  1.00  0.00     0.010 A 
ATOM     42  C   UNL     1       4.650   6.729 -10.599  1.00  0.00     0.020 A 
ATOM     43  C   UNL     1       2.486   5.691 -10.312  1.00  0.00     0.020 A 
ATOM     44  C   UNL     1       3.390   6.422 -11.092  1.00  0.00     0.054 A 
BRANCH  44  45
ATOM     45  S   UNL     1       2.949   7.055 -12.735  1.00  0.00     0.124 S 
ATOM     46  O   UNL     1       2.858   8.493 -12.501  1.00  0.00    -0.237 OA
ATOM     47  O   UNL     1       4.083   6.628 -13.552  1.00  0.00    -0.237 OA
ATOM     48  O   UNL     1       1.687   6.384 -13.035  1.00  0.00    -0.744 OA
ENDBRANCH  44  45
ENDBRANCH  25  39
BRANCH  26  49
ATOM     49  C   UNL     1       4.495  10.808   1.004  1.00  0.00    -0.014 A 
ATOM     50  C   UNL     1       4.115  10.744   2.350  1.00  0.00     0.010 A 
ATOM     51  C   UNL     1       5.487  11.795   0.710  1.00  0.00     0.010 A 
ATOM     52  C   UNL     1       4.810  11.489   3.347  1.00  0.00     0.020 A 
ATOM     53  C   UNL     1       6.216  12.492   1.680  1.00  0.00     0.020 A 
ATOM     54  C   UNL     1       5.897  12.307   3.010  1.00  0.00     0.054 A 
BRANCH  54  55
ATOM     55  S   UNL     1       6.988  13.011   4.288  1.00  0.00     0.124 S 
ATOM     56  O   UNL     1       6.238  14.177   4.742  1.00  0.00    -0.237 OA
ATOM     57  O   UNL     1       7.100  11.917   5.250  1.00  0.00    -0.237 OA
ATOM     58  O   UNL     1       8.222  13.309   3.561  1.00  0.00    -0.744 OA
ENDBRANCH  54  55
ENDBRANCH  26  49
BRANCH  38  59
ATOM     59  C   UNL     1       2.558   9.808  -4.721  1.00  0.00    -0.014 A 
ATOM     60  C   UNL     1       1.920  11.048  -4.887  1.00  0.00     0.010 A 
ATOM     61  C   UNL     1       1.727   8.676  -4.566  1.00  0.00     0.010 A 
ATOM     62  C   UNL     1       0.520  11.159  -4.901  1.00  0.00     0.020 A 
ATOM     63  C   UNL     1       0.321   8.775  -4.576  1.00  0.00     0.020 A 
ATOM     64  C   UNL     1      -0.276  10.022  -4.749  1.00  0.00     0.054 A 
BRANCH  64  65
ATOM     65  S   UNL     1      -2.085  10.210  -4.780  1.00  0.00     0.124 S 
ATOM     66  O   UNL     1      -2.333  11.148  -3.687  1.00  0.00    -0.237 OA
ATOM     67  O   UNL     1      -2.323  10.740  -6.120  1.00  0.00    -0.237 OA
ATOM     68  O   UNL     1      -2.586   8.856  -4.552  1.00  0.00    -0.744 OA
ENDBRANCH  64  65
ENDBRANCH  38  59
ENDBRANCH  12  13
ENDBRANCH   5   7
ENDBRANCH   2   3
ENDBRANCH   1   2
BRANCH   1  69
ATOM     69  C   UNL     1       4.401   0.948   3.473  1.00  0.00     0.023 C 
BRANCH  69  70
ATOM     70  C   UNL     1       4.900  -0.285   4.223  1.00  0.00     0.116 C 
BRANCH  70  71
ATOM     71  N   UNL     1       6.348  -0.309   4.343  1.00  0.00    -0.352 N 
ATOM     72  C   UNL     1       7.111  -0.389   5.485  1.00  0.00     0.252 C 
ATOM     73  H   UNL     1       6.849  -0.261   3.497  1.00  0.00     0.163 HD
ATOM     74  O   UNL     1       8.319  -0.204   5.422  1.00  0.00    -0.269 OA
BRANCH  72  75
ATOM     75  C   UNL     1       6.434  -0.726   6.729  1.00  0.00     0.057 A 
ATOM     76  C   UNL     1       5.564  -1.824   6.973  1.00  0.00     0.033 A 
ATOM     77  C   UNL     1       6.570  -0.059   7.937  1.00  0.00     0.099 A 
ATOM     78  C   UNL     1       5.186  -1.773   8.292  1.00  0.00     0.087 A 
ATOM     79  N   UNL     1       5.758  -0.666   8.866  1.00  0.00    -0.349 N 
BRANCH  79  80
ATOM     80  C   UNL     1       5.640  -0.286  10.276  1.00  0.00     0.160 C 
BRANCH  80  81
ATOM     81  C   UNL     1       4.386   0.512  10.568  1.00  0.00     0.009 A 
ATOM     82  C   UNL     1       3.138  -0.112  10.775  1.00  0.00     0.047 A 
ATOM     83  C   UNL     1       4.412   1.919  10.644  1.00  0.00     0.047 A 
ATOM     84  Cl  UNL     1       2.959  -1.827  10.922  1.00  0.00    -0.084 Cl
ATOM     85  C   UNL     1       1.966   0.634  10.957  1.00  0.00     0.021 A 
ATOM     86  C   UNL     1       3.242   2.661  10.870  1.00  0.00     0.021 A 
ATOM     87  Cl  UNL     1       5.880   2.825  10.521  1.00  0.00    -0.084 Cl
ATOM     88  C   UNL     1       2.015   2.020  11.002  1.00  0.00     0.003 A 
ENDBRANCH  80  81
ENDBRANCH  79  80
ENDBRANCH  72  75
ENDBRANCH  70  71
ENDBRANCH  69  70
ENDBRANCH   1  69
TORSDOF 16
