REMARK SMILES O=C(NCCCCNC(=O)c1cc(NC(=O)c2cc([N+](=O)[O-])ccc2N2CCCC2)ccc1Cl)c1ccc(-c2c3nc(c(-c4ccc(S(=O)(=O)[O-])cc4)c4ccc([nH]4)c(-c4ccc(S(=O)(=O)[O-])cc4)c4nc(c(-c5ccc(S(=O)(=O)[O-])cc5)c5ccc2[nH]5)C=C4)C=C3)cc1
REMARK SMILES IDX 5 1 4 2 3 3 1 4 2 5 35 7 36 8 94 9 37 10 93 11 38 12 39 13
REMARK SMILES IDX 40 14 87 15 41 16 92 17 86 18 88 19 42 20 91 21 85 22 84 23
REMARK SMILES IDX 43 25 73 26 54 27 72 28 55 29 58 30 71 31 89 32 56 33 57 34
REMARK SMILES IDX 70 36 90 37 59 38 44 39 45 40 53 41 46 42 52 43 47 44 48 45
REMARK SMILES IDX 49 46 50 47 51 48 74 49 75 50 83 51 76 52 82 53 77 54 78 55
REMARK SMILES IDX 79 56 80 57 81 58 60 59 61 60 69 61 62 62 68 63 63 64 64 65
REMARK SMILES IDX 65 66 66 67 67 68 6 69 7 70 8 71 9 72 10 74 11 75 12 76
REMARK SMILES IDX 33 77 13 78 32 79 34 80 31 81 14 82 15 83 16 85 17 86 18 87
REMARK SMILES IDX 25 88 19 89 24 90 23 91 26 92 27 93 30 94 28 95 29 96 20 97
REMARK SMILES IDX 21 98 22 99
REMARK H PARENT 3 6 88 24 58 35 8 73 14 84
REMARK Flexibility Score: inf
ROOT
ATOM      1  C   UNL     1       5.125   1.280   2.199  1.00  0.00     0.023 C 
ENDROOT
BRANCH   1   2
ATOM      2  C   UNL     1       4.686   0.140   1.298  1.00  0.00     0.116 C 
BRANCH   2   3
ATOM      3  N   UNL     1       3.240   0.035   1.175  1.00  0.00    -0.352 N 
ATOM      4  O   UNL     1       1.241   0.053   0.137  1.00  0.00    -0.269 OA
ATOM      5  C   UNL     1       2.459   0.017   0.040  1.00  0.00     0.251 C 
ATOM      6  H   UNL     1       2.748  -0.032   2.026  1.00  0.00     0.163 HD
BRANCH   5   7
ATOM      7  C   UNL     1       3.106  -0.011  -1.293  1.00  0.00     0.039 A 
ATOM      8  C   UNL     1       4.204  -0.838  -1.535  1.00  0.00     0.014 A 
ATOM      9  C   UNL     1       2.616   0.816  -2.308  1.00  0.00     0.014 A 
ATOM     10  C   UNL     1       4.915  -0.710  -2.720  1.00  0.00     0.010 A 
ATOM     11  C   UNL     1       3.273   0.865  -3.542  1.00  0.00     0.010 A 
ATOM     12  C   UNL     1       4.450   0.129  -3.746  1.00  0.00    -0.014 A 
BRANCH  12  13
ATOM     13  C   UNL     1       5.180   0.159  -5.039  1.00  0.00     0.031 A 
ATOM     14  C   UNL     1       5.849   1.411  -5.535  1.00  0.00     0.074 A 
ATOM     15  C   UNL     1       5.269  -0.984  -5.749  1.00  0.00     0.049 A 
ATOM     16  N   UNL     1       6.552   1.588  -6.626  1.00  0.00    -0.248 NA
ATOM     17  C   UNL     1       5.712   2.622  -4.710  1.00  0.00     0.031 C 
ATOM     18  C   UNL     1       4.658  -2.262  -5.369  1.00  0.00     0.029 A 
ATOM     19  N   UNL     1       5.926  -1.267  -6.918  1.00  0.00    -0.354 N 
ATOM     20  C   UNL     1       6.921   2.928  -6.632  1.00  0.00     0.074 A 
ATOM     21  C   UNL     1       6.349   3.525  -5.444  1.00  0.00     0.031 C 
ATOM     22  C   UNL     1       5.019  -3.203  -6.253  1.00  0.00     0.029 A 
ATOM     23  C   UNL     1       5.823  -2.584  -7.299  1.00  0.00     0.049 A 
ATOM     24  H   UNL     1       6.423  -0.593  -7.436  1.00  0.00     0.167 HD
ATOM     25  C   UNL     1       7.669   3.596  -7.543  1.00  0.00     0.031 A 
ATOM     26  C   UNL     1       6.306  -3.227  -8.377  1.00  0.00     0.031 A 
ATOM     27  C   UNL     1       8.238   2.994  -8.722  1.00  0.00     0.049 A 
ATOM     28  C   UNL     1       7.110  -2.457  -9.382  1.00  0.00     0.074 A 
ATOM     29  C   UNL     1       9.030   3.583  -9.693  1.00  0.00     0.029 A 
ATOM     30  N   UNL     1       8.075   1.668  -9.093  1.00  0.00    -0.354 N 
ATOM     31  N   UNL     1       7.461  -1.194  -9.358  1.00  0.00    -0.248 NA
ATOM     32  C   UNL     1       7.580  -3.197 -10.560  1.00  0.00     0.031 C 
ATOM     33  C   UNL     1       9.307   2.625 -10.674  1.00  0.00     0.029 A 
ATOM     34  C   UNL     1       8.731   1.425 -10.289  1.00  0.00     0.049 A 
ATOM     35  H   UNL     1       7.567   0.997  -8.582  1.00  0.00     0.167 HD
ATOM     36  C   UNL     1       8.203  -0.988 -10.514  1.00  0.00     0.074 A 
ATOM     37  C   UNL     1       8.268  -2.263 -11.201  1.00  0.00     0.031 C 
ATOM     38  C   UNL     1       8.776   0.154 -10.965  1.00  0.00     0.031 A 
BRANCH  25  39
ATOM     39  C   UNL     1       7.895   5.069  -7.319  1.00  0.00    -0.014 A 
ATOM     40  C   UNL     1       8.767   5.530  -6.316  1.00  0.00     0.010 A 
ATOM     41  C   UNL     1       7.265   6.006  -8.159  1.00  0.00     0.010 A 
ATOM     42  C   UNL     1       8.975   6.901  -6.134  1.00  0.00     0.020 A 
ATOM     43  C   UNL     1       7.488   7.376  -7.996  1.00  0.00     0.020 A 
ATOM     44  C   UNL     1       8.330   7.816  -6.972  1.00  0.00     0.054 A 
BRANCH  44  45
ATOM     45  S   UNL     1       8.629   9.588  -6.724  1.00  0.00     0.124 S 
ATOM     46  O   UNL     1       7.856   9.856  -5.514  1.00  0.00    -0.237 OA
ATOM     47  O   UNL     1      10.080   9.651  -6.568  1.00  0.00    -0.237 OA
ATOM     48  O   UNL     1       8.109  10.202  -7.944  1.00  0.00    -0.744 OA
ENDBRANCH  44  45
ENDBRANCH  25  39
BRANCH  26  49
ATOM     49  C   UNL     1       6.019  -4.674  -8.559  1.00  0.00    -0.014 A 
ATOM     50  C   UNL     1       7.037  -5.631  -8.410  1.00  0.00     0.010 A 
ATOM     51  C   UNL     1       4.708  -5.103  -8.841  1.00  0.00     0.010 A 
ATOM     52  C   UNL     1       6.750  -6.992  -8.548  1.00  0.00     0.020 A 
ATOM     53  C   UNL     1       4.413  -6.464  -8.951  1.00  0.00     0.020 A 
ATOM     54  C   UNL     1       5.439  -7.400  -8.815  1.00  0.00     0.054 A 
BRANCH  54  55
ATOM     55  S   UNL     1       5.075  -9.173  -8.924  1.00  0.00     0.124 S 
ATOM     56  O   UNL     1       5.588  -9.505 -10.249  1.00  0.00    -0.237 OA
ATOM     57  O   UNL     1       5.827  -9.722  -7.798  1.00  0.00    -0.237 OA
ATOM     58  O   UNL     1       3.622  -9.232  -8.780  1.00  0.00    -0.744 OA
ENDBRANCH  54  55
ENDBRANCH  26  49
BRANCH  38  59
ATOM     59  C   UNL     1       9.539   0.069 -12.258  1.00  0.00    -0.014 A 
ATOM     60  C   UNL     1       8.870  -0.046 -13.489  1.00  0.00     0.010 A 
ATOM     61  C   UNL     1      10.944   0.139 -12.242  1.00  0.00     0.010 A 
ATOM     62  C   UNL     1       9.594  -0.123 -14.681  1.00  0.00     0.020 A 
ATOM     63  C   UNL     1      11.670   0.087 -13.434  1.00  0.00     0.020 A 
ATOM     64  C   UNL     1      10.991  -0.059 -14.645  1.00  0.00     0.054 A 
BRANCH  64  65
ATOM     65  S   UNL     1      11.909  -0.124 -16.208  1.00  0.00     0.124 S 
ATOM     66  O   UNL     1      11.831  -1.543 -16.546  1.00  0.00    -0.237 OA
ATOM     67  O   UNL     1      11.142   0.771 -17.070  1.00  0.00    -0.237 OA
ATOM     68  O   UNL     1      13.240   0.358 -15.847  1.00  0.00    -0.744 OA
ENDBRANCH  64  65
ENDBRANCH  38  59
ENDBRANCH  12  13
ENDBRANCH   5   7
ENDBRANCH   2   3
ENDBRANCH   1   2
BRANCH   1  69
ATOM     69  C   UNL     1       4.663   1.178   3.645  1.00  0.00     0.023 C 
BRANCH  69  70
ATOM     70  C   UNL     1       5.007  -0.118   4.380  1.00  0.00     0.116 C 
BRANCH  70  71
ATOM     71  N   UNL     1       6.435  -0.382   4.471  1.00  0.00    -0.352 N 
ATOM     72  C   UNL     1       7.195  -0.756   5.556  1.00  0.00     0.252 C 
ATOM     73  H   UNL     1       6.933  -0.276   3.629  1.00  0.00     0.163 HD
ATOM     74  O   UNL     1       8.401  -0.949   5.428  1.00  0.00    -0.269 OA
BRANCH  72  75
ATOM     75  C   UNL     1       6.607  -0.809   6.909  1.00  0.00     0.060 A 
ATOM     76  C   UNL     1       7.140   0.096   7.845  1.00  0.00     0.041 A 
ATOM     77  C   UNL     1       5.581  -1.675   7.280  1.00  0.00     0.053 A 
ATOM     78  C   UNL     1       6.556   0.262   9.098  1.00  0.00     0.042 A 
ATOM     79  C   UNL     1       5.021  -1.554   8.553  1.00  0.00     0.023 A 
ATOM     80  Cl  UNL     1       4.987  -2.925   6.251  1.00  0.00    -0.083 Cl
ATOM     81  C   UNL     1       5.496  -0.585   9.446  1.00  0.00     0.028 A 
BRANCH  78  82
ATOM     82  N   UNL     1       6.937   1.224  10.053  1.00  0.00    -0.322 N 
ATOM     83  C   UNL     1       7.742   2.345  10.005  1.00  0.00     0.258 C 
ATOM     84  H   UNL     1       6.548   1.064  10.943  1.00  0.00     0.170 HD
ATOM     85  O   UNL     1       7.991   2.950  11.050  1.00  0.00    -0.269 OA
BRANCH  83  86
ATOM     86  C   UNL     1       8.319   2.866   8.752  1.00  0.00     0.070 A 
ATOM     87  C   UNL     1       9.724   2.853   8.692  1.00  0.00     0.101 A 
ATOM     88  C   UNL     1       7.525   3.264   7.652  1.00  0.00     0.050 A 
ATOM     89  C   UNL     1      10.360   3.150   7.487  1.00  0.00     0.270 A 
ATOM     90  C   UNL     1       8.207   3.508   6.444  1.00  0.00     0.034 A 
ATOM     91  C   UNL     1       9.605   3.448   6.351  1.00  0.00     0.088 A 
BRANCH  88  92
ATOM     92  N   UNL     1       6.157   3.346   7.703  1.00  0.00    -0.371 N 
ATOM     93  C   UNL     1       5.391   4.066   8.703  1.00  0.00     0.116 C 
ATOM     94  C   UNL     1       5.287   2.889   6.639  1.00  0.00     0.116 C 
ATOM     95  C   UNL     1       4.073   3.300   8.714  1.00  0.00     0.023 C 
ATOM     96  C   UNL     1       3.911   2.766   7.292  1.00  0.00     0.023 C 
ENDBRANCH  88  92
BRANCH  89  97
ATOM     97  N   UNL     1      11.825   3.124   7.412  1.00  0.00     0.062 N 
ATOM     98  O   UNL     1      12.451   2.917   8.462  1.00  0.00    -0.258 OA
ATOM     99  O   UNL     1      12.351   3.322   6.308  1.00  0.00    -0.258 OA
ENDBRANCH  89  97
ENDBRANCH  83  86
ENDBRANCH  78  82
ENDBRANCH  72  75
ENDBRANCH  70  71
ENDBRANCH  69  70
ENDBRANCH   1  69
TORSDOF 18
