REMARK SMILES Cc1cc(C(=O)N[C@H]2C=C[C@H](C(=O)NCCCCNC(=O)c3ccc(-c4c5nc(c(-c6ccc(S(=O)(=O)[O-])cc6)c6ccc([nH]6)c(-c6ccc(S(=O)(=O)[O-])cc6)c6nc(c(-c7ccc(S(=O)(=O)[O-])cc7)c7ccc4[nH]7)C=C6)C=C5)cc3)C2)ccc1F
REMARK SMILES IDX 17 1 16 2 15 3 14 4 12 5 13 6 11 8 8 9 9 10 82 11 10 12 7 13
REMARK SMILES IDX 5 14 6 15 4 17 1 18 2 19 3 20 85 21 84 22 86 23 83 24 18 25
REMARK SMILES IDX 19 26 20 27 21 29 22 30 23 31 81 32 24 33 80 34 25 35 26 36
REMARK SMILES IDX 27 37 74 38 28 39 79 40 73 41 75 42 29 43 78 44 72 45 71 46
REMARK SMILES IDX 30 48 60 49 41 50 59 51 42 52 45 53 58 54 76 55 43 56 44 57
REMARK SMILES IDX 57 59 77 60 46 61 31 62 32 63 40 64 33 65 39 66 34 67 35 68
REMARK SMILES IDX 36 69 37 70 38 71 61 72 62 73 70 74 63 75 69 76 64 77 65 78
REMARK SMILES IDX 66 79 67 80 68 81 47 82 48 83 56 84 49 85 55 86 50 87 51 88
REMARK SMILES IDX 52 89 53 90 54 91
REMARK H PARENT 14 7 7 16 19 28 75 47 45 58
REMARK Flexibility Score: inf
ROOT
ATOM      1  C   UNL     1       2.072   8.554   1.665  1.00  0.00     0.023 C 
ENDROOT
BRANCH   1   2
ATOM      2  C   UNL     1       0.593   8.268   1.932  1.00  0.00     0.023 C 
BRANCH   2   3
ATOM      3  C   UNL     1      -0.055   7.279   0.972  1.00  0.00     0.116 C 
BRANCH   3   4
ATOM      4  N   UNL     1       0.477   5.945   1.135  1.00  0.00    -0.356 N 
ATOM      5  C   UNL     1      -0.080   4.785   1.554  1.00  0.00     0.227 C 
ATOM      6  O   UNL     1       0.684   3.812   1.582  1.00  0.00    -0.274 OA
ATOM      7  H   UNL     1       1.429   5.866   0.896  1.00  0.00     0.163 HD
BRANCH   5   8
ATOM      8  C   UNL     1      -1.546   4.645   2.031  1.00  0.00     0.103 C 
ATOM      9  C   UNL     1      -2.531   3.365   0.250  1.00  0.00     0.106 C 
ATOM     10  C   UNL     1      -3.201   4.695   0.346  1.00  0.00    -0.006 C 
ATOM     11  C   UNL     1      -2.016   3.215   1.685  1.00  0.00     0.047 C 
ATOM     12  C   UNL     1      -2.636   5.412   1.327  1.00  0.00    -0.016 C 
BRANCH   9  13
ATOM     13  N   UNL     1      -3.439   2.338  -0.176  1.00  0.00    -0.346 N 
ATOM     14  C   UNL     1      -3.201   1.018  -0.481  1.00  0.00     0.251 C 
ATOM     15  O   UNL     1      -4.161   0.318  -0.806  1.00  0.00    -0.269 OA
ATOM     16  H   UNL     1      -4.378   2.623  -0.264  1.00  0.00     0.164 HD
BRANCH  14  17
ATOM     17  C   UNL     1      -1.854   0.384  -0.358  1.00  0.00     0.040 A 
ATOM     18  C   UNL     1       1.874   1.183  -0.448  1.00  0.00     0.047 C 
ATOM     19  C   UNL     1       0.589   0.418  -0.338  1.00  0.00    -0.015 A 
ATOM     20  C   UNL     1      -0.641   1.040  -0.603  1.00  0.00     0.020 A 
ATOM     21  C   UNL     1       0.593  -0.919   0.054  1.00  0.00     0.126 A 
ATOM     22  C   UNL     1      -0.597  -1.622   0.211  1.00  0.00     0.040 A 
ATOM     23  F   UNL     1       1.754  -1.547   0.281  1.00  0.00    -0.207 F 
ATOM     24  C   UNL     1      -1.817  -0.968   0.021  1.00  0.00     0.017 A 
ENDBRANCH  14  17
ENDBRANCH   9  13
ENDBRANCH   5   8
ENDBRANCH   3   4
ENDBRANCH   2   3
ENDBRANCH   1   2
BRANCH   1  25
ATOM     25  C   UNL     1       2.417   8.993   0.244  1.00  0.00     0.116 C 
BRANCH  25  26
ATOM     26  N   UNL     1       1.615  10.114  -0.222  1.00  0.00    -0.352 N 
ATOM     27  C   UNL     1       2.007  11.254  -0.879  1.00  0.00     0.251 C 
ATOM     28  H   UNL     1       0.650  10.045  -0.040  1.00  0.00     0.163 HD
ATOM     29  O   UNL     1       1.190  12.145  -1.093  1.00  0.00    -0.269 OA
BRANCH  27  30
ATOM     30  C   UNL     1       3.416  11.419  -1.296  1.00  0.00     0.039 A 
ATOM     31  C   UNL     1       4.058  12.631  -1.028  1.00  0.00     0.014 A 
ATOM     32  C   UNL     1       4.105  10.384  -1.932  1.00  0.00     0.014 A 
ATOM     33  C   UNL     1       5.411  12.778  -1.336  1.00  0.00     0.010 A 
ATOM     34  C   UNL     1       5.471  10.507  -2.171  1.00  0.00     0.010 A 
ATOM     35  C   UNL     1       6.139  11.705  -1.876  1.00  0.00    -0.014 A 
BRANCH  35  36
ATOM     36  C   UNL     1       7.597  11.820  -2.133  1.00  0.00     0.031 A 
ATOM     37  C   UNL     1       8.131  11.727  -3.537  1.00  0.00     0.074 A 
ATOM     38  C   UNL     1       8.447  11.955  -1.095  1.00  0.00     0.049 A 
ATOM     39  N   UNL     1       9.371  11.773  -3.952  1.00  0.00    -0.248 NA
ATOM     40  C   UNL     1       7.145  11.533  -4.613  1.00  0.00     0.031 C 
ATOM     41  C   UNL     1       8.060  12.009   0.318  1.00  0.00     0.029 A 
ATOM     42  N   UNL     1       9.815  12.070  -1.066  1.00  0.00    -0.354 N 
ATOM     43  C   UNL     1       9.316  11.601  -5.330  1.00  0.00     0.074 A 
ATOM     44  C   UNL     1       7.926  11.395  -5.674  1.00  0.00     0.031 C 
ATOM     45  C   UNL     1       9.159  12.179   1.070  1.00  0.00     0.029 A 
ATOM     46  C   UNL     1      10.331  12.210   0.201  1.00  0.00     0.049 A 
ATOM     47  H   UNL     1      10.373  12.053  -1.877  1.00  0.00     0.167 HD
ATOM     48  C   UNL     1      10.326  11.636  -6.232  1.00  0.00     0.031 A 
ATOM     49  C   UNL     1      11.605  12.349   0.617  1.00  0.00     0.031 A 
ATOM     50  C   UNL     1      11.706  11.851  -5.889  1.00  0.00     0.049 A 
ATOM     51  C   UNL     1      12.709  12.385  -0.404  1.00  0.00     0.074 A 
ATOM     52  C   UNL     1      12.798  11.952  -6.734  1.00  0.00     0.029 A 
ATOM     53  N   UNL     1      12.186  12.003  -4.597  1.00  0.00    -0.354 N 
ATOM     54  N   UNL     1      12.628  12.284  -1.709  1.00  0.00    -0.248 NA
ATOM     55  C   UNL     1      14.075  12.570   0.105  1.00  0.00     0.031 C 
ATOM     56  C   UNL     1      13.944  12.119  -5.949  1.00  0.00     0.029 A 
ATOM     57  C   UNL     1      13.559  12.179  -4.620  1.00  0.00     0.049 A 
ATOM     58  H   UNL     1      11.632  11.987  -3.783  1.00  0.00     0.167 HD
ATOM     59  C   UNL     1      13.930  12.422  -2.180  1.00  0.00     0.074 A 
ATOM     60  C   UNL     1      14.774  12.630  -1.020  1.00  0.00     0.031 C 
ATOM     61  C   UNL     1      14.385  12.383  -3.457  1.00  0.00     0.031 A 
BRANCH  48  62
ATOM     62  C   UNL     1       9.967  11.437  -7.682  1.00  0.00    -0.014 A 
ATOM     63  C   UNL     1       9.248  12.418  -8.390  1.00  0.00     0.010 A 
ATOM     64  C   UNL     1      10.378  10.272  -8.354  1.00  0.00     0.010 A 
ATOM     65  C   UNL     1       8.906  12.216  -9.729  1.00  0.00     0.020 A 
ATOM     66  C   UNL     1      10.063  10.080  -9.703  1.00  0.00     0.020 A 
ATOM     67  C   UNL     1       9.312  11.046 -10.376  1.00  0.00     0.054 A 
BRANCH  67  68
ATOM     68  S   UNL     1       8.867  10.817 -12.120  1.00  0.00     0.124 S 
ATOM     69  O   UNL     1       7.439  10.519 -12.028  1.00  0.00    -0.237 OA
ATOM     70  O   UNL     1       9.201  12.112 -12.709  1.00  0.00    -0.237 OA
ATOM     71  O   UNL     1       9.709   9.704 -12.550  1.00  0.00    -0.744 OA
ENDBRANCH  67  68
ENDBRANCH  48  62
BRANCH  49  72
ATOM     72  C   UNL     1      11.903  12.491   2.068  1.00  0.00    -0.014 A 
ATOM     73  C   UNL     1      12.339  13.722   2.589  1.00  0.00     0.010 A 
ATOM     74  C   UNL     1      11.749  11.397   2.939  1.00  0.00     0.010 A 
ATOM     75  C   UNL     1      12.638  13.851   3.949  1.00  0.00     0.020 A 
ATOM     76  C   UNL     1      12.020  11.529   4.304  1.00  0.00     0.020 A 
ATOM     77  C   UNL     1      12.476  12.753   4.798  1.00  0.00     0.054 A 
BRANCH  77  78
ATOM     78  S   UNL     1      12.827  12.954   6.567  1.00  0.00     0.124 S 
ATOM     79  O   UNL     1      14.286  12.980   6.586  1.00  0.00    -0.237 OA
ATOM     80  O   UNL     1      12.166  14.220   6.878  1.00  0.00    -0.237 OA
ATOM     81  O   UNL     1      12.212  11.775   7.172  1.00  0.00    -0.744 OA
ENDBRANCH  77  78
ENDBRANCH  49  72
BRANCH  61  82
ATOM     82  C   UNL     1      15.858  12.606  -3.670  1.00  0.00    -0.014 A 
ATOM     83  C   UNL     1      16.804  11.630  -3.313  1.00  0.00     0.010 A 
ATOM     84  C   UNL     1      16.297  13.798  -4.276  1.00  0.00     0.010 A 
ATOM     85  C   UNL     1      18.167  11.858  -3.521  1.00  0.00     0.020 A 
ATOM     86  C   UNL     1      17.656  14.018  -4.512  1.00  0.00     0.020 A 
ATOM     87  C   UNL     1      18.585  13.052  -4.117  1.00  0.00     0.054 A 
BRANCH  87  88
ATOM     88  S   UNL     1      20.356  13.313  -4.405  1.00  0.00     0.124 S 
ATOM     89  O   UNL     1      20.842  13.610  -3.060  1.00  0.00    -0.237 OA
ATOM     90  O   UNL     1      20.784  12.031  -4.959  1.00  0.00    -0.237 OA
ATOM     91  O   UNL     1      20.393  14.433  -5.343  1.00  0.00    -0.744 OA
ENDBRANCH  87  88
ENDBRANCH  61  82
ENDBRANCH  35  36
ENDBRANCH  27  30
ENDBRANCH  25  26
ENDBRANCH   1  25
TORSDOF 16
