REMARK SMILES CN(C)C(=O)c1cccc(N2CCC3(CC2)[C@H](C(=O)NCCCCNC(=O)c2ccc(-c4c5nc(c(-c6ccc(S(=O)(=O)[O-])cc6)c6ccc([nH]6)c(-c6ccc(S(=O)(=O)[O-])cc6)c6nc(c(-c7ccc(S(=O)(=O)[O-])cc7)c7ccc4[nH]7)C=C6)C=C5)cc2)CC(=O)N3C)n1
REMARK SMILES IDX 23 1 22 2 21 3 20 4 18 5 19 6 17 8 11 9 12 10 16 11 13 12
REMARK SMILES IDX 15 13 14 14 91 15 88 16 89 17 92 18 90 19 10 20 6 21 7 22
REMARK SMILES IDX 93 23 8 24 9 25 4 26 1 27 2 28 3 29 5 30 24 31 25 32 26 33
REMARK SMILES IDX 27 35 28 36 29 37 87 38 30 39 86 40 31 41 32 42 33 43 80 44
REMARK SMILES IDX 34 45 85 46 79 47 81 48 35 49 84 50 78 51 77 52 36 54 66 55
REMARK SMILES IDX 47 56 65 57 48 58 51 59 64 60 82 61 49 62 50 63 63 65 83 66
REMARK SMILES IDX 52 67 37 68 38 69 46 70 39 71 45 72 40 73 41 74 42 75 43 76
REMARK SMILES IDX 44 77 67 78 68 79 76 80 69 81 75 82 70 83 71 84 72 85 73 86
REMARK SMILES IDX 74 87 53 88 54 89 62 90 55 91 61 92 56 93 57 94 58 95 59 96
REMARK SMILES IDX 60 97
REMARK H PARENT 20 7 25 34 81 53 51 64
REMARK Flexibility Score: inf
ROOT
ATOM      1  C   UNL     1       6.383   1.569  -7.822  1.00  0.00     0.023 C 
ENDROOT
BRANCH   1   2
ATOM      2  C   UNL     1       6.149   3.058  -7.591  1.00  0.00     0.023 C 
BRANCH   2   3
ATOM      3  C   UNL     1       5.945   3.878  -8.873  1.00  0.00     0.116 C 
BRANCH   3   4
ATOM      4  N   UNL     1       4.807   3.476  -9.687  1.00  0.00    -0.356 N 
ATOM      5  C   UNL     1       3.622   4.065 -10.000  1.00  0.00     0.226 C 
ATOM      6  O   UNL     1       2.902   3.456 -10.801  1.00  0.00    -0.275 OA
ATOM      7  H   UNL     1       4.919   2.589 -10.099  1.00  0.00     0.163 HD
BRANCH   5   8
ATOM      8  C   UNL     1       3.119   5.400  -9.433  1.00  0.00     0.113 C 
ATOM      9  N   UNL     1       1.284   4.768  -5.612  1.00  0.00    -0.356 N 
ATOM     10  C   UNL     1       2.537   4.073  -5.806  1.00  0.00     0.120 C 
ATOM     11  C   UNL     1       1.173   6.146  -6.071  1.00  0.00     0.120 C 
ATOM     12  C   UNL     1       2.800   4.106  -7.292  1.00  0.00     0.051 C 
ATOM     13  C   UNL     1       1.622   6.277  -7.542  1.00  0.00     0.051 C 
ATOM     14  C   UNL     1       2.940   5.515  -7.890  1.00  0.00     0.058 C 
ATOM     15  N   UNL     1       4.106   6.348  -7.532  1.00  0.00    -0.339 N 
ATOM     16  C   UNL     1       3.989   6.568  -9.875  1.00  0.00     0.116 C 
ATOM     17  C   UNL     1       4.673   7.009  -8.620  1.00  0.00     0.223 C 
ATOM     18  C   UNL     1       4.640   6.573  -6.203  1.00  0.00     0.147 C 
ATOM     19  O   UNL     1       5.598   7.805  -8.585  1.00  0.00    -0.275 OA
BRANCH   9  20
ATOM     20  C   UNL     1       0.418   4.192  -4.707  1.00  0.00     0.129 A 
ATOM     21  C   UNL     1       0.080   2.830  -2.851  1.00  0.00     0.130 A 
ATOM     22  C   UNL     1      -1.288   2.764  -3.065  1.00  0.00     0.034 A 
ATOM     23  N   UNL     1       0.930   3.523  -3.651  1.00  0.00    -0.226 NA
ATOM     24  C   UNL     1      -1.807   3.442  -4.158  1.00  0.00     0.006 A 
ATOM     25  C   UNL     1      -0.948   4.173  -4.975  1.00  0.00     0.047 A 
BRANCH  21  26
ATOM     26  C   UNL     1       0.683   2.181  -1.644  1.00  0.00     0.272 C 
ATOM     27  C   UNL     1       0.925   0.261  -0.150  1.00  0.00     0.146 C 
ATOM     28  N   UNL     1       0.447   0.821  -1.403  1.00  0.00    -0.343 N 
ATOM     29  C   UNL     1      -0.098  -0.113  -2.378  1.00  0.00     0.146 C 
ATOM     30  O   UNL     1       1.333   2.883  -0.868  1.00  0.00    -0.267 OA
ENDBRANCH  21  26
ENDBRANCH   9  20
ENDBRANCH   5   8
ENDBRANCH   3   4
ENDBRANCH   2   3
ENDBRANCH   1   2
BRANCH   1  31
ATOM     31  C   UNL     1       7.665   1.281  -8.586  1.00  0.00     0.116 C 
BRANCH  31  32
ATOM     32  N   UNL     1       8.826   1.894  -7.947  1.00  0.00    -0.352 N 
ATOM     33  C   UNL     1       9.978   1.301  -7.499  1.00  0.00     0.251 C 
ATOM     34  H   UNL     1       8.773   2.868  -7.818  1.00  0.00     0.163 HD
ATOM     35  O   UNL     1      10.755   1.914  -6.774  1.00  0.00    -0.269 OA
BRANCH  33  36
ATOM     36  C   UNL     1      10.254  -0.086  -7.903  1.00  0.00     0.039 A 
ATOM     37  C   UNL     1      10.642  -1.018  -6.941  1.00  0.00     0.014 A 
ATOM     38  C   UNL     1      10.066  -0.463  -9.235  1.00  0.00     0.014 A 
ATOM     39  C   UNL     1      10.770  -2.357  -7.307  1.00  0.00     0.010 A 
ATOM     40  C   UNL     1      10.102  -1.804  -9.575  1.00  0.00     0.010 A 
ATOM     41  C   UNL     1      10.460  -2.763  -8.616  1.00  0.00    -0.014 A 
BRANCH  41  42
ATOM     42  C   UNL     1      10.502  -4.187  -9.020  1.00  0.00     0.031 A 
ATOM     43  C   UNL     1      11.455  -4.623 -10.097  1.00  0.00     0.074 A 
ATOM     44  C   UNL     1       9.621  -5.055  -8.486  1.00  0.00     0.049 A 
ATOM     45  N   UNL     1      11.569  -5.792 -10.671  1.00  0.00    -0.248 NA
ATOM     46  C   UNL     1      12.377  -3.602 -10.626  1.00  0.00     0.031 C 
ATOM     47  C   UNL     1       8.614  -4.730  -7.472  1.00  0.00     0.029 A 
ATOM     48  N   UNL     1       9.422  -6.389  -8.734  1.00  0.00    -0.354 N 
ATOM     49  C   UNL     1      12.552  -5.639 -11.641  1.00  0.00     0.074 A 
ATOM     50  C   UNL     1      12.966  -4.255 -11.616  1.00  0.00     0.031 C 
ATOM     51  C   UNL     1       7.922  -5.840  -7.168  1.00  0.00     0.029 A 
ATOM     52  C   UNL     1       8.405  -6.942  -7.993  1.00  0.00     0.049 A 
ATOM     53  H   UNL     1       9.957  -6.902  -9.382  1.00  0.00     0.167 HD
ATOM     54  C   UNL     1      13.078  -6.575 -12.465  1.00  0.00     0.031 A 
ATOM     55  C   UNL     1       7.910  -8.194  -7.988  1.00  0.00     0.031 A 
ATOM     56  C   UNL     1      12.678  -7.955 -12.465  1.00  0.00     0.049 A 
ATOM     57  C   UNL     1       8.520  -9.219  -8.905  1.00  0.00     0.074 A 
ATOM     58  C   UNL     1      13.194  -9.001 -13.210  1.00  0.00     0.029 A 
ATOM     59  N   UNL     1      11.665  -8.483 -11.679  1.00  0.00    -0.354 N 
ATOM     60  N   UNL     1       9.496  -9.072  -9.769  1.00  0.00    -0.248 NA
ATOM     61  C   UNL     1       7.968 -10.578  -8.839  1.00  0.00     0.031 C 
ATOM     62  C   UNL     1      12.460 -10.153 -12.907  1.00  0.00     0.029 A 
ATOM     63  C   UNL     1      11.524  -9.835 -11.935  1.00  0.00     0.049 A 
ATOM     64  H   UNL     1      11.125  -7.971 -11.034  1.00  0.00     0.167 HD
ATOM     65  C   UNL     1       9.690 -10.326 -10.335  1.00  0.00     0.074 A 
ATOM     66  C   UNL     1       8.742 -11.222  -9.703  1.00  0.00     0.031 C 
ATOM     67  C   UNL     1      10.571 -10.705 -11.294  1.00  0.00     0.031 A 
BRANCH  54  68
ATOM     68  C   UNL     1      14.145  -6.132 -13.430  1.00  0.00    -0.014 A 
ATOM     69  C   UNL     1      15.426  -5.765 -12.978  1.00  0.00     0.010 A 
ATOM     70  C   UNL     1      13.876  -6.114 -14.810  1.00  0.00     0.010 A 
ATOM     71  C   UNL     1      16.405  -5.350 -13.884  1.00  0.00     0.020 A 
ATOM     72  C   UNL     1      14.862  -5.727 -15.723  1.00  0.00     0.020 A 
ATOM     73  C   UNL     1      16.115  -5.332 -15.251  1.00  0.00     0.054 A 
BRANCH  73  74
ATOM     74  S   UNL     1      17.415  -4.818 -16.407  1.00  0.00     0.124 S 
ATOM     75  O   UNL     1      17.460  -3.375 -16.186  1.00  0.00    -0.237 OA
ATOM     76  O   UNL     1      18.579  -5.562 -15.932  1.00  0.00    -0.237 OA
ATOM     77  O   UNL     1      16.904  -5.233 -17.711  1.00  0.00    -0.744 OA
ENDBRANCH  73  74
ENDBRANCH  54  68
BRANCH  55  78
ATOM     78  C   UNL     1       6.788  -8.549  -7.078  1.00  0.00    -0.014 A 
ATOM     79  C   UNL     1       7.008  -9.377  -5.963  1.00  0.00     0.010 A 
ATOM     80  C   UNL     1       5.494  -8.048  -7.312  1.00  0.00     0.010 A 
ATOM     81  C   UNL     1       5.952  -9.715  -5.111  1.00  0.00     0.020 A 
ATOM     82  C   UNL     1       4.441  -8.362  -6.447  1.00  0.00     0.020 A 
ATOM     83  C   UNL     1       4.675  -9.205  -5.359  1.00  0.00     0.054 A 
BRANCH  83  84
ATOM     84  S   UNL     1       3.329  -9.616  -4.213  1.00  0.00     0.124 S 
ATOM     85  O   UNL     1       3.032 -10.997  -4.577  1.00  0.00    -0.237 OA
ATOM     86  O   UNL     1       3.955  -9.424  -2.907  1.00  0.00    -0.237 OA
ATOM     87  O   UNL     1       2.290  -8.642  -4.544  1.00  0.00    -0.744 OA
ENDBRANCH  83  84
ENDBRANCH  55  78
BRANCH  67  88
ATOM     88  C   UNL     1      10.568 -12.153 -11.698  1.00  0.00    -0.014 A 
ATOM     89  C   UNL     1       9.528 -12.686 -12.481  1.00  0.00     0.010 A 
ATOM     90  C   UNL     1      11.649 -12.977 -11.336  1.00  0.00     0.010 A 
ATOM     91  C   UNL     1       9.555 -14.028 -12.868  1.00  0.00     0.020 A 
ATOM     92  C   UNL     1      11.693 -14.311 -11.745  1.00  0.00     0.020 A 
ATOM     93  C   UNL     1      10.638 -14.832 -12.497  1.00  0.00     0.054 A 
BRANCH  93  94
ATOM     94  S   UNL     1      10.671 -16.559 -13.050  1.00  0.00     0.124 S 
ATOM     95  O   UNL     1       9.681 -17.177 -12.173  1.00  0.00    -0.237 OA
ATOM     96  O   UNL     1      10.288 -16.454 -14.456  1.00  0.00    -0.237 OA
ATOM     97  O   UNL     1      12.054 -16.970 -12.816  1.00  0.00    -0.744 OA
ENDBRANCH  93  94
ENDBRANCH  67  88
ENDBRANCH  41  42
ENDBRANCH  33  36
ENDBRANCH  31  32
ENDBRANCH   1  31
TORSDOF 16
