REMARK SMILES Nn1c(S[C@@H](C(=O)NCCCCNC(=O)c2ccc(-c3c4nc(c(-c5ccc(S(=O)(=O)[O-])cc5)c5ccc([nH]5)c(-c5ccc(S(=O)(=O)[O-])cc5)c5nc(c(-c6ccc(S(=O)(=O)[O-])cc6)c6ccc3[nH]6)C=C5)C=C4)cc2)c2ccccc2)nc2ccc(Br)cc2c1=O
REMARK SMILES IDX 10 1 9 2 8 3 6 4 7 5 5 7 4 8 3 9 2 10 90 11 82 12 89 13
REMARK SMILES IDX 91 14 83 15 88 16 84 17 86 18 85 19 87 20 1 21 76 24 77 25
REMARK SMILES IDX 81 26 78 27 80 28 79 29 11 30 12 31 13 32 14 33 15 35 16 36
REMARK SMILES IDX 17 37 75 38 18 39 74 40 19 41 20 42 21 43 68 44 22 45 73 46
REMARK SMILES IDX 67 47 69 48 23 49 72 50 66 51 65 52 24 54 54 55 35 56 53 57
REMARK SMILES IDX 36 58 39 59 52 60 70 61 37 62 38 63 51 65 71 66 40 67 25 68
REMARK SMILES IDX 26 69 34 70 27 71 33 72 28 73 29 74 30 75 31 76 32 77 55 78
REMARK SMILES IDX 56 79 64 80 57 81 63 82 58 83 59 84 60 85 61 86 62 87 41 88
REMARK SMILES IDX 42 89 50 90 43 91 49 92 44 93 45 94 46 95 47 96 48 97
REMARK H PARENT 8 6 1 22 1 23 13 34 69 53 39 64
REMARK Flexibility Score: inf
ROOT
ATOM      1  C   UNL     1       4.720   2.107   2.109  1.00  0.00     0.023 C 
ENDROOT
BRANCH   1   2
ATOM      2  C   UNL     1       4.935   1.773   0.630  1.00  0.00     0.116 C 
BRANCH   2   3
ATOM      3  N   UNL     1       4.360   0.493   0.257  1.00  0.00    -0.355 N 
ATOM      4  C   UNL     1       3.236   0.168  -0.459  1.00  0.00     0.238 C 
ATOM      5  O   UNL     1       3.073  -1.048  -0.604  1.00  0.00    -0.273 OA
ATOM      6  H   UNL     1       4.872  -0.285   0.576  1.00  0.00     0.163 HD
BRANCH   4   7
ATOM      7  C   UNL     1       2.321   1.268  -1.062  1.00  0.00     0.174 C 
BRANCH   7   8
ATOM      8  S   UNL     1       1.669   2.361   0.234  1.00  0.00    -0.068 SA
BRANCH   8   9
ATOM      9  C   UNL     1       0.435   1.630   1.226  1.00  0.00     0.191 A 
ATOM     10  N   UNL     1      -0.010   0.313   1.163  1.00  0.00    -0.202 N 
ATOM     11  C   UNL     1      -1.047  -0.159   1.977  1.00  0.00     0.280 A 
ATOM     12  N   UNL     1      -0.053   2.479   2.080  1.00  0.00    -0.222 NA
ATOM     13  C   UNL     1      -1.602   0.797   2.941  1.00  0.00     0.069 A 
ATOM     14  O   UNL     1      -1.509  -1.297   1.901  1.00  0.00    -0.267 OA
ATOM     15  C   UNL     1      -1.065   2.080   2.953  1.00  0.00     0.079 A 
ATOM     16  C   UNL     1      -2.639   0.430   3.804  1.00  0.00     0.031 A 
ATOM     17  C   UNL     1      -1.573   3.012   3.862  1.00  0.00     0.030 A 
ATOM     18  C   UNL     1      -3.140   1.374   4.695  1.00  0.00     0.018 A 
ATOM     19  C   UNL     1      -2.609   2.663   4.732  1.00  0.00     0.018 A 
ATOM     20  Br  UNL     1      -4.558   0.910   5.854  1.00  0.00    -0.051 Br
BRANCH  10  21
ATOM     21  N   UNL     1       0.492  -0.623   0.253  1.00  0.00    -0.334 N 
ATOM     22  H   UNL     1       1.224  -0.373  -0.357  1.00  0.00     0.178 HD
ATOM     23  H   UNL     1       0.115  -1.532   0.223  1.00  0.00     0.178 HD
ENDBRANCH  10  21
ENDBRANCH   8   9
ENDBRANCH   7   8
BRANCH   7  24
ATOM     24  C   UNL     1       1.301   0.941  -2.168  1.00  0.00    -0.025 A 
ATOM     25  C   UNL     1       1.149  -0.331  -2.741  1.00  0.00     0.005 A 
ATOM     26  C   UNL     1       0.474   1.969  -2.675  1.00  0.00     0.005 A 
ATOM     27  C   UNL     1       0.152  -0.590  -3.690  1.00  0.00     0.000 A 
ATOM     28  C   UNL     1      -0.517   1.715  -3.627  1.00  0.00     0.000 A 
ATOM     29  C   UNL     1      -0.690   0.429  -4.122  1.00  0.00     0.000 A 
ENDBRANCH   7  24
ENDBRANCH   4   7
ENDBRANCH   2   3
ENDBRANCH   1   2
BRANCH   1  30
ATOM     30  C   UNL     1       5.239   1.066   3.104  1.00  0.00     0.023 C 
BRANCH  30  31
ATOM     31  C   UNL     1       6.697   0.660   2.940  1.00  0.00     0.116 C 
BRANCH  31  32
ATOM     32  N   UNL     1       7.625   1.774   3.046  1.00  0.00    -0.352 N 
ATOM     33  C   UNL     1       8.813   1.867   3.740  1.00  0.00     0.251 C 
ATOM     34  H   UNL     1       7.367   2.583   2.548  1.00  0.00     0.163 HD
ATOM     35  O   UNL     1       9.409   2.933   3.780  1.00  0.00    -0.269 OA
BRANCH  33  36
ATOM     36  C   UNL     1       9.339   0.689   4.472  1.00  0.00     0.039 A 
ATOM     37  C   UNL     1       9.310  -0.586   3.907  1.00  0.00     0.014 A 
ATOM     38  C   UNL     1       9.858   0.868   5.759  1.00  0.00     0.014 A 
ATOM     39  C   UNL     1       9.624  -1.694   4.688  1.00  0.00     0.010 A 
ATOM     40  C   UNL     1      10.263  -0.242   6.510  1.00  0.00     0.010 A 
ATOM     41  C   UNL     1      10.100  -1.538   6.002  1.00  0.00    -0.014 A 
BRANCH  41  42
ATOM     42  C   UNL     1      10.422  -2.751   6.802  1.00  0.00     0.031 A 
ATOM     43  C   UNL     1       9.639  -3.098   8.041  1.00  0.00     0.074 A 
ATOM     44  C   UNL     1      11.376  -3.593   6.354  1.00  0.00     0.049 A 
ATOM     45  N   UNL     1       9.711  -4.178   8.779  1.00  0.00    -0.248 NA
ATOM     46  C   UNL     1       8.652  -2.116   8.518  1.00  0.00     0.031 C 
ATOM     47  C   UNL     1      12.201  -3.366   5.166  1.00  0.00     0.029 A 
ATOM     48  N   UNL     1      11.779  -4.824   6.809  1.00  0.00    -0.354 N 
ATOM     49  C   UNL     1       8.787  -4.005   9.803  1.00  0.00     0.074 A 
ATOM     50  C   UNL     1       8.196  -2.699   9.620  1.00  0.00     0.031 C 
ATOM     51  C   UNL     1      12.947  -4.455   4.936  1.00  0.00     0.029 A 
ATOM     52  C   UNL     1      12.705  -5.432   5.994  1.00  0.00     0.049 A 
ATOM     53  H   UNL     1      11.438  -5.232   7.637  1.00  0.00     0.167 HD
ATOM     54  C   UNL     1       8.448  -4.865  10.794  1.00  0.00     0.031 A 
ATOM     55  C   UNL     1      13.293  -6.643   6.073  1.00  0.00     0.031 A 
ATOM     56  C   UNL     1       9.034  -6.170  10.969  1.00  0.00     0.049 A 
ATOM     57  C   UNL     1      12.929  -7.562   7.202  1.00  0.00     0.074 A 
ATOM     58  C   UNL     1       8.734  -7.120  11.931  1.00  0.00     0.029 A 
ATOM     59  N   UNL     1      10.032  -6.710  10.172  1.00  0.00    -0.354 N 
ATOM     60  N   UNL     1      12.036  -7.387   8.146  1.00  0.00    -0.248 NA
ATOM     61  C   UNL     1      13.649  -8.840   7.279  1.00  0.00     0.031 C 
ATOM     62  C   UNL     1       9.595  -8.206  11.755  1.00  0.00     0.029 A 
ATOM     63  C   UNL     1      10.383  -7.966  10.641  1.00  0.00     0.049 A 
ATOM     64  H   UNL     1      10.432  -6.267   9.389  1.00  0.00     0.167 HD
ATOM     65  C   UNL     1      12.090  -8.530   8.934  1.00  0.00     0.074 A 
ATOM     66  C   UNL     1      13.078  -9.405   8.336  1.00  0.00     0.031 C 
ATOM     67  C   UNL     1      11.388  -8.820  10.057  1.00  0.00     0.031 A 
BRANCH  54  68
ATOM     68  C   UNL     1       7.386  -4.438  11.777  1.00  0.00    -0.014 A 
ATOM     69  C   UNL     1       7.726  -4.217  13.124  1.00  0.00     0.010 A 
ATOM     70  C   UNL     1       6.035  -4.365  11.393  1.00  0.00     0.010 A 
ATOM     71  C   UNL     1       6.734  -3.956  14.075  1.00  0.00     0.020 A 
ATOM     72  C   UNL     1       5.042  -4.077  12.335  1.00  0.00     0.020 A 
ATOM     73  C   UNL     1       5.397  -3.895  13.675  1.00  0.00     0.054 A 
BRANCH  73  74
ATOM     74  S   UNL     1       4.121  -3.569  14.923  1.00  0.00     0.124 S 
ATOM     75  O   UNL     1       4.015  -4.857  15.600  1.00  0.00    -0.237 OA
ATOM     76  O   UNL     1       4.711  -2.488  15.709  1.00  0.00    -0.237 OA
ATOM     77  O   UNL     1       2.957  -3.182  14.127  1.00  0.00    -0.744 OA
ENDBRANCH  73  74
ENDBRANCH  54  68
BRANCH  55  78
ATOM     78  C   UNL     1      14.262  -7.043   5.016  1.00  0.00    -0.014 A 
ATOM     79  C   UNL     1      15.492  -6.371   4.887  1.00  0.00     0.010 A 
ATOM     80  C   UNL     1      13.915  -8.021   4.068  1.00  0.00     0.010 A 
ATOM     81  C   UNL     1      16.323  -6.615   3.791  1.00  0.00     0.020 A 
ATOM     82  C   UNL     1      14.759  -8.292   2.986  1.00  0.00     0.020 A 
ATOM     83  C   UNL     1      15.940  -7.561   2.837  1.00  0.00     0.054 A 
BRANCH  83  84
ATOM     84  S   UNL     1      16.995  -7.805   1.381  1.00  0.00     0.124 S 
ATOM     85  O   UNL     1      16.669  -6.630   0.577  1.00  0.00    -0.237 OA
ATOM     86  O   UNL     1      18.337  -7.821   1.957  1.00  0.00    -0.237 OA
ATOM     87  O   UNL     1      16.538  -9.081   0.838  1.00  0.00    -0.744 OA
ENDBRANCH  83  84
ENDBRANCH  55  78
BRANCH  67  88
ATOM     88  C   UNL     1      11.678 -10.127  10.750  1.00  0.00    -0.014 A 
ATOM     89  C   UNL     1      10.700 -11.138  10.785  1.00  0.00     0.010 A 
ATOM     90  C   UNL     1      12.879 -10.311  11.458  1.00  0.00     0.010 A 
ATOM     91  C   UNL     1      10.905 -12.296  11.539  1.00  0.00     0.020 A 
ATOM     92  C   UNL     1      13.100 -11.482  12.189  1.00  0.00     0.020 A 
ATOM     93  C   UNL     1      12.101 -12.457  12.243  1.00  0.00     0.054 A 
BRANCH  93  94
ATOM     94  S   UNL     1      12.345 -13.961  13.227  1.00  0.00     0.124 S 
ATOM     95  O   UNL     1      11.541 -13.685  14.415  1.00  0.00    -0.237 OA
ATOM     96  O   UNL     1      11.831 -15.009  12.348  1.00  0.00    -0.237 OA
ATOM     97  O   UNL     1      13.790 -13.996  13.445  1.00  0.00    -0.744 OA
ENDBRANCH  93  94
ENDBRANCH  67  88
ENDBRANCH  41  42
ENDBRANCH  33  36
ENDBRANCH  31  32
ENDBRANCH  30  31
ENDBRANCH   1  30
TORSDOF 18
