REMARK SMILES CC1(C)[C@]2(C(=O)NCCCCNC(=O)c3ccc(-c4c5nc(c(-c6ccc(S(=O)(=O)[O-])cc6)c6ccc([nH]6)c(-c6ccc(S(=O)(=O)[O-])cc6)c6nc(c(-c7ccc(S(=O)(=O)[O-])cc7)c7ccc4[nH]7)C=C6)C=C5)cc3)CC[C@@]1(C)C(=O)C2
REMARK SMILES IDX 11 1 10 2 9 3 8 4 7 5 5 6 6 7 4 9 1 10 2 11 77 12 3 13 75 14
REMARK SMILES IDX 81 15 76 16 79 17 78 18 80 19 12 20 13 21 14 23 15 24 16 25
REMARK SMILES IDX 74 26 17 27 73 28 18 29 19 30 20 31 67 32 21 33 72 34 66 35
REMARK SMILES IDX 68 36 22 37 71 38 65 39 64 40 23 42 53 43 34 44 52 45 35 46
REMARK SMILES IDX 38 47 51 48 69 49 36 50 37 51 50 53 70 54 39 55 24 56 25 57
REMARK SMILES IDX 33 58 26 59 32 60 27 61 28 62 29 63 30 64 31 65 54 66 55 67
REMARK SMILES IDX 63 68 56 69 62 70 57 71 58 72 59 73 60 74 61 75 40 76 41 77
REMARK SMILES IDX 49 78 42 79 48 80 43 81 44 82 45 83 46 84 47 85
REMARK H PARENT 7 8 12 22 68 41 38 52
REMARK Flexibility Score: inf
ROOT
ATOM      1  C   UNL     1      -0.788   7.486   1.185  1.00  0.00     0.116 C 
ENDROOT
BRANCH   1   2
ATOM      2  C   UNL     1      -0.432   6.793   2.497  1.00  0.00     0.023 C 
BRANCH   2   3
ATOM      3  C   UNL     1      -1.140   5.464   2.755  1.00  0.00     0.023 C 
BRANCH   3   4
ATOM      4  C   UNL     1      -1.002   4.434   1.641  1.00  0.00     0.116 C 
BRANCH   4   5
ATOM      5  N   UNL     1       0.333   3.879   1.554  1.00  0.00    -0.356 N 
ATOM      6  C   UNL     1       0.828   2.616   1.576  1.00  0.00     0.227 C 
ATOM      7  O   UNL     1       2.039   2.525   1.355  1.00  0.00    -0.274 OA
ATOM      8  H   UNL     1       1.032   4.566   1.460  1.00  0.00     0.163 HD
BRANCH   6   9
ATOM      9  C   UNL     1       0.008   1.380   1.954  1.00  0.00     0.062 C 
ATOM     10  C   UNL     1       0.541  -0.044  -0.182  1.00  0.00     0.013 C 
ATOM     11  C   UNL     1       0.580   0.025   1.361  1.00  0.00    -0.008 C 
ATOM     12  C   UNL     1      -0.497  -0.834   2.082  1.00  0.00     0.032 C 
ATOM     13  C   UNL     1       2.012  -0.390   1.778  1.00  0.00     0.013 C 
ATOM     14  C   UNL     1       0.037   1.090   3.478  1.00  0.00     0.019 C 
ATOM     15  C   UNL     1      -1.482   1.348   1.516  1.00  0.00     0.093 C 
ATOM     16  C   UNL     1      -0.375  -0.401   3.566  1.00  0.00     0.016 C 
ATOM     17  C   UNL     1      -1.751  -0.130   1.599  1.00  0.00     0.140 C 
ATOM     18  C   UNL     1      -0.517  -2.326   1.846  1.00  0.00     0.020 C 
ATOM     19  O   UNL     1      -2.830  -0.652   1.367  1.00  0.00    -0.299 OA
ENDBRANCH   6   9
ENDBRANCH   4   5
ENDBRANCH   3   4
ENDBRANCH   2   3
ENDBRANCH   1   2
BRANCH   1  20
ATOM     20  N   UNL     1      -2.218   7.697   1.005  1.00  0.00    -0.352 N 
ATOM     21  C   UNL     1      -2.860   8.797   0.481  1.00  0.00     0.251 C 
ATOM     22  H   UNL     1      -2.800   6.957   1.294  1.00  0.00     0.163 HD
ATOM     23  O   UNL     1      -4.081   8.861   0.474  1.00  0.00    -0.269 OA
BRANCH  21  24
ATOM     24  C   UNL     1      -2.045   9.916  -0.034  1.00  0.00     0.039 A 
ATOM     25  C   UNL     1      -2.273  11.204   0.457  1.00  0.00     0.014 A 
ATOM     26  C   UNL     1      -1.016   9.674  -0.947  1.00  0.00     0.014 A 
ATOM     27  C   UNL     1      -1.414  12.242   0.090  1.00  0.00     0.010 A 
ATOM     28  C   UNL     1      -0.123  10.694  -1.258  1.00  0.00     0.010 A 
ATOM     29  C   UNL     1      -0.310  11.985  -0.738  1.00  0.00    -0.014 A 
BRANCH  29  30
ATOM     30  C   UNL     1       0.667  13.045  -1.092  1.00  0.00     0.031 A 
ATOM     31  C   UNL     1       0.819  13.460  -2.529  1.00  0.00     0.074 A 
ATOM     32  C   UNL     1       1.481  13.556  -0.147  1.00  0.00     0.049 A 
ATOM     33  N   UNL     1       1.715  14.242  -3.072  1.00  0.00    -0.248 NA
ATOM     34  C   UNL     1      -0.146  12.892  -3.486  1.00  0.00     0.031 C 
ATOM     35  C   UNL     1       1.455  13.213   1.277  1.00  0.00     0.029 A 
ATOM     36  N   UNL     1       2.507  14.463  -0.249  1.00  0.00    -0.354 N 
ATOM     37  C   UNL     1       1.445  14.231  -4.436  1.00  0.00     0.074 A 
ATOM     38  C   UNL     1       0.326  13.338  -4.641  1.00  0.00     0.031 C 
ATOM     39  C   UNL     1       2.410  13.909   1.915  1.00  0.00     0.029 A 
ATOM     40  C   UNL     1       3.143  14.715   0.944  1.00  0.00     0.049 A 
ATOM     41  H   UNL     1       2.763  14.894  -1.097  1.00  0.00     0.167 HD
ATOM     42  C   UNL     1       2.066  14.914  -5.427  1.00  0.00     0.031 A 
ATOM     43  C   UNL     1       4.207  15.495   1.222  1.00  0.00     0.031 A 
ATOM     44  C   UNL     1       3.158  15.823  -5.215  1.00  0.00     0.049 A 
ATOM     45  C   UNL     1       4.867  16.261   0.107  1.00  0.00     0.074 A 
ATOM     46  C   UNL     1       3.823  16.601  -6.146  1.00  0.00     0.029 A 
ATOM     47  N   UNL     1       3.737  16.087  -3.983  1.00  0.00    -0.354 N 
ATOM     48  N   UNL     1       4.573  16.267  -1.171  1.00  0.00    -0.248 NA
ATOM     49  C   UNL     1       5.992  17.132   0.473  1.00  0.00     0.031 C 
ATOM     50  C   UNL     1       4.825  17.314  -5.481  1.00  0.00     0.029 A 
ATOM     51  C   UNL     1       4.754  17.014  -4.130  1.00  0.00     0.049 A 
ATOM     52  H   UNL     1       3.466  15.676  -3.131  1.00  0.00     0.167 HD
ATOM     53  C   UNL     1       5.454  17.170  -1.756  1.00  0.00     0.074 A 
ATOM     54  C   UNL     1       6.290  17.690  -0.694  1.00  0.00     0.031 C 
ATOM     55  C   UNL     1       5.558  17.538  -3.056  1.00  0.00     0.031 A 
BRANCH  42  56
ATOM     56  C   UNL     1       1.574  14.695  -6.832  1.00  0.00    -0.014 A 
ATOM     57  C   UNL     1       0.329  15.197  -7.250  1.00  0.00     0.010 A 
ATOM     58  C   UNL     1       2.379  14.001  -7.753  1.00  0.00     0.010 A 
ATOM     59  C   UNL     1      -0.123  14.969  -8.552  1.00  0.00     0.020 A 
ATOM     60  C   UNL     1       1.942  13.795  -9.065  1.00  0.00     0.020 A 
ATOM     61  C   UNL     1       0.684  14.264  -9.449  1.00  0.00     0.054 A 
BRANCH  61  62
ATOM     62  S   UNL     1       0.079  13.993 -11.138  1.00  0.00     0.124 S 
ATOM     63  O   UNL     1      -0.903  12.930 -10.937  1.00  0.00    -0.237 OA
ATOM     64  O   UNL     1      -0.472  15.297 -11.496  1.00  0.00    -0.237 OA
ATOM     65  O   UNL     1       1.278  13.603 -11.876  1.00  0.00    -0.744 OA
ENDBRANCH  61  62
ENDBRANCH  42  56
BRANCH  43  66
ATOM     66  C   UNL     1       4.704  15.605   2.620  1.00  0.00    -0.014 A 
ATOM     67  C   UNL     1       4.491  16.783   3.358  1.00  0.00     0.010 A 
ATOM     68  C   UNL     1       5.383  14.532   3.225  1.00  0.00     0.010 A 
ATOM     69  C   UNL     1       4.965  16.895   4.668  1.00  0.00     0.020 A 
ATOM     70  C   UNL     1       5.837  14.631   4.544  1.00  0.00     0.020 A 
ATOM     71  C   UNL     1       5.636  15.817   5.253  1.00  0.00     0.054 A 
BRANCH  71  72
ATOM     72  S   UNL     1       6.199  15.964   6.972  1.00  0.00     0.124 S 
ATOM     73  O   UNL     1       7.382  16.808   6.831  1.00  0.00    -0.237 OA
ATOM     74  O   UNL     1       5.053  16.585   7.630  1.00  0.00    -0.237 OA
ATOM     75  O   UNL     1       6.458  14.581   7.364  1.00  0.00    -0.744 OA
ENDBRANCH  71  72
ENDBRANCH  43  66
BRANCH  55  76
ATOM     76  C   UNL     1       6.566  18.596  -3.405  1.00  0.00    -0.014 A 
ATOM     77  C   UNL     1       7.938  18.301  -3.483  1.00  0.00     0.010 A 
ATOM     78  C   UNL     1       6.117  19.884  -3.754  1.00  0.00     0.010 A 
ATOM     79  C   UNL     1       8.846  19.280  -3.894  1.00  0.00     0.020 A 
ATOM     80  C   UNL     1       7.019  20.858  -4.186  1.00  0.00     0.020 A 
ATOM     81  C   UNL     1       8.380  20.552  -4.247  1.00  0.00     0.054 A 
BRANCH  81  82
ATOM     82  S   UNL     1       9.567  21.782  -4.853  1.00  0.00     0.124 S 
ATOM     83  O   UNL     1      10.224  22.204  -3.619  1.00  0.00    -0.237 OA
ATOM     84  O   UNL     1      10.395  21.005  -5.772  1.00  0.00    -0.237 OA
ATOM     85  O   UNL     1       8.723  22.793  -5.488  1.00  0.00    -0.744 OA
ENDBRANCH  81  82
ENDBRANCH  55  76
ENDBRANCH  29  30
ENDBRANCH  21  24
ENDBRANCH   1  20
TORSDOF 14
