REMARK SMILES CC(C)c1nc(N(C)CCc2ccccn2)sc1C(=O)NCCCCNC(=O)c1ccc(-c2c3nc(c(-c4ccc(S(=O)(=O)[O-])cc4)c4ccc([nH]4)c(-c4ccc(S(=O)(=O)[O-])cc4)c4nc(c(-c5ccc(S(=O)(=O)[O-])cc5)c5ccc2[nH]5)C=C4)C=C3)cc1
REMARK SMILES IDX 23 1 22 2 21 3 19 4 20 5 18 7 4 8 5 9 6 10 17 11 2 12 1 13
REMARK SMILES IDX 3 14 7 15 8 16 9 17 10 18 11 19 12 20 16 21 13 22 15 23
REMARK SMILES IDX 14 24 24 25 25 26 26 27 27 28 28 30 29 31 30 32 88 33 31 34
REMARK SMILES IDX 87 35 32 36 33 37 34 38 81 39 35 40 86 41 80 42 82 43 36 44
REMARK SMILES IDX 85 45 79 46 78 47 37 49 67 50 48 51 66 52 49 53 52 54 65 55
REMARK SMILES IDX 83 56 50 57 51 58 64 60 84 61 53 62 38 63 39 64 47 65 40 66
REMARK SMILES IDX 46 67 41 68 42 69 43 70 44 71 45 72 68 73 69 74 77 75 70 76
REMARK SMILES IDX 76 77 71 78 72 79 73 80 74 81 75 82 54 83 55 84 63 85 56 86
REMARK SMILES IDX 62 87 57 88 58 89 59 90 60 91 61 92
REMARK H PARENT 21 6 26 29 82 48 52 59
REMARK Flexibility Score: inf
ROOT
ATOM      1  C   UNL     1       1.747   3.242  -0.177  1.00  0.00     0.023 C 
ENDROOT
BRANCH   1   2
ATOM      2  C   UNL     1       0.893   3.271   1.092  1.00  0.00     0.116 C 
BRANCH   2   3
ATOM      3  N   UNL     1      -0.509   3.418   0.808  1.00  0.00    -0.351 N 
ATOM      4  C   UNL     1      -1.675   2.768   1.084  1.00  0.00     0.263 C 
ATOM      5  O   UNL     1      -2.635   3.538   0.909  1.00  0.00    -0.268 OA
ATOM      6  H   UNL     1      -0.674   4.218   0.258  1.00  0.00     0.163 HD
BRANCH   4   7
ATOM      7  C   UNL     1      -1.875   1.370   1.459  1.00  0.00     0.117 A 
ATOM      8  C   UNL     1      -1.181   0.219   1.836  1.00  0.00     0.069 A 
ATOM      9  N   UNL     1      -1.990  -0.913   1.995  1.00  0.00    -0.224 NA
ATOM     10  C   UNL     1      -3.254  -0.704   1.741  1.00  0.00     0.186 A 
ATOM     11  S   UNL     1      -3.578   0.933   1.406  1.00  0.00    -0.091 S 
BRANCH   8  12
ATOM     12  C   UNL     1       0.267  -0.108   2.105  1.00  0.00     0.034 C 
ATOM     13  C   UNL     1       1.165   0.015   0.879  1.00  0.00     0.014 C 
ATOM     14  C   UNL     1       0.802   0.521   3.390  1.00  0.00     0.014 C 
ENDBRANCH   8  12
BRANCH  10  15
ATOM     15  N   UNL     1      -4.191  -1.696   1.736  1.00  0.00    -0.351 N 
ATOM     16  C   UNL     1      -5.606  -1.465   1.502  1.00  0.00     0.146 C 
BRANCH  15  17
ATOM     17  C   UNL     1      -3.747  -3.091   1.869  1.00  0.00     0.125 C 
BRANCH  17  18
ATOM     18  C   UNL     1      -3.522  -3.770   0.512  1.00  0.00     0.077 C 
BRANCH  18  19
ATOM     19  C   UNL     1      -2.146  -3.538  -0.055  1.00  0.00     0.042 A 
ATOM     20  C   UNL     1      -1.906  -2.483  -0.933  1.00  0.00     0.024 A 
ATOM     21  N   UNL     1      -1.173  -4.399   0.334  1.00  0.00    -0.261 NA
ATOM     22  C   UNL     1      -0.617  -2.292  -1.418  1.00  0.00     0.003 A 
ATOM     23  C   UNL     1       0.072  -4.181  -0.145  1.00  0.00     0.111 A 
ATOM     24  C   UNL     1       0.395  -3.156  -1.018  1.00  0.00     0.020 A 
ENDBRANCH  18  19
ENDBRANCH  17  18
ENDBRANCH  15  17
ENDBRANCH  10  15
ENDBRANCH   4   7
ENDBRANCH   2   3
ENDBRANCH   1   2
BRANCH   1  25
ATOM     25  C   UNL     1       3.074   3.985  -0.041  1.00  0.00     0.023 C 
BRANCH  25  26
ATOM     26  C   UNL     1       3.862   3.736   1.238  1.00  0.00     0.116 C 
BRANCH  26  27
ATOM     27  N   UNL     1       4.612   2.490   1.258  1.00  0.00    -0.352 N 
ATOM     28  C   UNL     1       5.956   2.307   1.518  1.00  0.00     0.251 C 
ATOM     29  H   UNL     1       4.097   1.675   1.061  1.00  0.00     0.163 HD
ATOM     30  O   UNL     1       6.455   1.187   1.465  1.00  0.00    -0.269 OA
BRANCH  28  31
ATOM     31  C   UNL     1       6.802   3.492   1.791  1.00  0.00     0.039 A 
ATOM     32  C   UNL     1       7.915   3.724   0.982  1.00  0.00     0.014 A 
ATOM     33  C   UNL     1       6.411   4.439   2.741  1.00  0.00     0.014 A 
ATOM     34  C   UNL     1       8.557   4.965   1.035  1.00  0.00     0.010 A 
ATOM     35  C   UNL     1       6.984   5.707   2.714  1.00  0.00     0.010 A 
ATOM     36  C   UNL     1       8.050   5.994   1.846  1.00  0.00    -0.014 A 
BRANCH  36  37
ATOM     37  C   UNL     1       8.586   7.382   1.772  1.00  0.00     0.031 A 
ATOM     38  C   UNL     1       9.135   8.050   3.006  1.00  0.00     0.074 A 
ATOM     39  C   UNL     1       8.495   8.080   0.620  1.00  0.00     0.049 A 
ATOM     40  N   UNL     1       9.548   9.282   3.162  1.00  0.00    -0.248 NA
ATOM     41  C   UNL     1       9.188   7.240   4.234  1.00  0.00     0.031 C 
ATOM     42  C   UNL     1       7.922   7.585  -0.635  1.00  0.00     0.029 A 
ATOM     43  N   UNL     1       8.880   9.365   0.318  1.00  0.00    -0.354 N 
ATOM     44  C   UNL     1       9.871   9.404   4.508  1.00  0.00     0.074 A 
ATOM     45  C   UNL     1       9.560   8.137   5.133  1.00  0.00     0.031 C 
ATOM     46  C   UNL     1       8.030   8.537  -1.577  1.00  0.00     0.029 A 
ATOM     47  C   UNL     1       8.640   9.724  -0.989  1.00  0.00     0.049 A 
ATOM     48  H   UNL     1       9.289   9.972   0.976  1.00  0.00     0.167 HD
ATOM     49  C   UNL     1      10.402  10.463   5.165  1.00  0.00     0.031 A 
ATOM     50  C   UNL     1       8.883  10.876  -1.643  1.00  0.00     0.031 A 
ATOM     51  C   UNL     1      10.757  11.708   4.539  1.00  0.00     0.049 A 
ATOM     52  C   UNL     1       9.522  12.021  -0.908  1.00  0.00     0.074 A 
ATOM     53  C   UNL     1      11.371  12.811   5.105  1.00  0.00     0.029 A 
ATOM     54  N   UNL     1      10.541  12.010   3.204  1.00  0.00    -0.354 N 
ATOM     55  N   UNL     1       9.877  12.092   0.353  1.00  0.00    -0.248 NA
ATOM     56  C   UNL     1       9.801  13.237  -1.685  1.00  0.00     0.031 C 
ATOM     57  C   UNL     1      11.502  13.793   4.117  1.00  0.00     0.029 A 
ATOM     58  C   UNL     1      11.003  13.285   2.928  1.00  0.00     0.049 A 
ATOM     59  H   UNL     1      10.122  11.407   2.548  1.00  0.00     0.167 HD
ATOM     60  C   UNL     1      10.440  13.352   0.515  1.00  0.00     0.074 A 
ATOM     61  C   UNL     1      10.392  14.004  -0.778  1.00  0.00     0.031 C 
ATOM     62  C   UNL     1      10.951  13.919   1.635  1.00  0.00     0.031 A 
BRANCH  49  63
ATOM     63  C   UNL     1      10.638  10.308   6.643  1.00  0.00    -0.014 A 
ATOM     64  C   UNL     1      11.654   9.465   7.128  1.00  0.00     0.010 A 
ATOM     65  C   UNL     1       9.840  11.017   7.558  1.00  0.00     0.010 A 
ATOM     66  C   UNL     1      11.832   9.290   8.502  1.00  0.00     0.020 A 
ATOM     67  C   UNL     1      10.033  10.866   8.935  1.00  0.00     0.020 A 
ATOM     68  C   UNL     1      11.013   9.985   9.397  1.00  0.00     0.054 A 
BRANCH  68  69
ATOM     69  S   UNL     1      11.262   9.739  11.177  1.00  0.00     0.124 S 
ATOM     70  O   UNL     1      10.621   8.444  11.392  1.00  0.00    -0.237 OA
ATOM     71  O   UNL     1      12.717   9.748  11.304  1.00  0.00    -0.237 OA
ATOM     72  O   UNL     1      10.580  10.881  11.781  1.00  0.00    -0.744 OA
ENDBRANCH  68  69
ENDBRANCH  49  63
BRANCH  50  73
ATOM     73  C   UNL     1       8.551  10.995  -3.089  1.00  0.00    -0.014 A 
ATOM     74  C   UNL     1       9.575  10.977  -4.054  1.00  0.00     0.010 A 
ATOM     75  C   UNL     1       7.215  11.114  -3.511  1.00  0.00     0.010 A 
ATOM     76  C   UNL     1       9.270  11.090  -5.413  1.00  0.00     0.020 A 
ATOM     77  C   UNL     1       6.905  11.204  -4.872  1.00  0.00     0.020 A 
ATOM     78  C   UNL     1       7.936  11.202  -5.814  1.00  0.00     0.054 A 
BRANCH  78  79
ATOM     79  S   UNL     1       7.557  11.287  -7.587  1.00  0.00     0.124 S 
ATOM     80  O   UNL     1       7.893  12.671  -7.903  1.00  0.00    -0.237 OA
ATOM     81  O   UNL     1       8.446  10.274  -8.152  1.00  0.00    -0.237 OA
ATOM     82  O   UNL     1       6.135  10.957  -7.646  1.00  0.00    -0.744 OA
ENDBRANCH  78  79
ENDBRANCH  50  73
BRANCH  62  83
ATOM     83  C   UNL     1      11.527  15.302   1.511  1.00  0.00    -0.014 A 
ATOM     84  C   UNL     1      10.691  16.427   1.404  1.00  0.00     0.010 A 
ATOM     85  C   UNL     1      12.921  15.481   1.561  1.00  0.00     0.010 A 
ATOM     86  C   UNL     1      11.242  17.709   1.325  1.00  0.00     0.020 A 
ATOM     87  C   UNL     1      13.474  16.762   1.505  1.00  0.00     0.020 A 
ATOM     88  C   UNL     1      12.631  17.868   1.375  1.00  0.00     0.054 A 
BRANCH  88  89
ATOM     89  S   UNL     1      13.323  19.544   1.324  1.00  0.00     0.124 S 
ATOM     90  O   UNL     1      13.213  19.874  -0.094  1.00  0.00    -0.237 OA
ATOM     91  O   UNL     1      12.434  20.288   2.213  1.00  0.00    -0.237 OA
ATOM     92  O   UNL     1      14.686  19.369   1.821  1.00  0.00    -0.744 OA
ENDBRANCH  88  89
ENDBRANCH  62  83
ENDBRANCH  36  37
ENDBRANCH  28  31
ENDBRANCH  26  27
ENDBRANCH  25  26
ENDBRANCH   1  25
TORSDOF 19
