REMARK SMILES O=C(CC[C@@]1(c2ccccc2)NC(=O)N(CC(=O)Nc2cccc(F)c2)C1=O)NCCCCNC(=O)c1ccc(-c2c3nc(c(-c4ccc(S(=O)(=O)[O-])cc4)c4ccc([nH]4)c(-c4ccc(S(=O)(=O)[O-])cc4)c4nc(c(-c5ccc(S(=O)(=O)[O-])cc5)c5ccc2[nH]5)C=C4)C=C3)cc1
REMARK SMILES IDX 30 1 29 2 1 3 2 4 3 6 4 7 5 8 12 9 27 10 13 11 15 13 28 14
REMARK SMILES IDX 14 15 6 16 7 17 11 18 8 19 10 20 9 21 16 22 17 23 18 24
REMARK SMILES IDX 19 25 20 27 21 28 26 29 22 30 24 31 23 32 25 33 31 34 32 35
REMARK SMILES IDX 33 36 34 37 35 38 36 40 37 41 38 42 96 43 39 44 95 45 40 46
REMARK SMILES IDX 41 47 42 48 89 49 43 50 94 51 88 52 90 53 44 54 93 55 87 56
REMARK SMILES IDX 86 57 45 59 75 60 56 61 74 62 57 63 60 64 73 65 91 66 58 67
REMARK SMILES IDX 59 68 72 70 92 71 61 72 46 73 47 74 55 75 48 76 54 77 49 78
REMARK SMILES IDX 50 79 51 80 52 81 53 82 76 83 77 84 85 85 78 86 84 87 79 88
REMARK SMILES IDX 80 89 81 90 82 91 83 92 62 93 63 94 71 95 64 96 70 97 65 98
REMARK SMILES IDX 66 99 67 100 68 101 69 102
REMARK H PARENT 29 5 12 12 19 26 34 39 90 58 60 69
REMARK Flexibility Score: inf
ROOT
ATOM      1  C   UNL     1       7.399  -3.267   1.410  1.00  0.00     0.116 C 
ENDROOT
BRANCH   1   2
ATOM      2  N   UNL     1       6.438  -2.377   0.624  1.00  0.00    -0.356 N 
ATOM      3  O   UNL     1       7.357  -0.951  -0.998  1.00  0.00    -0.275 OA
ATOM      4  C   UNL     1       6.416  -1.426  -0.378  1.00  0.00     0.220 C 
ATOM      5  H   UNL     1       5.519  -2.535   0.940  1.00  0.00     0.163 HD
BRANCH   4   6
ATOM      6  C   UNL     1       5.102  -0.761  -0.735  1.00  0.00     0.103 C 
BRANCH   6   7
ATOM      7  C   UNL     1       4.141  -0.465   0.401  1.00  0.00     0.053 C 
BRANCH   7   8
ATOM      8  C   UNL     1       4.749   0.269   1.641  1.00  0.00     0.147 C 
ATOM      9  N   UNL     1       5.329  -0.710   2.526  1.00  0.00    -0.319 N 
ATOM     10  C   UNL     1       6.096   0.997   1.259  1.00  0.00     0.261 C 
ATOM     11  C   UNL     1       6.689  -0.582   2.624  1.00  0.00     0.325 C 
ATOM     12  H   UNL     1       4.807  -1.393   3.005  1.00  0.00     0.166 HD
ATOM     13  N   UNL     1       7.157   0.169   1.603  1.00  0.00    -0.252 N 
ATOM     14  O   UNL     1       6.170   2.050   0.642  1.00  0.00    -0.271 OA
ATOM     15  O   UNL     1       7.281  -1.129   3.554  1.00  0.00    -0.248 OA
BRANCH   8  16
ATOM     16  C   UNL     1       3.671   1.051   2.412  1.00  0.00    -0.013 A 
ATOM     17  C   UNL     1       3.470   0.862   3.801  1.00  0.00     0.007 A 
ATOM     18  C   UNL     1       2.752   1.887   1.754  1.00  0.00     0.007 A 
ATOM     19  C   UNL     1       2.392   1.435   4.481  1.00  0.00     0.000 A 
ATOM     20  C   UNL     1       1.667   2.460   2.436  1.00  0.00     0.000 A 
ATOM     21  C   UNL     1       1.486   2.231   3.796  1.00  0.00     0.000 A 
ENDBRANCH   8  16
BRANCH  13  22
ATOM     22  C   UNL     1       8.573   0.222   1.053  1.00  0.00     0.230 C 
BRANCH  22  23
ATOM     23  C   UNL     1       9.589  -0.383  -0.195  1.00  0.00     0.244 C 
ATOM     24  O   UNL     1      10.550   0.408  -0.410  1.00  0.00    -0.273 OA
ATOM     25  N   UNL     1       9.875  -1.570  -0.868  1.00  0.00    -0.324 N 
ATOM     26  H   UNL     1      10.747  -1.444  -1.307  1.00  0.00     0.170 HD
BRANCH  25  27
ATOM     27  C   UNL     1       9.433  -2.913  -1.196  1.00  0.00     0.044 A 
ATOM     28  C   UNL     1      10.359  -3.950  -0.950  1.00  0.00     0.026 A 
ATOM     29  C   UNL     1       8.222  -3.333  -1.756  1.00  0.00     0.065 A 
ATOM     30  C   UNL     1       9.998  -5.315  -1.012  1.00  0.00     0.005 A 
ATOM     31  C   UNL     1       7.846  -4.686  -1.790  1.00  0.00     0.125 A 
ATOM     32  C   UNL     1       8.711  -5.683  -1.382  1.00  0.00     0.039 A 
ATOM     33  F   UNL     1       6.604  -5.018  -2.178  1.00  0.00    -0.207 F 
ENDBRANCH  25  27
ENDBRANCH  22  23
ENDBRANCH  13  22
ENDBRANCH   7   8
ENDBRANCH   6   7
ENDBRANCH   4   6
ENDBRANCH   1   2
BRANCH   1  34
ATOM     34  C   UNL     1       8.917  -3.114   1.775  1.00  0.00     0.023 C 
BRANCH  34  35
ATOM     35  C   UNL     1       9.555  -2.574   3.062  1.00  0.00     0.023 C 
BRANCH  35  36
ATOM     36  C   UNL     1       9.095  -3.207   4.346  1.00  0.00     0.116 C 
BRANCH  36  37
ATOM     37  N   UNL     1       9.828  -4.413   4.690  1.00  0.00    -0.352 N 
ATOM     38  C   UNL     1      10.074  -4.870   5.973  1.00  0.00     0.251 C 
ATOM     39  H   UNL     1      10.180  -4.953   3.946  1.00  0.00     0.163 HD
ATOM     40  O   UNL     1      10.800  -5.823   6.178  1.00  0.00    -0.269 OA
BRANCH  38  41
ATOM     41  C   UNL     1       9.453  -4.120   7.093  1.00  0.00     0.039 A 
ATOM     42  C   UNL     1      10.255  -3.654   8.135  1.00  0.00     0.014 A 
ATOM     43  C   UNL     1       8.096  -3.787   7.038  1.00  0.00     0.014 A 
ATOM     44  C   UNL     1       9.695  -2.822   9.107  1.00  0.00     0.010 A 
ATOM     45  C   UNL     1       7.573  -2.869   7.937  1.00  0.00     0.010 A 
ATOM     46  C   UNL     1       8.354  -2.413   9.006  1.00  0.00    -0.014 A 
BRANCH  46  47
ATOM     47  C   UNL     1       7.717  -1.600  10.068  1.00  0.00     0.031 A 
ATOM     48  C   UNL     1       6.608  -2.210  10.886  1.00  0.00     0.074 A 
ATOM     49  C   UNL     1       8.108  -0.329  10.283  1.00  0.00     0.049 A 
ATOM     50  N   UNL     1       5.927  -1.689  11.873  1.00  0.00    -0.248 NA
ATOM     51  C   UNL     1       6.187  -3.577  10.528  1.00  0.00     0.031 C 
ATOM     52  C   UNL     1       9.134   0.386   9.520  1.00  0.00     0.029 A 
ATOM     53  N   UNL     1       7.694   0.585  11.219  1.00  0.00    -0.354 N 
ATOM     54  C   UNL     1       4.995  -2.655  12.237  1.00  0.00     0.074 A 
ATOM     55  C   UNL     1       5.146  -3.762  11.324  1.00  0.00     0.031 C 
ATOM     56  C   UNL     1       9.300   1.610  10.048  1.00  0.00     0.029 A 
ATOM     57  C   UNL     1       8.377   1.777  11.167  1.00  0.00     0.049 A 
ATOM     58  H   UNL     1       6.974   0.404  11.866  1.00  0.00     0.167 HD
ATOM     59  C   UNL     1       4.114  -2.639  13.263  1.00  0.00     0.031 A 
ATOM     60  C   UNL     1       8.277   2.872  11.945  1.00  0.00     0.031 A 
ATOM     61  C   UNL     1       3.991  -1.548  14.188  1.00  0.00     0.049 A 
ATOM     62  C   UNL     1       7.298   2.863  13.091  1.00  0.00     0.074 A 
ATOM     63  C   UNL     1       3.179  -1.452  15.303  1.00  0.00     0.029 A 
ATOM     64  N   UNL     1       4.707  -0.363  14.106  1.00  0.00    -0.354 N 
ATOM     65  N   UNL     1       6.481   1.909  13.469  1.00  0.00    -0.248 NA
ATOM     66  C   UNL     1       7.241   4.072  13.923  1.00  0.00     0.031 C 
ATOM     67  C   UNL     1       3.368  -0.187  15.867  1.00  0.00     0.029 A 
ATOM     68  C   UNL     1       4.338   0.482  15.136  1.00  0.00     0.049 A 
ATOM     69  H   UNL     1       5.378  -0.154  13.416  1.00  0.00     0.167 HD
ATOM     70  C   UNL     1       5.832   2.392  14.601  1.00  0.00     0.074 A 
ATOM     71  C   UNL     1       6.364   3.716  14.852  1.00  0.00     0.031 C 
ATOM     72  C   UNL     1       4.884   1.795  15.365  1.00  0.00     0.031 A 
BRANCH  59  73
ATOM     73  C   UNL     1       3.223  -3.840  13.430  1.00  0.00    -0.014 A 
ATOM     74  C   UNL     1       3.743  -5.083  13.837  1.00  0.00     0.010 A 
ATOM     75  C   UNL     1       1.842  -3.722  13.191  1.00  0.00     0.010 A 
ATOM     76  C   UNL     1       2.908  -6.196  13.955  1.00  0.00     0.020 A 
ATOM     77  C   UNL     1       0.998  -4.826  13.337  1.00  0.00     0.020 A 
ATOM     78  C   UNL     1       1.540  -6.061  13.701  1.00  0.00     0.054 A 
BRANCH  78  79
ATOM     79  S   UNL     1       0.474  -7.518  13.878  1.00  0.00     0.124 S 
ATOM     80  O   UNL     1       0.830  -8.296  12.694  1.00  0.00    -0.237 OA
ATOM     81  O   UNL     1       0.911  -8.081  15.154  1.00  0.00    -0.237 OA
ATOM     82  O   UNL     1      -0.876  -6.962  13.875  1.00  0.00    -0.744 OA
ENDBRANCH  78  79
ENDBRANCH  59  73
BRANCH  60  83
ATOM     83  C   UNL     1       9.153   4.050  11.696  1.00  0.00    -0.014 A 
ATOM     84  C   UNL     1      10.189   4.372  12.592  1.00  0.00     0.010 A 
ATOM     85  C   UNL     1       8.963   4.854  10.557  1.00  0.00     0.010 A 
ATOM     86  C   UNL     1      11.004   5.485  12.365  1.00  0.00     0.020 A 
ATOM     87  C   UNL     1       9.793   5.953  10.313  1.00  0.00     0.020 A 
ATOM     88  C   UNL     1      10.801   6.269  11.226  1.00  0.00     0.054 A 
BRANCH  88  89
ATOM     89  S   UNL     1      11.899   7.684  10.930  1.00  0.00     0.124 S 
ATOM     90  O   UNL     1      11.429   8.646  11.922  1.00  0.00    -0.237 OA
ATOM     91  O   UNL     1      13.221   7.114  11.178  1.00  0.00    -0.237 OA
ATOM     92  O   UNL     1      11.632   8.037   9.538  1.00  0.00    -0.744 OA
ENDBRANCH  88  89
ENDBRANCH  60  83
BRANCH  72  93
ATOM     93  C   UNL     1       4.380   2.554  16.561  1.00  0.00    -0.014 A 
ATOM     94  C   UNL     1       3.526   3.660  16.413  1.00  0.00     0.010 A 
ATOM     95  C   UNL     1       4.711   2.108  17.854  1.00  0.00     0.010 A 
ATOM     96  C   UNL     1       3.034   4.326  17.538  1.00  0.00     0.020 A 
ATOM     97  C   UNL     1       4.199   2.753  18.981  1.00  0.00     0.020 A 
ATOM     98  C   UNL     1       3.374   3.868  18.816  1.00  0.00     0.054 A 
BRANCH  98  99
ATOM     99  S   UNL     1       2.683   4.718  20.260  1.00  0.00     0.124 S 
ATOM    100  O   UNL     1       3.468   5.949  20.291  1.00  0.00    -0.237 OA
ATOM    101  O   UNL     1       1.277   4.878  19.896  1.00  0.00    -0.237 OA
ATOM    102  O   UNL     1       2.933   3.790  21.361  1.00  0.00    -0.744 OA
ENDBRANCH  98  99
ENDBRANCH  72  93
ENDBRANCH  46  47
ENDBRANCH  38  41
ENDBRANCH  36  37
ENDBRANCH  35  36
ENDBRANCH  34  35
ENDBRANCH   1  34
TORSDOF 20
