REMARK SMILES Cc1ccc(C(=O)NCCCCNC(=O)c2ccc(-c3c4nc(c(-c5ccc(S(=O)(=O)[O-])cc5)c5ccc([nH]5)c(-c5ccc(S(=O)(=O)[O-])cc5)c5nc(c(-c6ccc(S(=O)(=O)[O-])cc6)c6ccc3[nH]6)C=C5)C=C4)cc2)cc1N1C(=O)/C(=C/c2ccc([N+](=O)[O-])cc2)SC1=S
REMARK SMILES IDX 10 1 9 2 8 3 6 4 7 5 5 7 1 8 2 9 3 10 77 11 4 12 76 13 78 14
REMARK SMILES IDX 79 15 93 16 80 17 81 18 92 19 94 20 82 21 83 22 84 23 91 24
REMARK SMILES IDX 85 25 90 26 86 27 87 28 88 29 89 30 11 31 12 32 13 33 14 34
REMARK SMILES IDX 15 36 16 37 17 38 75 39 18 40 74 41 19 42 20 43 21 44 68 45
REMARK SMILES IDX 22 46 73 47 67 48 69 49 23 50 72 51 66 52 65 53 24 55 54 56
REMARK SMILES IDX 35 57 53 58 36 59 39 60 52 61 70 62 37 63 38 64 51 66 71 67
REMARK SMILES IDX 40 68 25 69 26 70 34 71 27 72 33 73 28 74 29 75 30 76 31 77
REMARK SMILES IDX 32 78 55 79 56 80 64 81 57 82 63 83 58 84 59 85 60 86 61 87
REMARK SMILES IDX 62 88 41 89 42 90 50 91 43 92 49 93 44 94 45 95 46 96 47 97
REMARK SMILES IDX 48 98
REMARK H PARENT 8 6 13 35 69 54 39 65
REMARK Flexibility Score: inf
ROOT
ATOM      1  C   UNL     1      -3.443   3.432  -1.387  1.00  0.00     0.023 C 
ENDROOT
BRANCH   1   2
ATOM      2  C   UNL     1      -3.575   2.752  -0.013  1.00  0.00     0.116 C 
BRANCH   2   3
ATOM      3  N   UNL     1      -3.869   1.329  -0.113  1.00  0.00    -0.352 N 
ATOM      4  C   UNL     1      -3.114   0.185  -0.108  1.00  0.00     0.251 C 
ATOM      5  O   UNL     1      -3.733  -0.883  -0.113  1.00  0.00    -0.269 OA
ATOM      6  H   UNL     1      -4.832   1.147  -0.205  1.00  0.00     0.163 HD
BRANCH   4   7
ATOM      7  C   UNL     1      -1.619   0.131  -0.106  1.00  0.00     0.041 A 
ATOM      8  C   UNL     1       2.697  -0.425  -0.172  1.00  0.00     0.046 C 
ATOM      9  C   UNL     1       1.214  -0.189  -0.146  1.00  0.00    -0.027 A 
ATOM     10  C   UNL     1       0.369  -1.282   0.090  1.00  0.00     0.006 A 
ATOM     11  C   UNL     1       0.626   1.067  -0.356  1.00  0.00     0.054 A 
ATOM     12  C   UNL     1      -1.022  -1.123   0.109  1.00  0.00     0.014 A 
ATOM     13  C   UNL     1      -0.776   1.211  -0.348  1.00  0.00     0.041 A 
BRANCH  11  14
ATOM     14  N   UNL     1       1.396   2.238  -0.583  1.00  0.00    -0.261 N 
ATOM     15  C   UNL     1       2.083   2.822   0.474  1.00  0.00     0.270 C 
ATOM     16  C   UNL     1       1.416   2.908  -1.795  1.00  0.00     0.152 C 
ATOM     17  O   UNL     1       2.256   2.366   1.597  1.00  0.00    -0.268 OA
ATOM     18  C   UNL     1       2.611   4.149   0.049  1.00  0.00     0.081 C 
ATOM     19  S   UNL     1       2.340   4.396  -1.629  1.00  0.00    -0.054 SA
ATOM     20  S   UNL     1       0.768   2.439  -3.264  1.00  0.00    -0.051 S 
ATOM     21  C   UNL     1       3.182   4.998   0.914  1.00  0.00     0.029 C 
BRANCH  21  22
ATOM     22  C   UNL     1       3.727   6.313   0.566  1.00  0.00    -0.024 A 
ATOM     23  C   UNL     1       2.896   7.436   0.455  1.00  0.00     0.015 A 
ATOM     24  C   UNL     1       5.102   6.440   0.337  1.00  0.00     0.015 A 
ATOM     25  C   UNL     1       3.436   8.685   0.124  1.00  0.00     0.086 A 
ATOM     26  C   UNL     1       5.649   7.681   0.006  1.00  0.00     0.086 A 
ATOM     27  C   UNL     1       4.814   8.803  -0.095  1.00  0.00     0.269 A 
BRANCH  27  28
ATOM     28  N   UNL     1       5.399  10.108  -0.428  1.00  0.00     0.062 N 
ATOM     29  O   UNL     1       4.642  11.084  -0.507  1.00  0.00    -0.258 OA
ATOM     30  O   UNL     1       6.626  10.158  -0.608  1.00  0.00    -0.258 OA
ENDBRANCH  27  28
ENDBRANCH  21  22
ENDBRANCH  11  14
ENDBRANCH   4   7
ENDBRANCH   2   3
ENDBRANCH   1   2
BRANCH   1  31
ATOM     31  C   UNL     1      -4.733   3.512  -2.218  1.00  0.00     0.023 C 
BRANCH  31  32
ATOM     32  C   UNL     1      -5.839   4.342  -1.583  1.00  0.00     0.116 C 
BRANCH  32  33
ATOM     33  N   UNL     1      -5.707   5.784  -1.727  1.00  0.00    -0.352 N 
ATOM     34  C   UNL     1      -6.754   6.639  -1.386  1.00  0.00     0.251 C 
ATOM     35  H   UNL     1      -4.865   6.161  -2.070  1.00  0.00     0.163 HD
ATOM     36  O   UNL     1      -7.309   7.390  -2.168  1.00  0.00    -0.269 OA
BRANCH  34  37
ATOM     37  C   UNL     1      -7.125   6.609   0.048  1.00  0.00     0.039 A 
ATOM     38  C   UNL     1      -6.728   7.644   0.900  1.00  0.00     0.014 A 
ATOM     39  C   UNL     1      -7.673   5.435   0.557  1.00  0.00     0.014 A 
ATOM     40  C   UNL     1      -6.747   7.436   2.283  1.00  0.00     0.010 A 
ATOM     41  C   UNL     1      -7.591   5.195   1.912  1.00  0.00     0.010 A 
ATOM     42  C   UNL     1      -7.103   6.183   2.780  1.00  0.00    -0.014 A 
BRANCH  42  43
ATOM     43  C   UNL     1      -6.979   5.755   4.171  1.00  0.00     0.031 A 
ATOM     44  C   UNL     1      -8.201   5.502   4.979  1.00  0.00     0.074 A 
ATOM     45  C   UNL     1      -5.775   5.369   4.651  1.00  0.00     0.049 A 
ATOM     46  N   UNL     1      -8.204   5.276   6.252  1.00  0.00    -0.248 NA
ATOM     47  C   UNL     1      -9.550   5.561   4.411  1.00  0.00     0.031 C 
ATOM     48  C   UNL     1      -5.530   4.468   5.776  1.00  0.00     0.029 A 
ATOM     49  N   UNL     1      -4.515   5.903   4.372  1.00  0.00    -0.354 N 
ATOM     50  C   UNL     1      -9.458   4.809   6.573  1.00  0.00     0.074 A 
ATOM     51  C   UNL     1     -10.289   5.158   5.449  1.00  0.00     0.031 C 
ATOM     52  C   UNL     1      -4.316   4.728   6.280  1.00  0.00     0.029 A 
ATOM     53  C   UNL     1      -3.823   5.912   5.598  1.00  0.00     0.049 A 
ATOM     54  H   UNL     1      -4.180   6.210   3.499  1.00  0.00     0.167 HD
ATOM     55  C   UNL     1      -9.620   4.015   7.668  1.00  0.00     0.031 A 
ATOM     56  C   UNL     1      -3.367   7.039   6.222  1.00  0.00     0.031 A 
ATOM     57  C   UNL     1      -8.461   4.069   8.556  1.00  0.00     0.049 A 
ATOM     58  C   UNL     1      -3.879   7.196   7.637  1.00  0.00     0.074 A 
ATOM     59  C   UNL     1      -7.466   3.168   8.889  1.00  0.00     0.029 A 
ATOM     60  N   UNL     1      -8.074   5.298   9.082  1.00  0.00    -0.354 N 
ATOM     61  N   UNL     1      -4.877   6.516   8.129  1.00  0.00    -0.248 NA
ATOM     62  C   UNL     1      -3.347   8.166   8.591  1.00  0.00     0.031 C 
ATOM     63  C   UNL     1      -6.415   3.896   9.515  1.00  0.00     0.029 A 
ATOM     64  C   UNL     1      -6.799   5.223   9.605  1.00  0.00     0.049 A 
ATOM     65  H   UNL     1      -8.632   6.109   9.081  1.00  0.00     0.167 HD
ATOM     66  C   UNL     1      -5.138   6.936   9.404  1.00  0.00     0.074 A 
ATOM     67  C   UNL     1      -4.141   7.961   9.657  1.00  0.00     0.031 C 
ATOM     68  C   UNL     1      -6.162   6.418  10.143  1.00  0.00     0.031 A 
BRANCH  55  69
ATOM     69  C   UNL     1     -10.739   2.998   7.813  1.00  0.00    -0.014 A 
ATOM     70  C   UNL     1     -10.798   2.177   8.959  1.00  0.00     0.010 A 
ATOM     71  C   UNL     1     -11.674   2.702   6.798  1.00  0.00     0.010 A 
ATOM     72  C   UNL     1     -11.716   1.115   9.069  1.00  0.00     0.020 A 
ATOM     73  C   UNL     1     -12.617   1.672   6.909  1.00  0.00     0.020 A 
ATOM     74  C   UNL     1     -12.618   0.865   8.036  1.00  0.00     0.054 A 
BRANCH  74  75
ATOM     75  S   UNL     1     -13.768  -0.530   8.152  1.00  0.00     0.124 S 
ATOM     76  O   UNL     1     -12.874  -1.678   8.032  1.00  0.00    -0.237 OA
ATOM     77  O   UNL     1     -14.377  -0.336   9.465  1.00  0.00    -0.237 OA
ATOM     78  O   UNL     1     -14.671  -0.329   7.020  1.00  0.00    -0.744 OA
ENDBRANCH  74  75
ENDBRANCH  55  69
BRANCH  56  79
ATOM     79  C   UNL     1      -3.059   8.165   5.301  1.00  0.00    -0.014 A 
ATOM     80  C   UNL     1      -1.936   8.011   4.462  1.00  0.00     0.010 A 
ATOM     81  C   UNL     1      -4.076   9.065   4.932  1.00  0.00     0.010 A 
ATOM     82  C   UNL     1      -1.934   8.570   3.184  1.00  0.00     0.020 A 
ATOM     83  C   UNL     1      -4.068   9.636   3.653  1.00  0.00     0.020 A 
ATOM     84  C   UNL     1      -3.040   9.309   2.763  1.00  0.00     0.054 A 
BRANCH  84  85
ATOM     85  S   UNL     1      -3.219   9.618   0.980  1.00  0.00     0.124 S 
ATOM     86  O   UNL     1      -1.950  10.256   0.643  1.00  0.00    -0.237 OA
ATOM     87  O   UNL     1      -3.396   8.261   0.462  1.00  0.00    -0.237 OA
ATOM     88  O   UNL     1      -4.401  10.470   0.902  1.00  0.00    -0.744 OA
ENDBRANCH  84  85
ENDBRANCH  56  79
BRANCH  68  89
ATOM     89  C   UNL     1      -6.623   6.948  11.476  1.00  0.00    -0.014 A 
ATOM     90  C   UNL     1      -6.498   8.290  11.870  1.00  0.00     0.010 A 
ATOM     91  C   UNL     1      -7.336   6.086  12.342  1.00  0.00     0.010 A 
ATOM     92  C   UNL     1      -6.993   8.736  13.104  1.00  0.00     0.020 A 
ATOM     93  C   UNL     1      -7.867   6.529  13.557  1.00  0.00     0.020 A 
ATOM     94  C   UNL     1      -7.667   7.849  13.945  1.00  0.00     0.054 A 
BRANCH  94  95
ATOM     95  S   UNL     1      -8.346   8.440  15.517  1.00  0.00     0.124 S 
ATOM     96  O   UNL     1      -7.229   8.216  16.430  1.00  0.00    -0.237 OA
ATOM     97  O   UNL     1      -8.655   9.841  15.239  1.00  0.00    -0.237 OA
ATOM     98  O   UNL     1      -9.511   7.583  15.727  1.00  0.00    -0.744 OA
ENDBRANCH  94  95
ENDBRANCH  68  89
ENDBRANCH  42  43
ENDBRANCH  34  37
ENDBRANCH  32  33
ENDBRANCH  31  32
ENDBRANCH   1  31
TORSDOF 17
