REMARK SMILES CCCCCCOC(=O)Nc1cccc(-c2ccc([C@@H](C)C(=O)NCCCCNC(=O)c3ccc(-c4c5nc(c(-c6ccc(S(=O)(=O)[O-])cc6)c6ccc([nH]6)c(-c6ccc(S(=O)(=O)[O-])cc6)c6nc(c(-c7ccc(S(=O)(=O)[O-])cc7)c7ccc4[nH]7)C=C6)C=C5)cc3)cc2F)c1
REMARK SMILES IDX 20 1 21 2 19 3 16 4 17 5 93 6 18 7 92 8 94 9 15 10 11 11
REMARK SMILES IDX 12 12 95 13 13 14 14 15 10 16 8 17 9 18 7 20 6 21 5 22 4 23
REMARK SMILES IDX 3 24 2 25 1 26 22 27 23 28 24 29 25 31 26 32 27 33 28 34
REMARK SMILES IDX 29 35 30 36 31 38 32 39 33 40 91 41 34 42 90 43 35 44 36 45
REMARK SMILES IDX 37 46 84 47 38 48 89 49 83 50 85 51 39 52 88 53 82 54 81 55
REMARK SMILES IDX 40 57 70 58 51 59 69 60 52 61 55 62 68 63 86 64 53 65 54 66
REMARK SMILES IDX 67 68 87 69 56 70 41 71 42 72 50 73 43 74 49 75 44 76 45 77
REMARK SMILES IDX 46 78 47 79 48 80 71 81 72 82 80 83 73 84 79 85 74 86 75 87
REMARK SMILES IDX 76 88 77 89 78 90 57 91 58 92 66 93 59 94 65 95 60 96 61 97
REMARK SMILES IDX 62 98 63 99 64 100
REMARK H PARENT 10 19 24 30 29 37 85 56 55 67
REMARK Flexibility Score: inf
ROOT
ATOM      1  C   UNL     1      -6.185  -2.887  10.623  1.00  0.00     0.105 C 
ATOM      2  C   UNL     1      -6.896  -2.757  11.969  1.00  0.00     0.023 C 
ENDROOT
BRANCH   1   3
ATOM      3  C   UNL     1      -5.032  -1.925  10.385  1.00  0.00    -0.033 A 
ATOM      4  C   UNL     1      -2.900  -0.143   9.692  1.00  0.00     0.018 A 
ATOM      5  C   UNL     1      -4.049   0.309  10.357  1.00  0.00     0.012 A 
ATOM      6  C   UNL     1      -2.827  -1.524   9.441  1.00  0.00     0.131 A 
ATOM      7  C   UNL     1      -5.075  -0.571  10.731  1.00  0.00     0.005 A 
ATOM      8  C   UNL     1      -3.874  -2.394   9.753  1.00  0.00     0.044 A 
ATOM      9  F   UNL     1      -1.728  -2.062   8.887  1.00  0.00    -0.206 F 
BRANCH   4  10
ATOM     10  C   UNL     1      -1.832   0.795   9.279  1.00  0.00    -0.013 A 
ATOM     11  C   UNL     1      -0.036   1.409   7.728  1.00  0.00     0.045 A 
ATOM     12  C   UNL     1       0.323   2.476   8.547  1.00  0.00     0.026 A 
ATOM     13  C   UNL     1      -1.119   0.597   8.084  1.00  0.00     0.035 A 
ATOM     14  C   UNL     1      -0.416   2.745   9.696  1.00  0.00     0.003 A 
ATOM     15  C   UNL     1      -1.472   1.905  10.064  1.00  0.00     0.009 A 
BRANCH  11  16
ATOM     16  N   UNL     1       0.780   1.103   6.632  1.00  0.00    -0.291 N 
ATOM     17  C   UNL     1       0.454   0.358   5.530  1.00  0.00     0.411 C 
ATOM     18  O   UNL     1       1.307  -0.246   4.903  1.00  0.00    -0.224 OA
ATOM     19  H   UNL     1       1.696   1.465   6.657  1.00  0.00     0.173 HD
BRANCH  17  20
ATOM     20  O   UNL     1      -0.850   0.492   5.172  1.00  0.00    -0.449 OA
BRANCH  20  21
ATOM     21  C   UNL     1      -1.278  -0.091   3.930  1.00  0.00     0.235 C 
BRANCH  21  22
ATOM     22  C   UNL     1      -1.032   0.840   2.737  1.00  0.00     0.042 C 
BRANCH  22  23
ATOM     23  C   UNL     1       0.425   0.964   2.275  1.00  0.00     0.003 C 
BRANCH  23  24
ATOM     24  C   UNL     1       1.083  -0.353   1.841  1.00  0.00    -0.000 C 
BRANCH  24  25
ATOM     25  C   UNL     1       0.547  -0.945   0.539  1.00  0.00    -0.003 C 
ATOM     26  C   UNL     1       0.922  -0.118  -0.680  1.00  0.00     0.004 C 
ENDBRANCH  24  25
ENDBRANCH  23  24
ENDBRANCH  22  23
ENDBRANCH  21  22
ENDBRANCH  20  21
ENDBRANCH  17  20
ENDBRANCH  11  16
ENDBRANCH   4  10
ENDBRANCH   1   3
BRANCH   1  27
ATOM     27  C   UNL     1      -7.136  -3.018   9.423  1.00  0.00     0.227 C 
ATOM     28  O   UNL     1      -7.134  -4.056   8.750  1.00  0.00    -0.274 OA
ATOM     29  N   UNL     1      -8.017  -2.051   9.048  1.00  0.00    -0.356 N 
ATOM     30  H   UNL     1      -8.609  -2.308   8.304  1.00  0.00     0.163 HD
BRANCH  29  31
ATOM     31  C   UNL     1      -8.238  -0.710   9.547  1.00  0.00     0.116 C 
BRANCH  31  32
ATOM     32  C   UNL     1      -7.481   0.339   8.732  1.00  0.00     0.023 C 
BRANCH  32  33
ATOM     33  C   UNL     1      -8.238   0.881   7.522  1.00  0.00     0.023 C 
BRANCH  33  34
ATOM     34  C   UNL     1      -9.541   1.602   7.844  1.00  0.00     0.116 C 
BRANCH  34  35
ATOM     35  N   UNL     1      -9.389   2.726   8.759  1.00  0.00    -0.352 N 
ATOM     36  C   UNL     1     -10.126   3.889   8.797  1.00  0.00     0.251 C 
ATOM     37  H   UNL     1      -8.674   2.644   9.430  1.00  0.00     0.163 HD
ATOM     38  O   UNL     1      -9.831   4.788   9.577  1.00  0.00    -0.269 OA
BRANCH  36  39
ATOM     39  C   UNL     1     -11.245   4.051   7.847  1.00  0.00     0.039 A 
ATOM     40  C   UNL     1     -11.287   5.185   7.035  1.00  0.00     0.014 A 
ATOM     41  C   UNL     1     -12.197   3.038   7.701  1.00  0.00     0.014 A 
ATOM     42  C   UNL     1     -12.239   5.265   6.016  1.00  0.00     0.010 A 
ATOM     43  C   UNL     1     -13.087   3.082   6.635  1.00  0.00     0.010 A 
ATOM     44  C   UNL     1     -13.117   4.194   5.780  1.00  0.00    -0.014 A 
BRANCH  44  45
ATOM     45  C   UNL     1     -14.071   4.210   4.642  1.00  0.00     0.031 A 
ATOM     46  C   UNL     1     -15.552   4.166   4.904  1.00  0.00     0.074 A 
ATOM     47  C   UNL     1     -13.605   4.187   3.377  1.00  0.00     0.049 A 
ATOM     48  N   UNL     1     -16.539   4.102   4.048  1.00  0.00    -0.248 NA
ATOM     49  C   UNL     1     -15.979   4.162   6.314  1.00  0.00     0.031 C 
ATOM     50  C   UNL     1     -12.192   4.174   2.991  1.00  0.00     0.029 A 
ATOM     51  N   UNL     1     -14.274   4.162   2.178  1.00  0.00    -0.354 N 
ATOM     52  C   UNL     1     -17.697   4.029   4.813  1.00  0.00     0.074 A 
ATOM     53  C   UNL     1     -17.288   4.001   6.200  1.00  0.00     0.031 C 
ATOM     54  C   UNL     1     -12.100   4.175   1.651  1.00  0.00     0.029 A 
ATOM     55  C   UNL     1     -13.444   4.147   1.082  1.00  0.00     0.049 A 
ATOM     56  H   UNL     1     -15.256   4.156   2.110  1.00  0.00     0.167 HD
ATOM     57  C   UNL     1     -18.987   4.011   4.400  1.00  0.00     0.031 A 
ATOM     58  C   UNL     1     -13.730   4.112  -0.234  1.00  0.00     0.031 A 
ATOM     59  C   UNL     1     -19.390   4.059   3.021  1.00  0.00     0.049 A 
ATOM     60  C   UNL     1     -15.171   4.099  -0.669  1.00  0.00     0.074 A 
ATOM     61  C   UNL     1     -20.671   4.108   2.501  1.00  0.00     0.029 A 
ATOM     62  N   UNL     1     -18.519   4.066   1.942  1.00  0.00    -0.354 N 
ATOM     63  N   UNL     1     -16.254   4.101   0.071  1.00  0.00    -0.248 NA
ATOM     64  C   UNL     1     -15.427   4.093  -2.116  1.00  0.00     0.031 C 
ATOM     65  C   UNL     1     -20.576   4.096   1.106  1.00  0.00     0.029 A 
ATOM     66  C   UNL     1     -19.234   4.098   0.758  1.00  0.00     0.049 A 
ATOM     67  H   UNL     1     -17.537   4.050   2.009  1.00  0.00     0.167 HD
ATOM     68  C   UNL     1     -17.321   4.123  -0.821  1.00  0.00     0.074 A 
ATOM     69  C   UNL     1     -16.752   4.149  -2.153  1.00  0.00     0.031 C 
ATOM     70  C   UNL     1     -18.651   4.124  -0.560  1.00  0.00     0.031 A 
BRANCH  57  71
ATOM     71  C   UNL     1     -20.053   3.937   5.461  1.00  0.00    -0.014 A 
ATOM     72  C   UNL     1     -20.299   5.024   6.320  1.00  0.00     0.010 A 
ATOM     73  C   UNL     1     -20.841   2.778   5.583  1.00  0.00     0.010 A 
ATOM     74  C   UNL     1     -21.279   4.936   7.312  1.00  0.00     0.020 A 
ATOM     75  C   UNL     1     -21.843   2.697   6.554  1.00  0.00     0.020 A 
ATOM     76  C   UNL     1     -22.042   3.770   7.425  1.00  0.00     0.054 A 
BRANCH  76  77
ATOM     77  S   UNL     1     -23.319   3.690   8.711  1.00  0.00     0.124 S 
ATOM     78  O   UNL     1     -22.516   3.535   9.921  1.00  0.00    -0.237 OA
ATOM     79  O   UNL     1     -23.998   4.975   8.568  1.00  0.00    -0.237 OA
ATOM     80  O   UNL     1     -24.114   2.522   8.338  1.00  0.00    -0.744 OA
ENDBRANCH  76  77
ENDBRANCH  57  71
BRANCH  58  81
ATOM     81  C   UNL     1     -12.630   4.112  -1.237  1.00  0.00    -0.014 A 
ATOM     82  C   UNL     1     -12.388   5.247  -2.031  1.00  0.00     0.010 A 
ATOM     83  C   UNL     1     -11.809   2.980  -1.396  1.00  0.00     0.010 A 
ATOM     84  C   UNL     1     -11.358   5.245  -2.977  1.00  0.00     0.020 A 
ATOM     85  C   UNL     1     -10.761   2.984  -2.321  1.00  0.00     0.020 A 
ATOM     86  C   UNL     1     -10.550   4.113  -3.115  1.00  0.00     0.054 A 
BRANCH  86  87
ATOM     87  S   UNL     1      -9.187   4.152  -4.312  1.00  0.00     0.124 S 
ATOM     88  O   UNL     1      -9.895   4.037  -5.582  1.00  0.00    -0.237 OA
ATOM     89  O   UNL     1      -8.570   5.450  -4.045  1.00  0.00    -0.237 OA
ATOM     90  O   UNL     1      -8.373   2.997  -3.940  1.00  0.00    -0.744 OA
ENDBRANCH  86  87
ENDBRANCH  58  81
BRANCH  70  91
ATOM     91  C   UNL     1     -19.588   4.189  -1.736  1.00  0.00    -0.014 A 
ATOM     92  C   UNL     1     -19.779   3.081  -2.579  1.00  0.00     0.010 A 
ATOM     93  C   UNL     1     -20.334   5.361  -1.963  1.00  0.00     0.010 A 
ATOM     94  C   UNL     1     -20.678   3.153  -3.647  1.00  0.00     0.020 A 
ATOM     95  C   UNL     1     -21.253   5.428  -3.012  1.00  0.00     0.020 A 
ATOM     96  C   UNL     1     -21.410   4.327  -3.856  1.00  0.00     0.054 A 
BRANCH  96  97
ATOM     97  S   UNL     1     -22.605   4.379  -5.219  1.00  0.00     0.124 S 
ATOM     98  O   UNL     1     -21.731   4.491  -6.384  1.00  0.00    -0.237 OA
ATOM     99  O   UNL     1     -23.307   3.106  -5.080  1.00  0.00    -0.237 OA
ATOM    100  O   UNL     1     -23.410   5.563  -4.928  1.00  0.00    -0.744 OA
ENDBRANCH  96  97
ENDBRANCH  70  91
ENDBRANCH  44  45
ENDBRANCH  36  39
ENDBRANCH  34  35
ENDBRANCH  33  34
ENDBRANCH  32  33
ENDBRANCH  31  32
ENDBRANCH  29  31
ENDBRANCH   1  27
TORSDOF 23
