REMARK SMILES Cc1cc(-c2ccc(/C=C/C(=O)NCCCCNC(=O)c3ccc(-c4c5nc(c(-c6ccc(S(=O)(=O)[O-])cc6)c6ccc([nH]6)c(-c6ccc(S(=O)(=O)[O-])cc6)c6nc(c(-c7ccc(S(=O)(=O)[O-])cc7)c7ccc4[nH]7)C=C6)C=C5)cc3)o2)c(C)cc1Br
REMARK SMILES IDX 16 1 15 2 14 3 13 4 11 5 12 6 10 8 9 9 8 10 5 11 6 12 81 13
REMARK SMILES IDX 7 14 4 15 1 16 2 17 3 18 85 19 84 20 86 21 82 22 83 23 17 24
REMARK SMILES IDX 18 25 19 26 20 28 21 29 22 30 80 31 23 32 79 33 24 34 25 35
REMARK SMILES IDX 26 36 73 37 27 38 78 39 72 40 74 41 28 42 77 43 71 44 70 45
REMARK SMILES IDX 29 47 59 48 40 49 58 50 41 51 44 52 57 53 75 54 42 55 43 56
REMARK SMILES IDX 56 58 76 59 45 60 30 61 31 62 39 63 32 64 38 65 33 66 34 67
REMARK SMILES IDX 35 68 36 69 37 70 60 71 61 72 69 73 62 74 68 75 63 76 64 77
REMARK SMILES IDX 65 78 66 79 67 80 46 81 47 82 55 83 48 84 54 85 49 86 50 87
REMARK SMILES IDX 51 88 52 89 53 90
REMARK H PARENT 13 7 18 27 74 46 44 57
REMARK Flexibility Score: inf
ROOT
ATOM      1  C   UNL     1      -2.320 -10.443   7.138  1.00  0.00     0.023 C 
ENDROOT
BRANCH   1   2
ATOM      2  C   UNL     1      -1.745  -9.347   6.241  1.00  0.00     0.023 C 
BRANCH   2   3
ATOM      3  C   UNL     1      -2.446  -9.188   4.889  1.00  0.00     0.116 C 
BRANCH   3   4
ATOM      4  N   UNL     1      -3.693  -8.455   5.014  1.00  0.00    -0.353 N 
ATOM      5  C   UNL     1      -3.998  -7.165   4.700  1.00  0.00     0.244 C 
ATOM      6  O   UNL     1      -5.165  -6.785   4.756  1.00  0.00    -0.270 OA
ATOM      7  H   UNL     1      -4.441  -8.975   5.386  1.00  0.00     0.163 HD
BRANCH   5   8
ATOM      8  C   UNL     1      -2.961  -6.229   4.212  1.00  0.00     0.075 C 
ATOM      9  C   UNL     1      -1.744  -6.109   4.757  1.00  0.00     0.053 C 
BRANCH   9  10
ATOM     10  C   UNL     1      -0.798  -5.189   4.244  1.00  0.00     0.127 A 
ATOM     11  C   UNL     1       0.034  -3.307   3.423  1.00  0.00     0.135 A 
ATOM     12  C   UNL     1       1.107  -4.149   3.597  1.00  0.00     0.051 A 
ATOM     13  O   UNL     1      -1.117  -3.941   3.768  1.00  0.00    -0.457 OA
ATOM     14  C   UNL     1       0.580  -5.340   4.148  1.00  0.00     0.051 A 
BRANCH  11  15
ATOM     15  C   UNL     1      -0.101  -1.932   2.970  1.00  0.00     0.020 A 
ATOM     16  C   UNL     1       1.029   0.042  -0.085  1.00  0.00     0.045 C 
ATOM     17  C   UNL     1       0.392  -0.257   1.243  1.00  0.00    -0.036 A 
ATOM     18  C   UNL     1       0.450  -1.575   1.728  1.00  0.00     0.016 A 
ATOM     19  C   UNL     1      -0.202   0.720   2.051  1.00  0.00     0.021 A 
ATOM     20  C   UNL     1      -0.765   0.377   3.285  1.00  0.00     0.020 A 
ATOM     21  Br  UNL     1      -0.265   2.551   1.548  1.00  0.00    -0.051 Br
ATOM     22  C   UNL     1      -0.720  -0.944   3.760  1.00  0.00    -0.039 A 
ATOM     23  C   UNL     1      -1.335  -1.261   5.098  1.00  0.00     0.045 C 
ENDBRANCH  11  15
ENDBRANCH   9  10
ENDBRANCH   5   8
ENDBRANCH   3   4
ENDBRANCH   2   3
ENDBRANCH   1   2
BRANCH   1  24
ATOM     24  C   UNL     1      -2.197 -11.859   6.588  1.00  0.00     0.116 C 
BRANCH  24  25
ATOM     25  N   UNL     1      -0.826 -12.270   6.320  1.00  0.00    -0.352 N 
ATOM     26  C   UNL     1      -0.306 -13.546   6.335  1.00  0.00     0.251 C 
ATOM     27  H   UNL     1      -0.193 -11.548   6.101  1.00  0.00     0.163 HD
ATOM     28  O   UNL     1       0.892 -13.732   6.167  1.00  0.00    -0.269 OA
BRANCH  26  29
ATOM     29  C   UNL     1      -1.214 -14.678   6.620  1.00  0.00     0.039 A 
ATOM     30  C   UNL     1      -2.420 -14.806   5.929  1.00  0.00     0.014 A 
ATOM     31  C   UNL     1      -0.893 -15.560   7.655  1.00  0.00     0.014 A 
ATOM     32  C   UNL     1      -3.380 -15.698   6.391  1.00  0.00     0.010 A 
ATOM     33  C   UNL     1      -1.832 -16.509   8.068  1.00  0.00     0.010 A 
ATOM     34  C   UNL     1      -3.105 -16.544   7.479  1.00  0.00    -0.014 A 
BRANCH  34  35
ATOM     35  C   UNL     1      -4.181 -17.422   8.005  1.00  0.00     0.031 A 
ATOM     36  C   UNL     1      -4.771 -17.177   9.368  1.00  0.00     0.074 A 
ATOM     37  C   UNL     1      -4.687 -18.390   7.215  1.00  0.00     0.049 A 
ATOM     38  N   UNL     1      -5.752 -17.808   9.963  1.00  0.00    -0.248 NA
ATOM     39  C   UNL     1      -4.193 -16.084  10.169  1.00  0.00     0.031 C 
ATOM     40  C   UNL     1      -4.221 -18.697   5.861  1.00  0.00     0.029 A 
ATOM     41  N   UNL     1      -5.728 -19.260   7.416  1.00  0.00    -0.354 N 
ATOM     42  C   UNL     1      -5.897 -17.203  11.206  1.00  0.00     0.074 A 
ATOM     43  C   UNL     1      -4.890 -16.169  11.294  1.00  0.00     0.031 C 
ATOM     44  C   UNL     1      -5.018 -19.634   5.327  1.00  0.00     0.029 A 
ATOM     45  C   UNL     1      -6.011 -20.038   6.318  1.00  0.00     0.049 A 
ATOM     46  H   UNL     1      -6.224 -19.321   8.264  1.00  0.00     0.167 HD
ATOM     47  C   UNL     1      -6.795 -17.478  12.181  1.00  0.00     0.031 A 
ATOM     48  C   UNL     1      -6.962 -20.972   6.123  1.00  0.00     0.031 A 
ATOM     49  C   UNL     1      -7.809 -18.495  12.083  1.00  0.00     0.049 A 
ATOM     50  C   UNL     1      -7.924 -21.285   7.232  1.00  0.00     0.074 A 
ATOM     51  C   UNL     1      -8.762 -18.846  13.023  1.00  0.00     0.029 A 
ATOM     52  N   UNL     1      -8.010 -19.314  10.983  1.00  0.00    -0.354 N 
ATOM     53  N   UNL     1      -8.025 -20.720   8.411  1.00  0.00    -0.248 NA
ATOM     54  C   UNL     1      -8.892 -22.363   6.992  1.00  0.00     0.031 C 
ATOM     55  C   UNL     1      -9.512 -19.906  12.509  1.00  0.00     0.029 A 
ATOM     56  C   UNL     1      -9.061 -20.181  11.227  1.00  0.00     0.049 A 
ATOM     57  H   UNL     1      -7.483 -19.284  10.152  1.00  0.00     0.167 HD
ATOM     58  C   UNL     1      -9.070 -21.371   9.053  1.00  0.00     0.074 A 
ATOM     59  C   UNL     1      -9.582 -22.360   8.126  1.00  0.00     0.031 C 
ATOM     60  C   UNL     1      -9.556 -21.167  10.301  1.00  0.00     0.031 A 
BRANCH  47  61
ATOM     61  C   UNL     1      -6.731 -16.678  13.454  1.00  0.00    -0.014 A 
ATOM     62  C   UNL     1      -6.285 -17.291  14.639  1.00  0.00     0.010 A 
ATOM     63  C   UNL     1      -7.207 -15.356  13.502  1.00  0.00     0.010 A 
ATOM     64  C   UNL     1      -6.334 -16.604  15.855  1.00  0.00     0.020 A 
ATOM     65  C   UNL     1      -7.236 -14.658  14.713  1.00  0.00     0.020 A 
ATOM     66  C   UNL     1      -6.818 -15.293  15.885  1.00  0.00     0.054 A 
BRANCH  66  67
ATOM     67  S   UNL     1      -6.877 -14.412  17.471  1.00  0.00     0.124 S 
ATOM     68  O   UNL     1      -8.097 -14.941  18.072  1.00  0.00    -0.237 OA
ATOM     69  O   UNL     1      -5.628 -14.819  18.112  1.00  0.00    -0.237 OA
ATOM     70  O   UNL     1      -6.931 -13.007  17.074  1.00  0.00    -0.744 OA
ENDBRANCH  66  67
ENDBRANCH  47  61
BRANCH  48  71
ATOM     71  C   UNL     1      -7.047 -21.648   4.802  1.00  0.00    -0.014 A 
ATOM     72  C   UNL     1      -6.041 -22.544   4.396  1.00  0.00     0.010 A 
ATOM     73  C   UNL     1      -8.075 -21.318   3.903  1.00  0.00     0.010 A 
ATOM     74  C   UNL     1      -6.027 -23.052   3.096  1.00  0.00     0.020 A 
ATOM     75  C   UNL     1      -8.079 -21.845   2.607  1.00  0.00     0.020 A 
ATOM     76  C   UNL     1      -7.036 -22.683   2.203  1.00  0.00     0.054 A 
BRANCH  76  77
ATOM     77  S   UNL     1      -6.968 -23.300   0.499  1.00  0.00     0.124 S 
ATOM     78  O   UNL     1      -6.008 -22.384  -0.111  1.00  0.00    -0.237 OA
ATOM     79  O   UNL     1      -6.505 -24.674   0.671  1.00  0.00    -0.237 OA
ATOM     80  O   UNL     1      -8.347 -23.165   0.034  1.00  0.00    -0.744 OA
ENDBRANCH  76  77
ENDBRANCH  48  71
BRANCH  60  81
ATOM     81  C   UNL     1     -10.701 -22.025  10.764  1.00  0.00    -0.014 A 
ATOM     82  C   UNL     1     -11.980 -21.460  10.914  1.00  0.00     0.010 A 
ATOM     83  C   UNL     1     -10.481 -23.352  11.174  1.00  0.00     0.010 A 
ATOM     84  C   UNL     1     -13.015 -22.196  11.496  1.00  0.00     0.020 A 
ATOM     85  C   UNL     1     -11.519 -24.098  11.737  1.00  0.00     0.020 A 
ATOM     86  C   UNL     1     -12.773 -23.507  11.917  1.00  0.00     0.054 A 
BRANCH  86  87
ATOM     87  S   UNL     1     -14.117 -24.441  12.700  1.00  0.00     0.124 S 
ATOM     88  O   UNL     1     -14.086 -23.933  14.068  1.00  0.00    -0.237 OA
ATOM     89  O   UNL     1     -15.284 -24.054  11.911  1.00  0.00    -0.237 OA
ATOM     90  O   UNL     1     -13.701 -25.833  12.539  1.00  0.00    -0.744 OA
ENDBRANCH  86  87
ENDBRANCH  60  81
ENDBRANCH  34  35
ENDBRANCH  26  29
ENDBRANCH  24  25
ENDBRANCH   1  24
TORSDOF 16
