REMARK SMILES Cc1ccccc1/C=C1\SC(=O)N(CC(=O)Nc2ccccc2C(=O)NCCCCNC(=O)c2ccc(-c3c4nc(c(-c5ccc(S(=O)(=O)[O-])cc5)c5ccc([nH]5)c(-c5ccc(S(=O)(=O)[O-])cc5)c5nc(c(-c6ccc(S(=O)(=O)[O-])cc6)c6ccc3[nH]6)C=C5)C=C4)cc2)C1=O
REMARK SMILES IDX 28 1 27 2 26 3 24 4 25 5 23 7 18 8 19 9 20 10 22 11 21 12
REMARK SMILES IDX 17 13 15 14 16 15 14 17 13 18 8 19 9 20 10 21 94 22 11 23
REMARK SMILES IDX 95 24 12 25 7 26 1 27 2 28 3 29 4 30 6 31 5 32 29 33 30 34
REMARK SMILES IDX 31 35 32 36 33 38 34 39 35 40 93 41 36 42 92 43 37 44 38 45
REMARK SMILES IDX 39 46 86 47 40 48 91 49 85 50 87 51 41 52 90 53 84 54 83 55
REMARK SMILES IDX 42 57 72 58 53 59 71 60 54 61 57 62 70 63 88 64 55 65 56 66
REMARK SMILES IDX 69 68 89 69 58 70 43 71 44 72 52 73 45 74 51 75 46 76 47 77
REMARK SMILES IDX 48 78 49 79 50 80 73 81 74 82 82 83 75 84 81 85 76 86 77 87
REMARK SMILES IDX 78 88 79 89 80 90 59 91 60 92 68 93 61 94 67 95 62 96 63 97
REMARK SMILES IDX 64 98 65 99 66 100
REMARK H PARENT 26 6 17 16 31 37 87 56 57 67
REMARK Flexibility Score: inf
ROOT
ATOM      1  C   UNL     1       3.430   0.263  -3.739  1.00  0.00     0.023 C 
ENDROOT
BRANCH   1   2
ATOM      2  C   UNL     1       2.061   0.971  -3.784  1.00  0.00     0.116 C 
BRANCH   2   3
ATOM      3  N   UNL     1       1.855   2.197  -2.997  1.00  0.00    -0.352 N 
ATOM      4  C   UNL     1       1.729   3.553  -3.274  1.00  0.00     0.253 C 
ATOM      5  O   UNL     1       1.359   4.289  -2.358  1.00  0.00    -0.269 OA
ATOM      6  H   UNL     1       1.789   2.009  -2.033  1.00  0.00     0.163 HD
BRANCH   4   7
ATOM      7  C   UNL     1       2.022   4.193  -4.585  1.00  0.00     0.063 A 
ATOM      8  C   UNL     1       2.500   5.524  -4.729  1.00  0.00     0.054 A 
ATOM      9  C   UNL     1       2.597   6.081  -6.025  1.00  0.00     0.027 A 
ATOM     10  C   UNL     1       2.246   5.363  -7.164  1.00  0.00     0.002 A 
ATOM     11  C   UNL     1       1.563   3.544  -5.746  1.00  0.00     0.016 A 
ATOM     12  C   UNL     1       1.706   4.098  -7.021  1.00  0.00     0.001 A 
BRANCH   8  13
ATOM     13  N   UNL     1       2.609   6.510  -3.725  1.00  0.00    -0.324 N 
ATOM     14  C   UNL     1       3.462   6.739  -2.692  1.00  0.00     0.244 C 
ATOM     15  O   UNL     1       3.382   7.857  -2.163  1.00  0.00    -0.273 OA
ATOM     16  H   UNL     1       1.902   7.191  -3.787  1.00  0.00     0.170 HD
BRANCH  14  17
ATOM     17  C   UNL     1       4.566   5.791  -2.267  1.00  0.00     0.230 C 
BRANCH  17  18
ATOM     18  N   UNL     1       4.117   4.702  -1.446  1.00  0.00    -0.259 N 
ATOM     19  C   UNL     1       1.703   3.455   0.711  1.00  0.00     0.029 C 
ATOM     20  C   UNL     1       2.931   3.567   0.193  1.00  0.00     0.083 C 
ATOM     21  S   UNL     1       3.968   2.369  -0.434  1.00  0.00    -0.022 SA
ATOM     22  C   UNL     1       3.405   4.896  -0.279  1.00  0.00     0.268 C 
ATOM     23  C   UNL     1       4.576   3.442  -1.667  1.00  0.00     0.294 C 
ATOM     24  O   UNL     1       3.189   5.952   0.289  1.00  0.00    -0.268 OA
ATOM     25  O   UNL     1       5.342   3.077  -2.555  1.00  0.00    -0.261 OA
BRANCH  19  26
ATOM     26  C   UNL     1       0.824   2.274   0.796  1.00  0.00    -0.021 A 
ATOM     27  C   UNL     1       2.455   0.621   1.922  1.00  0.00     0.045 C 
ATOM     28  C   UNL     1       1.112   1.038   1.400  1.00  0.00    -0.044 A 
ATOM     29  C   UNL     1       0.083   0.090   1.495  1.00  0.00     0.004 A 
ATOM     30  C   UNL     1      -1.185   0.335   0.974  1.00  0.00     0.000 A 
ATOM     31  C   UNL     1      -0.465   2.488   0.253  1.00  0.00     0.008 A 
ATOM     32  C   UNL     1      -1.460   1.522   0.327  1.00  0.00     0.001 A 
ENDBRANCH  19  26
ENDBRANCH  17  18
ENDBRANCH  14  17
ENDBRANCH   8  13
ENDBRANCH   4   7
ENDBRANCH   2   3
ENDBRANCH   1   2
BRANCH   1  33
ATOM     33  C   UNL     1       3.931  -0.538  -2.518  1.00  0.00     0.023 C 
BRANCH  33  34
ATOM     34  C   UNL     1       2.966  -1.438  -1.767  1.00  0.00     0.116 C 
BRANCH  34  35
ATOM     35  N   UNL     1       2.926  -2.835  -2.219  1.00  0.00    -0.352 N 
ATOM     36  C   UNL     1       2.588  -3.851  -1.308  1.00  0.00     0.251 C 
ATOM     37  H   UNL     1       3.134  -3.059  -3.155  1.00  0.00     0.163 HD
ATOM     38  O   UNL     1       3.380  -4.340  -0.509  1.00  0.00    -0.269 OA
BRANCH  36  39
ATOM     39  C   UNL     1       1.122  -4.042  -1.110  1.00  0.00     0.039 A 
ATOM     40  C   UNL     1       0.442  -5.066  -0.427  1.00  0.00     0.014 A 
ATOM     41  C   UNL     1       0.376  -2.942  -1.413  1.00  0.00     0.014 A 
ATOM     42  C   UNL     1      -0.929  -4.868  -0.108  1.00  0.00     0.010 A 
ATOM     43  C   UNL     1      -0.471  -2.591  -0.429  1.00  0.00     0.010 A 
ATOM     44  C   UNL     1      -1.409  -3.568  -0.215  1.00  0.00    -0.014 A 
BRANCH  44  45
ATOM     45  C   UNL     1      -2.707  -2.921  -0.108  1.00  0.00     0.031 A 
ATOM     46  C   UNL     1      -3.313  -2.644   1.202  1.00  0.00     0.074 A 
ATOM     47  C   UNL     1      -3.024  -2.152  -1.188  1.00  0.00     0.049 A 
ATOM     48  N   UNL     1      -4.499  -2.174   1.347  1.00  0.00    -0.248 NA
ATOM     49  C   UNL     1      -2.592  -2.777   2.464  1.00  0.00     0.031 C 
ATOM     50  C   UNL     1      -3.913  -1.007  -1.345  1.00  0.00     0.029 A 
ATOM     51  N   UNL     1      -2.557  -2.352  -2.493  1.00  0.00    -0.354 N 
ATOM     52  C   UNL     1      -4.586  -1.641   2.616  1.00  0.00     0.074 A 
ATOM     53  C   UNL     1      -3.418  -2.139   3.307  1.00  0.00     0.031 C 
ATOM     54  C   UNL     1      -4.186  -0.853  -2.658  1.00  0.00     0.029 A 
ATOM     55  C   UNL     1      -3.586  -1.980  -3.362  1.00  0.00     0.049 A 
ATOM     56  H   UNL     1      -1.669  -2.692  -2.751  1.00  0.00     0.167 HD
ATOM     57  C   UNL     1      -5.569  -0.728   2.870  1.00  0.00     0.031 A 
ATOM     58  C   UNL     1      -4.252  -3.016  -3.963  1.00  0.00     0.031 A 
ATOM     59  C   UNL     1      -6.404  -0.526   1.674  1.00  0.00     0.049 A 
ATOM     60  C   UNL     1      -5.629  -3.229  -3.358  1.00  0.00     0.074 A 
ATOM     61  C   UNL     1      -6.524   0.489   0.740  1.00  0.00     0.029 A 
ATOM     62  N   UNL     1      -7.028  -1.631   1.115  1.00  0.00    -0.354 N 
ATOM     63  N   UNL     1      -6.103  -2.545  -2.352  1.00  0.00    -0.248 NA
ATOM     64  C   UNL     1      -6.571  -4.244  -3.816  1.00  0.00     0.031 C 
ATOM     65  C   UNL     1      -7.145  -0.061  -0.426  1.00  0.00     0.029 A 
ATOM     66  C   UNL     1      -7.444  -1.391  -0.181  1.00  0.00     0.049 A 
ATOM     67  H   UNL     1      -7.158  -2.486   1.585  1.00  0.00     0.167 HD
ATOM     68  C   UNL     1      -7.330  -3.012  -1.988  1.00  0.00     0.074 A 
ATOM     69  C   UNL     1      -7.577  -4.093  -2.933  1.00  0.00     0.031 C 
ATOM     70  C   UNL     1      -8.039  -2.488  -0.941  1.00  0.00     0.031 A 
BRANCH  57  71
ATOM     71  C   UNL     1      -5.707   0.134   4.111  1.00  0.00    -0.014 A 
ATOM     72  C   UNL     1      -6.636   1.200   4.098  1.00  0.00     0.010 A 
ATOM     73  C   UNL     1      -4.976  -0.023   5.305  1.00  0.00     0.010 A 
ATOM     74  C   UNL     1      -6.796   2.077   5.181  1.00  0.00     0.020 A 
ATOM     75  C   UNL     1      -5.122   0.853   6.400  1.00  0.00     0.020 A 
ATOM     76  C   UNL     1      -6.029   1.903   6.328  1.00  0.00     0.054 A 
BRANCH  76  77
ATOM     77  S   UNL     1      -6.252   3.054   7.711  1.00  0.00     0.124 S 
ATOM     78  O   UNL     1      -5.894   4.337   7.113  1.00  0.00    -0.237 OA
ATOM     79  O   UNL     1      -7.665   2.884   8.038  1.00  0.00    -0.237 OA
ATOM     80  O   UNL     1      -5.319   2.564   8.725  1.00  0.00    -0.744 OA
ENDBRANCH  76  77
ENDBRANCH  57  71
BRANCH  58  81
ATOM     81  C   UNL     1      -3.276  -4.084  -4.416  1.00  0.00    -0.014 A 
ATOM     82  C   UNL     1      -2.382  -3.717  -5.452  1.00  0.00     0.010 A 
ATOM     83  C   UNL     1      -2.889  -5.132  -3.553  1.00  0.00     0.010 A 
ATOM     84  C   UNL     1      -1.086  -4.245  -5.511  1.00  0.00     0.020 A 
ATOM     85  C   UNL     1      -1.587  -5.671  -3.618  1.00  0.00     0.020 A 
ATOM     86  C   UNL     1      -0.679  -5.181  -4.561  1.00  0.00     0.054 A 
BRANCH  86  87
ATOM     87  S   UNL     1       1.102  -5.551  -4.459  1.00  0.00     0.124 S 
ATOM     88  O   UNL     1       1.349  -6.253  -5.714  1.00  0.00    -0.237 OA
ATOM     89  O   UNL     1       1.684  -4.207  -4.363  1.00  0.00    -0.237 OA
ATOM     90  O   UNL     1       1.225  -6.362  -3.253  1.00  0.00    -0.744 OA
ENDBRANCH  86  87
ENDBRANCH  58  81
BRANCH  70  91
ATOM     91  C   UNL     1      -9.388  -3.010  -0.525  1.00  0.00    -0.014 A 
ATOM     92  C   UNL     1     -10.344  -3.433  -1.457  1.00  0.00     0.010 A 
ATOM     93  C   UNL     1      -9.773  -3.003   0.835  1.00  0.00     0.010 A 
ATOM     94  C   UNL     1     -11.577  -3.946  -1.043  1.00  0.00     0.020 A 
ATOM     95  C   UNL     1     -11.013  -3.477   1.259  1.00  0.00     0.020 A 
ATOM     96  C   UNL     1     -11.895  -3.982   0.316  1.00  0.00     0.054 A 
BRANCH  96  97
ATOM     97  S   UNL     1     -13.489  -4.656   0.828  1.00  0.00     0.124 S 
ATOM     98  O   UNL     1     -14.417  -4.014  -0.100  1.00  0.00    -0.237 OA
ATOM     99  O   UNL     1     -13.287  -6.088   0.625  1.00  0.00    -0.237 OA
ATOM    100  O   UNL     1     -13.615  -4.234   2.221  1.00  0.00    -0.744 OA
ENDBRANCH  96  97
ENDBRANCH  70  91
ENDBRANCH  44  45
ENDBRANCH  36  39
ENDBRANCH  34  35
ENDBRANCH  33  34
ENDBRANCH   1  33
TORSDOF 18
