REMARK SMILES C[NH+]1CCC(NC(=O)N[C@H]2C=C[C@H](C(=O)NCCCCNC(=O)c3ccc(-c4c5nc(c(-c6ccc(S(=O)(=O)[O-])cc6)c6ccc([nH]6)c(-c6ccc(S(=O)(=O)[O-])cc6)c6nc(c(-c7ccc(S(=O)(=O)[O-])cc7)c7ccc4[nH]7)C=C6)C=C5)cc3)C2)CC1
REMARK SMILES IDX 19 1 18 2 17 3 16 4 14 5 15 6 13 8 10 9 11 10 84 11 12 12
REMARK SMILES IDX 9 13 6 14 7 15 8 17 5 19 1 20 2 21 3 22 86 23 4 25 85 26
REMARK SMILES IDX 20 27 21 28 22 29 23 31 24 32 25 33 83 34 26 35 82 36 27 37
REMARK SMILES IDX 28 38 29 39 76 40 30 41 81 42 75 43 77 44 31 45 80 46 74 47
REMARK SMILES IDX 73 48 32 50 62 51 43 52 61 53 44 54 47 55 60 56 78 57 45 58
REMARK SMILES IDX 46 59 59 61 79 62 48 63 33 64 34 65 42 66 35 67 41 68 36 69
REMARK SMILES IDX 37 70 38 71 39 72 40 73 63 74 64 75 72 76 65 77 71 78 66 79
REMARK SMILES IDX 67 80 68 81 69 82 70 83 49 84 50 85 58 86 51 87 57 88 52 89
REMARK SMILES IDX 53 90 54 91 55 92 56 93
REMARK H PARENT 16 7 6 16 9 18 2 24 21 30 77 49 47 60
REMARK Flexibility Score: inf
ROOT
ATOM      1  C   UNL     1      -3.933   3.281  -1.046  1.00  0.00     0.023 C 
ENDROOT
BRANCH   1   2
ATOM      2  C   UNL     1      -2.631   2.481  -0.932  1.00  0.00     0.023 C 
BRANCH   2   3
ATOM      3  C   UNL     1      -2.512   1.312  -1.919  1.00  0.00     0.116 C 
BRANCH   3   4
ATOM      4  N   UNL     1      -1.878   1.685  -3.176  1.00  0.00    -0.356 N 
ATOM      5  C   UNL     1      -0.604   1.423  -3.616  1.00  0.00     0.227 C 
ATOM      6  O   UNL     1      -0.306   1.693  -4.779  1.00  0.00    -0.274 OA
ATOM      7  H   UNL     1      -2.443   2.198  -3.798  1.00  0.00     0.163 HD
BRANCH   5   8
ATOM      8  C   UNL     1       0.389   0.793  -2.641  1.00  0.00     0.103 C 
ATOM      9  C   UNL     1       2.751   0.188  -2.964  1.00  0.00     0.107 C 
ATOM     10  C   UNL     1       1.875  -1.012  -2.991  1.00  0.00    -0.006 C 
ATOM     11  C   UNL     1       1.815   1.377  -2.732  1.00  0.00     0.047 C 
ATOM     12  C   UNL     1       0.583  -0.680  -2.883  1.00  0.00    -0.016 C 
BRANCH   9  13
ATOM     13  N   UNL     1       3.905   0.044  -2.089  1.00  0.00    -0.332 N 
ATOM     14  N   UNL     1       3.427  -0.078   0.242  1.00  0.00    -0.335 N 
ATOM     15  C   UNL     1       4.250  -0.036  -0.805  1.00  0.00     0.315 C 
ATOM     16  H   UNL     1       3.899  -0.040   1.105  1.00  0.00     0.165 HD
ATOM     17  O   UNL     1       5.462  -0.071  -0.561  1.00  0.00    -0.249 OA
ATOM     18  H   UNL     1       4.718  -0.015  -2.641  1.00  0.00     0.165 HD
BRANCH  14  19
ATOM     19  C   UNL     1       1.992  -0.167   0.387  1.00  0.00     0.095 C 
ATOM     20  C   UNL     1      -2.030  -0.595   1.661  1.00  0.00     0.332 C 
ATOM     21  N   UNL     1      -0.565  -0.547   1.727  1.00  0.00    -0.337 N 
ATOM     22  C   UNL     1      -0.078   0.799   1.405  1.00  0.00     0.264 C 
ATOM     23  C   UNL     1       0.007  -1.593   0.867  1.00  0.00     0.264 C 
ATOM     24  H   UNL     1      -0.254  -0.742   2.679  1.00  0.00     0.347 HD
ATOM     25  C   UNL     1       1.447   0.885   1.349  1.00  0.00     0.086 C 
ATOM     26  C   UNL     1       1.535  -1.549   0.837  1.00  0.00     0.086 C 
ENDBRANCH  14  19
ENDBRANCH   9  13
ENDBRANCH   5   8
ENDBRANCH   3   4
ENDBRANCH   2   3
ENDBRANCH   1   2
BRANCH   1  27
ATOM     27  C   UNL     1      -5.199   2.510  -0.669  1.00  0.00     0.116 C 
BRANCH  27  28
ATOM     28  N   UNL     1      -5.302   2.183   0.746  1.00  0.00    -0.352 N 
ATOM     29  C   UNL     1      -6.449   2.007   1.494  1.00  0.00     0.251 C 
ATOM     30  H   UNL     1      -4.451   2.074   1.228  1.00  0.00     0.163 HD
ATOM     31  O   UNL     1      -6.368   1.810   2.703  1.00  0.00    -0.269 OA
BRANCH  29  32
ATOM     32  C   UNL     1      -7.778   2.112   0.841  1.00  0.00     0.039 A 
ATOM     33  C   UNL     1      -8.758   2.917   1.429  1.00  0.00     0.014 A 
ATOM     34  C   UNL     1      -8.044   1.462  -0.366  1.00  0.00     0.014 A 
ATOM     35  C   UNL     1      -9.967   3.140   0.760  1.00  0.00     0.010 A 
ATOM     36  C   UNL     1      -9.217   1.744  -1.065  1.00  0.00     0.010 A 
ATOM     37  C   UNL     1     -10.189   2.594  -0.515  1.00  0.00    -0.014 A 
BRANCH  37  38
ATOM     38  C   UNL     1     -11.411   2.929  -1.295  1.00  0.00     0.031 A 
ATOM     39  C   UNL     1     -12.401   1.859  -1.673  1.00  0.00     0.074 A 
ATOM     40  C   UNL     1     -11.595   4.191  -1.733  1.00  0.00     0.049 A 
ATOM     41  N   UNL     1     -13.506   1.968  -2.366  1.00  0.00    -0.248 NA
ATOM     42  C   UNL     1     -12.097   0.486  -1.241  1.00  0.00     0.031 C 
ATOM     43  C   UNL     1     -10.676   5.311  -1.506  1.00  0.00     0.029 A 
ATOM     44  N   UNL     1     -12.613   4.745  -2.469  1.00  0.00    -0.354 N 
ATOM     45  C   UNL     1     -14.017   0.679  -2.471  1.00  0.00     0.074 A 
ATOM     46  C   UNL     1     -13.076  -0.200  -1.812  1.00  0.00     0.031 C 
ATOM     47  C   UNL     1     -11.187   6.420  -2.065  1.00  0.00     0.029 A 
ATOM     48  C   UNL     1     -12.452   6.089  -2.713  1.00  0.00     0.049 A 
ATOM     49  H   UNL     1     -13.387   4.229  -2.791  1.00  0.00     0.167 HD
ATOM     50  C   UNL     1     -15.173   0.265  -3.046  1.00  0.00     0.031 A 
ATOM     51  C   UNL     1     -13.234   6.963  -3.377  1.00  0.00     0.031 A 
ATOM     52  C   UNL     1     -16.120   1.139  -3.687  1.00  0.00     0.049 A 
ATOM     53  C   UNL     1     -14.535   6.491  -3.964  1.00  0.00     0.074 A 
ATOM     54  C   UNL     1     -17.352   0.822  -4.231  1.00  0.00     0.029 A 
ATOM     55  N   UNL     1     -15.941   2.501  -3.870  1.00  0.00    -0.354 N 
ATOM     56  N   UNL     1     -15.042   5.281  -3.974  1.00  0.00    -0.248 NA
ATOM     57  C   UNL     1     -15.378   7.506  -4.610  1.00  0.00     0.031 C 
ATOM     58  C   UNL     1     -17.902   1.986  -4.779  1.00  0.00     0.029 A 
ATOM     59  C   UNL     1     -17.033   3.037  -4.534  1.00  0.00     0.049 A 
ATOM     60  H   UNL     1     -15.154   3.012  -3.573  1.00  0.00     0.167 HD
ATOM     61  C   UNL     1     -16.275   5.395  -4.606  1.00  0.00     0.074 A 
ATOM     62  C   UNL     1     -16.444   6.793  -4.948  1.00  0.00     0.031 C 
ATOM     63  C   UNL     1     -17.187   4.428  -4.875  1.00  0.00     0.031 A 
BRANCH  50  64
ATOM     64  C   UNL     1     -15.473  -1.211  -3.005  1.00  0.00    -0.014 A 
ATOM     65  C   UNL     1     -15.810  -1.849  -1.797  1.00  0.00     0.010 A 
ATOM     66  C   UNL     1     -15.437  -1.966  -4.190  1.00  0.00     0.010 A 
ATOM     67  C   UNL     1     -16.053  -3.224  -1.766  1.00  0.00     0.020 A 
ATOM     68  C   UNL     1     -15.707  -3.338  -4.168  1.00  0.00     0.020 A 
ATOM     69  C   UNL     1     -15.991  -3.962  -2.952  1.00  0.00     0.054 A 
BRANCH  69  70
ATOM     70  S   UNL     1     -16.311  -5.746  -2.885  1.00  0.00     0.124 S 
ATOM     71  O   UNL     1     -15.064  -6.252  -2.316  1.00  0.00    -0.237 OA
ATOM     72  O   UNL     1     -17.479  -5.833  -2.013  1.00  0.00    -0.237 OA
ATOM     73  O   UNL     1     -16.550  -6.107  -4.280  1.00  0.00    -0.744 OA
ENDBRANCH  69  70
ENDBRANCH  50  64
BRANCH  51  74
ATOM     74  C   UNL     1     -12.820   8.388  -3.488  1.00  0.00    -0.014 A 
ATOM     75  C   UNL     1     -13.466   9.378  -2.727  1.00  0.00     0.010 A 
ATOM     76  C   UNL     1     -11.761   8.757  -4.336  1.00  0.00     0.010 A 
ATOM     77  C   UNL     1     -13.069  10.715  -2.823  1.00  0.00     0.020 A 
ATOM     78  C   UNL     1     -11.345  10.089  -4.416  1.00  0.00     0.020 A 
ATOM     79  C   UNL     1     -12.009  11.062  -3.665  1.00  0.00     0.054 A 
BRANCH  79  80
ATOM     80  S   UNL     1     -11.464  12.792  -3.723  1.00  0.00     0.124 S 
ATOM     81  O   UNL     1     -12.497  13.408  -4.549  1.00  0.00    -0.237 OA
ATOM     82  O   UNL     1     -11.468  13.173  -2.313  1.00  0.00    -0.237 OA
ATOM     83  O   UNL     1     -10.138  12.710  -4.333  1.00  0.00    -0.744 OA
ENDBRANCH  79  80
ENDBRANCH  51  74
BRANCH  63  84
ATOM     84  C   UNL     1     -18.463   4.853  -5.551  1.00  0.00    -0.014 A 
ATOM     85  C   UNL     1     -18.481   5.222  -6.908  1.00  0.00     0.010 A 
ATOM     86  C   UNL     1     -19.666   4.854  -4.823  1.00  0.00     0.010 A 
ATOM     87  C   UNL     1     -19.675   5.624  -7.514  1.00  0.00     0.020 A 
ATOM     88  C   UNL     1     -20.866   5.231  -5.432  1.00  0.00     0.020 A 
ATOM     89  C   UNL     1     -20.859   5.631  -6.770  1.00  0.00     0.054 A 
BRANCH  89  90
ATOM     90  S   UNL     1     -22.402   6.135  -7.582  1.00  0.00     0.124 S 
ATOM     91  O   UNL     1     -22.264   7.588  -7.619  1.00  0.00    -0.237 OA
ATOM     92  O   UNL     1     -22.320   5.463  -8.876  1.00  0.00    -0.237 OA
ATOM     93  O   UNL     1     -23.442   5.629  -6.689  1.00  0.00    -0.744 OA
ENDBRANCH  89  90
ENDBRANCH  63  84
ENDBRANCH  37  38
ENDBRANCH  29  32
ENDBRANCH  27  28
ENDBRANCH   1  27
TORSDOF 16
