REMARK SMILES CCCc1cc(=O)[nH]c(S[C@@H]2CC[C@@]([NH2+]C)(C(=O)NCCCCNC(=O)c3ccc(-c4c5nc(c(-c6ccc(S(=O)(=O)[O-])cc6)c6ccc([nH]6)c(-c6ccc(S(=O)(=O)[O-])cc6)c6nc(c(-c7ccc(S(=O)(=O)[O-])cc7)c7ccc4[nH]7)C=C6)C=C5)cc3)C2)n1
REMARK SMILES IDX 21 1 20 2 19 3 17 4 18 5 14 7 11 8 12 9 87 10 13 11 10 12
REMARK SMILES IDX 9 13 4 14 5 15 88 16 6 17 7 18 8 19 3 21 2 22 1 23 15 24
REMARK SMILES IDX 16 25 22 28 23 29 24 30 25 31 26 33 27 34 28 35 86 36 29 37
REMARK SMILES IDX 85 38 30 39 31 40 32 41 79 42 33 43 84 44 78 45 80 46 34 47
REMARK SMILES IDX 83 48 77 49 76 50 35 52 65 53 46 54 64 55 47 56 50 57 63 58
REMARK SMILES IDX 81 59 48 60 49 61 62 63 82 64 51 65 36 66 37 67 45 68 38 69
REMARK SMILES IDX 44 70 39 71 40 72 41 73 42 74 43 75 66 76 67 77 75 78 68 79
REMARK SMILES IDX 74 80 69 81 70 82 71 83 72 84 73 85 52 86 53 87 61 88 54 89
REMARK SMILES IDX 60 90 55 91 56 92 57 93 58 94 59 95
REMARK H PARENT 19 6 8 20 15 26 15 27 24 32 80 51 50 62
REMARK Flexibility Score: inf
ROOT
ATOM      1  C   UNL     1      -2.212  -5.108  -0.478  1.00  0.00     0.023 C 
ENDROOT
BRANCH   1   2
ATOM      2  C   UNL     1      -0.825  -4.527  -0.729  1.00  0.00     0.116 C 
BRANCH   2   3
ATOM      3  N   UNL     1      -0.575  -4.284  -2.143  1.00  0.00    -0.351 N 
ATOM      4  C   UNL     1      -0.273  -3.122  -2.811  1.00  0.00     0.281 C 
ATOM      5  O   UNL     1      -0.160  -3.175  -4.037  1.00  0.00    -0.268 OA
ATOM      6  H   UNL     1      -0.632  -5.084  -2.714  1.00  0.00     0.163 HD
BRANCH   4   7
ATOM      7  C   UNL     1      -0.043  -1.806  -2.007  1.00  0.00     0.176 C 
ATOM      8  C   UNL     1      -1.132   0.066  -3.135  1.00  0.00     0.062 C 
ATOM      9  C   UNL     1      -1.922  -0.161  -1.860  1.00  0.00     0.022 C 
ATOM     10  C   UNL     1       0.231  -0.571  -2.901  1.00  0.00     0.094 C 
ATOM     11  C   UNL     1      -1.366  -1.452  -1.271  1.00  0.00     0.080 C 
BRANCH   8  12
ATOM     12  S   UNL     1      -1.093   1.787  -3.703  1.00  0.00    -0.084 SA
BRANCH  12  13
ATOM     13  C   UNL     1      -0.409   2.731  -2.410  1.00  0.00     0.168 A 
ATOM     14  C   UNL     1       0.456   3.223  -0.354  1.00  0.00     0.049 A 
ATOM     15  C   UNL     1       0.587   4.527  -0.647  1.00  0.00     0.095 A 
ATOM     16  N   UNL     1      -0.052   2.298  -1.246  1.00  0.00    -0.229 NA
ATOM     17  C   UNL     1       0.183   4.994  -1.976  1.00  0.00     0.251 A 
ATOM     18  O   UNL     1       0.291   6.172  -2.300  1.00  0.00    -0.269 OA
ATOM     19  N   UNL     1      -0.308   4.032  -2.797  1.00  0.00    -0.301 N 
ATOM     20  H   UNL     1      -0.602   4.284  -3.702  1.00  0.00     0.172 HD
BRANCH  14  21
ATOM     21  C   UNL     1       0.897   2.762   1.027  1.00  0.00     0.056 C 
BRANCH  21  22
ATOM     22  C   UNL     1       0.301   1.465   1.577  1.00  0.00     0.003 C 
ATOM     23  C   UNL     1       1.000   0.245   1.017  1.00  0.00     0.004 C 
ENDBRANCH  21  22
ENDBRANCH  14  21
ENDBRANCH  12  13
ENDBRANCH   8  12
BRANCH   7  24
ATOM     24  N   UNL     1       1.107  -2.009  -1.086  1.00  0.00    -0.336 N 
ATOM     25  C   UNL     1       2.381  -2.282  -1.739  1.00  0.00     0.331 C 
ATOM     26  H   UNL     1       0.888  -2.798  -0.478  1.00  0.00     0.346 HD
ATOM     27  H   UNL     1       1.228  -1.130  -0.584  1.00  0.00     0.346 HD
ENDBRANCH   7  24
ENDBRANCH   4   7
ENDBRANCH   2   3
ENDBRANCH   1   2
BRANCH   1  28
ATOM     28  C   UNL     1      -2.407  -6.519  -1.021  1.00  0.00     0.023 C 
BRANCH  28  29
ATOM     29  C   UNL     1      -1.399  -7.540  -0.509  1.00  0.00     0.116 C 
BRANCH  29  30
ATOM     30  N   UNL     1      -1.447  -7.703   0.937  1.00  0.00    -0.352 N 
ATOM     31  C   UNL     1      -1.553  -8.864   1.666  1.00  0.00     0.251 C 
ATOM     32  H   UNL     1      -1.397  -6.872   1.463  1.00  0.00     0.163 HD
ATOM     33  O   UNL     1      -1.743  -8.819   2.877  1.00  0.00    -0.269 OA
BRANCH  31  34
ATOM     34  C   UNL     1      -1.468 -10.163   0.967  1.00  0.00     0.039 A 
ATOM     35  C   UNL     1      -2.438 -11.135   1.220  1.00  0.00     0.014 A 
ATOM     36  C   UNL     1      -0.461 -10.396   0.026  1.00  0.00     0.014 A 
ATOM     37  C   UNL     1      -2.438 -12.316   0.474  1.00  0.00     0.010 A 
ATOM     38  C   UNL     1      -0.515 -11.533  -0.774  1.00  0.00     0.010 A 
ATOM     39  C   UNL     1      -1.502 -12.506  -0.558  1.00  0.00    -0.014 A 
BRANCH  39  40
ATOM     40  C   UNL     1      -1.544 -13.711  -1.425  1.00  0.00     0.031 A 
ATOM     41  C   UNL     1      -0.383 -14.669  -1.444  1.00  0.00     0.074 A 
ATOM     42  C   UNL     1      -2.598 -13.911  -2.242  1.00  0.00     0.049 A 
ATOM     43  N   UNL     1      -0.215 -15.745  -2.168  1.00  0.00    -0.248 NA
ATOM     44  C   UNL     1       0.747 -14.365  -0.550  1.00  0.00     0.031 C 
ATOM     45  C   UNL     1      -3.768 -13.034  -2.347  1.00  0.00     0.029 A 
ATOM     46  N   UNL     1      -2.856 -14.914  -3.142  1.00  0.00    -0.354 N 
ATOM     47  C   UNL     1       1.040 -16.237  -1.829  1.00  0.00     0.074 A 
ATOM     48  C   UNL     1       1.613 -15.312  -0.877  1.00  0.00     0.031 C 
ATOM     49  C   UNL     1      -4.630 -13.555  -3.235  1.00  0.00     0.029 A 
ATOM     50  C   UNL     1      -4.058 -14.775  -3.797  1.00  0.00     0.049 A 
ATOM     51  H   UNL     1      -2.239 -15.664  -3.305  1.00  0.00     0.167 HD
ATOM     52  C   UNL     1       1.652 -17.368  -2.254  1.00  0.00     0.031 A 
ATOM     53  C   UNL     1      -4.634 -15.536  -4.748  1.00  0.00     0.031 A 
ATOM     54  C   UNL     1       1.077 -18.288  -3.199  1.00  0.00     0.049 A 
ATOM     55  C   UNL     1      -3.923 -16.775  -5.223  1.00  0.00     0.074 A 
ATOM     56  C   UNL     1       1.595 -19.487  -3.655  1.00  0.00     0.029 A 
ATOM     57  N   UNL     1      -0.141 -18.109  -3.839  1.00  0.00    -0.354 N 
ATOM     58  N   UNL     1      -2.766 -17.260  -4.838  1.00  0.00    -0.248 NA
ATOM     59  C   UNL     1      -4.601 -17.574  -6.252  1.00  0.00     0.031 C 
ATOM     60  C   UNL     1       0.720 -20.003  -4.617  1.00  0.00     0.029 A 
ATOM     61  C   UNL     1      -0.377 -19.161  -4.708  1.00  0.00     0.049 A 
ATOM     62  H   UNL     1      -0.747 -17.347  -3.697  1.00  0.00     0.167 HD
ATOM     63  C   UNL     1      -2.592 -18.438  -5.557  1.00  0.00     0.074 A 
ATOM     64  C   UNL     1      -3.769 -18.599  -6.386  1.00  0.00     0.031 C 
ATOM     65  C   UNL     1      -1.553 -19.308  -5.530  1.00  0.00     0.031 A 
BRANCH  52  66
ATOM     66  C   UNL     1       3.023 -17.668  -1.703  1.00  0.00    -0.014 A 
ATOM     67  C   UNL     1       3.206 -18.009  -0.350  1.00  0.00     0.010 A 
ATOM     68  C   UNL     1       4.140 -17.646  -2.557  1.00  0.00     0.010 A 
ATOM     69  C   UNL     1       4.484 -18.277   0.147  1.00  0.00     0.020 A 
ATOM     70  C   UNL     1       5.416 -17.946  -2.071  1.00  0.00     0.020 A 
ATOM     71  C   UNL     1       5.582 -18.242  -0.717  1.00  0.00     0.054 A 
BRANCH  71  72
ATOM     72  S   UNL     1       7.226 -18.614  -0.047  1.00  0.00     0.124 S 
ATOM     73  O   UNL     1       7.495 -17.429   0.763  1.00  0.00    -0.237 OA
ATOM     74  O   UNL     1       6.994 -19.847   0.701  1.00  0.00    -0.237 OA
ATOM     75  O   UNL     1       8.062 -18.757  -1.236  1.00  0.00    -0.744 OA
ENDBRANCH  71  72
ENDBRANCH  52  66
BRANCH  53  76
ATOM     76  C   UNL     1      -5.962 -15.155  -5.304  1.00  0.00    -0.014 A 
ATOM     77  C   UNL     1      -7.102 -15.931  -5.030  1.00  0.00     0.010 A 
ATOM     78  C   UNL     1      -6.096 -14.006  -6.105  1.00  0.00     0.010 A 
ATOM     79  C   UNL     1      -8.346 -15.576  -5.560  1.00  0.00     0.020 A 
ATOM     80  C   UNL     1      -7.343 -13.630  -6.611  1.00  0.00     0.020 A 
ATOM     81  C   UNL     1      -8.459 -14.425  -6.344  1.00  0.00     0.054 A 
BRANCH  81  82
ATOM     82  S   UNL     1     -10.094 -13.956  -6.978  1.00  0.00     0.124 S 
ATOM     83  O   UNL     1     -10.325 -14.969  -8.001  1.00  0.00    -0.237 OA
ATOM     84  O   UNL     1     -10.932 -14.055  -5.786  1.00  0.00    -0.237 OA
ATOM     85  O   UNL     1      -9.890 -12.597  -7.475  1.00  0.00    -0.744 OA
ENDBRANCH  81  82
ENDBRANCH  53  76
BRANCH  65  86
ATOM     86  C   UNL     1      -1.653 -20.538  -6.395  1.00  0.00    -0.014 A 
ATOM     87  C   UNL     1      -1.560 -20.459  -7.796  1.00  0.00     0.010 A 
ATOM     88  C   UNL     1      -1.786 -21.801  -5.788  1.00  0.00     0.010 A 
ATOM     89  C   UNL     1      -1.632 -21.617  -8.575  1.00  0.00     0.020 A 
ATOM     90  C   UNL     1      -1.825 -22.964  -6.561  1.00  0.00     0.020 A 
ATOM     91  C   UNL     1      -1.762 -22.863  -7.952  1.00  0.00     0.054 A 
BRANCH  91  92
ATOM     92  S   UNL     1      -1.807 -24.354  -8.984  1.00  0.00     0.124 S 
ATOM     93  O   UNL     1      -3.127 -24.257  -9.601  1.00  0.00    -0.237 OA
ATOM     94  O   UNL     1      -0.675 -24.152  -9.885  1.00  0.00    -0.237 OA
ATOM     95  O   UNL     1      -1.646 -25.445  -8.025  1.00  0.00    -0.744 OA
ENDBRANCH  91  92
ENDBRANCH  65  86
ENDBRANCH  39  40
ENDBRANCH  31  34
ENDBRANCH  29  30
ENDBRANCH  28  29
ENDBRANCH   1  28
TORSDOF 19
