REMARK SMILES CC(C)CCc1cc2c(cc1Cl)C=C(C(=O)NCCCCNC(=O)c1ccc(-c3c4nc(c(-c5ccc(S(=O)(=O)[O-])cc5)c5ccc([nH]5)c(-c5ccc(S(=O)(=O)[O-])cc5)c5nc(c(-c6ccc(S(=O)(=O)[O-])cc6)c6ccc3[nH]6)C=C5)C=C4)cc1)[C@@H](C(F)(F)F)O2
REMARK SMILES IDX 19 1 18 2 17 3 15 4 16 5 14 7 6 8 7 9 11 10 8 11 10 12 12 13
REMARK SMILES IDX 9 14 90 15 13 16 85 17 5 18 4 19 2 20 1 21 3 22 86 23 87 24
REMARK SMILES IDX 88 25 89 26 20 27 21 28 22 29 23 30 24 32 25 33 26 34 84 35
REMARK SMILES IDX 27 36 83 37 28 38 29 39 30 40 77 41 31 42 82 43 76 44 78 45
REMARK SMILES IDX 32 46 81 47 75 48 74 49 33 51 63 52 44 53 62 54 45 55 48 56
REMARK SMILES IDX 61 57 79 58 46 59 47 60 60 62 80 63 49 64 34 65 35 66 43 67
REMARK SMILES IDX 36 68 42 69 37 70 38 71 39 72 40 73 41 74 64 75 65 76 73 77
REMARK SMILES IDX 66 78 72 79 67 80 68 81 69 82 70 83 71 84 50 85 51 86 59 87
REMARK SMILES IDX 52 88 58 89 53 90 54 91 55 92 56 93 57 94
REMARK H PARENT 17 6 22 31 78 50 48 61
REMARK Flexibility Score: inf
ROOT
ATOM      1  C   UNL     1      -2.647  10.872   1.538  1.00  0.00     0.023 C 
ENDROOT
BRANCH   1   2
ATOM      2  C   UNL     1      -2.429  10.493   0.078  1.00  0.00     0.116 C 
BRANCH   2   3
ATOM      3  N   UNL     1      -1.028  10.320  -0.255  1.00  0.00    -0.352 N 
ATOM      4  C   UNL     1      -0.212   9.269  -0.503  1.00  0.00     0.251 C 
ATOM      5  O   UNL     1       0.958   9.546  -0.783  1.00  0.00    -0.270 OA
ATOM      6  H   UNL     1      -0.553  11.181  -0.315  1.00  0.00     0.163 HD
BRANCH   4   7
ATOM      7  C   UNL     1      -0.631   7.837  -0.443  1.00  0.00     0.067 C 
ATOM      8  C   UNL     1      -0.492   2.798   0.100  1.00  0.00    -0.026 A 
ATOM      9  C   UNL     1      -1.490   3.735  -0.229  1.00  0.00     0.052 A 
ATOM     10  C   UNL     1       0.802   3.281   0.346  1.00  0.00     0.045 A 
ATOM     11  C   UNL     1      -1.205   5.099  -0.304  1.00  0.00     0.128 A 
ATOM     12  C   UNL     1       1.094   4.645   0.220  1.00  0.00     0.032 A 
ATOM     13  Cl  UNL     1       2.090   2.263   0.882  1.00  0.00    -0.084 Cl
ATOM     14  C   UNL     1       0.088   5.559  -0.099  1.00  0.00     0.019 A 
ATOM     15  O   UNL     1      -2.263   5.916  -0.556  1.00  0.00    -0.475 OA
ATOM     16  C   UNL     1       0.372   6.981  -0.182  1.00  0.00     0.025 C 
ATOM     17  C   UNL     1      -2.034   7.348  -0.692  1.00  0.00     0.314 C 
BRANCH   8  18
ATOM     18  C   UNL     1      -0.889   1.340   0.188  1.00  0.00     0.037 C 
BRANCH  18  19
ATOM     19  C   UNL     1      -0.753   0.559  -1.131  1.00  0.00     0.008 C 
BRANCH  19  20
ATOM     20  C   UNL     1       0.669   0.084  -1.484  1.00  0.00    -0.017 C 
ATOM     21  C   UNL     1       1.209  -0.935  -0.476  1.00  0.00     0.007 C 
ATOM     22  C   UNL     1       0.690  -0.543  -2.881  1.00  0.00     0.007 C 
ENDBRANCH  19  20
ENDBRANCH  18  19
ENDBRANCH   8  18
BRANCH  17  23
ATOM     23  C   UNL     1      -2.603   7.753  -2.063  1.00  0.00     0.429 C 
ATOM     24  F   UNL     1      -3.955   7.618  -2.062  1.00  0.00    -0.167 F 
ATOM     25  F   UNL     1      -2.352   9.038  -2.394  1.00  0.00    -0.167 F 
ATOM     26  F   UNL     1      -2.123   6.981  -3.064  1.00  0.00    -0.167 F 
ENDBRANCH  17  23
ENDBRANCH   4   7
ENDBRANCH   2   3
ENDBRANCH   1   2
BRANCH   1  27
ATOM     27  C   UNL     1      -2.415  12.351   1.854  1.00  0.00     0.023 C 
BRANCH  27  28
ATOM     28  C   UNL     1      -3.150  13.341   0.956  1.00  0.00     0.116 C 
BRANCH  28  29
ATOM     29  N   UNL     1      -4.576  13.077   0.803  1.00  0.00    -0.352 N 
ATOM     30  C   UNL     1      -5.574  13.986   0.516  1.00  0.00     0.251 C 
ATOM     31  H   UNL     1      -4.860  12.141   0.918  1.00  0.00     0.163 HD
ATOM     32  O   UNL     1      -6.743  13.641   0.455  1.00  0.00    -0.269 OA
BRANCH  30  33
ATOM     33  C   UNL     1      -5.187  15.402   0.348  1.00  0.00     0.039 A 
ATOM     34  C   UNL     1      -4.189  15.744  -0.564  1.00  0.00     0.014 A 
ATOM     35  C   UNL     1      -5.722  16.354   1.218  1.00  0.00     0.014 A 
ATOM     36  C   UNL     1      -3.594  16.996  -0.477  1.00  0.00     0.010 A 
ATOM     37  C   UNL     1      -5.174  17.637   1.247  1.00  0.00     0.010 A 
ATOM     38  C   UNL     1      -4.065  17.947   0.445  1.00  0.00    -0.014 A 
BRANCH  38  39
ATOM     39  C   UNL     1      -3.356  19.244   0.576  1.00  0.00     0.031 A 
ATOM     40  C   UNL     1      -2.612  19.590   1.840  1.00  0.00     0.074 A 
ATOM     41  C   UNL     1      -3.316  20.078  -0.480  1.00  0.00     0.049 A 
ATOM     42  N   UNL     1      -1.914  20.662   2.113  1.00  0.00    -0.248 NA
ATOM     43  C   UNL     1      -2.653  18.608   2.938  1.00  0.00     0.031 C 
ATOM     44  C   UNL     1      -3.965  19.828  -1.769  1.00  0.00     0.029 A 
ATOM     45  N   UNL     1      -2.676  21.278  -0.655  1.00  0.00    -0.354 N 
ATOM     46  C   UNL     1      -1.449  20.495   3.413  1.00  0.00     0.074 A 
ATOM     47  C   UNL     1      -1.962  19.229   3.886  1.00  0.00     0.031 C 
ATOM     48  C   UNL     1      -3.629  20.805  -2.623  1.00  0.00     0.029 A 
ATOM     49  C   UNL     1      -2.805  21.787  -1.925  1.00  0.00     0.049 A 
ATOM     50  H   UNL     1      -2.172  21.730   0.060  1.00  0.00     0.167 HD
ATOM     51  C   UNL     1      -0.657  21.319   4.140  1.00  0.00     0.031 A 
ATOM     52  C   UNL     1      -2.322  22.919  -2.473  1.00  0.00     0.031 A 
ATOM     53  C   UNL     1      -0.140  22.573   3.657  1.00  0.00     0.049 A 
ATOM     54  C   UNL     1      -1.492  23.842  -1.633  1.00  0.00     0.074 A 
ATOM     55  C   UNL     1       0.667  23.479   4.323  1.00  0.00     0.029 A 
ATOM     56  N   UNL     1      -0.370  23.095   2.393  1.00  0.00    -0.354 N 
ATOM     57  N   UNL     1      -1.091  23.682  -0.394  1.00  0.00    -0.248 NA
ATOM     58  C   UNL     1      -1.059  25.100  -2.252  1.00  0.00     0.031 C 
ATOM     59  C   UNL     1       0.884  24.572   3.479  1.00  0.00     0.029 A 
ATOM     60  C   UNL     1       0.261  24.320   2.266  1.00  0.00     0.049 A 
ATOM     61  H   UNL     1      -0.903  22.658   1.690  1.00  0.00     0.167 HD
ATOM     62  C   UNL     1      -0.361  24.821  -0.083  1.00  0.00     0.074 A 
ATOM     63  C   UNL     1      -0.355  25.652  -1.270  1.00  0.00     0.031 C 
ATOM     64  C   UNL     1       0.243  25.147   1.085  1.00  0.00     0.031 A 
BRANCH  51  65
ATOM     65  C   UNL     1      -0.305  20.908   5.545  1.00  0.00    -0.014 A 
ATOM     66  C   UNL     1      -0.846  21.615   6.636  1.00  0.00     0.010 A 
ATOM     67  C   UNL     1       0.627  19.884   5.790  1.00  0.00     0.010 A 
ATOM     68  C   UNL     1      -0.452  21.317   7.943  1.00  0.00     0.020 A 
ATOM     69  C   UNL     1       1.005  19.566   7.098  1.00  0.00     0.020 A 
ATOM     70  C   UNL     1       0.476  20.297   8.166  1.00  0.00     0.054 A 
BRANCH  70  71
ATOM     71  S   UNL     1       0.968  19.909   9.869  1.00  0.00     0.124 S 
ATOM     72  O   UNL     1       1.952  20.949  10.150  1.00  0.00    -0.237 OA
ATOM     73  O   UNL     1      -0.292  20.016  10.601  1.00  0.00    -0.237 OA
ATOM     74  O   UNL     1       1.501  18.552   9.766  1.00  0.00    -0.744 OA
ENDBRANCH  70  71
ENDBRANCH  51  65
BRANCH  52  75
ATOM     75  C   UNL     1      -2.621  23.202  -3.901  1.00  0.00    -0.014 A 
ATOM     76  C   UNL     1      -3.935  23.504  -4.304  1.00  0.00     0.010 A 
ATOM     77  C   UNL     1      -1.625  23.036  -4.878  1.00  0.00     0.010 A 
ATOM     78  C   UNL     1      -4.265  23.560  -5.660  1.00  0.00     0.020 A 
ATOM     79  C   UNL     1      -1.946  23.119  -6.237  1.00  0.00     0.020 A 
ATOM     80  C   UNL     1      -3.272  23.344  -6.617  1.00  0.00     0.054 A 
BRANCH  80  81
ATOM     81  S   UNL     1      -3.736  23.331  -8.371  1.00  0.00     0.124 S 
ATOM     82  O   UNL     1      -4.312  21.997  -8.515  1.00  0.00    -0.237 OA
ATOM     83  O   UNL     1      -4.684  24.439  -8.461  1.00  0.00    -0.237 OA
ATOM     84  O   UNL     1      -2.466  23.544  -9.060  1.00  0.00    -0.744 OA
ENDBRANCH  80  81
ENDBRANCH  52  75
BRANCH  64  85
ATOM     85  C   UNL     1       0.954  26.470   1.165  1.00  0.00    -0.014 A 
ATOM     86  C   UNL     1       2.359  26.506   1.234  1.00  0.00     0.010 A 
ATOM     87  C   UNL     1       0.227  27.665   1.302  1.00  0.00     0.010 A 
ATOM     88  C   UNL     1       3.024  27.711   1.472  1.00  0.00     0.020 A 
ATOM     89  C   UNL     1       0.890  28.876   1.518  1.00  0.00     0.020 A 
ATOM     90  C   UNL     1       2.284  28.886   1.626  1.00  0.00     0.054 A 
BRANCH  90  91
ATOM     91  S   UNL     1       3.160  30.437   1.970  1.00  0.00     0.124 S 
ATOM     92  O   UNL     1       3.444  30.319   3.397  1.00  0.00    -0.237 OA
ATOM     93  O   UNL     1       4.322  30.355   1.088  1.00  0.00    -0.237 OA
ATOM     94  O   UNL     1       2.187  31.466   1.609  1.00  0.00    -0.744 OA
ENDBRANCH  90  91
ENDBRANCH  64  85
ENDBRANCH  38  39
ENDBRANCH  30  33
ENDBRANCH  28  29
ENDBRANCH  27  28
ENDBRANCH   1  27
TORSDOF 18
