REMARK SMILES CCCCn1c(C[N@H+]2C[C@H]3C(=O)NC[C@@]3(C(=O)NCCCCNC(=O)c3ccc(-c4c5nc(c(-c6ccc(S(=O)(=O)[O-])cc6)c6ccc([nH]6)c(-c6ccc(S(=O)(=O)[O-])cc6)c6nc(c(-c7ccc(S(=O)(=O)[O-])cc7)c7ccc4[nH]7)C=C6)C=C5)cc3)C2)nc2ccccc21
REMARK SMILES IDX 19 1 18 2 16 3 17 4 15 6 8 7 9 8 86 9 10 11 11 12 14 13
REMARK SMILES IDX 12 14 13 15 7 17 6 18 5 19 93 20 87 21 88 22 92 23 89 24
REMARK SMILES IDX 91 25 90 26 4 27 3 28 2 29 1 30 20 31 21 32 22 33 23 34
REMARK SMILES IDX 24 35 25 37 26 38 27 39 85 40 28 41 84 42 29 43 30 44 31 45
REMARK SMILES IDX 78 46 32 47 83 48 77 49 79 50 33 51 82 52 76 53 75 54 34 56
REMARK SMILES IDX 64 57 45 58 63 59 46 60 49 61 62 62 80 63 47 64 48 65 61 67
REMARK SMILES IDX 81 68 50 69 35 70 36 71 44 72 37 73 43 74 38 75 39 76 40 77
REMARK SMILES IDX 41 78 42 79 65 80 66 81 74 82 67 83 73 84 68 85 69 86 70 87
REMARK SMILES IDX 71 88 72 89 51 90 52 91 60 92 53 93 59 94 54 95 55 96 56 97
REMARK SMILES IDX 57 98 58 99
REMARK H PARENT 18 5 8 10 13 16 23 36 79 55 49 66
REMARK Flexibility Score: inf
ROOT
ATOM      1  C   UNL     1      -4.366   1.850   1.658  1.00  0.00     0.116 C 
ENDROOT
BRANCH   1   2
ATOM      2  N   UNL     1      -4.638   3.003   0.793  1.00  0.00    -0.355 N 
ATOM      3  C   UNL     1      -4.266   3.207  -0.534  1.00  0.00     0.234 C 
ATOM      4  O   UNL     1      -4.321   4.344  -1.000  1.00  0.00    -0.274 OA
ATOM      5  H   UNL     1      -5.153   3.733   1.207  1.00  0.00     0.163 HD
BRANCH   3   6
ATOM      6  C   UNL     1      -3.885   1.937  -1.378  1.00  0.00     0.132 C 
ATOM      7  N   UNL     1      -1.652   1.055  -1.361  1.00  0.00    -0.327 N 
ATOM      8  C   UNL     1      -2.069   1.038  -2.763  1.00  0.00     0.277 C 
ATOM      9  C   UNL     1      -2.475   2.119  -0.783  1.00  0.00     0.282 C 
ATOM     10  H   UNL     1      -0.640   1.184  -1.359  1.00  0.00     0.348 HD
ATOM     11  C   UNL     1      -3.361   1.839  -2.834  1.00  0.00     0.156 C 
ATOM     12  C   UNL     1      -4.368   1.024  -3.606  1.00  0.00     0.230 C 
ATOM     13  C   UNL     1      -5.391   1.900  -1.734  1.00  0.00     0.139 C 
ATOM     14  O   UNL     1      -4.231   0.503  -4.688  1.00  0.00    -0.275 OA
ATOM     15  N   UNL     1      -5.522   1.034  -2.866  1.00  0.00    -0.354 N 
ATOM     16  H   UNL     1      -6.330   0.515  -3.084  1.00  0.00     0.163 HD
BRANCH   7  17
ATOM     17  C   UNL     1      -1.705  -0.169  -0.529  1.00  0.00     0.339 C 
BRANCH  17  18
ATOM     18  C   UNL     1      -1.857  -1.431  -1.283  1.00  0.00     0.165 A 
ATOM     19  N   UNL     1      -0.916  -1.961  -2.138  1.00  0.00    -0.323 N 
ATOM     20  C   UNL     1      -1.635  -2.622  -3.120  1.00  0.00     0.068 A 
ATOM     21  N   UNL     1      -3.027  -2.019  -1.429  1.00  0.00    -0.227 NA
ATOM     22  C   UNL     1      -2.941  -2.650  -2.629  1.00  0.00     0.089 A 
ATOM     23  C   UNL     1      -1.315  -3.122  -4.386  1.00  0.00     0.028 A 
ATOM     24  C   UNL     1      -3.982  -3.184  -3.396  1.00  0.00     0.030 A 
ATOM     25  C   UNL     1      -2.381  -3.595  -5.168  1.00  0.00     0.002 A 
ATOM     26  C   UNL     1      -3.692  -3.626  -4.686  1.00  0.00     0.002 A 
BRANCH  19  27
ATOM     27  C   UNL     1       0.531  -1.858  -2.041  1.00  0.00     0.124 C 
BRANCH  27  28
ATOM     28  C   UNL     1       1.228  -0.525  -2.373  1.00  0.00     0.022 C 
BRANCH  28  29
ATOM     29  C   UNL     1       1.517   0.497  -1.257  1.00  0.00    -0.002 C 
ATOM     30  C   UNL     1       1.958  -0.038   0.097  1.00  0.00     0.004 C 
ENDBRANCH  28  29
ENDBRANCH  27  28
ENDBRANCH  19  27
ENDBRANCH  17  18
ENDBRANCH   7  17
ENDBRANCH   3   6
ENDBRANCH   1   2
BRANCH   1  31
ATOM     31  C   UNL     1      -3.271   2.188   2.687  1.00  0.00     0.023 C 
BRANCH  31  32
ATOM     32  C   UNL     1      -3.752   3.064   3.848  1.00  0.00     0.023 C 
BRANCH  32  33
ATOM     33  C   UNL     1      -4.910   2.449   4.630  1.00  0.00     0.116 C 
BRANCH  33  34
ATOM     34  N   UNL     1      -4.605   1.120   5.117  1.00  0.00    -0.352 N 
ATOM     35  C   UNL     1      -4.027   0.619   6.248  1.00  0.00     0.251 C 
ATOM     36  H   UNL     1      -4.878   0.414   4.486  1.00  0.00     0.163 HD
ATOM     37  O   UNL     1      -3.977  -0.612   6.323  1.00  0.00    -0.269 OA
BRANCH  35  38
ATOM     38  C   UNL     1      -3.425   1.432   7.337  1.00  0.00     0.039 A 
ATOM     39  C   UNL     1      -3.391   2.826   7.391  1.00  0.00     0.014 A 
ATOM     40  C   UNL     1      -2.792   0.703   8.362  1.00  0.00     0.014 A 
ATOM     41  C   UNL     1      -2.665   3.472   8.381  1.00  0.00     0.010 A 
ATOM     42  C   UNL     1      -2.080   1.343   9.366  1.00  0.00     0.010 A 
ATOM     43  C   UNL     1      -1.977   2.727   9.340  1.00  0.00    -0.014 A 
BRANCH  43  44
ATOM     44  C   UNL     1      -1.256   3.463  10.370  1.00  0.00     0.031 A 
ATOM     45  C   UNL     1      -2.133   4.323  11.207  1.00  0.00     0.074 A 
ATOM     46  C   UNL     1       0.063   3.316  10.603  1.00  0.00     0.049 A 
ATOM     47  N   UNL     1      -2.149   5.612  11.275  1.00  0.00    -0.248 NA
ATOM     48  C   UNL     1      -3.235   3.671  11.938  1.00  0.00     0.031 C 
ATOM     49  C   UNL     1       0.950   2.288  10.047  1.00  0.00     0.029 A 
ATOM     50  N   UNL     1       0.875   3.980  11.475  1.00  0.00    -0.354 N 
ATOM     51  C   UNL     1      -3.107   5.925  12.236  1.00  0.00     0.074 A 
ATOM     52  C   UNL     1      -3.864   4.722  12.464  1.00  0.00     0.031 C 
ATOM     53  C   UNL     1       2.084   2.231  10.782  1.00  0.00     0.029 A 
ATOM     54  C   UNL     1       2.076   3.330  11.732  1.00  0.00     0.049 A 
ATOM     55  H   UNL     1       0.632   4.842  11.885  1.00  0.00     0.167 HD
ATOM     56  C   UNL     1      -3.020   7.068  12.971  1.00  0.00     0.031 A 
ATOM     57  C   UNL     1       2.983   3.647  12.688  1.00  0.00     0.031 A 
ATOM     58  C   UNL     1      -2.089   7.995  12.393  1.00  0.00     0.049 A 
ATOM     59  C   UNL     1       2.781   5.071  13.038  1.00  0.00     0.074 A 
ATOM     60  C   UNL     1      -2.097   8.922  11.377  1.00  0.00     0.029 A 
ATOM     61  N   UNL     1      -0.782   7.728  12.703  1.00  0.00    -0.354 N 
ATOM     62  N   UNL     1       2.968   6.052  12.196  1.00  0.00    -0.248 NA
ATOM     63  C   UNL     1       2.040   5.410  14.248  1.00  0.00     0.031 C 
ATOM     64  C   UNL     1      -0.739   9.077  10.974  1.00  0.00     0.029 A 
ATOM     65  C   UNL     1       0.070   8.284  11.787  1.00  0.00     0.049 A 
ATOM     66  H   UNL     1      -0.492   7.203  13.484  1.00  0.00     0.167 HD
ATOM     67  C   UNL     1       2.034   6.998  12.567  1.00  0.00     0.074 A 
ATOM     68  C   UNL     1       1.615   6.630  13.914  1.00  0.00     0.031 C 
ATOM     69  C   UNL     1       1.434   7.807  11.651  1.00  0.00     0.031 A 
BRANCH  56  70
ATOM     70  C   UNL     1      -3.408   7.161  14.430  1.00  0.00    -0.014 A 
ATOM     71  C   UNL     1      -3.649   6.029  15.236  1.00  0.00     0.010 A 
ATOM     72  C   UNL     1      -3.274   8.396  15.099  1.00  0.00     0.010 A 
ATOM     73  C   UNL     1      -3.788   6.118  16.622  1.00  0.00     0.020 A 
ATOM     74  C   UNL     1      -3.376   8.492  16.497  1.00  0.00     0.020 A 
ATOM     75  C   UNL     1      -3.647   7.350  17.247  1.00  0.00     0.054 A 
BRANCH  75  76
ATOM     76  S   UNL     1      -3.778   7.406  19.050  1.00  0.00     0.124 S 
ATOM     77  O   UNL     1      -5.187   7.079  19.256  1.00  0.00    -0.237 OA
ATOM     78  O   UNL     1      -2.826   6.380  19.466  1.00  0.00    -0.237 OA
ATOM     79  O   UNL     1      -3.401   8.778  19.381  1.00  0.00    -0.744 OA
ENDBRANCH  75  76
ENDBRANCH  56  70
BRANCH  57  80
ATOM     80  C   UNL     1       3.695   2.711  13.598  1.00  0.00    -0.014 A 
ATOM     81  C   UNL     1       3.088   1.490  13.956  1.00  0.00     0.010 A 
ATOM     82  C   UNL     1       4.787   3.154  14.369  1.00  0.00     0.010 A 
ATOM     83  C   UNL     1       3.489   0.787  15.098  1.00  0.00     0.020 A 
ATOM     84  C   UNL     1       5.196   2.453  15.517  1.00  0.00     0.020 A 
ATOM     85  C   UNL     1       4.514   1.295  15.895  1.00  0.00     0.054 A 
BRANCH  85  86
ATOM     86  S   UNL     1       4.863   0.471  17.477  1.00  0.00     0.124 S 
ATOM     87  O   UNL     1       3.639   0.729  18.230  1.00  0.00    -0.237 OA
ATOM     88  O   UNL     1       5.067  -0.918  17.070  1.00  0.00    -0.237 OA
ATOM     89  O   UNL     1       6.056   1.154  17.969  1.00  0.00    -0.744 OA
ENDBRANCH  85  86
ENDBRANCH  57  80
BRANCH  69  90
ATOM     90  C   UNL     1       2.131   8.105  10.353  1.00  0.00    -0.014 A 
ATOM     91  C   UNL     1       2.408   9.462  10.104  1.00  0.00     0.010 A 
ATOM     92  C   UNL     1       2.340   7.169   9.325  1.00  0.00     0.010 A 
ATOM     93  C   UNL     1       2.802   9.894   8.840  1.00  0.00     0.020 A 
ATOM     94  C   UNL     1       2.765   7.596   8.055  1.00  0.00     0.020 A 
ATOM     95  C   UNL     1       2.955   8.961   7.815  1.00  0.00     0.054 A 
BRANCH  95  96
ATOM     96  S   UNL     1       3.356   9.588   6.161  1.00  0.00     0.124 S 
ATOM     97  O   UNL     1       2.105  10.231   5.764  1.00  0.00    -0.237 OA
ATOM     98  O   UNL     1       4.468  10.501   6.422  1.00  0.00    -0.237 OA
ATOM     99  O   UNL     1       3.706   8.390   5.403  1.00  0.00    -0.744 OA
ENDBRANCH  95  96
ENDBRANCH  69  90
ENDBRANCH  43  44
ENDBRANCH  35  38
ENDBRANCH  33  34
ENDBRANCH  32  33
ENDBRANCH  31  32
ENDBRANCH   1  31
TORSDOF 19
