REMARK SMILES CC(C)N1C[C@@H](C(=O)N2CCC(C(=O)NCCCCNC(=O)c3ccc(-c4c5nc(c(-c6ccc(S(=O)(=O)[O-])cc6)c6ccc([nH]6)c(-c6ccc(S(=O)(=O)[O-])cc6)c6nc(c(-c7ccc(S(=O)(=O)[O-])cc7)c7ccc4[nH]7)C=C6)C=C5)cc3)CC2)CC1=O
REMARK SMILES IDX 18 1 17 2 16 3 15 4 13 5 14 6 12 8 7 9 8 10 9 11 10 12 84 13
REMARK SMILES IDX 11 14 83 15 6 16 4 17 5 18 86 19 85 20 87 21 2 22 1 23 3 24
REMARK SMILES IDX 19 25 20 26 21 27 22 29 23 30 24 31 82 32 25 33 81 34 26 35
REMARK SMILES IDX 27 36 28 37 75 38 29 39 80 40 74 41 76 42 30 43 79 44 73 45
REMARK SMILES IDX 72 46 31 48 61 49 42 50 60 51 43 52 46 53 59 54 77 55 44 56
REMARK SMILES IDX 45 57 58 59 78 60 47 61 32 62 33 63 41 64 34 65 40 66 35 67
REMARK SMILES IDX 36 68 37 69 38 70 39 71 62 72 63 73 71 74 64 75 70 76 65 77
REMARK SMILES IDX 66 78 67 79 68 80 69 81 48 82 49 83 57 84 50 85 56 86 51 87
REMARK SMILES IDX 52 88 53 89 54 90 55 91
REMARK H PARENT 15 7 20 28 76 47 46 58
REMARK Flexibility Score: inf
ROOT
ATOM      1  C   UNL     1     -10.417  -3.260   0.193  1.00  0.00     0.023 C 
ENDROOT
BRANCH   1   2
ATOM      2  C   UNL     1      -8.930  -2.965   0.007  1.00  0.00     0.023 C 
BRANCH   2   3
ATOM      3  C   UNL     1      -8.441  -1.715   0.733  1.00  0.00     0.116 C 
BRANCH   3   4
ATOM      4  N   UNL     1      -8.469  -1.884   2.178  1.00  0.00    -0.356 N 
ATOM      5  C   UNL     1      -7.457  -1.943   3.087  1.00  0.00     0.223 C 
ATOM      6  O   UNL     1      -7.746  -2.116   4.273  1.00  0.00    -0.275 OA
ATOM      7  H   UNL     1      -9.371  -1.969   2.563  1.00  0.00     0.163 HD
BRANCH   5   8
ATOM      8  C   UNL     1      -6.004  -1.763   2.672  1.00  0.00     0.082 C 
ATOM      9  C   UNL     1      -4.288  -1.060  -0.884  1.00  0.00     0.227 C 
ATOM     10  O   UNL     1      -4.983  -1.829  -1.556  1.00  0.00    -0.274 OA
ATOM     11  N   UNL     1      -4.207  -1.206   0.489  1.00  0.00    -0.342 N 
ATOM     12  C   UNL     1      -4.221  -2.550   1.050  1.00  0.00     0.120 C 
ATOM     13  C   UNL     1      -4.444  -0.141   1.449  1.00  0.00     0.120 C 
ATOM     14  C   UNL     1      -5.537  -2.878   1.730  1.00  0.00     0.035 C 
ATOM     15  C   UNL     1      -5.767  -0.329   2.180  1.00  0.00     0.035 C 
BRANCH   9  16
ATOM     16  C   UNL     1      -3.285  -0.157  -1.597  1.00  0.00     0.107 C 
ATOM     17  N   UNL     1      -1.027   0.483  -1.496  1.00  0.00    -0.339 N 
ATOM     18  C   UNL     1      -1.877  -0.668  -1.316  1.00  0.00     0.133 C 
ATOM     19  C   UNL     1      -1.745   1.666  -1.485  1.00  0.00     0.223 C 
ATOM     20  C   UNL     1      -3.209   1.339  -1.337  1.00  0.00     0.115 C 
ATOM     21  O   UNL     1      -1.285   2.797  -1.522  1.00  0.00    -0.275 OA
BRANCH  17  22
ATOM     22  C   UNL     1       0.433   0.423  -1.439  1.00  0.00     0.078 C 
ATOM     23  C   UNL     1       0.913   0.072  -0.030  1.00  0.00     0.031 C 
ATOM     24  C   UNL     1       1.007  -0.544  -2.471  1.00  0.00     0.031 C 
ENDBRANCH  17  22
ENDBRANCH   9  16
ENDBRANCH   5   8
ENDBRANCH   3   4
ENDBRANCH   2   3
ENDBRANCH   1   2
BRANCH   1  25
ATOM     25  C   UNL     1     -11.348  -2.115  -0.185  1.00  0.00     0.116 C 
BRANCH  25  26
ATOM     26  N   UNL     1     -11.183  -1.682  -1.565  1.00  0.00    -0.352 N 
ATOM     27  C   UNL     1     -12.149  -1.455  -2.516  1.00  0.00     0.251 C 
ATOM     28  H   UNL     1     -10.255  -1.532  -1.857  1.00  0.00     0.163 HD
ATOM     29  O   UNL     1     -11.833  -1.229  -3.679  1.00  0.00    -0.269 OA
BRANCH  27  30
ATOM     30  C   UNL     1     -13.573  -1.519  -2.127  1.00  0.00     0.039 A 
ATOM     31  C   UNL     1     -14.453  -2.274  -2.904  1.00  0.00     0.014 A 
ATOM     32  C   UNL     1     -14.024  -0.874  -0.972  1.00  0.00     0.014 A 
ATOM     33  C   UNL     1     -15.774  -2.439  -2.482  1.00  0.00     0.010 A 
ATOM     34  C   UNL     1     -15.314  -1.111  -0.510  1.00  0.00     0.010 A 
ATOM     35  C   UNL     1     -16.204  -1.893  -1.261  1.00  0.00    -0.014 A 
BRANCH  35  36
ATOM     36  C   UNL     1     -17.578  -2.133  -0.751  1.00  0.00     0.031 A 
ATOM     37  C   UNL     1     -18.520  -0.978  -0.544  1.00  0.00     0.074 A 
ATOM     38  C   UNL     1     -17.956  -3.383  -0.414  1.00  0.00     0.049 A 
ATOM     39  N   UNL     1     -19.737  -0.983  -0.063  1.00  0.00    -0.248 NA
ATOM     40  C   UNL     1     -18.022   0.362  -0.900  1.00  0.00     0.031 C 
ATOM     41  C   UNL     1     -17.120  -4.581  -0.525  1.00  0.00     0.029 A 
ATOM     42  N   UNL     1     -19.141  -3.854   0.095  1.00  0.00    -0.354 N 
ATOM     43  C   UNL     1     -20.141   0.346  -0.042  1.00  0.00     0.074 A 
ATOM     44  C   UNL     1     -19.023   1.136  -0.507  1.00  0.00     0.031 C 
ATOM     45  C   UNL     1     -17.828  -5.650  -0.127  1.00  0.00     0.029 A 
ATOM     46  C   UNL     1     -19.149  -5.212   0.311  1.00  0.00     0.049 A 
ATOM     47  H   UNL     1     -19.913  -3.274   0.287  1.00  0.00     0.167 HD
ATOM     48  C   UNL     1     -21.342   0.863   0.313  1.00  0.00     0.031 A 
ATOM     49  C   UNL     1     -20.107  -6.016   0.814  1.00  0.00     0.031 A 
ATOM     50  C   UNL     1     -22.454   0.071   0.768  1.00  0.00     0.049 A 
ATOM     51  C   UNL     1     -21.428  -5.418   1.214  1.00  0.00     0.074 A 
ATOM     52  C   UNL     1     -23.731   0.493   1.094  1.00  0.00     0.029 A 
ATOM     53  N   UNL     1     -22.423  -1.301   0.967  1.00  0.00    -0.354 N 
ATOM     54  N   UNL     1     -21.816  -4.166   1.157  1.00  0.00    -0.248 NA
ATOM     55  C   UNL     1     -22.445  -6.342   1.733  1.00  0.00     0.031 C 
ATOM     56  C   UNL     1     -24.453  -0.614   1.552  1.00  0.00     0.029 A 
ATOM     57  C   UNL     1     -23.649  -1.737   1.441  1.00  0.00     0.049 A 
ATOM     58  H   UNL     1     -21.645  -1.879   0.796  1.00  0.00     0.167 HD
ATOM     59  C   UNL     1     -23.132  -4.157   1.606  1.00  0.00     0.074 A 
ATOM     60  C   UNL     1     -23.477  -5.530   1.915  1.00  0.00     0.031 C 
ATOM     61  C   UNL     1     -23.979  -3.107   1.748  1.00  0.00     0.031 A 
BRANCH  48  62
ATOM     62  C   UNL     1     -21.511   2.358   0.235  1.00  0.00    -0.014 A 
ATOM     63  C   UNL     1     -21.534   3.027  -1.003  1.00  0.00     0.010 A 
ATOM     64  C   UNL     1     -21.696   3.102   1.415  1.00  0.00     0.010 A 
ATOM     65  C   UNL     1     -21.697   4.414  -1.057  1.00  0.00     0.020 A 
ATOM     66  C   UNL     1     -21.892   4.485   1.364  1.00  0.00     0.020 A 
ATOM     67  C   UNL     1     -21.875   5.134   0.128  1.00  0.00     0.054 A 
BRANCH  67  68
ATOM     68  S   UNL     1     -22.112   6.929   0.025  1.00  0.00     0.124 S 
ATOM     69  O   UNL     1     -20.781   7.387  -0.363  1.00  0.00    -0.237 OA
ATOM     70  O   UNL     1     -23.144   7.056  -1.002  1.00  0.00    -0.237 OA
ATOM     71  O   UNL     1     -22.530   7.303   1.374  1.00  0.00    -0.744 OA
ENDBRANCH  67  68
ENDBRANCH  48  62
BRANCH  49  72
ATOM     72  C   UNL     1     -19.852  -7.477   0.956  1.00  0.00    -0.014 A 
ATOM     73  C   UNL     1     -20.523  -8.405   0.140  1.00  0.00     0.010 A 
ATOM     74  C   UNL     1     -18.920  -7.948   1.899  1.00  0.00     0.010 A 
ATOM     75  C   UNL     1     -20.281  -9.775   0.276  1.00  0.00     0.020 A 
ATOM     76  C   UNL     1     -18.651  -9.315   2.016  1.00  0.00     0.020 A 
ATOM     77  C   UNL     1     -19.342 -10.221   1.210  1.00  0.00     0.054 A 
BRANCH  77  78
ATOM     78  S   UNL     1     -19.003 -12.000   1.329  1.00  0.00     0.124 S 
ATOM     79  O   UNL     1     -20.224 -12.501   1.952  1.00  0.00    -0.237 OA
ATOM     80  O   UNL     1     -18.803 -12.375  -0.069  1.00  0.00    -0.237 OA
ATOM     81  O   UNL     1     -17.803 -12.064   2.161  1.00  0.00    -0.744 OA
ENDBRANCH  77  78
ENDBRANCH  49  72
BRANCH  61  82
ATOM     82  C   UNL     1     -25.378  -3.400   2.224  1.00  0.00    -0.014 A 
ATOM     83  C   UNL     1     -25.634  -3.795   3.549  1.00  0.00     0.010 A 
ATOM     84  C   UNL     1     -26.460  -3.219   1.343  1.00  0.00     0.010 A 
ATOM     85  C   UNL     1     -26.944  -4.035   3.974  1.00  0.00     0.020 A 
ATOM     86  C   UNL     1     -27.773  -3.426   1.772  1.00  0.00     0.020 A 
ATOM     87  C   UNL     1     -28.005  -3.847   3.083  1.00  0.00     0.054 A 
BRANCH  87  88
ATOM     88  S   UNL     1     -29.698  -4.123   3.672  1.00  0.00     0.124 S 
ATOM     89  O   UNL     1     -29.744  -5.577   3.797  1.00  0.00    -0.237 OA
ATOM     90  O   UNL     1     -29.723  -3.383   4.931  1.00  0.00    -0.237 OA
ATOM     91  O   UNL     1     -30.531  -3.563   2.611  1.00  0.00    -0.744 OA
ENDBRANCH  87  88
ENDBRANCH  61  82
ENDBRANCH  35  36
ENDBRANCH  27  30
ENDBRANCH  25  26
ENDBRANCH   1  25
TORSDOF 16
