REMARK SMILES COc1ccc2c(c1)c(CC(=O)NCCCCNC(=O)c1ccc(-c3c4nc(c(-c5ccc(S(=O)(=O)[O-])cc5)c5ccc([nH]5)c(-c5ccc(S(=O)(=O)[O-])cc5)c5nc(c(-c6ccc(S(=O)(=O)[O-])cc6)c6ccc3[nH]6)C=C5)C=C4)cc1)c(C)n2Cc1ccc(Br)cc1
REMARK SMILES IDX 15 1 14 2 13 3 11 4 12 5 10 7 9 8 3 9 4 10 8 11 5 12 7 13
REMARK SMILES IDX 6 14 83 15 81 16 82 17 2 18 1 19 84 20 85 21 86 22 91 23
REMARK SMILES IDX 87 24 90 25 88 26 89 27 16 28 17 29 18 30 19 31 20 33 21 34
REMARK SMILES IDX 22 35 80 36 23 37 79 38 24 39 25 40 26 41 73 42 27 43 78 44
REMARK SMILES IDX 72 45 74 46 28 47 77 48 71 49 70 50 29 52 59 53 40 54 58 55
REMARK SMILES IDX 41 56 44 57 57 58 75 59 42 60 43 61 56 63 76 64 45 65 30 66
REMARK SMILES IDX 31 67 39 68 32 69 38 70 33 71 34 72 35 73 36 74 37 75 60 76
REMARK SMILES IDX 61 77 69 78 62 79 68 80 63 81 64 82 65 83 66 84 67 85 46 86
REMARK SMILES IDX 47 87 55 88 48 89 54 90 49 91 50 92 51 93 52 94 53 95
REMARK H PARENT 13 6 18 32 74 51 44 62
REMARK Flexibility Score: inf
ROOT
ATOM      1  C   UNL     1       0.205  -6.909  -3.818  1.00  0.00     0.023 C 
ENDROOT
BRANCH   1   2
ATOM      2  C   UNL     1      -1.160  -6.534  -4.396  1.00  0.00     0.116 C 
BRANCH   2   3
ATOM      3  N   UNL     1      -2.037  -5.933  -3.408  1.00  0.00    -0.356 N 
ATOM      4  C   UNL     1      -2.555  -4.669  -3.368  1.00  0.00     0.224 C 
ATOM      5  O   UNL     1      -3.325  -4.384  -2.446  1.00  0.00    -0.275 OA
ATOM      6  H   UNL     1      -2.296  -6.520  -2.661  1.00  0.00     0.163 HD
BRANCH   4   7
ATOM      7  C   UNL     1      -2.267  -3.672  -4.484  1.00  0.00     0.138 C 
BRANCH   7   8
ATOM      8  C   UNL     1      -0.810  -3.366  -4.644  1.00  0.00    -0.010 A 
ATOM      9  C   UNL     1       0.925  -1.930  -1.576  1.00  0.00     0.119 A 
ATOM     10  C   UNL     1       2.213  -1.955  -2.099  1.00  0.00     0.048 A 
ATOM     11  C   UNL     1      -0.146  -2.431  -2.313  1.00  0.00     0.057 A 
ATOM     12  C   UNL     1       2.454  -2.437  -3.395  1.00  0.00     0.031 A 
ATOM     13  C   UNL     1       0.064  -2.873  -3.636  1.00  0.00     0.007 A 
ATOM     14  C   UNL     1       1.359  -2.872  -4.164  1.00  0.00     0.049 A 
ATOM     15  N   UNL     1       1.268  -3.376  -5.457  1.00  0.00    -0.340 N 
ATOM     16  C   UNL     1      -0.070  -3.447  -5.816  1.00  0.00     0.020 A 
ATOM     17  C   UNL     1      -0.584  -3.652  -7.199  1.00  0.00     0.065 C 
BRANCH   9  18
ATOM     18  O   UNL     1       0.640  -1.488  -0.311  1.00  0.00    -0.497 OA
ATOM     19  C   UNL     1       1.066  -0.145  -0.094  1.00  0.00     0.278 C 
ENDBRANCH   9  18
BRANCH  15  20
ATOM     20  C   UNL     1       2.412  -3.660  -6.330  1.00  0.00     0.157 C 
BRANCH  20  21
ATOM     21  C   UNL     1       2.705  -5.139  -6.510  1.00  0.00    -0.028 A 
ATOM     22  C   UNL     1       1.908  -5.957  -7.328  1.00  0.00     0.007 A 
ATOM     23  C   UNL     1       3.831  -5.721  -5.904  1.00  0.00     0.007 A 
ATOM     24  C   UNL     1       2.202  -7.312  -7.516  1.00  0.00     0.016 A 
ATOM     25  C   UNL     1       4.145  -7.071  -6.112  1.00  0.00     0.016 A 
ATOM     26  C   UNL     1       3.326  -7.861  -6.912  1.00  0.00     0.017 A 
ATOM     27  Br  UNL     1       3.756  -9.676  -7.209  1.00  0.00    -0.051 Br
ENDBRANCH  20  21
ENDBRANCH  15  20
ENDBRANCH   7   8
ENDBRANCH   4   7
ENDBRANCH   2   3
ENDBRANCH   1   2
BRANCH   1  28
ATOM     28  C   UNL     1       0.183  -8.059  -2.801  1.00  0.00     0.023 C 
BRANCH  28  29
ATOM     29  C   UNL     1      -0.600  -9.291  -3.253  1.00  0.00     0.116 C 
BRANCH  29  30
ATOM     30  N   UNL     1      -0.133  -9.869  -4.497  1.00  0.00    -0.352 N 
ATOM     31  C   UNL     1       0.681 -10.919  -4.820  1.00  0.00     0.251 C 
ATOM     32  H   UNL     1      -0.480  -9.399  -5.290  1.00  0.00     0.163 HD
ATOM     33  O   UNL     1       0.634 -11.296  -5.994  1.00  0.00    -0.269 OA
BRANCH  31  34
ATOM     34  C   UNL     1       1.651 -11.562  -3.893  1.00  0.00     0.039 A 
ATOM     35  C   UNL     1       1.690 -11.393  -2.510  1.00  0.00     0.014 A 
ATOM     36  C   UNL     1       2.644 -12.357  -4.501  1.00  0.00     0.014 A 
ATOM     37  C   UNL     1       2.739 -11.919  -1.765  1.00  0.00     0.010 A 
ATOM     38  C   UNL     1       3.691 -12.893  -3.761  1.00  0.00     0.010 A 
ATOM     39  C   UNL     1       3.759 -12.633  -2.397  1.00  0.00    -0.014 A 
BRANCH  39  40
ATOM     40  C   UNL     1       4.835 -13.144  -1.558  1.00  0.00     0.031 A 
ATOM     41  C   UNL     1       4.428 -14.148  -0.531  1.00  0.00     0.074 A 
ATOM     42  C   UNL     1       6.130 -12.819  -1.738  1.00  0.00     0.049 A 
ATOM     43  N   UNL     1       4.524 -14.067   0.756  1.00  0.00    -0.248 NA
ATOM     44  C   UNL     1       3.734 -15.356  -1.003  1.00  0.00     0.031 C 
ATOM     45  C   UNL     1       6.745 -12.115  -2.865  1.00  0.00     0.029 A 
ATOM     46  N   UNL     1       7.201 -13.180  -0.980  1.00  0.00    -0.354 N 
ATOM     47  C   UNL     1       4.043 -15.275   1.263  1.00  0.00     0.074 A 
ATOM     48  C   UNL     1       3.466 -15.978   0.145  1.00  0.00     0.031 C 
ATOM     49  C   UNL     1       8.080 -12.336  -2.846  1.00  0.00     0.029 A 
ATOM     50  C   UNL     1       8.420 -13.061  -1.632  1.00  0.00     0.049 A 
ATOM     51  H   UNL     1       7.118 -13.496  -0.051  1.00  0.00     0.167 HD
ATOM     52  C   UNL     1       4.284 -15.684   2.541  1.00  0.00     0.031 A 
ATOM     53  C   UNL     1       9.591 -13.627  -1.244  1.00  0.00     0.031 A 
ATOM     54  C   UNL     1       4.746 -14.608   3.373  1.00  0.00     0.049 A 
ATOM     55  C   UNL     1       9.468 -13.942   0.204  1.00  0.00     0.074 A 
ATOM     56  C   UNL     1       4.206 -13.409   3.792  1.00  0.00     0.029 A 
ATOM     57  N   UNL     1       6.096 -14.522   3.621  1.00  0.00    -0.354 N 
ATOM     58  N   UNL     1       9.371 -13.039   1.140  1.00  0.00    -0.248 NA
ATOM     59  C   UNL     1       9.019 -15.277   0.572  1.00  0.00     0.031 C 
ATOM     60  C   UNL     1       5.299 -12.498   3.785  1.00  0.00     0.029 A 
ATOM     61  C   UNL     1       6.446 -13.211   3.428  1.00  0.00     0.049 A 
ATOM     62  H   UNL     1       6.693 -15.258   3.885  1.00  0.00     0.167 HD
ATOM     63  C   UNL     1       8.478 -13.574   2.057  1.00  0.00     0.074 A 
ATOM     64  C   UNL     1       8.360 -14.985   1.695  1.00  0.00     0.031 C 
ATOM     65  C   UNL     1       7.704 -12.780   2.855  1.00  0.00     0.031 A 
BRANCH  52  66
ATOM     66  C   UNL     1       4.382 -17.125   2.979  1.00  0.00    -0.014 A 
ATOM     67  C   UNL     1       4.517 -18.196   2.075  1.00  0.00     0.010 A 
ATOM     68  C   UNL     1       4.600 -17.414   4.344  1.00  0.00     0.010 A 
ATOM     69  C   UNL     1       4.854 -19.485   2.498  1.00  0.00     0.020 A 
ATOM     70  C   UNL     1       4.984 -18.692   4.775  1.00  0.00     0.020 A 
ATOM     71  C   UNL     1       5.107 -19.721   3.845  1.00  0.00     0.054 A 
BRANCH  71  72
ATOM     72  S   UNL     1       5.680 -21.367   4.332  1.00  0.00     0.124 S 
ATOM     73  O   UNL     1       4.484 -22.177   4.116  1.00  0.00    -0.237 OA
ATOM     74  O   UNL     1       6.779 -21.604   3.401  1.00  0.00    -0.237 OA
ATOM     75  O   UNL     1       6.073 -21.194   5.728  1.00  0.00    -0.744 OA
ENDBRANCH  71  72
ENDBRANCH  52  66
BRANCH  53  76
ATOM     76  C   UNL     1      10.536 -14.369  -2.124  1.00  0.00    -0.014 A 
ATOM     77  C   UNL     1      10.092 -14.904  -3.351  1.00  0.00     0.010 A 
ATOM     78  C   UNL     1      11.759 -14.839  -1.606  1.00  0.00     0.010 A 
ATOM     79  C   UNL     1      10.780 -15.944  -3.981  1.00  0.00     0.020 A 
ATOM     80  C   UNL     1      12.452 -15.890  -2.230  1.00  0.00     0.020 A 
ATOM     81  C   UNL     1      11.929 -16.465  -3.390  1.00  0.00     0.054 A 
BRANCH  81  82
ATOM     82  S   UNL     1      12.648 -17.975  -4.096  1.00  0.00     0.124 S 
ATOM     83  O   UNL     1      11.596 -18.958  -3.833  1.00  0.00    -0.237 OA
ATOM     84  O   UNL     1      12.819 -17.611  -5.505  1.00  0.00    -0.237 OA
ATOM     85  O   UNL     1      13.880 -18.159  -3.349  1.00  0.00    -0.744 OA
ENDBRANCH  81  82
ENDBRANCH  53  76
BRANCH  65  86
ATOM     86  C   UNL     1       7.984 -11.297   2.942  1.00  0.00    -0.014 A 
ATOM     87  C   UNL     1       8.035 -10.728   4.229  1.00  0.00     0.010 A 
ATOM     88  C   UNL     1       7.960 -10.433   1.829  1.00  0.00     0.010 A 
ATOM     89  C   UNL     1       8.014  -9.345   4.407  1.00  0.00     0.020 A 
ATOM     90  C   UNL     1       7.968  -9.039   2.001  1.00  0.00     0.020 A 
ATOM     91  C   UNL     1       7.967  -8.507   3.293  1.00  0.00     0.054 A 
BRANCH  91  92
ATOM     92  S   UNL     1       7.870  -6.718   3.576  1.00  0.00     0.124 S 
ATOM     93  O   UNL     1       6.513  -6.559   4.094  1.00  0.00    -0.237 OA
ATOM     94  O   UNL     1       8.937  -6.486   4.546  1.00  0.00    -0.237 OA
ATOM     95  O   UNL     1       8.101  -6.136   2.255  1.00  0.00    -0.744 OA
ENDBRANCH  91  92
ENDBRANCH  65  86
ENDBRANCH  39  40
ENDBRANCH  31  34
ENDBRANCH  29  30
ENDBRANCH  28  29
ENDBRANCH   1  28
TORSDOF 18
