REMARK SMILES O=C(NCCCCNC(=O)c1ccnc(S[C@@H]2CCO[C@]3(CCOC3)C2)c1)c1ccc(-c2c3nc(c(-c4ccc(S(=O)(=O)[O-])cc4)c4ccc([nH]4)c(-c4ccc(S(=O)(=O)[O-])cc4)c4nc(c(-c5ccc(S(=O)(=O)[O-])cc5)c5ccc2[nH]5)C=C4)C=C3)cc1
REMARK SMILES IDX 5 1 4 2 3 3 1 4 2 5 28 7 29 8 87 9 30 10 86 11 31 12 32 13
REMARK SMILES IDX 33 14 80 15 34 16 85 17 79 18 81 19 35 20 84 21 78 22 77 23
REMARK SMILES IDX 36 25 66 26 47 27 65 28 48 29 51 30 64 31 82 32 49 33 50 34
REMARK SMILES IDX 63 36 83 37 52 38 37 39 38 40 46 41 39 42 45 43 40 44 41 45
REMARK SMILES IDX 42 46 43 47 44 48 67 49 68 50 76 51 69 52 75 53 70 54 71 55
REMARK SMILES IDX 72 56 73 57 74 58 53 59 54 60 62 61 55 62 61 63 56 64 57 65
REMARK SMILES IDX 58 66 59 67 60 68 6 69 7 70 8 71 9 72 10 74 11 75 12 76
REMARK SMILES IDX 27 77 13 78 15 79 14 80 16 81 17 82 18 83 26 84 19 85 21 86
REMARK SMILES IDX 20 87 22 88 25 89 23 90 24 91
REMARK H PARENT 3 6 81 24 51 35 8 73
REMARK Flexibility Score: inf
ROOT
ATOM      1  C   UNL     1       4.562  -2.777  -0.607  1.00  0.00     0.023 C 
ENDROOT
BRANCH   1   2
ATOM      2  C   UNL     1       4.330  -1.270  -0.635  1.00  0.00     0.116 C 
BRANCH   2   3
ATOM      3  N   UNL     1       2.926  -0.894  -0.659  1.00  0.00    -0.352 N 
ATOM      4  O   UNL     1       1.040   0.160  -0.035  1.00  0.00    -0.269 OA
ATOM      5  C   UNL     1       2.252   0.032   0.100  1.00  0.00     0.251 C 
ATOM      6  H   UNL     1       2.376  -1.376  -1.317  1.00  0.00     0.163 HD
BRANCH   5   7
ATOM      7  C   UNL     1       2.978   0.834   1.108  1.00  0.00     0.039 A 
ATOM      8  C   UNL     1       4.187   1.460   0.802  1.00  0.00     0.014 A 
ATOM      9  C   UNL     1       2.440   0.936   2.395  1.00  0.00     0.014 A 
ATOM     10  C   UNL     1       4.933   2.049   1.819  1.00  0.00     0.010 A 
ATOM     11  C   UNL     1       3.155   1.596   3.397  1.00  0.00     0.010 A 
ATOM     12  C   UNL     1       4.430   2.116   3.129  1.00  0.00    -0.014 A 
BRANCH  12  13
ATOM     13  C   UNL     1       5.252   2.744   4.195  1.00  0.00     0.031 A 
ATOM     14  C   UNL     1       5.790   1.928   5.341  1.00  0.00     0.074 A 
ATOM     15  C   UNL     1       5.554   4.054   4.100  1.00  0.00     0.049 A 
ATOM     16  N   UNL     1       6.576   2.304   6.319  1.00  0.00    -0.248 NA
ATOM     17  C   UNL     1       5.391   0.513   5.406  1.00  0.00     0.031 C 
ATOM     18  C   UNL     1       5.083   4.952   3.042  1.00  0.00     0.029 A 
ATOM     19  N   UNL     1       6.350   4.850   4.882  1.00  0.00    -0.354 N 
ATOM     20  C   UNL     1       6.741   1.186   7.129  1.00  0.00     0.074 A 
ATOM     21  C   UNL     1       5.961   0.120   6.537  1.00  0.00     0.031 C 
ATOM     22  C   UNL     1       5.649   6.157   3.205  1.00  0.00     0.029 A 
ATOM     23  C   UNL     1       6.481   6.132   4.404  1.00  0.00     0.049 A 
ATOM     24  H   UNL     1       6.786   4.534   5.706  1.00  0.00     0.167 HD
ATOM     25  C   UNL     1       7.476   1.057   8.260  1.00  0.00     0.031 A 
ATOM     26  C   UNL     1       7.193   7.173   4.872  1.00  0.00     0.031 A 
ATOM     27  C   UNL     1       8.267   2.111   8.838  1.00  0.00     0.049 A 
ATOM     28  C   UNL     1       8.016   6.998   6.114  1.00  0.00     0.074 A 
ATOM     29  C   UNL     1       9.074   2.067   9.962  1.00  0.00     0.029 A 
ATOM     30  N   UNL     1       8.355   3.401   8.335  1.00  0.00    -0.354 N 
ATOM     31  N   UNL     1       8.176   5.924   6.849  1.00  0.00    -0.248 NA
ATOM     32  C   UNL     1       8.755   8.176   6.588  1.00  0.00     0.031 C 
ATOM     33  C   UNL     1       9.623   3.340  10.159  1.00  0.00     0.029 A 
ATOM     34  C   UNL     1       9.190   4.165   9.133  1.00  0.00     0.049 A 
ATOM     35  H   UNL     1       7.892   3.725   7.529  1.00  0.00     0.167 HD
ATOM     36  C   UNL     1       9.046   6.293   7.868  1.00  0.00     0.074 A 
ATOM     37  C   UNL     1       9.390   7.683   7.643  1.00  0.00     0.031 C 
ATOM     38  C   UNL     1       9.515   5.548   8.899  1.00  0.00     0.031 A 
BRANCH  25  39
ATOM     39  C   UNL     1       7.438  -0.273   8.966  1.00  0.00    -0.014 A 
ATOM     40  C   UNL     1       8.124  -1.389   8.458  1.00  0.00     0.010 A 
ATOM     41  C   UNL     1       6.731  -0.396  10.176  1.00  0.00     0.010 A 
ATOM     42  C   UNL     1       8.071  -2.616   9.126  1.00  0.00     0.020 A 
ATOM     43  C   UNL     1       6.692  -1.615  10.858  1.00  0.00     0.020 A 
ATOM     44  C   UNL     1       7.347  -2.724  10.318  1.00  0.00     0.054 A 
BRANCH  44  45
ATOM     45  S   UNL     1       7.298  -4.324  11.173  1.00  0.00     0.124 S 
ATOM     46  O   UNL     1       6.327  -5.062  10.370  1.00  0.00    -0.237 OA
ATOM     47  O   UNL     1       8.679  -4.789  11.070  1.00  0.00    -0.237 OA
ATOM     48  O   UNL     1       6.859  -3.981  12.523  1.00  0.00    -0.744 OA
ENDBRANCH  44  45
ENDBRANCH  25  39
BRANCH  26  49
ATOM     49  C   UNL     1       7.166   8.467   4.142  1.00  0.00    -0.014 A 
ATOM     50  C   UNL     1       8.281   8.886   3.396  1.00  0.00     0.010 A 
ATOM     51  C   UNL     1       6.009   9.266   4.156  1.00  0.00     0.010 A 
ATOM     52  C   UNL     1       8.241  10.085   2.680  1.00  0.00     0.020 A 
ATOM     53  C   UNL     1       5.957  10.453   3.423  1.00  0.00     0.020 A 
ATOM     54  C   UNL     1       7.077  10.860   2.696  1.00  0.00     0.054 A 
BRANCH  54  55
ATOM     55  S   UNL     1       7.015  12.376   1.701  1.00  0.00     0.124 S 
ATOM     56  O   UNL     1       7.734  13.323   2.547  1.00  0.00    -0.237 OA
ATOM     57  O   UNL     1       7.697  11.981   0.471  1.00  0.00    -0.237 OA
ATOM     58  O   UNL     1       5.582  12.625   1.555  1.00  0.00    -0.744 OA
ENDBRANCH  54  55
ENDBRANCH  26  49
BRANCH  38  59
ATOM     59  C   UNL     1      10.468   6.221   9.846  1.00  0.00    -0.014 A 
ATOM     60  C   UNL     1      10.009   7.152  10.795  1.00  0.00     0.010 A 
ATOM     61  C   UNL     1      11.837   5.903   9.798  1.00  0.00     0.010 A 
ATOM     62  C   UNL     1      10.911   7.782  11.656  1.00  0.00     0.020 A 
ATOM     63  C   UNL     1      12.738   6.516  10.671  1.00  0.00     0.020 A 
ATOM     64  C   UNL     1      12.271   7.466  11.583  1.00  0.00     0.054 A 
BRANCH  64  65
ATOM     65  S   UNL     1      13.425   8.278  12.723  1.00  0.00     0.124 S 
ATOM     66  O   UNL     1      13.614   9.578  12.085  1.00  0.00    -0.237 OA
ATOM     67  O   UNL     1      12.681   8.297  13.980  1.00  0.00    -0.237 OA
ATOM     68  O   UNL     1      14.593   7.401  12.712  1.00  0.00    -0.744 OA
ENDBRANCH  64  65
ENDBRANCH  38  59
ENDBRANCH  12  13
ENDBRANCH   5   7
ENDBRANCH   2   3
ENDBRANCH   1   2
BRANCH   1  69
ATOM     69  C   UNL     1       3.872  -3.598  -1.701  1.00  0.00     0.023 C 
BRANCH  69  70
ATOM     70  C   UNL     1       3.990  -3.048  -3.119  1.00  0.00     0.116 C 
BRANCH  70  71
ATOM     71  N   UNL     1       5.362  -2.788  -3.486  1.00  0.00    -0.352 N 
ATOM     72  C   UNL     1       6.112  -3.323  -4.487  1.00  0.00     0.251 C 
ATOM     73  H   UNL     1       5.825  -2.124  -2.926  1.00  0.00     0.163 HD
ATOM     74  O   UNL     1       7.254  -2.921  -4.675  1.00  0.00    -0.269 OA
BRANCH  72  75
ATOM     75  C   UNL     1       5.546  -4.341  -5.383  1.00  0.00     0.044 A 
ATOM     76  C   UNL     1       4.916  -3.924  -6.546  1.00  0.00     0.034 A 
ATOM     77  C   UNL     1       5.861  -5.683  -5.174  1.00  0.00     0.049 A 
ATOM     78  C   UNL     1       4.648  -4.895  -7.485  1.00  0.00     0.113 A 
ATOM     79  C   UNL     1       5.659  -6.567  -6.215  1.00  0.00     0.097 A 
ATOM     80  N   UNL     1       5.021  -6.188  -7.351  1.00  0.00    -0.250 NA
BRANCH  79  81
ATOM     81  S   UNL     1       6.166  -8.270  -6.210  1.00  0.00    -0.103 SA
BRANCH  81  82
ATOM     82  C   UNL     1       7.915  -8.349  -5.582  1.00  0.00     0.058 C 
ATOM     83  C   UNL     1       8.023  -8.200  -4.062  1.00  0.00     0.043 C 
ATOM     84  C   UNL     1       9.015  -7.590  -6.343  1.00  0.00     0.053 C 
ATOM     85  C   UNL     1       8.849  -6.990  -3.649  1.00  0.00     0.162 C 
ATOM     86  C   UNL     1       9.251  -6.148  -5.850  1.00  0.00     0.095 C 
ATOM     87  O   UNL     1       8.655  -5.928  -4.573  1.00  0.00    -0.372 OA
ATOM     88  C   UNL     1       8.744  -5.141  -6.880  1.00  0.00     0.066 C 
ATOM     89  C   UNL     1      10.729  -5.750  -5.801  1.00  0.00     0.195 C 
ATOM     90  C   UNL     1       9.957  -4.772  -7.718  1.00  0.00     0.163 C 
ATOM     91  O   UNL     1      11.096  -5.419  -7.141  1.00  0.00    -0.378 OA
ENDBRANCH  81  82
ENDBRANCH  79  81
ENDBRANCH  72  75
ENDBRANCH  70  71
ENDBRANCH  69  70
ENDBRANCH   1  69
TORSDOF 16
