REMARK SMILES C[C@H](CNS(=O)(=O)c1ccc(C(=O)NCCCCNC(=O)c2ccc(-c3c4nc(c(-c5ccc(S(=O)(=O)[O-])cc5)c5ccc([nH]5)c(-c5ccc(S(=O)(=O)[O-])cc5)c5nc(c(-c6ccc(S(=O)(=O)[O-])cc6)c6ccc3[nH]6)C=C5)C=C4)cc2)o1)c1ccccc1
REMARK SMILES IDX 15 1 14 2 12 3 13 4 11 6 8 7 9 8 82 9 10 10 5 11 6 12 7 13
REMARK SMILES IDX 4 14 3 16 2 17 1 18 83 19 84 20 88 21 85 22 87 23 86 24
REMARK SMILES IDX 16 25 17 26 18 27 19 28 20 29 21 31 22 32 23 33 81 34 24 35
REMARK SMILES IDX 80 36 25 37 26 38 27 39 74 40 28 41 79 42 73 43 75 44 29 45
REMARK SMILES IDX 78 46 72 47 71 48 30 50 60 51 41 52 59 53 42 54 45 55 58 56
REMARK SMILES IDX 76 57 43 58 44 59 57 61 77 62 46 63 31 64 32 65 40 66 33 67
REMARK SMILES IDX 39 68 34 69 35 70 36 71 37 72 38 73 61 74 62 75 70 76 63 77
REMARK SMILES IDX 69 78 64 79 65 80 66 81 67 82 68 83 47 84 48 85 56 86 49 87
REMARK SMILES IDX 55 88 50 89 51 90 52 91 53 92 54 93
REMARK H PARENT 14 5 4 15 19 30 75 49 45 60
REMARK Flexibility Score: inf
ROOT
ATOM      1  C   UNL     1       6.431  -1.687  -4.245  1.00  0.00     0.116 C 
ENDROOT
BRANCH   1   2
ATOM      2  N   UNL     1       6.873  -0.339  -3.956  1.00  0.00    -0.349 N 
ATOM      3  C   UNL     1       6.226   0.698  -3.320  1.00  0.00     0.287 C 
ATOM      4  O   UNL     1       6.915   1.690  -3.068  1.00  0.00    -0.266 OA
ATOM      5  H   UNL     1       7.784  -0.130  -4.264  1.00  0.00     0.163 HD
BRANCH   3   6
ATOM      6  C   UNL     1       4.815   0.611  -2.975  1.00  0.00     0.193 A 
ATOM      7  C   UNL     1       2.982   1.317  -1.889  1.00  0.00     0.234 A 
ATOM      8  C   UNL     1       2.606   0.280  -2.730  1.00  0.00     0.065 A 
ATOM      9  O   UNL     1       4.338   1.507  -2.046  1.00  0.00    -0.438 OA
ATOM     10  C   UNL     1       3.758  -0.167  -3.407  1.00  0.00     0.058 A 
BRANCH   7  11
ATOM     11  S   UNL     1       1.975   2.302  -0.779  1.00  0.00     0.274 S 
ATOM     12  O   UNL     1       0.756   2.567  -1.518  1.00  0.00    -0.204 OA
ATOM     13  O   UNL     1       2.798   3.368  -0.268  1.00  0.00    -0.204 OA
BRANCH  11  14
ATOM     14  N   UNL     1       1.517   1.342   0.548  1.00  0.00    -0.208 NA
ATOM     15  H   UNL     1       2.341   1.205   1.133  1.00  0.00     0.141 HD
BRANCH  14  16
ATOM     16  C   UNL     1       0.964   0.006   0.227  1.00  0.00     0.107 C 
BRANCH  16  17
ATOM     17  C   UNL     1       0.363  -0.733   1.444  1.00  0.00     0.031 C 
ATOM     18  C   UNL     1       0.913  -0.297   2.803  1.00  0.00     0.014 C 
BRANCH  17  19
ATOM     19  C   UNL     1      -1.159  -0.729   1.438  1.00  0.00    -0.044 A 
ATOM     20  C   UNL     1      -1.905   0.458   1.447  1.00  0.00     0.004 A 
ATOM     21  C   UNL     1      -1.848  -1.954   1.423  1.00  0.00     0.004 A 
ATOM     22  C   UNL     1      -3.301   0.417   1.436  1.00  0.00     0.000 A 
ATOM     23  C   UNL     1      -3.243  -1.992   1.412  1.00  0.00     0.000 A 
ATOM     24  C   UNL     1      -3.970  -0.805   1.419  1.00  0.00     0.000 A 
ENDBRANCH  17  19
ENDBRANCH  16  17
ENDBRANCH  14  16
ENDBRANCH  11  14
ENDBRANCH   7  11
ENDBRANCH   3   6
ENDBRANCH   1   2
BRANCH   1  25
ATOM     25  C   UNL     1       5.883  -1.820  -5.667  1.00  0.00     0.023 C 
BRANCH  25  26
ATOM     26  C   UNL     1       6.951  -1.971  -6.754  1.00  0.00     0.023 C 
BRANCH  26  27
ATOM     27  C   UNL     1       7.861  -3.188  -6.614  1.00  0.00     0.116 C 
BRANCH  27  28
ATOM     28  N   UNL     1       7.140  -4.451  -6.543  1.00  0.00    -0.352 N 
ATOM     29  C   UNL     1       7.540  -5.686  -6.996  1.00  0.00     0.251 C 
ATOM     30  H   UNL     1       6.253  -4.416  -6.117  1.00  0.00     0.163 HD
ATOM     31  O   UNL     1       6.771  -6.641  -6.945  1.00  0.00    -0.269 OA
BRANCH  29  32
ATOM     32  C   UNL     1       8.889  -5.838  -7.582  1.00  0.00     0.039 A 
ATOM     33  C   UNL     1       9.015  -6.444  -8.834  1.00  0.00     0.014 A 
ATOM     34  C   UNL     1      10.013  -5.338  -6.921  1.00  0.00     0.014 A 
ATOM     35  C   UNL     1      10.265  -6.482  -9.457  1.00  0.00     0.010 A 
ATOM     36  C   UNL     1      11.242  -5.315  -7.572  1.00  0.00     0.010 A 
ATOM     37  C   UNL     1      11.380  -5.883  -8.848  1.00  0.00    -0.014 A 
BRANCH  37  38
ATOM     38  C   UNL     1      12.695  -5.825  -9.536  1.00  0.00     0.031 A 
ATOM     39  C   UNL     1      13.885  -6.537  -8.952  1.00  0.00     0.074 A 
ATOM     40  C   UNL     1      12.834  -5.072 -10.645  1.00  0.00     0.049 A 
ATOM     41  N   UNL     1      15.124  -6.550  -9.373  1.00  0.00    -0.248 NA
ATOM     42  C   UNL     1      13.660  -7.312  -7.721  1.00  0.00     0.031 C 
ATOM     43  C   UNL     1      11.768  -4.293 -11.282  1.00  0.00     0.029 A 
ATOM     44  N   UNL     1      13.934  -4.828 -11.430  1.00  0.00    -0.354 N 
ATOM     45  C   UNL     1      15.828  -7.316  -8.451  1.00  0.00     0.074 A 
ATOM     46  C   UNL     1      14.888  -7.711  -7.424  1.00  0.00     0.031 C 
ATOM     47  C   UNL     1      12.260  -3.680 -12.370  1.00  0.00     0.029 A 
ATOM     48  C   UNL     1      13.682  -3.987 -12.489  1.00  0.00     0.049 A 
ATOM     49  H   UNL     1      14.820  -5.218 -11.251  1.00  0.00     0.167 HD
ATOM     50  C   UNL     1      17.134  -7.676  -8.467  1.00  0.00     0.031 A 
ATOM     51  C   UNL     1      14.503  -3.512 -13.446  1.00  0.00     0.031 A 
ATOM     52  C   UNL     1      18.061  -7.295  -9.499  1.00  0.00     0.049 A 
ATOM     53  C   UNL     1      15.948  -3.929 -13.445  1.00  0.00     0.074 A 
ATOM     54  C   UNL     1      19.389  -7.661  -9.638  1.00  0.00     0.029 A 
ATOM     55  N   UNL     1      17.762  -6.462 -10.566  1.00  0.00    -0.354 N 
ATOM     56  N   UNL     1      16.578  -4.715 -12.604  1.00  0.00    -0.248 NA
ATOM     57  C   UNL     1      16.791  -3.406 -14.530  1.00  0.00     0.031 C 
ATOM     58  C   UNL     1      19.905  -7.009 -10.763  1.00  0.00     0.029 A 
ATOM     59  C   UNL     1      18.884  -6.284 -11.356  1.00  0.00     0.049 A 
ATOM     60  H   UNL     1      16.881  -6.057 -10.736  1.00  0.00     0.167 HD
ATOM     61  C   UNL     1      17.884  -4.802 -13.074  1.00  0.00     0.074 A 
ATOM     62  C   UNL     1      17.949  -4.001 -14.280  1.00  0.00     0.031 C 
ATOM     63  C   UNL     1      18.934  -5.484 -12.554  1.00  0.00     0.031 A 
BRANCH  50  64
ATOM     64  C   UNL     1      17.636  -8.525  -7.330  1.00  0.00    -0.014 A 
ATOM     65  C   UNL     1      17.240  -9.868  -7.195  1.00  0.00     0.010 A 
ATOM     66  C   UNL     1      18.549  -7.986  -6.405  1.00  0.00     0.010 A 
ATOM     67  C   UNL     1      17.713 -10.643  -6.134  1.00  0.00     0.020 A 
ATOM     68  C   UNL     1      19.048  -8.767  -5.358  1.00  0.00     0.020 A 
ATOM     69  C   UNL     1      18.612 -10.086  -5.220  1.00  0.00     0.054 A 
BRANCH  69  70
ATOM     70  S   UNL     1      19.228 -11.124  -3.865  1.00  0.00     0.124 S 
ATOM     71  O   UNL     1      18.058 -11.204  -2.994  1.00  0.00    -0.237 OA
ATOM     72  O   UNL     1      19.587 -12.364  -4.549  1.00  0.00    -0.237 OA
ATOM     73  O   UNL     1      20.353 -10.362  -3.329  1.00  0.00    -0.744 OA
ENDBRANCH  69  70
ENDBRANCH  50  64
BRANCH  51  74
ATOM     74  C   UNL     1      13.973  -2.598 -14.495  1.00  0.00    -0.014 A 
ATOM     75  C   UNL     1      13.830  -3.042 -15.821  1.00  0.00     0.010 A 
ATOM     76  C   UNL     1      13.597  -1.282 -14.170  1.00  0.00     0.010 A 
ATOM     77  C   UNL     1      13.340  -2.181 -16.808  1.00  0.00     0.020 A 
ATOM     78  C   UNL     1      13.082  -0.426 -15.148  1.00  0.00     0.020 A 
ATOM     79  C   UNL     1      12.968  -0.878 -16.464  1.00  0.00     0.054 A 
BRANCH  79  80
ATOM     80  S   UNL     1      12.287   0.206 -17.750  1.00  0.00     0.124 S 
ATOM     81  O   UNL     1      13.479   0.551 -18.518  1.00  0.00    -0.237 OA
ATOM     82  O   UNL     1      11.329  -0.667 -18.425  1.00  0.00    -0.237 OA
ATOM     83  O   UNL     1      11.691   1.303 -16.991  1.00  0.00    -0.744 OA
ENDBRANCH  79  80
ENDBRANCH  51  74
BRANCH  63  84
ATOM     84  C   UNL     1      20.238  -5.427 -13.303  1.00  0.00    -0.014 A 
ATOM     85  C   UNL     1      21.026  -4.263 -13.307  1.00  0.00     0.010 A 
ATOM     86  C   UNL     1      20.707  -6.576 -13.965  1.00  0.00     0.010 A 
ATOM     87  C   UNL     1      22.248  -4.241 -13.986  1.00  0.00     0.020 A 
ATOM     88  C   UNL     1      21.940  -6.566 -14.621  1.00  0.00     0.020 A 
ATOM     89  C   UNL     1      22.697  -5.393 -14.639  1.00  0.00     0.054 A 
BRANCH  89  90
ATOM     90  S   UNL     1      24.307  -5.354 -15.473  1.00  0.00     0.124 S 
ATOM     91  O   UNL     1      24.011  -4.567 -16.667  1.00  0.00    -0.237 OA
ATOM     92  O   UNL     1      25.164  -4.701 -14.487  1.00  0.00    -0.237 OA
ATOM     93  O   UNL     1      24.607  -6.763 -15.714  1.00  0.00    -0.744 OA
ENDBRANCH  89  90
ENDBRANCH  63  84
ENDBRANCH  37  38
ENDBRANCH  29  32
ENDBRANCH  27  28
ENDBRANCH  26  27
ENDBRANCH  25  26
ENDBRANCH   1  25
TORSDOF 19
