REMARK SMILES O=C(NCCCCNC(=O)[C@@H]1CCCCC[C@H]1NC(=O)[C@@H]1CCOC1)c1ccc(-c2c3nc(c(-c4ccc(S(=O)(=O)[O-])cc4)c4ccc([nH]4)c(-c4ccc(S(=O)(=O)[O-])cc4)c4nc(c(-c5ccc(S(=O)(=O)[O-])cc5)c5ccc2[nH]5)C=C4)C=C3)cc1
REMARK SMILES IDX 5 1 4 2 3 3 1 4 2 5 26 7 27 8 85 9 28 10 84 11 29 12 30 13
REMARK SMILES IDX 31 14 78 15 32 16 83 17 77 18 79 19 33 20 82 21 76 22 75 23
REMARK SMILES IDX 34 25 64 26 45 27 63 28 46 29 49 30 62 31 80 32 47 33 48 34
REMARK SMILES IDX 61 36 81 37 50 38 35 39 36 40 44 41 37 42 43 43 38 44 39 45
REMARK SMILES IDX 40 46 41 47 42 48 65 49 66 50 74 51 67 52 73 53 68 54 69 55
REMARK SMILES IDX 70 56 71 57 72 58 51 59 52 60 60 61 53 62 59 63 54 64 55 65
REMARK SMILES IDX 56 66 57 67 58 68 6 69 7 70 8 71 9 72 10 74 11 75 12 76
REMARK SMILES IDX 13 77 14 78 17 80 16 81 15 82 18 84 19 85 20 87 21 88 22 89
REMARK SMILES IDX 25 90 23 91 24 92
REMARK H PARENT 3 6 79 24 49 35 8 73 18 86
REMARK Flexibility Score: 90.00
ROOT
ATOM      1  C   UNL     1       4.968   0.192  -2.670  1.00  0.00     0.023 C 
ENDROOT
BRANCH   1   2
ATOM      2  C   UNL     1       4.531   0.146  -1.216  1.00  0.00     0.116 C 
BRANCH   2   3
ATOM      3  N   UNL     1       3.106   0.367  -1.012  1.00  0.00    -0.352 N 
ATOM      4  O   UNL     1       1.132   0.099   0.071  1.00  0.00    -0.269 OA
ATOM      5  C   UNL     1       2.338  -0.089   0.041  1.00  0.00     0.251 C 
ATOM      6  H   UNL     1       2.641   0.898  -1.699  1.00  0.00     0.163 HD
BRANCH   5   7
ATOM      7  C   UNL     1       3.020  -0.857   1.105  1.00  0.00     0.039 A 
ATOM      8  C   UNL     1       4.169  -0.335   1.698  1.00  0.00     0.014 A 
ATOM      9  C   UNL     1       2.584  -2.149   1.409  1.00  0.00     0.014 A 
ATOM     10  C   UNL     1       4.981  -1.167   2.453  1.00  0.00     0.010 A 
ATOM     11  C   UNL     1       3.354  -2.952   2.257  1.00  0.00     0.010 A 
ATOM     12  C   UNL     1       4.581  -2.483   2.750  1.00  0.00    -0.014 A 
BRANCH  12  13
ATOM     13  C   UNL     1       5.457  -3.306   3.622  1.00  0.00     0.031 A 
ATOM     14  C   UNL     1       6.131  -4.553   3.118  1.00  0.00     0.074 A 
ATOM     15  C   UNL     1       5.709  -2.855   4.867  1.00  0.00     0.049 A 
ATOM     16  N   UNL     1       6.988  -5.326   3.737  1.00  0.00    -0.248 NA
ATOM     17  C   UNL     1       5.804  -4.998   1.754  1.00  0.00     0.031 C 
ATOM     18  C   UNL     1       5.100  -1.663   5.468  1.00  0.00     0.029 A 
ATOM     19  N   UNL     1       6.569  -3.308   5.831  1.00  0.00    -0.354 N 
ATOM     20  C   UNL     1       7.285  -6.357   2.853  1.00  0.00     0.074 A 
ATOM     21  C   UNL     1       6.505  -6.121   1.657  1.00  0.00     0.031 C 
ATOM     22  C   UNL     1       5.664  -1.435   6.661  1.00  0.00     0.029 A 
ATOM     23  C   UNL     1       6.619  -2.499   6.942  1.00  0.00     0.049 A 
ATOM     24  H   UNL     1       7.100  -4.132   5.738  1.00  0.00     0.167 HD
ATOM     25  C   UNL     1       8.131  -7.403   3.024  1.00  0.00     0.031 A 
ATOM     26  C   UNL     1       7.344  -2.602   8.070  1.00  0.00     0.031 A 
ATOM     27  C   UNL     1       8.908  -7.630   4.217  1.00  0.00     0.049 A 
ATOM     28  C   UNL     1       8.287  -3.756   8.223  1.00  0.00     0.074 A 
ATOM     29  C   UNL     1       9.787  -8.665   4.489  1.00  0.00     0.029 A 
ATOM     30  N   UNL     1       8.907  -6.806   5.333  1.00  0.00    -0.354 N 
ATOM     31  N   UNL     1       8.542  -4.724   7.375  1.00  0.00    -0.248 NA
ATOM     32  C   UNL     1       9.036  -3.834   9.482  1.00  0.00     0.031 C 
ATOM     33  C   UNL     1      10.293  -8.483   5.782  1.00  0.00     0.029 A 
ATOM     34  C   UNL     1       9.763  -7.312   6.297  1.00  0.00     0.049 A 
ATOM     35  H   UNL     1       8.376  -5.982   5.425  1.00  0.00     0.167 HD
ATOM     36  C   UNL     1       9.473  -5.537   8.006  1.00  0.00     0.074 A 
ATOM     37  C   UNL     1       9.768  -4.921   9.285  1.00  0.00     0.031 C 
ATOM     38  C   UNL     1      10.024  -6.697   7.573  1.00  0.00     0.031 A 
BRANCH  25  39
ATOM     39  C   UNL     1       8.251  -8.400   1.902  1.00  0.00    -0.014 A 
ATOM     40  C   UNL     1       8.972  -8.094   0.733  1.00  0.00     0.010 A 
ATOM     41  C   UNL     1       7.694  -9.685   2.045  1.00  0.00     0.010 A 
ATOM     42  C   UNL     1       9.111  -9.046  -0.282  1.00  0.00     0.020 A 
ATOM     43  C   UNL     1       7.849 -10.646   1.041  1.00  0.00     0.020 A 
ATOM     44  C   UNL     1       8.546 -10.316  -0.123  1.00  0.00     0.054 A 
BRANCH  44  45
ATOM     45  S   UNL     1       8.773 -11.544  -1.439  1.00  0.00     0.124 S 
ATOM     46  O   UNL     1       7.840 -11.068  -2.457  1.00  0.00    -0.237 OA
ATOM     47  O   UNL     1      10.189 -11.403  -1.771  1.00  0.00    -0.237 OA
ATOM     48  O   UNL     1       8.409 -12.807  -0.801  1.00  0.00    -0.744 OA
ENDBRANCH  44  45
ENDBRANCH  25  39
BRANCH  26  49
ATOM     49  C   UNL     1       7.173  -1.590   9.145  1.00  0.00    -0.014 A 
ATOM     50  C   UNL     1       8.183  -0.654   9.421  1.00  0.00     0.010 A 
ATOM     51  C   UNL     1       5.968  -1.535   9.868  1.00  0.00     0.010 A 
ATOM     52  C   UNL     1       7.994   0.315  10.411  1.00  0.00     0.020 A 
ATOM     53  C   UNL     1       5.763  -0.551  10.836  1.00  0.00     0.020 A 
ATOM     54  C   UNL     1       6.784   0.361  11.110  1.00  0.00     0.054 A 
BRANCH  54  55
ATOM     55  S   UNL     1       6.522   1.667  12.342  1.00  0.00     0.124 S 
ATOM     56  O   UNL     1       7.210   1.125  13.508  1.00  0.00    -0.237 OA
ATOM     57  O   UNL     1       7.151   2.829  11.717  1.00  0.00    -0.237 OA
ATOM     58  O   UNL     1       5.066   1.743  12.448  1.00  0.00    -0.744 OA
ENDBRANCH  54  55
ENDBRANCH  26  49
BRANCH  38  59
ATOM     59  C   UNL     1      10.994  -7.368   8.504  1.00  0.00    -0.014 A 
ATOM     60  C   UNL     1      10.540  -8.031   9.659  1.00  0.00     0.010 A 
ATOM     61  C   UNL     1      12.371  -7.330   8.226  1.00  0.00     0.010 A 
ATOM     62  C   UNL     1      11.453  -8.603  10.547  1.00  0.00     0.020 A 
ATOM     63  C   UNL     1      13.285  -7.921   9.101  1.00  0.00     0.020 A 
ATOM     64  C   UNL     1      12.821  -8.535  10.268  1.00  0.00     0.054 A 
BRANCH  64  65
ATOM     65  S   UNL     1      13.991  -9.283  11.433  1.00  0.00     0.124 S 
ATOM     66  O   UNL     1      14.053  -8.274  12.487  1.00  0.00    -0.237 OA
ATOM     67  O   UNL     1      13.331 -10.534  11.799  1.00  0.00    -0.237 OA
ATOM     68  O   UNL     1      15.211  -9.438  10.644  1.00  0.00    -0.744 OA
ENDBRANCH  64  65
ENDBRANCH  38  59
ENDBRANCH  12  13
ENDBRANCH   5   7
ENDBRANCH   2   3
ENDBRANCH   1   2
BRANCH   1  69
ATOM     69  C   UNL     1       4.705   1.522  -3.370  1.00  0.00     0.023 C 
BRANCH  69  70
ATOM     70  C   UNL     1       5.510   2.709  -2.829  1.00  0.00     0.116 C 
BRANCH  70  71
ATOM     71  N   UNL     1       6.724   2.912  -3.590  1.00  0.00    -0.356 N 
ATOM     72  C   UNL     1       6.993   3.678  -4.678  1.00  0.00     0.225 C 
ATOM     73  H   UNL     1       7.497   2.400  -3.258  1.00  0.00     0.163 HD
ATOM     74  O   UNL     1       8.133   3.586  -5.147  1.00  0.00    -0.275 OA
BRANCH  72  75
ATOM     75  C   UNL     1       6.007   4.688  -5.288  1.00  0.00     0.101 C 
BRANCH  75  76
ATOM     76  C   UNL     1       6.014   5.971  -4.451  1.00  0.00     0.015 C 
BRANCH  76  77
ATOM     77  C   UNL     1       5.300   7.135  -5.139  1.00  0.00     0.001 C 
BRANCH  77  78
ATOM     78  C   UNL     1       3.823   7.223  -4.783  1.00  0.00     0.000 CG0
ATOM     79  G   UNL     1       2.953   6.107  -5.344  1.00  0.00     0.000 G0
ENDBRANCH  77  78
ENDBRANCH  76  77
ENDBRANCH  75  76
BRANCH  75  80
ATOM     80  C   UNL     1       4.629   4.117  -5.686  1.00  0.00     0.094 C 
BRANCH  80  81
ATOM     81  C   UNL     1       3.387   4.690  -4.969  1.00  0.00     0.026 C 
BRANCH  81  82
ATOM     82  C   UNL     1       2.953   6.107  -5.344  1.00  0.00     0.002 CG0
ATOM     83  G   UNL     1       3.823   7.223  -4.783  1.00  0.00     0.000 G0
ENDBRANCH  81  82
ENDBRANCH  80  81
BRANCH  80  84
ATOM     84  N   UNL     1       4.418   4.193  -7.138  1.00  0.00    -0.352 N 
ATOM     85  C   UNL     1       4.553   3.260  -8.118  1.00  0.00     0.225 C 
ATOM     86  H   UNL     1       4.126   5.077  -7.458  1.00  0.00     0.163 HD
ATOM     87  O   UNL     1       4.200   3.589  -9.252  1.00  0.00    -0.275 OA
BRANCH  85  88
ATOM     88  C   UNL     1       5.142   1.891  -7.814  1.00  0.00     0.106 C 
ATOM     89  C   UNL     1       6.259   1.573  -8.786  1.00  0.00     0.044 C 
ATOM     90  C   UNL     1       4.130   0.789  -8.083  1.00  0.00     0.173 C 
ATOM     91  C   UNL     1       5.534   0.907  -9.934  1.00  0.00     0.161 C 
ATOM     92  O   UNL     1       4.449   0.181  -9.347  1.00  0.00    -0.381 OA
ENDBRANCH  85  88
ENDBRANCH  80  84
ENDBRANCH  75  80
ENDBRANCH  72  75
ENDBRANCH  70  71
ENDBRANCH  69  70
ENDBRANCH   1  69
TORSDOF 16
