REMARK SMILES O=C(NCCCCNC(=O)c1[nH]nc2ncc(F)cc12)c1ccc(-c2c3nc(c(-c4ccc(S(=O)(=O)[O-])cc4)c4ccc([nH]4)c(-c4ccc(S(=O)(=O)[O-])cc4)c4nc(c(-c5ccc(S(=O)(=O)[O-])cc5)c5ccc2[nH]5)C=C4)C=C3)cc1
REMARK SMILES IDX 4 1 3 2 1 3 2 4 21 6 22 7 80 8 23 9 79 10 24 11 25 12 26 13
REMARK SMILES IDX 73 14 27 15 78 16 72 17 74 18 28 19 77 20 71 21 70 22 29 24
REMARK SMILES IDX 59 25 40 26 58 27 41 28 44 29 57 30 75 31 42 32 43 33 56 35
REMARK SMILES IDX 76 36 45 37 30 38 31 39 39 40 32 41 38 42 33 43 34 44 35 45
REMARK SMILES IDX 36 46 37 47 60 48 61 49 69 50 62 51 68 52 63 53 64 54 65 55
REMARK SMILES IDX 66 56 67 57 46 58 47 59 55 60 48 61 54 62 49 63 50 64 51 65
REMARK SMILES IDX 52 66 53 67 5 68 6 69 7 70 8 71 9 72 10 74 11 75 12 76 20 77
REMARK SMILES IDX 13 78 14 80 19 81 15 82 17 83 16 84 18 85
REMARK H PARENT 3 5 74 23 44 34 8 73 12 79
REMARK Flexibility Score: inf
ROOT
ATOM      1  C   UNL     1       4.668   0.608   0.779  1.00  0.00     0.116 C 
ENDROOT
BRANCH   1   2
ATOM      2  N   UNL     1       3.268   0.259   0.910  1.00  0.00    -0.352 N 
ATOM      3  O   UNL     1       1.179  -0.311   0.524  1.00  0.00    -0.269 OA
ATOM      4  C   UNL     1       2.198   0.208   0.058  1.00  0.00     0.251 C 
ATOM      5  H   UNL     1       3.030  -0.003   1.829  1.00  0.00     0.163 HD
BRANCH   4   6
ATOM      6  C   UNL     1       2.157   0.746  -1.333  1.00  0.00     0.039 A 
ATOM      7  C   UNL     1       3.240   1.268  -2.040  1.00  0.00     0.014 A 
ATOM      8  C   UNL     1       0.896   0.736  -1.964  1.00  0.00     0.014 A 
ATOM      9  C   UNL     1       3.060   1.803  -3.318  1.00  0.00     0.010 A 
ATOM     10  C   UNL     1       0.713   1.262  -3.244  1.00  0.00     0.010 A 
ATOM     11  C   UNL     1       1.796   1.814  -3.918  1.00  0.00    -0.014 A 
BRANCH  11  12
ATOM     12  C   UNL     1       1.696   2.303  -5.293  1.00  0.00     0.031 A 
ATOM     13  C   UNL     1       2.423   1.502  -6.318  1.00  0.00     0.074 A 
ATOM     14  C   UNL     1       0.921   3.324  -5.710  1.00  0.00     0.049 A 
ATOM     15  N   UNL     1       3.455   1.845  -7.019  1.00  0.00    -0.248 NA
ATOM     16  C   UNL     1       1.979   0.119  -6.540  1.00  0.00     0.031 C 
ATOM     17  C   UNL     1      -0.109   4.044  -4.961  1.00  0.00     0.029 A 
ATOM     18  N   UNL     1       0.847   3.876  -6.957  1.00  0.00    -0.354 N 
ATOM     19  C   UNL     1       3.689   0.795  -7.904  1.00  0.00     0.074 A 
ATOM     20  C   UNL     1       2.832  -0.286  -7.482  1.00  0.00     0.031 C 
ATOM     21  C   UNL     1      -0.841   4.791  -5.820  1.00  0.00     0.029 A 
ATOM     22  C   UNL     1      -0.242   4.716  -7.143  1.00  0.00     0.049 A 
ATOM     23  H   UNL     1       1.508   3.694  -7.663  1.00  0.00     0.167 HD
ATOM     24  C   UNL     1       4.432   0.944  -9.037  1.00  0.00     0.031 A 
ATOM     25  C   UNL     1      -0.644   5.277  -8.309  1.00  0.00     0.031 A 
ATOM     26  C   UNL     1       5.194   2.163  -9.036  1.00  0.00     0.049 A 
ATOM     27  C   UNL     1       0.519   5.305  -9.225  1.00  0.00     0.074 A 
ATOM     28  C   UNL     1       6.198   2.700  -8.258  1.00  0.00     0.029 A 
ATOM     29  N   UNL     1       4.712   3.196  -9.803  1.00  0.00    -0.354 N 
ATOM     30  N   UNL     1       1.575   6.043  -9.034  1.00  0.00    -0.248 NA
ATOM     31  C   UNL     1       0.666   4.258 -10.224  1.00  0.00     0.031 C 
ATOM     32  C   UNL     1       5.974   4.109  -8.277  1.00  0.00     0.029 A 
ATOM     33  C   UNL     1       4.858   4.351  -9.081  1.00  0.00     0.049 A 
ATOM     34  H   UNL     1       4.331   3.120 -10.708  1.00  0.00     0.167 HD
ATOM     35  C   UNL     1       2.623   5.316  -9.574  1.00  0.00     0.074 A 
ATOM     36  C   UNL     1       1.987   4.306 -10.411  1.00  0.00     0.031 C 
ATOM     37  C   UNL     1       3.889   5.428  -9.074  1.00  0.00     0.031 A 
BRANCH  24  38
ATOM     38  C   UNL     1       4.192   0.173 -10.318  1.00  0.00    -0.014 A 
ATOM     39  C   UNL     1       5.069   0.372 -11.407  1.00  0.00     0.010 A 
ATOM     40  C   UNL     1       2.985  -0.502 -10.586  1.00  0.00     0.010 A 
ATOM     41  C   UNL     1       4.711  -0.002 -12.710  1.00  0.00     0.020 A 
ATOM     42  C   UNL     1       2.640  -0.923 -11.874  1.00  0.00     0.020 A 
ATOM     43  C   UNL     1       3.486  -0.629 -12.935  1.00  0.00     0.054 A 
BRANCH  43  44
ATOM     44  S   UNL     1       2.966  -0.971 -14.635  1.00  0.00     0.124 S 
ATOM     45  O   UNL     1       2.774   0.376 -15.164  1.00  0.00    -0.237 OA
ATOM     46  O   UNL     1       4.109  -1.706 -15.169  1.00  0.00    -0.237 OA
ATOM     47  O   UNL     1       1.747  -1.759 -14.467  1.00  0.00    -0.744 OA
ENDBRANCH  43  44
ENDBRANCH  24  38
BRANCH  25  48
ATOM     48  C   UNL     1      -2.022   5.577  -8.770  1.00  0.00    -0.014 A 
ATOM     49  C   UNL     1      -2.245   6.376  -9.907  1.00  0.00     0.010 A 
ATOM     50  C   UNL     1      -3.109   4.837  -8.263  1.00  0.00     0.010 A 
ATOM     51  C   UNL     1      -3.490   6.375 -10.559  1.00  0.00     0.020 A 
ATOM     52  C   UNL     1      -4.355   4.840  -8.901  1.00  0.00     0.020 A 
ATOM     53  C   UNL     1      -4.530   5.585 -10.064  1.00  0.00     0.054 A 
BRANCH  53  54
ATOM     54  S   UNL     1      -6.069   5.438 -11.020  1.00  0.00     0.124 S 
ATOM     55  O   UNL     1      -6.645   6.773 -10.892  1.00  0.00    -0.237 OA
ATOM     56  O   UNL     1      -5.581   5.084 -12.350  1.00  0.00    -0.237 OA
ATOM     57  O   UNL     1      -6.802   4.377 -10.331  1.00  0.00    -0.744 OA
ENDBRANCH  53  54
ENDBRANCH  25  48
BRANCH  37  58
ATOM     58  C   UNL     1       4.212   6.616  -8.199  1.00  0.00    -0.014 A 
ATOM     59  C   UNL     1       3.577   6.862  -6.966  1.00  0.00     0.010 A 
ATOM     60  C   UNL     1       5.306   7.421  -8.564  1.00  0.00     0.010 A 
ATOM     61  C   UNL     1       4.019   7.894  -6.127  1.00  0.00     0.020 A 
ATOM     62  C   UNL     1       5.763   8.440  -7.723  1.00  0.00     0.020 A 
ATOM     63  C   UNL     1       5.116   8.672  -6.508  1.00  0.00     0.054 A 
BRANCH  63  64
ATOM     64  S   UNL     1       5.738   9.943  -5.372  1.00  0.00     0.124 S 
ATOM     65  O   UNL     1       4.672  10.940  -5.394  1.00  0.00    -0.237 OA
ATOM     66  O   UNL     1       5.887   9.209  -4.117  1.00  0.00    -0.237 OA
ATOM     67  O   UNL     1       6.997  10.370  -5.982  1.00  0.00    -0.744 OA
ENDBRANCH  63  64
ENDBRANCH  37  58
ENDBRANCH  11  12
ENDBRANCH   4   6
ENDBRANCH   1   2
BRANCH   1  68
ATOM     68  C   UNL     1       4.973   2.097   0.941  1.00  0.00     0.023 C 
BRANCH  68  69
ATOM     69  C   UNL     1       4.460   2.750   2.230  1.00  0.00     0.023 C 
BRANCH  69  70
ATOM     70  C   UNL     1       4.859   2.065   3.536  1.00  0.00     0.116 C 
BRANCH  70  71
ATOM     71  N   UNL     1       6.299   2.067   3.759  1.00  0.00    -0.351 N 
ATOM     72  C   UNL     1       7.042   2.706   4.710  1.00  0.00     0.270 C 
ATOM     73  H   UNL     1       6.817   1.521   3.124  1.00  0.00     0.163 HD
ATOM     74  O   UNL     1       8.278   2.705   4.576  1.00  0.00    -0.268 OA
BRANCH  72  75
ATOM     75  C   UNL     1       6.396   3.337   5.818  1.00  0.00     0.132 A 
ATOM     76  N   UNL     1       5.440   2.742   6.607  1.00  0.00    -0.270 N 
ATOM     77  C   UNL     1       6.598   4.561   6.415  1.00  0.00     0.055 A 
ATOM     78  N   UNL     1       4.948   3.514   7.594  1.00  0.00    -0.154 NA
ATOM     79  H   UNL     1       5.136   1.817   6.460  1.00  0.00     0.190 HD
ATOM     80  C   UNL     1       5.653   4.641   7.490  1.00  0.00     0.181 A 
ATOM     81  C   UNL     1       7.514   5.531   6.021  1.00  0.00     0.055 A 
ATOM     82  N   UNL     1       5.547   5.747   8.271  1.00  0.00    -0.232 NA
ATOM     83  C   UNL     1       7.386   6.655   6.839  1.00  0.00     0.142 A 
ATOM     84  C   UNL     1       6.437   6.718   7.886  1.00  0.00     0.152 A 
ATOM     85  F   UNL     1       8.187   7.709   6.628  1.00  0.00    -0.205 F 
ENDBRANCH  72  75
ENDBRANCH  70  71
ENDBRANCH  69  70
ENDBRANCH  68  69
ENDBRANCH   1  68
TORSDOF 14
