REMARK SMILES O=C(NCCCCNC(=O)[C@@H]1CC[C@H](CNC(=O)c2cccn2C2CC2)O1)c1ccc(-c2c3nc(c(-c4ccc(S(=O)(=O)[O-])cc4)c4ccc([nH]4)c(-c4ccc(S(=O)(=O)[O-])cc4)c4nc(c(-c5ccc(S(=O)(=O)[O-])cc5)c5ccc2[nH]5)C=C4)C=C3)cc1
REMARK SMILES IDX 6 1 5 2 4 3 3 4 1 5 2 6 28 8 29 9 87 10 30 11 86 12 31 13
REMARK SMILES IDX 32 14 33 15 80 16 34 17 85 18 79 19 81 20 35 21 84 22 78 23
REMARK SMILES IDX 77 24 36 26 66 27 47 28 65 29 48 30 51 31 64 32 82 33 49 34
REMARK SMILES IDX 50 35 63 37 83 38 52 39 37 40 38 41 46 42 39 43 45 44 40 45
REMARK SMILES IDX 41 46 42 47 43 48 44 49 67 50 68 51 76 52 69 53 75 54 70 55
REMARK SMILES IDX 71 56 72 57 73 58 74 59 53 60 54 61 62 62 55 63 61 64 56 65
REMARK SMILES IDX 57 66 58 67 59 68 60 69 7 70 8 71 9 72 10 74 11 75 12 76
REMARK SMILES IDX 27 77 13 78 14 79 15 80 16 81 17 82 18 84 19 85 20 86 23 87
REMARK SMILES IDX 21 88 22 89 24 90 25 91 26 92
REMARK H PARENT 3 7 81 25 51 36 8 73 16 83
REMARK Flexibility Score: inf
ROOT
ATOM      1  C   UNL     1       4.382  -0.780  -3.558  1.00  0.00     0.023 C 
ENDROOT
BRANCH   1   2
ATOM      2  C   UNL     1       4.993  -0.873  -2.157  1.00  0.00     0.023 C 
BRANCH   2   3
ATOM      3  C   UNL     1       4.825   0.383  -1.301  1.00  0.00     0.116 C 
BRANCH   3   4
ATOM      4  N   UNL     1       3.456   0.703  -0.942  1.00  0.00    -0.352 N 
ATOM      5  O   UNL     1       1.427   0.539  -0.008  1.00  0.00    -0.269 OA
ATOM      6  C   UNL     1       2.539   0.039  -0.164  1.00  0.00     0.251 C 
ATOM      7  H   UNL     1       3.125   1.548  -1.324  1.00  0.00     0.163 HD
BRANCH   6   8
ATOM      8  C   UNL     1       2.841  -1.284   0.431  1.00  0.00     0.039 A 
ATOM      9  C   UNL     1       4.081  -1.575   1.006  1.00  0.00     0.014 A 
ATOM     10  C   UNL     1       1.830  -2.255   0.432  1.00  0.00     0.014 A 
ATOM     11  C   UNL     1       4.352  -2.852   1.479  1.00  0.00     0.010 A 
ATOM     12  C   UNL     1       2.078  -3.525   0.957  1.00  0.00     0.010 A 
ATOM     13  C   UNL     1       3.345  -3.823   1.476  1.00  0.00    -0.014 A 
BRANCH  13  14
ATOM     14  C   UNL     1       3.590  -5.058   2.257  1.00  0.00     0.031 A 
ATOM     15  C   UNL     1       3.486  -4.831   3.768  1.00  0.00     0.074 A 
ATOM     16  C   UNL     1       3.933  -6.192   1.584  1.00  0.00     0.049 A 
ATOM     17  N   UNL     1       4.003  -5.514   4.745  1.00  0.00    -0.248 NA
ATOM     18  C   UNL     1       2.775  -3.621   4.264  1.00  0.00     0.031 C 
ATOM     19  C   UNL     1       4.068  -6.288   0.117  1.00  0.00     0.029 A 
ATOM     20  N   UNL     1       4.243  -7.476   1.985  1.00  0.00    -0.354 N 
ATOM     21  C   UNL     1       3.560  -4.924   5.945  1.00  0.00     0.074 A 
ATOM     22  C   UNL     1       2.901  -3.703   5.589  1.00  0.00     0.031 C 
ATOM     23  C   UNL     1       4.471  -7.525  -0.242  1.00  0.00     0.029 A 
ATOM     24  C   UNL     1       4.613  -8.353   0.942  1.00  0.00     0.049 A 
ATOM     25  H   UNL     1       4.209  -7.758   2.927  1.00  0.00     0.167 HD
ATOM     26  C   UNL     1       3.645  -5.518   7.168  1.00  0.00     0.031 A 
ATOM     27  C   UNL     1       5.018  -9.655   1.009  1.00  0.00     0.031 A 
ATOM     28  C   UNL     1       4.270  -6.793   7.093  1.00  0.00     0.049 A 
ATOM     29  C   UNL     1       4.844 -10.109   2.401  1.00  0.00     0.074 A 
ATOM     30  C   UNL     1       5.566  -7.217   6.966  1.00  0.00     0.029 A 
ATOM     31  N   UNL     1       3.440  -7.876   6.922  1.00  0.00    -0.354 N 
ATOM     32  N   UNL     1       3.700 -10.293   2.987  1.00  0.00    -0.248 NA
ATOM     33  C   UNL     1       6.030 -10.388   3.220  1.00  0.00     0.031 C 
ATOM     34  C   UNL     1       5.469  -8.476   6.328  1.00  0.00     0.029 A 
ATOM     35  C   UNL     1       4.117  -8.772   6.129  1.00  0.00     0.049 A 
ATOM     36  H   UNL     1       2.536  -7.987   7.295  1.00  0.00     0.167 HD
ATOM     37  C   UNL     1       4.036 -10.328   4.318  1.00  0.00     0.074 A 
ATOM     38  C   UNL     1       5.438 -10.680   4.376  1.00  0.00     0.031 C 
ATOM     39  C   UNL     1       3.339  -9.565   5.197  1.00  0.00     0.031 A 
BRANCH  26  40
ATOM     40  C   UNL     1       2.990  -5.147   8.468  1.00  0.00    -0.014 A 
ATOM     41  C   UNL     1       3.571  -5.657   9.654  1.00  0.00     0.010 A 
ATOM     42  C   UNL     1       1.694  -4.616   8.552  1.00  0.00     0.010 A 
ATOM     43  C   UNL     1       2.851  -5.740  10.846  1.00  0.00     0.020 A 
ATOM     44  C   UNL     1       0.974  -4.665   9.758  1.00  0.00     0.020 A 
ATOM     45  C   UNL     1       1.540  -5.274  10.880  1.00  0.00     0.054 A 
BRANCH  45  46
ATOM     46  S   UNL     1       0.567  -5.556  12.384  1.00  0.00     0.124 S 
ATOM     47  O   UNL     1       0.298  -6.989  12.311  1.00  0.00    -0.237 OA
ATOM     48  O   UNL     1       1.488  -5.146  13.442  1.00  0.00    -0.237 OA
ATOM     49  O   UNL     1      -0.594  -4.686  12.210  1.00  0.00    -0.744 OA
ENDBRANCH  45  46
ENDBRANCH  26  40
BRANCH  27  50
ATOM     50  C   UNL     1       5.636 -10.659   0.068  1.00  0.00    -0.014 A 
ATOM     51  C   UNL     1       6.184 -10.358  -1.185  1.00  0.00     0.010 A 
ATOM     52  C   UNL     1       5.865 -11.978   0.552  1.00  0.00     0.010 A 
ATOM     53  C   UNL     1       7.020 -11.278  -1.854  1.00  0.00     0.020 A 
ATOM     54  C   UNL     1       6.737 -12.874  -0.072  1.00  0.00     0.020 A 
ATOM     55  C   UNL     1       7.333 -12.507  -1.268  1.00  0.00     0.054 A 
BRANCH  55  56
ATOM     56  S   UNL     1       8.634 -13.566  -1.963  1.00  0.00     0.124 S 
ATOM     57  O   UNL     1       7.872 -14.499  -2.785  1.00  0.00    -0.237 OA
ATOM     58  O   UNL     1       9.474 -12.621  -2.696  1.00  0.00    -0.237 OA
ATOM     59  O   UNL     1       9.262 -14.142  -0.774  1.00  0.00    -0.744 OA
ENDBRANCH  55  56
ENDBRANCH  27  50
BRANCH  39  60
ATOM     60  C   UNL     1       1.914  -9.239   4.762  1.00  0.00    -0.014 A 
ATOM     61  C   UNL     1       0.971 -10.263   4.568  1.00  0.00     0.010 A 
ATOM     62  C   UNL     1       1.514  -7.927   4.444  1.00  0.00     0.010 A 
ATOM     63  C   UNL     1      -0.316  -9.985   4.075  1.00  0.00     0.020 A 
ATOM     64  C   UNL     1       0.230  -7.633   3.963  1.00  0.00     0.020 A 
ATOM     65  C   UNL     1      -0.680  -8.669   3.777  1.00  0.00     0.054 A 
BRANCH  65  66
ATOM     66  S   UNL     1      -2.340  -8.336   3.120  1.00  0.00     0.124 S 
ATOM     67  O   UNL     1      -2.385  -9.165   1.918  1.00  0.00    -0.237 OA
ATOM     68  O   UNL     1      -3.205  -8.773   4.213  1.00  0.00    -0.237 OA
ATOM     69  O   UNL     1      -2.337  -6.895   2.871  1.00  0.00    -0.744 OA
ENDBRANCH  65  66
ENDBRANCH  39  60
ENDBRANCH  13  14
ENDBRANCH   6   8
ENDBRANCH   3   4
ENDBRANCH   2   3
ENDBRANCH   1   2
BRANCH   1  70
ATOM     70  C   UNL     1       4.853   0.422  -4.374  1.00  0.00     0.116 C 
BRANCH  70  71
ATOM     71  N   UNL     1       6.297   0.429  -4.535  1.00  0.00    -0.354 N 
ATOM     72  C   UNL     1       7.055   0.351  -5.667  1.00  0.00     0.249 C 
ATOM     73  H   UNL     1       6.808   0.500  -3.697  1.00  0.00     0.163 HD
ATOM     74  O   UNL     1       8.282   0.405  -5.545  1.00  0.00    -0.272 OA
BRANCH  72  75
ATOM     75  C   UNL     1       6.377   0.258  -7.037  1.00  0.00     0.207 C 
ATOM     76  C   UNL     1       7.089  -0.705  -7.975  1.00  0.00     0.045 C 
ATOM     77  O   UNL     1       6.392   1.557  -7.669  1.00  0.00    -0.363 OA
ATOM     78  C   UNL     1       6.896  -0.040  -9.315  1.00  0.00     0.037 C 
ATOM     79  C   UNL     1       7.007   1.435  -8.967  1.00  0.00     0.138 C 
BRANCH  79  80
ATOM     80  C   UNL     1       8.453   1.964  -8.903  1.00  0.00     0.148 C 
BRANCH  80  81
ATOM     81  N   UNL     1       9.133   1.888 -10.189  1.00  0.00    -0.348 N 
ATOM     82  C   UNL     1       9.685   2.871 -10.969  1.00  0.00     0.268 C 
ATOM     83  H   UNL     1       9.208   0.979 -10.560  1.00  0.00     0.163 HD
ATOM     84  O   UNL     1      10.183   2.525 -12.037  1.00  0.00    -0.268 OA
BRANCH  82  85
ATOM     85  C   UNL     1       9.733   4.222 -10.474  1.00  0.00     0.107 A 
ATOM     86  C   UNL     1      10.322   4.637  -9.281  1.00  0.00     0.033 A 
ATOM     87  N   UNL     1       9.357   5.375 -11.133  1.00  0.00    -0.340 N 
ATOM     88  C   UNL     1      10.303   6.046  -9.227  1.00  0.00     0.020 A 
ATOM     89  C   UNL     1       9.725   6.477 -10.396  1.00  0.00     0.086 A 
BRANCH  87  90
ATOM     90  C   UNL     1       8.591   5.561 -12.355  1.00  0.00     0.087 C 
ATOM     91  C   UNL     1       8.337   4.560 -13.458  1.00  0.00     0.027 C 
ATOM     92  C   UNL     1       7.232   4.903 -12.520  1.00  0.00     0.027 C 
ENDBRANCH  87  90
ENDBRANCH  82  85
ENDBRANCH  80  81
ENDBRANCH  79  80
ENDBRANCH  72  75
ENDBRANCH  70  71
ENDBRANCH   1  70
TORSDOF 18
