REMARK SMILES [NH3+][C@H](Cc1ccc2nsnc2c1)C(=O)NCCCCNC(=O)c1ccc(-c2c3nc(c(-c4ccc(S(=O)(=O)[O-])cc4)c4ccc([nH]4)c(-c4ccc(S(=O)(=O)[O-])cc4)c4nc(c(-c5ccc(S(=O)(=O)[O-])cc5)c5ccc2[nH]5)C=C4)C=C3)cc1
REMARK SMILES IDX 18 1 17 2 16 3 15 4 13 5 14 6 2 8 1 9 3 13 4 14 5 15 12 16
REMARK SMILES IDX 6 17 11 18 7 19 10 20 8 21 9 22 19 23 20 24 21 25 22 27
REMARK SMILES IDX 23 28 24 29 82 30 25 31 81 32 26 33 27 34 28 35 75 36 29 37
REMARK SMILES IDX 80 38 74 39 76 40 30 41 79 42 73 43 72 44 31 46 61 47 42 48
REMARK SMILES IDX 60 49 43 50 46 51 59 52 77 53 44 54 45 55 58 57 78 58 47 59
REMARK SMILES IDX 32 60 33 61 41 62 34 63 40 64 35 65 36 66 37 67 38 68 39 69
REMARK SMILES IDX 62 70 63 71 71 72 64 73 70 74 65 75 66 76 67 77 68 78 69 79
REMARK SMILES IDX 48 80 49 81 57 82 50 83 56 84 51 85 52 86 53 87 54 88 55 89
REMARK H PARENT 15 7 1 10 1 11 1 12 20 26 76 45 46 56
REMARK Flexibility Score: inf
ROOT
ATOM      1  C   UNL     1      -2.406   2.810  -1.922  1.00  0.00     0.023 C 
ENDROOT
BRANCH   1   2
ATOM      2  C   UNL     1      -0.922   2.891  -1.570  1.00  0.00     0.023 C 
BRANCH   2   3
ATOM      3  C   UNL     1      -0.587   3.032  -0.088  1.00  0.00     0.116 C 
BRANCH   3   4
ATOM      4  N   UNL     1      -1.249   2.051   0.748  1.00  0.00    -0.351 N 
ATOM      5  C   UNL     1      -0.830   0.900   1.338  1.00  0.00     0.278 C 
ATOM      6  O   UNL     1      -1.681   0.261   1.968  1.00  0.00    -0.268 OA
ATOM      7  H   UNL     1      -2.195   2.260   0.925  1.00  0.00     0.163 HD
BRANCH   5   8
ATOM      8  C   UNL     1       0.622   0.384   1.263  1.00  0.00     0.275 C 
BRANCH   8   9
ATOM      9  N   UNL     1       1.554   1.357   1.893  1.00  0.00    -0.347 N 
ATOM     10  H   UNL     1       1.145   1.705   2.761  1.00  0.00     0.345 HD
ATOM     11  H   UNL     1       1.714   2.136   1.256  1.00  0.00     0.345 HD
ATOM     12  H   UNL     1       2.440   0.895   2.097  1.00  0.00     0.345 HD
ENDBRANCH   8   9
BRANCH   8  13
ATOM     13  C   UNL     1       1.152  -0.208  -0.069  1.00  0.00     0.111 C 
BRANCH  13  14
ATOM     14  C   UNL     1       0.241  -0.446  -1.260  1.00  0.00    -0.039 A 
ATOM     15  C   UNL     1      -1.079  -0.950  -1.111  1.00  0.00     0.006 A 
ATOM     16  C   UNL     1       0.768  -0.135  -2.543  1.00  0.00     0.035 A 
ATOM     17  C   UNL     1      -2.008  -1.040  -2.170  1.00  0.00     0.032 A 
ATOM     18  C   UNL     1      -0.131  -0.182  -3.638  1.00  0.00     0.105 A 
ATOM     19  C   UNL     1      -1.552  -0.626  -3.442  1.00  0.00     0.104 A 
ATOM     20  N   UNL     1       0.148   0.181  -4.899  1.00  0.00    -0.173 NA
ATOM     21  N   UNL     1      -2.281  -0.562  -4.565  1.00  0.00    -0.173 NA
ATOM     22  S   UNL     1      -1.272   0.017  -5.751  1.00  0.00     0.069 S 
ENDBRANCH  13  14
ENDBRANCH   8  13
ENDBRANCH   5   8
ENDBRANCH   3   4
ENDBRANCH   2   3
ENDBRANCH   1   2
BRANCH   1  23
ATOM     23  C   UNL     1      -3.154   4.120  -1.738  1.00  0.00     0.116 C 
BRANCH  23  24
ATOM     24  N   UNL     1      -2.667   5.149  -2.646  1.00  0.00    -0.352 N 
ATOM     25  C   UNL     1      -3.331   5.844  -3.628  1.00  0.00     0.251 C 
ATOM     26  H   UNL     1      -1.717   5.384  -2.539  1.00  0.00     0.163 HD
ATOM     27  O   UNL     1      -2.689   6.500  -4.442  1.00  0.00    -0.269 OA
BRANCH  25  28
ATOM     28  C   UNL     1      -4.808   5.797  -3.706  1.00  0.00     0.039 A 
ATOM     29  C   UNL     1      -5.425   5.765  -4.959  1.00  0.00     0.014 A 
ATOM     30  C   UNL     1      -5.584   5.819  -2.546  1.00  0.00     0.014 A 
ATOM     31  C   UNL     1      -6.819   5.706  -5.045  1.00  0.00     0.010 A 
ATOM     32  C   UNL     1      -6.961   5.660  -2.629  1.00  0.00     0.010 A 
ATOM     33  C   UNL     1      -7.597   5.628  -3.879  1.00  0.00    -0.014 A 
BRANCH  33  34
ATOM     34  C   UNL     1      -9.079   5.564  -3.926  1.00  0.00     0.031 A 
ATOM     35  C   UNL     1      -9.890   6.658  -3.279  1.00  0.00     0.074 A 
ATOM     36  C   UNL     1      -9.691   4.494  -4.469  1.00  0.00     0.049 A 
ATOM     37  N   UNL     1     -11.183   6.732  -3.097  1.00  0.00    -0.248 NA
ATOM     38  C   UNL     1      -9.142   7.801  -2.725  1.00  0.00     0.031 C 
ATOM     39  C   UNL     1      -9.016   3.348  -5.084  1.00  0.00     0.029 A 
ATOM     40  N   UNL     1     -11.025   4.192  -4.584  1.00  0.00    -0.354 N 
ATOM     41  C   UNL     1     -11.395   7.899  -2.370  1.00  0.00     0.074 A 
ATOM     42  C   UNL     1     -10.097   8.476  -2.104  1.00  0.00     0.031 C 
ATOM     43  C   UNL     1      -9.939   2.486  -5.540  1.00  0.00     0.029 A 
ATOM     44  C   UNL     1     -11.267   2.995  -5.214  1.00  0.00     0.049 A 
ATOM     45  H   UNL     1     -11.740   4.778  -4.247  1.00  0.00     0.167 HD
ATOM     46  C   UNL     1     -12.567   8.452  -1.977  1.00  0.00     0.031 A 
ATOM     47  C   UNL     1     -12.430   2.376  -5.495  1.00  0.00     0.031 A 
ATOM     48  C   UNL     1     -13.856   7.901  -2.292  1.00  0.00     0.049 A 
ATOM     49  C   UNL     1     -13.722   3.034  -5.093  1.00  0.00     0.074 A 
ATOM     50  C   UNL     1     -15.107   8.421  -2.013  1.00  0.00     0.029 A 
ATOM     51  N   UNL     1     -14.058   6.709  -2.972  1.00  0.00    -0.354 N 
ATOM     52  N   UNL     1     -13.905   4.164  -4.452  1.00  0.00    -0.248 NA
ATOM     53  C   UNL     1     -14.962   2.339  -5.461  1.00  0.00     0.031 C 
ATOM     54  C   UNL     1     -16.068   7.526  -2.497  1.00  0.00     0.029 A 
ATOM     55  C   UNL     1     -15.413   6.471  -3.115  1.00  0.00     0.049 A 
ATOM     56  H   UNL     1     -13.343   6.119  -3.304  1.00  0.00     0.167 HD
ATOM     57  C   UNL     1     -15.282   4.329  -4.363  1.00  0.00     0.074 A 
ATOM     58  C   UNL     1     -15.883   3.189  -5.026  1.00  0.00     0.031 C 
ATOM     59  C   UNL     1     -15.987   5.332  -3.784  1.00  0.00     0.031 A 
BRANCH  46  60
ATOM     60  C   UNL     1     -12.501   9.720  -1.166  1.00  0.00    -0.014 A 
ATOM     61  C   UNL     1     -12.082  10.933  -1.743  1.00  0.00     0.010 A 
ATOM     62  C   UNL     1     -12.880   9.704   0.189  1.00  0.00     0.010 A 
ATOM     63  C   UNL     1     -11.992  12.093  -0.969  1.00  0.00     0.020 A 
ATOM     64  C   UNL     1     -12.821  10.869   0.959  1.00  0.00     0.020 A 
ATOM     65  C   UNL     1     -12.356  12.052   0.380  1.00  0.00     0.054 A 
BRANCH  65  66
ATOM     66  S   UNL     1     -12.241  13.574   1.360  1.00  0.00     0.124 S 
ATOM     67  O   UNL     1     -10.801  13.680   1.581  1.00  0.00    -0.237 OA
ATOM     68  O   UNL     1     -12.813  14.577   0.466  1.00  0.00    -0.237 OA
ATOM     69  O   UNL     1     -13.035  13.280   2.550  1.00  0.00    -0.744 OA
ENDBRANCH  65  66
ENDBRANCH  46  60
BRANCH  47  70
ATOM     70  C   UNL     1     -12.426   1.081  -6.228  1.00  0.00    -0.014 A 
ATOM     71  C   UNL     1     -12.833   1.029  -7.573  1.00  0.00     0.010 A 
ATOM     72  C   UNL     1     -11.995  -0.100  -5.597  1.00  0.00     0.010 A 
ATOM     73  C   UNL     1     -12.826  -0.183  -8.269  1.00  0.00     0.020 A 
ATOM     74  C   UNL     1     -11.964  -1.310  -6.298  1.00  0.00     0.020 A 
ATOM     75  C   UNL     1     -12.391  -1.345  -7.627  1.00  0.00     0.054 A 
BRANCH  75  76
ATOM     76  S   UNL     1     -12.339  -2.897  -8.567  1.00  0.00     0.124 S 
ATOM     77  O   UNL     1     -13.751  -3.264  -8.624  1.00  0.00    -0.237 OA
ATOM     78  O   UNL     1     -11.742  -2.481  -9.834  1.00  0.00    -0.237 OA
ATOM     79  O   UNL     1     -11.498  -3.765  -7.747  1.00  0.00    -0.744 OA
ENDBRANCH  75  76
ENDBRANCH  47  70
BRANCH  59  80
ATOM     80  C   UNL     1     -17.486   5.262  -3.874  1.00  0.00    -0.014 A 
ATOM     81  C   UNL     1     -18.219   4.362  -3.081  1.00  0.00     0.010 A 
ATOM     82  C   UNL     1     -18.171   6.152  -4.720  1.00  0.00     0.010 A 
ATOM     83  C   UNL     1     -19.613   4.335  -3.153  1.00  0.00     0.020 A 
ATOM     84  C   UNL     1     -19.566   6.145  -4.776  1.00  0.00     0.020 A 
ATOM     85  C   UNL     1     -20.278   5.227  -4.002  1.00  0.00     0.054 A 
BRANCH  85  86
ATOM     86  S   UNL     1     -22.091   5.209  -4.042  1.00  0.00     0.124 S 
ATOM     87  O   UNL     1     -22.364   4.016  -4.839  1.00  0.00    -0.237 OA
ATOM     88  O   UNL     1     -22.444   5.113  -2.627  1.00  0.00    -0.237 OA
ATOM     89  O   UNL     1     -22.436   6.478  -4.679  1.00  0.00    -0.744 OA
ENDBRANCH  85  86
ENDBRANCH  59  80
ENDBRANCH  33  34
ENDBRANCH  25  28
ENDBRANCH  23  24
ENDBRANCH   1  23
TORSDOF 17
