REMARK SMILES Cc1ccccc1C(=O)Nc1ccc(OCC(=O)NCCCCNC(=O)c2ccc(-c3c4nc(c(-c5ccc(S(=O)(=O)[O-])cc5)c5ccc([nH]5)c(-c5ccc(S(=O)(=O)[O-])cc5)c5nc(c(-c6ccc(S(=O)(=O)[O-])cc6)c6ccc3[nH]6)C=C5)C=C4)cc2)c(-c2nc3ccccc3s2)c1
REMARK SMILES IDX 21 1 20 2 19 3 17 4 18 5 16 7 15 8 14 9 11 10 12 11 97 12
REMARK SMILES IDX 13 13 87 14 10 15 8 16 9 17 7 19 1 20 2 21 3 22 4 23 6 24
REMARK SMILES IDX 5 25 88 26 89 27 96 28 90 29 95 30 91 31 94 32 92 33 93 34
REMARK SMILES IDX 22 35 23 36 24 37 25 38 26 40 27 41 28 42 86 43 29 44 85 45
REMARK SMILES IDX 30 46 31 47 32 48 79 49 33 50 84 51 78 52 80 53 34 54 83 55
REMARK SMILES IDX 77 56 76 57 35 59 65 60 46 61 64 62 47 63 50 64 63 65 81 66
REMARK SMILES IDX 48 67 49 68 62 70 82 71 51 72 36 73 37 74 45 75 38 76 44 77
REMARK SMILES IDX 39 78 40 79 41 80 42 81 43 82 66 83 67 84 75 85 68 86 74 87
REMARK SMILES IDX 69 88 70 89 71 90 72 91 73 92 52 93 53 94 61 95 54 96 60 97
REMARK SMILES IDX 55 98 56 99 57 100 58 101 59 102
REMARK H PARENT 19 6 10 18 24 39 80 58 50 69
REMARK Flexibility Score: inf
ROOT
ATOM      1  C   UNL     1       4.196  -3.170   3.235  1.00  0.00     0.023 C 
ENDROOT
BRANCH   1   2
ATOM      2  C   UNL     1       4.592  -4.345   2.334  1.00  0.00     0.116 C 
BRANCH   2   3
ATOM      3  N   UNL     1       3.750  -4.379   1.148  1.00  0.00    -0.353 N 
ATOM      4  C   UNL     1       3.922  -3.738  -0.045  1.00  0.00     0.257 C 
ATOM      5  O   UNL     1       2.921  -3.611  -0.752  1.00  0.00    -0.271 OA
ATOM      6  H   UNL     1       2.946  -4.942   1.215  1.00  0.00     0.163 HD
BRANCH   4   7
ATOM      7  C   UNL     1       5.345  -3.286  -0.477  1.00  0.00     0.329 C 
BRANCH   7   8
ATOM      8  O   UNL     1       5.611  -2.217  -1.384  1.00  0.00    -0.483 OA
BRANCH   8   9
ATOM      9  C   UNL     1       4.873  -1.090  -1.154  1.00  0.00     0.130 A 
ATOM     10  C   UNL     1       3.381   1.178  -0.511  1.00  0.00     0.042 A 
ATOM     11  C   UNL     1       4.592   0.941   0.140  1.00  0.00     0.030 A 
ATOM     12  C   UNL     1       3.003   0.366  -1.582  1.00  0.00     0.041 A 
ATOM     13  C   UNL     1       5.314  -0.217  -0.151  1.00  0.00     0.049 A 
ATOM     14  C   UNL     1       3.766  -0.762  -1.962  1.00  0.00     0.055 A 
BRANCH  10  15
ATOM     15  N   UNL     1       2.567   2.202  -0.005  1.00  0.00    -0.322 N 
ATOM     16  C   UNL     1       1.196   2.267   0.143  1.00  0.00     0.255 C 
ATOM     17  O   UNL     1       0.689   3.359   0.415  1.00  0.00    -0.269 OA
ATOM     18  H   UNL     1       3.052   3.006   0.292  1.00  0.00     0.170 HD
BRANCH  16  19
ATOM     19  C   UNL     1       0.303   1.067   0.074  1.00  0.00     0.043 A 
ATOM     20  C   UNL     1       1.777  -0.523   1.474  1.00  0.00     0.045 C 
ATOM     21  C   UNL     1       0.587  -0.201   0.620  1.00  0.00    -0.038 A 
ATOM     22  C   UNL     1      -0.332  -1.252   0.424  1.00  0.00     0.004 A 
ATOM     23  C   UNL     1      -1.572  -1.024  -0.166  1.00  0.00     0.000 A 
ATOM     24  C   UNL     1      -0.972   1.289  -0.481  1.00  0.00     0.014 A 
ATOM     25  C   UNL     1      -1.909   0.257  -0.584  1.00  0.00     0.001 A 
ENDBRANCH  16  19
ENDBRANCH  10  15
BRANCH  14  26
ATOM     26  C   UNL     1       3.286  -1.542  -3.128  1.00  0.00     0.128 A 
ATOM     27  N   UNL     1       2.280  -1.157  -3.897  1.00  0.00    -0.236 NA
ATOM     28  S   UNL     1       3.972  -3.046  -3.626  1.00  0.00    -0.114 S 
ATOM     29  C   UNL     1       1.814  -2.232  -4.633  1.00  0.00     0.082 A 
ATOM     30  C   UNL     1       2.549  -3.407  -4.498  1.00  0.00     0.055 A 
ATOM     31  C   UNL     1       0.663  -2.249  -5.441  1.00  0.00     0.030 A 
ATOM     32  C   UNL     1       2.124  -4.628  -5.037  1.00  0.00     0.021 A 
ATOM     33  C   UNL     1       0.232  -3.457  -6.000  1.00  0.00     0.002 A 
ATOM     34  C   UNL     1       0.938  -4.636  -5.773  1.00  0.00     0.002 A 
ENDBRANCH  14  26
ENDBRANCH   8   9
ENDBRANCH   7   8
ENDBRANCH   4   7
ENDBRANCH   2   3
ENDBRANCH   1   2
BRANCH   1  35
ATOM     35  C   UNL     1       2.752  -3.196   3.736  1.00  0.00     0.023 C 
BRANCH  35  36
ATOM     36  C   UNL     1       2.357  -4.427   4.533  1.00  0.00     0.116 C 
BRANCH  36  37
ATOM     37  N   UNL     1       2.540  -4.347   5.971  1.00  0.00    -0.352 N 
ATOM     38  C   UNL     1       2.094  -5.250   6.937  1.00  0.00     0.251 C 
ATOM     39  H   UNL     1       3.037  -3.565   6.303  1.00  0.00     0.163 HD
ATOM     40  O   UNL     1       2.090  -5.011   8.120  1.00  0.00    -0.269 OA
BRANCH  38  41
ATOM     41  C   UNL     1       1.784  -6.625   6.468  1.00  0.00     0.039 A 
ATOM     42  C   UNL     1       2.592  -7.650   6.975  1.00  0.00     0.014 A 
ATOM     43  C   UNL     1       0.975  -6.830   5.355  1.00  0.00     0.014 A 
ATOM     44  C   UNL     1       2.761  -8.805   6.224  1.00  0.00     0.010 A 
ATOM     45  C   UNL     1       1.244  -7.908   4.544  1.00  0.00     0.010 A 
ATOM     46  C   UNL     1       2.170  -8.863   4.962  1.00  0.00    -0.014 A 
BRANCH  46  47
ATOM     47  C   UNL     1       2.451  -9.924   4.016  1.00  0.00     0.031 A 
ATOM     48  C   UNL     1       1.548 -11.085   4.024  1.00  0.00     0.074 A 
ATOM     49  C   UNL     1       3.542  -9.868   3.227  1.00  0.00     0.049 A 
ATOM     50  N   UNL     1       1.933 -12.299   3.849  1.00  0.00    -0.248 NA
ATOM     51  C   UNL     1       0.123 -10.958   4.327  1.00  0.00     0.031 C 
ATOM     52  C   UNL     1       3.931 -10.801   2.176  1.00  0.00     0.029 A 
ATOM     53  N   UNL     1       4.649  -9.048   3.359  1.00  0.00    -0.354 N 
ATOM     54  C   UNL     1       0.794 -13.061   3.731  1.00  0.00     0.074 A 
ATOM     55  C   UNL     1      -0.297 -12.211   4.141  1.00  0.00     0.031 C 
ATOM     56  C   UNL     1       5.252 -10.670   1.953  1.00  0.00     0.029 A 
ATOM     57  C   UNL     1       5.782  -9.736   2.938  1.00  0.00     0.049 A 
ATOM     58  H   UNL     1       4.636  -8.124   3.698  1.00  0.00     0.167 HD
ATOM     59  C   UNL     1       0.856 -14.276   3.125  1.00  0.00     0.031 A 
ATOM     60  C   UNL     1       6.782 -10.035   3.819  1.00  0.00     0.031 A 
ATOM     61  C   UNL     1       2.217 -14.579   2.701  1.00  0.00     0.049 A 
ATOM     62  C   UNL     1       6.913 -11.523   4.079  1.00  0.00     0.074 A 
ATOM     63  C   UNL     1       2.872 -14.393   1.494  1.00  0.00     0.029 A 
ATOM     64  N   UNL     1       3.204 -14.767   3.662  1.00  0.00    -0.354 N 
ATOM     65  N   UNL     1       5.965 -12.393   3.850  1.00  0.00    -0.248 NA
ATOM     66  C   UNL     1       8.132 -12.152   4.578  1.00  0.00     0.031 C 
ATOM     67  C   UNL     1       4.268 -14.379   1.753  1.00  0.00     0.029 A 
ATOM     68  C   UNL     1       4.459 -14.597   3.106  1.00  0.00     0.049 A 
ATOM     69  H   UNL     1       3.033 -14.990   4.605  1.00  0.00     0.167 HD
ATOM     70  C   UNL     1       6.423 -13.661   4.113  1.00  0.00     0.074 A 
ATOM     71  C   UNL     1       7.788 -13.453   4.568  1.00  0.00     0.031 C 
ATOM     72  C   UNL     1       5.658 -14.778   3.917  1.00  0.00     0.031 A 
BRANCH  59  73
ATOM     73  C   UNL     1      -0.387 -14.953   2.615  1.00  0.00    -0.014 A 
ATOM     74  C   UNL     1      -0.371 -15.566   1.349  1.00  0.00     0.010 A 
ATOM     75  C   UNL     1      -1.614 -14.955   3.309  1.00  0.00     0.010 A 
ATOM     76  C   UNL     1      -1.535 -16.079   0.763  1.00  0.00     0.020 A 
ATOM     77  C   UNL     1      -2.795 -15.432   2.719  1.00  0.00     0.020 A 
ATOM     78  C   UNL     1      -2.747 -15.990   1.444  1.00  0.00     0.054 A 
BRANCH  78  79
ATOM     79  S   UNL     1      -4.246 -16.613   0.638  1.00  0.00     0.124 S 
ATOM     80  O   UNL     1      -4.240 -15.901  -0.637  1.00  0.00    -0.237 OA
ATOM     81  O   UNL     1      -3.982 -18.047   0.560  1.00  0.00    -0.237 OA
ATOM     82  O   UNL     1      -5.318 -16.226   1.553  1.00  0.00    -0.744 OA
ENDBRANCH  78  79
ENDBRANCH  59  73
BRANCH  60  83
ATOM     83  C   UNL     1       7.139  -8.924   4.750  1.00  0.00    -0.014 A 
ATOM     84  C   UNL     1       7.901  -7.866   4.215  1.00  0.00     0.010 A 
ATOM     85  C   UNL     1       6.436  -8.696   5.948  1.00  0.00     0.010 A 
ATOM     86  C   UNL     1       7.859  -6.587   4.780  1.00  0.00     0.020 A 
ATOM     87  C   UNL     1       6.376  -7.405   6.511  1.00  0.00     0.020 A 
ATOM     88  C   UNL     1       7.059  -6.350   5.898  1.00  0.00     0.054 A 
BRANCH  88  89
ATOM     89  S   UNL     1       6.754  -4.622   6.390  1.00  0.00     0.124 S 
ATOM     90  O   UNL     1       7.764  -4.404   7.417  1.00  0.00    -0.237 OA
ATOM     91  O   UNL     1       6.960  -3.892   5.139  1.00  0.00    -0.237 OA
ATOM     92  O   UNL     1       5.365  -4.634   6.839  1.00  0.00    -0.744 OA
ENDBRANCH  88  89
ENDBRANCH  60  83
BRANCH  72  93
ATOM     93  C   UNL     1       5.975 -16.188   4.373  1.00  0.00    -0.014 A 
ATOM     94  C   UNL     1       6.929 -16.517   5.345  1.00  0.00     0.010 A 
ATOM     95  C   UNL     1       5.171 -17.256   3.891  1.00  0.00     0.010 A 
ATOM     96  C   UNL     1       7.106 -17.841   5.777  1.00  0.00     0.020 A 
ATOM     97  C   UNL     1       5.298 -18.566   4.354  1.00  0.00     0.020 A 
ATOM     98  C   UNL     1       6.286 -18.856   5.283  1.00  0.00     0.054 A 
BRANCH  98  99
ATOM     99  S   UNL     1       6.469 -20.541   5.913  1.00  0.00     0.124 S 
ATOM    100  O   UNL     1       7.566 -21.049   5.094  1.00  0.00    -0.237 OA
ATOM    101  O   UNL     1       6.786 -20.327   7.323  1.00  0.00    -0.237 OA
ATOM    102  O   UNL     1       5.164 -21.147   5.661  1.00  0.00    -0.744 OA
ENDBRANCH  98  99
ENDBRANCH  72  93
ENDBRANCH  46  47
ENDBRANCH  38  41
ENDBRANCH  36  37
ENDBRANCH  35  36
ENDBRANCH   1  35
TORSDOF 19
