REMARK SMILES O=C(NCCCCNC(=O)c1c(F)cccc1NC(=O)C1CCCCC1)c1ccc(-c2c3nc(c(-c4ccc(S(=O)(=O)[O-])cc4)c4ccc([nH]4)c(-c4ccc(S(=O)(=O)[O-])cc4)c4nc(c(-c5ccc(S(=O)(=O)[O-])cc5)c5ccc2[nH]5)C=C4)C=C3)cc1
REMARK SMILES IDX 5 1 4 2 3 3 1 4 2 5 27 7 28 8 86 9 29 10 85 11 30 12 31 13
REMARK SMILES IDX 32 14 79 15 33 16 84 17 78 18 80 19 34 20 83 21 77 22 76 23
REMARK SMILES IDX 35 25 65 26 46 27 64 28 47 29 50 30 63 31 81 32 48 33 49 34
REMARK SMILES IDX 62 36 82 37 51 38 36 39 37 40 45 41 38 42 44 43 39 44 40 45
REMARK SMILES IDX 41 46 42 47 43 48 66 49 67 50 75 51 68 52 74 53 69 54 70 55
REMARK SMILES IDX 71 56 72 57 73 58 52 59 53 60 61 61 54 62 60 63 55 64 56 65
REMARK SMILES IDX 57 66 58 67 59 68 6 69 7 70 8 71 9 72 10 74 11 75 12 76
REMARK SMILES IDX 17 77 13 78 14 79 16 80 15 81 18 82 19 83 20 85 21 86 22 87
REMARK SMILES IDX 26 88 23 89 25 90 24 91
REMARK H PARENT 3 6 80 24 50 35 8 73 18 84
REMARK Flexibility Score: inf
ROOT
ATOM      1  C   UNL     1       4.910  -2.306  -1.251  1.00  0.00     0.023 C 
ENDROOT
BRANCH   1   2
ATOM      2  C   UNL     1       4.615  -0.822  -1.078  1.00  0.00     0.116 C 
BRANCH   2   3
ATOM      3  N   UNL     1       3.191  -0.521  -1.061  1.00  0.00    -0.352 N 
ATOM      4  O   UNL     1       1.217   0.128  -0.182  1.00  0.00    -0.269 OA
ATOM      5  C   UNL     1       2.434   0.081  -0.079  1.00  0.00     0.251 C 
ATOM      6  H   UNL     1       2.695  -0.787  -1.869  1.00  0.00     0.163 HD
BRANCH   5   7
ATOM      7  C   UNL     1       3.107   0.638   1.117  1.00  0.00     0.039 A 
ATOM      8  C   UNL     1       4.259   1.414   0.981  1.00  0.00     0.014 A 
ATOM      9  C   UNL     1       2.601   0.350   2.387  1.00  0.00     0.014 A 
ATOM     10  C   UNL     1       5.005   1.738   2.107  1.00  0.00     0.010 A 
ATOM     11  C   UNL     1       3.301   0.770   3.524  1.00  0.00     0.010 A 
ATOM     12  C   UNL     1       4.534   1.427   3.394  1.00  0.00    -0.014 A 
BRANCH  12  13
ATOM     13  C   UNL     1       5.337   1.840   4.576  1.00  0.00     0.031 A 
ATOM     14  C   UNL     1       5.919   0.823   5.523  1.00  0.00     0.074 A 
ATOM     15  C   UNL     1       5.582   3.152   4.761  1.00  0.00     0.049 A 
ATOM     16  N   UNL     1       6.691   1.018   6.563  1.00  0.00    -0.248 NA
ATOM     17  C   UNL     1       5.589  -0.590   5.283  1.00  0.00     0.031 C 
ATOM     18  C   UNL     1       5.073   4.233   3.911  1.00  0.00     0.029 A 
ATOM     19  N   UNL     1       6.346   3.801   5.697  1.00  0.00    -0.354 N 
ATOM     20  C   UNL     1       6.916  -0.238   7.117  1.00  0.00     0.074 A 
ATOM     21  C   UNL     1       6.181  -1.187   6.309  1.00  0.00     0.031 C 
ATOM     22  C   UNL     1       5.596   5.397   4.319  1.00  0.00     0.029 A 
ATOM     23  C   UNL     1       6.414   5.160   5.502  1.00  0.00     0.049 A 
ATOM     24  H   UNL     1       6.801   3.339   6.437  1.00  0.00     0.167 HD
ATOM     25  C   UNL     1       7.667  -0.569   8.197  1.00  0.00     0.031 A 
ATOM     26  C   UNL     1       7.054   6.117   6.198  1.00  0.00     0.031 A 
ATOM     27  C   UNL     1       8.401   0.382   8.993  1.00  0.00     0.049 A 
ATOM     28  C   UNL     1       7.857   5.726   7.404  1.00  0.00     0.074 A 
ATOM     29  C   UNL     1       9.222   0.140  10.082  1.00  0.00     0.029 A 
ATOM     30  N   UNL     1       8.400   1.754   8.794  1.00  0.00    -0.354 N 
ATOM     31  N   UNL     1       8.082   4.528   7.889  1.00  0.00    -0.248 NA
ATOM     32  C   UNL     1       8.492   6.815   8.155  1.00  0.00     0.031 C 
ATOM     33  C   UNL     1       9.670   1.370  10.576  1.00  0.00     0.029 A 
ATOM     34  C   UNL     1       9.181   2.375   9.756  1.00  0.00     0.049 A 
ATOM     35  H   UNL     1       7.916   2.220   8.074  1.00  0.00     0.167 HD
ATOM     36  C   UNL     1       8.903   4.718   8.993  1.00  0.00     0.074 A 
ATOM     37  C   UNL     1       9.150   6.144   9.090  1.00  0.00     0.031 C 
ATOM     38  C   UNL     1       9.409   3.795   9.848  1.00  0.00     0.031 A 
BRANCH  25  39
ATOM     39  C   UNL     1       7.700  -2.020   8.609  1.00  0.00    -0.014 A 
ATOM     40  C   UNL     1       8.372  -2.989   7.843  1.00  0.00     0.010 A 
ATOM     41  C   UNL     1       7.078  -2.413   9.810  1.00  0.00     0.010 A 
ATOM     42  C   UNL     1       8.380  -4.330   8.243  1.00  0.00     0.020 A 
ATOM     43  C   UNL     1       7.107  -3.747  10.228  1.00  0.00     0.020 A 
ATOM     44  C   UNL     1       7.741  -4.701   9.431  1.00  0.00     0.054 A 
BRANCH  44  45
ATOM     45  S   UNL     1       7.768  -6.446   9.929  1.00  0.00     0.124 S 
ATOM     46  O   UNL     1       6.829  -7.042   8.983  1.00  0.00    -0.237 OA
ATOM     47  O   UNL     1       9.169  -6.813   9.737  1.00  0.00    -0.237 OA
ATOM     48  O   UNL     1       7.319  -6.418  11.318  1.00  0.00    -0.744 OA
ENDBRANCH  44  45
ENDBRANCH  25  39
BRANCH  26  49
ATOM     49  C   UNL     1       6.954   7.537   5.764  1.00  0.00    -0.014 A 
ATOM     50  C   UNL     1       8.072   8.200   5.230  1.00  0.00     0.010 A 
ATOM     51  C   UNL     1       5.729   8.223   5.855  1.00  0.00     0.010 A 
ATOM     52  C   UNL     1       7.968   9.528   4.804  1.00  0.00     0.020 A 
ATOM     53  C   UNL     1       5.614   9.539   5.402  1.00  0.00     0.020 A 
ATOM     54  C   UNL     1       6.739  10.187   4.889  1.00  0.00     0.054 A 
BRANCH  54  55
ATOM     55  S   UNL     1       6.613  11.890   4.278  1.00  0.00     0.124 S 
ATOM     56  O   UNL     1       7.303  12.639   5.323  1.00  0.00    -0.237 OA
ATOM     57  O   UNL     1       7.302  11.815   2.991  1.00  0.00    -0.237 OA
ATOM     58  O   UNL     1       5.172  12.116   4.191  1.00  0.00    -0.744 OA
ENDBRANCH  54  55
ENDBRANCH  26  49
BRANCH  38  59
ATOM     59  C   UNL     1      10.309   4.300  10.944  1.00  0.00    -0.014 A 
ATOM     60  C   UNL     1       9.798   5.033  12.030  1.00  0.00     0.010 A 
ATOM     61  C   UNL     1      11.685   4.014  10.896  1.00  0.00     0.010 A 
ATOM     62  C   UNL     1      10.655   5.508  13.027  1.00  0.00     0.020 A 
ATOM     63  C   UNL     1      12.541   4.462  11.906  1.00  0.00     0.020 A 
ATOM     64  C   UNL     1      12.022   5.222  12.956  1.00  0.00     0.054 A 
BRANCH  64  65
ATOM     65  S   UNL     1      13.111   5.828  14.273  1.00  0.00     0.124 S 
ATOM     66  O   UNL     1      13.206   7.251  13.958  1.00  0.00    -0.237 OA
ATOM     67  O   UNL     1      12.363   5.501  15.485  1.00  0.00    -0.237 OA
ATOM     68  O   UNL     1      14.342   5.064  14.083  1.00  0.00    -0.744 OA
ENDBRANCH  64  65
ENDBRANCH  38  59
ENDBRANCH  12  13
ENDBRANCH   5   7
ENDBRANCH   2   3
ENDBRANCH   1   2
BRANCH   1  69
ATOM     69  C   UNL     1       4.441  -2.915  -2.572  1.00  0.00     0.023 C 
BRANCH  69  70
ATOM     70  C   UNL     1       4.919  -2.193  -3.830  1.00  0.00     0.116 C 
BRANCH  70  71
ATOM     71  N   UNL     1       6.367  -2.179  -3.940  1.00  0.00    -0.352 N 
ATOM     72  C   UNL     1       7.150  -2.412  -5.039  1.00  0.00     0.256 C 
ATOM     73  H   UNL     1       6.853  -1.972  -3.109  1.00  0.00     0.163 HD
ATOM     74  O   UNL     1       8.368  -2.513  -4.913  1.00  0.00    -0.269 OA
BRANCH  72  75
ATOM     75  C   UNL     1       6.564  -2.616  -6.376  1.00  0.00     0.099 A 
ATOM     76  C   UNL     1       5.700  -1.655  -6.904  1.00  0.00     0.138 A 
ATOM     77  C   UNL     1       6.905  -3.757  -7.135  1.00  0.00     0.057 A 
ATOM     78  F   UNL     1       5.359  -0.566  -6.200  1.00  0.00    -0.206 F 
ATOM     79  C   UNL     1       5.154  -1.808  -8.174  1.00  0.00     0.040 A 
ATOM     80  C   UNL     1       6.430  -3.842  -8.448  1.00  0.00     0.027 A 
ATOM     81  C   UNL     1       5.537  -2.892  -8.955  1.00  0.00     0.005 A 
BRANCH  77  82
ATOM     82  N   UNL     1       7.693  -4.764  -6.535  1.00  0.00    -0.325 N 
ATOM     83  C   UNL     1       7.827  -6.110  -6.718  1.00  0.00     0.227 C 
ATOM     84  H   UNL     1       8.278  -4.416  -5.824  1.00  0.00     0.169 HD
ATOM     85  O   UNL     1       8.679  -6.678  -6.025  1.00  0.00    -0.274 OA
BRANCH  83  86
ATOM     86  C   UNL     1       6.981  -6.912  -7.713  1.00  0.00     0.079 C 
ATOM     87  C   UNL     1       7.319  -8.419  -7.618  1.00  0.00     0.013 C 
ATOM     88  C   UNL     1       5.464  -6.768  -7.519  1.00  0.00     0.013 C 
ATOM     89  C   UNL     1       6.543  -9.254  -8.638  1.00  0.00     0.001 C 
ATOM     90  C   UNL     1       4.724  -7.502  -8.636  1.00  0.00     0.001 C 
ATOM     91  C   UNL     1       5.040  -8.992  -8.597  1.00  0.00     0.000 C 
ENDBRANCH  83  86
ENDBRANCH  77  82
ENDBRANCH  72  75
ENDBRANCH  70  71
ENDBRANCH  69  70
ENDBRANCH   1  69
TORSDOF 16
