REMARK SMILES O=C(Cc1ccccc1[C@H]1CCC[NH2+]1)NCCCCNC(=O)c1ccc(-c2c3nc(c(-c4ccc(S(=O)(=O)[O-])cc4)c4ccc([nH]4)c(-c4ccc(S(=O)(=O)[O-])cc4)c4nc(c(-c5ccc(S(=O)(=O)[O-])cc5)c5ccc2[nH]5)C=C4)C=C3)cc1
REMARK SMILES IDX 18 1 17 2 16 3 15 4 1 5 2 6 3 8 4 9 5 10 9 11 6 12 8 13 7 14
REMARK SMILES IDX 10 15 11 16 14 17 12 18 13 19 19 22 20 23 21 24 22 26 23 27
REMARK SMILES IDX 24 28 82 29 25 30 81 31 26 32 27 33 28 34 75 35 29 36 80 37
REMARK SMILES IDX 74 38 76 39 30 40 79 41 73 42 72 43 31 45 61 46 42 47 60 48
REMARK SMILES IDX 43 49 46 50 59 51 77 52 44 53 45 54 58 56 78 57 47 58 32 59
REMARK SMILES IDX 33 60 41 61 34 62 40 63 35 64 36 65 37 66 38 67 39 68 62 69
REMARK SMILES IDX 63 70 71 71 64 72 70 73 65 74 66 75 67 76 68 77 69 78 48 79
REMARK SMILES IDX 49 80 57 81 50 82 56 83 51 84 52 85 53 86 54 87 55 88
REMARK H PARENT 15 7 14 20 14 21 20 25 76 44 46 55
REMARK Flexibility Score: inf
ROOT
ATOM      1  C   UNL     1       9.310   8.735   1.635  1.00  0.00     0.023 C 
ENDROOT
BRANCH   1   2
ATOM      2  C   UNL     1      10.322   7.661   1.223  1.00  0.00     0.023 C 
BRANCH   2   3
ATOM      3  C   UNL     1      10.328   6.406   2.092  1.00  0.00     0.116 C 
BRANCH   3   4
ATOM      4  N   UNL     1       9.051   5.727   2.072  1.00  0.00    -0.356 N 
ATOM      5  O   UNL     1       9.898   3.603   1.818  1.00  0.00    -0.275 OA
ATOM      6  C   UNL     1       8.936   4.355   1.946  1.00  0.00     0.224 C 
ATOM      7  H   UNL     1       8.230   6.264   2.151  1.00  0.00     0.163 HD
BRANCH   6   8
ATOM      8  C   UNL     1       7.498   3.863   1.969  1.00  0.00     0.136 C 
BRANCH   8   9
ATOM      9  C   UNL     1       6.804   3.807   3.323  1.00  0.00    -0.030 A 
ATOM     10  C   UNL     1       7.506   4.218   4.481  1.00  0.00     0.005 A 
ATOM     11  C   UNL     1       5.471   3.329   3.469  1.00  0.00     0.013 A 
ATOM     12  C   UNL     1       6.942   4.149   5.753  1.00  0.00     0.000 A 
ATOM     13  C   UNL     1       4.960   3.210   4.787  1.00  0.00     0.010 A 
ATOM     14  C   UNL     1       5.672   3.629   5.909  1.00  0.00     0.001 A 
BRANCH  11  15
ATOM     15  C   UNL     1       4.556   2.814   2.346  1.00  0.00     0.214 C 
ATOM     16  C   UNL     1       3.110   3.325   2.410  1.00  0.00     0.076 C 
ATOM     17  N   UNL     1       4.926   3.187   0.966  1.00  0.00    -0.340 N 
ATOM     18  C   UNL     1       3.176   4.659   1.698  1.00  0.00     0.068 C 
ATOM     19  C   UNL     1       4.233   4.443   0.636  1.00  0.00     0.261 C 
ATOM     20  H   UNL     1       4.639   2.452   0.319  1.00  0.00     0.346 HD
ATOM     21  H   UNL     1       5.936   3.307   0.889  1.00  0.00     0.346 HD
ENDBRANCH  11  15
ENDBRANCH   8   9
ENDBRANCH   6   8
ENDBRANCH   3   4
ENDBRANCH   2   3
ENDBRANCH   1   2
BRANCH   1  22
ATOM     22  C   UNL     1       9.433   9.236   3.070  1.00  0.00     0.116 C 
BRANCH  22  23
ATOM     23  N   UNL     1      10.712   9.877   3.333  1.00  0.00    -0.352 N 
ATOM     24  C   UNL     1      10.978  11.131   3.828  1.00  0.00     0.251 C 
ATOM     25  H   UNL     1      11.505   9.332   3.125  1.00  0.00     0.163 HD
ATOM     26  O   UNL     1      12.133  11.553   3.824  1.00  0.00    -0.269 OA
BRANCH  24  27
ATOM     27  C   UNL     1       9.882  11.985   4.339  1.00  0.00     0.039 A 
ATOM     28  C   UNL     1       9.858  13.337   3.985  1.00  0.00     0.014 A 
ATOM     29  C   UNL     1       8.884  11.464   5.168  1.00  0.00     0.014 A 
ATOM     30  C   UNL     1       8.799  14.147   4.404  1.00  0.00     0.010 A 
ATOM     31  C   UNL     1       7.790  12.254   5.519  1.00  0.00     0.010 A 
ATOM     32  C   UNL     1       7.734  13.604   5.141  1.00  0.00    -0.014 A 
BRANCH  32  33
ATOM     33  C   UNL     1       6.550  14.427   5.510  1.00  0.00     0.031 A 
ATOM     34  C   UNL     1       6.218  14.680   6.957  1.00  0.00     0.074 A 
ATOM     35  C   UNL     1       5.737  14.897   4.542  1.00  0.00     0.049 A 
ATOM     36  N   UNL     1       5.203  15.329   7.468  1.00  0.00    -0.248 NA
ATOM     37  C   UNL     1       7.132  14.112   7.961  1.00  0.00     0.031 C 
ATOM     38  C   UNL     1       5.926  14.694   3.104  1.00  0.00     0.029 A 
ATOM     39  N   UNL     1       4.584  15.639   4.621  1.00  0.00    -0.354 N 
ATOM     40  C   UNL     1       5.345  15.233   8.848  1.00  0.00     0.074 A 
ATOM     41  C   UNL     1       6.518  14.423   9.094  1.00  0.00     0.031 C 
ATOM     42  C   UNL     1       4.946  15.324   2.437  1.00  0.00     0.029 A 
ATOM     43  C   UNL     1       4.030  15.933   3.396  1.00  0.00     0.049 A 
ATOM     44  H   UNL     1       4.191  15.934   5.474  1.00  0.00     0.167 HD
ATOM     45  C   UNL     1       4.580  15.782   9.822  1.00  0.00     0.031 A 
ATOM     46  C   UNL     1       2.908  16.608   3.077  1.00  0.00     0.031 A 
ATOM     47  C   UNL     1       3.417  16.594   9.574  1.00  0.00     0.049 A 
ATOM     48  C   UNL     1       2.061  17.187   4.179  1.00  0.00     0.074 A 
ATOM     49  C   UNL     1       2.611  17.244  10.493  1.00  0.00     0.029 A 
ATOM     50  N   UNL     1       2.888  16.862   8.321  1.00  0.00    -0.354 N 
ATOM     51  N   UNL     1       2.253  17.143   5.476  1.00  0.00    -0.248 NA
ATOM     52  C   UNL     1       0.851  17.915   3.772  1.00  0.00     0.031 C 
ATOM     53  C   UNL     1       1.558  17.849   9.801  1.00  0.00     0.029 A 
ATOM     54  C   UNL     1       1.748  17.639   8.445  1.00  0.00     0.049 A 
ATOM     55  H   UNL     1       3.267  16.547   7.468  1.00  0.00     0.167 HD
ATOM     56  C   UNL     1       1.205  17.865   6.037  1.00  0.00     0.074 A 
ATOM     57  C   UNL     1       0.392  18.346   4.939  1.00  0.00     0.031 C 
ATOM     58  C   UNL     1       0.944  18.111   7.345  1.00  0.00     0.031 A 
BRANCH  45  59
ATOM     59  C   UNL     1       4.967  15.510  11.254  1.00  0.00    -0.014 A 
ATOM     60  C   UNL     1       6.141  16.051  11.810  1.00  0.00     0.010 A 
ATOM     61  C   UNL     1       4.118  14.740  12.071  1.00  0.00     0.010 A 
ATOM     62  C   UNL     1       6.479  15.792  13.141  1.00  0.00     0.020 A 
ATOM     63  C   UNL     1       4.436  14.505  13.411  1.00  0.00     0.020 A 
ATOM     64  C   UNL     1       5.625  15.018  13.933  1.00  0.00     0.054 A 
BRANCH  64  65
ATOM     65  S   UNL     1       6.079  14.718  15.663  1.00  0.00     0.124 S 
ATOM     66  O   UNL     1       7.207  13.799  15.523  1.00  0.00    -0.237 OA
ATOM     67  O   UNL     1       6.416  16.056  16.142  1.00  0.00    -0.237 OA
ATOM     68  O   UNL     1       4.872  14.136  16.244  1.00  0.00    -0.744 OA
ENDBRANCH  64  65
ENDBRANCH  45  59
BRANCH  46  69
ATOM     69  C   UNL     1       2.525  16.786   1.649  1.00  0.00    -0.014 A 
ATOM     70  C   UNL     1       2.577  18.057   1.048  1.00  0.00     0.010 A 
ATOM     71  C   UNL     1       2.112  15.684   0.877  1.00  0.00     0.010 A 
ATOM     72  C   UNL     1       2.203  18.226  -0.289  1.00  0.00     0.020 A 
ATOM     73  C   UNL     1       1.769  15.843  -0.468  1.00  0.00     0.020 A 
ATOM     74  C   UNL     1       1.805  17.116  -1.039  1.00  0.00     0.054 A 
BRANCH  74  75
ATOM     75  S   UNL     1       1.371  17.352  -2.785  1.00  0.00     0.124 S 
ATOM     76  O   UNL     1       0.094  18.052  -2.689  1.00  0.00    -0.237 OA
ATOM     77  O   UNL     1       2.493  18.145  -3.283  1.00  0.00    -0.237 OA
ATOM     78  O   UNL     1       1.301  15.989  -3.307  1.00  0.00    -0.744 OA
ENDBRANCH  74  75
ENDBRANCH  46  69
BRANCH  58  79
ATOM     79  C   UNL     1      -0.251  18.971   7.667  1.00  0.00    -0.014 A 
ATOM     80  C   UNL     1      -1.564  18.503   7.484  1.00  0.00     0.010 A 
ATOM     81  C   UNL     1      -0.052  20.253   8.215  1.00  0.00     0.010 A 
ATOM     82  C   UNL     1      -2.655  19.312   7.812  1.00  0.00     0.020 A 
ATOM     83  C   UNL     1      -1.140  21.052   8.575  1.00  0.00     0.020 A 
ATOM     84  C   UNL     1      -2.436  20.581   8.358  1.00  0.00     0.054 A 
BRANCH  84  85
ATOM     85  S   UNL     1      -3.870  21.593   8.817  1.00  0.00     0.124 S 
ATOM     86  O   UNL     1      -4.399  21.982   7.513  1.00  0.00    -0.237 OA
ATOM     87  O   UNL     1      -4.694  20.653   9.575  1.00  0.00    -0.237 OA
ATOM     88  O   UNL     1      -3.291  22.679   9.604  1.00  0.00    -0.744 OA
ENDBRANCH  84  85
ENDBRANCH  58  79
ENDBRANCH  32  33
ENDBRANCH  24  27
ENDBRANCH  22  23
ENDBRANCH   1  22
TORSDOF 16
