REMARK SMILES CC(C)(CNC(=O)[C@H]1CCC[C@H](C(=O)NCCCCNC(=O)c2ccc(-c3c4nc(c(-c5ccc(S(=O)(=O)[O-])cc5)c5ccc([nH]5)c(-c5ccc(S(=O)(=O)[O-])cc5)c5nc(c(-c6ccc(S(=O)(=O)[O-])cc6)c6ccc3[nH]6)C=C5)C=C4)cc2)C1)S(C)(=O)=O
REMARK SMILES IDX 17 1 16 2 15 3 13 4 14 5 12 7 8 8 9 9 83 10 10 11 11 12 6 13
REMARK SMILES IDX 5 14 7 16 4 17 2 18 1 19 3 20 84 21 85 22 86 23 87 24 18 25
REMARK SMILES IDX 19 26 20 27 21 28 22 30 23 31 24 32 82 33 25 34 81 35 26 36
REMARK SMILES IDX 27 37 28 38 75 39 29 40 80 41 74 42 76 43 30 44 79 45 73 46
REMARK SMILES IDX 72 47 31 49 61 50 42 51 60 52 43 53 46 54 59 55 77 56 44 57
REMARK SMILES IDX 45 58 58 60 78 61 47 62 32 63 33 64 41 65 34 66 40 67 35 68
REMARK SMILES IDX 36 69 37 70 38 71 39 72 62 73 63 74 71 75 64 76 70 77 65 78
REMARK SMILES IDX 66 79 67 80 68 81 69 82 48 83 49 84 57 85 50 86 56 87 51 88
REMARK SMILES IDX 52 89 53 90 54 91 55 92
REMARK H PARENT 15 6 5 15 20 29 76 48 46 59
REMARK Flexibility Score: inf
ROOT
ATOM      1  C   UNL     1       0.799   5.754   4.668  1.00  0.00     0.023 C 
ENDROOT
BRANCH   1   2
ATOM      2  C   UNL     1      -0.055   4.517   4.934  1.00  0.00     0.116 C 
BRANCH   2   3
ATOM      3  N   UNL     1      -1.206   4.825   5.765  1.00  0.00    -0.356 N 
ATOM      4  C   UNL     1      -2.535   4.865   5.467  1.00  0.00     0.223 C 
ATOM      5  O   UNL     1      -3.316   5.199   6.360  1.00  0.00    -0.275 OA
ATOM      6  H   UNL     1      -0.990   5.042   6.700  1.00  0.00     0.163 HD
BRANCH   4   7
ATOM      7  C   UNL     1      -3.053   4.474   4.085  1.00  0.00     0.079 C 
ATOM      8  C   UNL     1      -2.923   2.525   2.392  1.00  0.00     0.079 C 
ATOM      9  C   UNL     1      -2.149   3.464   1.466  1.00  0.00     0.013 C 
ATOM     10  C   UNL     1      -2.825   2.971   3.850  1.00  0.00     0.027 C 
ATOM     11  C   UNL     1      -2.660   4.894   1.575  1.00  0.00     0.002 C 
ATOM     12  C   UNL     1      -2.550   5.430   2.994  1.00  0.00     0.013 C 
BRANCH   8  13
ATOM     13  C   UNL     1      -4.372   2.405   1.928  1.00  0.00     0.223 C 
ATOM     14  N   UNL     1      -4.665   1.610   0.858  1.00  0.00    -0.354 N 
ATOM     15  H   UNL     1      -5.604   1.627   0.562  1.00  0.00     0.163 HD
ATOM     16  O   UNL     1      -5.304   3.003   2.462  1.00  0.00    -0.275 OA
BRANCH  14  17
ATOM     17  C   UNL     1      -3.786   0.743   0.097  1.00  0.00     0.138 C 
BRANCH  17  18
ATOM     18  C   UNL     1      -4.202  -0.738   0.076  1.00  0.00     0.084 C 
ATOM     19  C   UNL     1      -5.638  -0.919  -0.433  1.00  0.00     0.030 C 
ATOM     20  C   UNL     1      -3.244  -1.464  -0.897  1.00  0.00     0.030 C 
BRANCH  18  21
ATOM     21  S   UNL     1      -3.983  -1.522   1.713  1.00  0.00     0.154 S 
ATOM     22  C   UNL     1      -5.175  -0.820   2.837  1.00  0.00     0.158 C 
ATOM     23  O   UNL     1      -4.343  -2.924   1.566  1.00  0.00    -0.229 OA
ATOM     24  O   UNL     1      -2.667  -1.166   2.206  1.00  0.00    -0.229 OA
ENDBRANCH  18  21
ENDBRANCH  17  18
ENDBRANCH  14  17
ENDBRANCH   8  13
ENDBRANCH   4   7
ENDBRANCH   2   3
ENDBRANCH   1   2
BRANCH   1  25
ATOM     25  C   UNL     1       1.485   6.324   5.907  1.00  0.00     0.023 C 
BRANCH  25  26
ATOM     26  C   UNL     1       2.337   5.327   6.678  1.00  0.00     0.116 C 
BRANCH  26  27
ATOM     27  N   UNL     1       3.373   4.719   5.855  1.00  0.00    -0.352 N 
ATOM     28  C   UNL     1       4.704   4.542   6.139  1.00  0.00     0.251 C 
ATOM     29  H   UNL     1       3.078   4.391   4.975  1.00  0.00     0.163 HD
ATOM     30  O   UNL     1       5.472   4.156   5.263  1.00  0.00    -0.269 OA
BRANCH  28  31
ATOM     31  C   UNL     1       5.205   4.847   7.496  1.00  0.00     0.039 A 
ATOM     32  C   UNL     1       6.392   5.569   7.632  1.00  0.00     0.014 A 
ATOM     33  C   UNL     1       4.494   4.439   8.628  1.00  0.00     0.014 A 
ATOM     34  C   UNL     1       6.838   5.925   8.905  1.00  0.00     0.010 A 
ATOM     35  C   UNL     1       4.890   4.875   9.887  1.00  0.00     0.010 A 
ATOM     36  C   UNL     1       6.076   5.606  10.042  1.00  0.00    -0.014 A 
BRANCH  36  37
ATOM     37  C   UNL     1       6.520   6.011  11.400  1.00  0.00     0.031 A 
ATOM     38  C   UNL     1       6.843   4.962  12.432  1.00  0.00     0.074 A 
ATOM     39  C   UNL     1       6.595   7.319  11.717  1.00  0.00     0.049 A 
ATOM     40  N   UNL     1       7.247   5.117  13.666  1.00  0.00    -0.248 NA
ATOM     41  C   UNL     1       6.665   3.555  12.034  1.00  0.00     0.031 C 
ATOM     42  C   UNL     1       6.265   8.429  10.819  1.00  0.00     0.029 A 
ATOM     43  N   UNL     1       6.979   7.937  12.880  1.00  0.00    -0.354 N 
ATOM     44  C   UNL     1       7.353   3.836  14.195  1.00  0.00     0.074 A 
ATOM     45  C   UNL     1       6.915   2.917  13.168  1.00  0.00     0.031 C 
ATOM     46  C   UNL     1       6.506   9.590  11.449  1.00  0.00     0.029 A 
ATOM     47  C   UNL     1       6.964   9.310  12.806  1.00  0.00     0.049 A 
ATOM     48  H   UNL     1       7.241   7.444  13.691  1.00  0.00     0.167 HD
ATOM     49  C   UNL     1       7.796   3.454  15.416  1.00  0.00     0.031 A 
ATOM     50  C   UNL     1       7.286  10.240  13.727  1.00  0.00     0.031 A 
ATOM     51  C   UNL     1       8.241   4.372  16.431  1.00  0.00     0.049 A 
ATOM     52  C   UNL     1       7.767   9.791  15.080  1.00  0.00     0.074 A 
ATOM     53  C   UNL     1       8.768   4.086  17.678  1.00  0.00     0.029 A 
ATOM     54  N   UNL     1       8.204   5.754  16.320  1.00  0.00    -0.354 N 
ATOM     55  N   UNL     1       7.936   8.571  15.534  1.00  0.00    -0.248 NA
ATOM     56  C   UNL     1       8.115  10.846  16.041  1.00  0.00     0.031 C 
ATOM     57  C   UNL     1       8.989   5.295  18.346  1.00  0.00     0.029 A 
ATOM     58  C   UNL     1       8.669   6.335  17.487  1.00  0.00     0.049 A 
ATOM     59  H   UNL     1       7.892   6.249  15.527  1.00  0.00     0.167 HD
ATOM     60  C   UNL     1       8.444   8.714  16.821  1.00  0.00     0.074 A 
ATOM     61  C   UNL     1       8.568  10.136  17.065  1.00  0.00     0.031 C 
ATOM     62  C   UNL     1       8.783   7.754  17.718  1.00  0.00     0.031 A 
BRANCH  49  63
ATOM     63  C   UNL     1       7.807   1.978  15.725  1.00  0.00    -0.014 A 
ATOM     64  C   UNL     1       8.683   1.097  15.062  1.00  0.00     0.010 A 
ATOM     65  C   UNL     1       6.949   1.468  16.716  1.00  0.00     0.010 A 
ATOM     66  C   UNL     1       8.665  -0.271  15.350  1.00  0.00     0.020 A 
ATOM     67  C   UNL     1       6.952   0.105  17.031  1.00  0.00     0.020 A 
ATOM     68  C   UNL     1       7.797  -0.758  16.332  1.00  0.00     0.054 A 
BRANCH  68  69
ATOM     69  S   UNL     1       7.808  -2.534  16.697  1.00  0.00     0.124 S 
ATOM     70  O   UNL     1       7.179  -3.091  15.501  1.00  0.00    -0.237 OA
ATOM     71  O   UNL     1       9.233  -2.821  16.847  1.00  0.00    -0.237 OA
ATOM     72  O   UNL     1       7.021  -2.643  17.922  1.00  0.00    -0.744 OA
ENDBRANCH  68  69
ENDBRANCH  49  63
BRANCH  50  73
ATOM     73  C   UNL     1       7.197  11.688  13.389  1.00  0.00    -0.014 A 
ATOM     74  C   UNL     1       8.362  12.466  13.267  1.00  0.00     0.010 A 
ATOM     75  C   UNL     1       5.946  12.297  13.181  1.00  0.00     0.010 A 
ATOM     76  C   UNL     1       8.278  13.829  12.967  1.00  0.00     0.020 A 
ATOM     77  C   UNL     1       5.859  13.653  12.849  1.00  0.00     0.020 A 
ATOM     78  C   UNL     1       7.026  14.413  12.757  1.00  0.00     0.054 A 
BRANCH  78  79
ATOM     79  S   UNL     1       6.946  16.173  12.323  1.00  0.00     0.124 S 
ATOM     80  O   UNL     1       7.309  16.814  13.583  1.00  0.00    -0.237 OA
ATOM     81  O   UNL     1       7.933  16.278  11.252  1.00  0.00    -0.237 OA
ATOM     82  O   UNL     1       5.559  16.358  11.902  1.00  0.00    -0.744 OA
ENDBRANCH  78  79
ENDBRANCH  50  73
BRANCH  62  83
ATOM     83  C   UNL     1       9.363   8.208  19.032  1.00  0.00    -0.014 A 
ATOM     84  C   UNL     1       8.578   8.869  19.994  1.00  0.00     0.010 A 
ATOM     85  C   UNL     1      10.712   7.932  19.323  1.00  0.00     0.010 A 
ATOM     86  C   UNL     1       9.144   9.286  21.202  1.00  0.00     0.020 A 
ATOM     87  C   UNL     1      11.272   8.316  20.543  1.00  0.00     0.020 A 
ATOM     88  C   UNL     1      10.488   9.009  21.468  1.00  0.00     0.054 A 
BRANCH  88  89
ATOM     89  S   UNL     1      11.193   9.539  23.052  1.00  0.00     0.124 S 
ATOM     90  O   UNL     1      11.289  10.985  22.873  1.00  0.00    -0.237 OA
ATOM     91  O   UNL     1      10.190   9.090  24.014  1.00  0.00    -0.237 OA
ATOM     92  O   UNL     1      12.470   8.833  23.118  1.00  0.00    -0.744 OA
ENDBRANCH  88  89
ENDBRANCH  62  83
ENDBRANCH  36  37
ENDBRANCH  28  31
ENDBRANCH  26  27
ENDBRANCH  25  26
ENDBRANCH   1  25
TORSDOF 18
