REMARK SMILES O=C(NCCCCNC(=O)[C@H]1CC2(CCN(C(=O)c3cc4ccccc4[nH]3)CC2)CN1C(=O)C1CC1)c1ccc(-c2c3nc(c(-c4ccc(S(=O)(=O)[O-])cc4)c4ccc([nH]4)c(-c4ccc(S(=O)(=O)[O-])cc4)c4nc(c(-c5ccc(S(=O)(=O)[O-])cc5)c5ccc2[nH]5)C=C4)C=C3)cc1
REMARK SMILES IDX 5 1 4 2 3 3 1 4 2 5 37 7 38 8 96 9 39 10 95 11 40 12 41 13
REMARK SMILES IDX 42 14 89 15 43 16 94 17 88 18 90 19 44 20 93 21 87 22 86 23
REMARK SMILES IDX 45 25 75 26 56 27 74 28 57 29 60 30 73 31 91 32 58 33 59 34
REMARK SMILES IDX 72 36 92 37 61 38 46 39 47 40 55 41 48 42 54 43 49 44 50 45
REMARK SMILES IDX 51 46 52 47 53 48 76 49 77 50 85 51 78 52 84 53 79 54 80 55
REMARK SMILES IDX 81 56 82 57 83 58 62 59 63 60 71 61 64 62 70 63 65 64 66 65
REMARK SMILES IDX 67 66 68 67 69 68 6 69 7 70 8 71 9 72 10 74 11 75 12 76
REMARK SMILES IDX 31 77 13 78 30 79 14 80 29 81 15 82 28 83 16 84 17 85 18 86
REMARK SMILES IDX 32 87 33 88 34 89 35 90 36 91 19 92 20 93 27 94 21 95 26 96
REMARK SMILES IDX 22 98 25 99 23 100 24 101
REMARK H PARENT 3 6 90 24 60 35 8 73 27 97
REMARK Flexibility Score: inf
ROOT
ATOM      1  C   UNL     1       2.838   1.899   2.799  1.00  0.00     0.023 C 
ENDROOT
BRANCH   1   2
ATOM      2  C   UNL     1       2.092   3.095   3.375  1.00  0.00     0.116 C 
BRANCH   2   3
ATOM      3  N   UNL     1       2.395   4.343   2.694  1.00  0.00    -0.352 N 
ATOM      4  O   UNL     1       2.008   6.114   1.349  1.00  0.00    -0.269 OA
ATOM      5  C   UNL     1       1.554   5.157   1.971  1.00  0.00     0.251 C 
ATOM      6  H   UNL     1       3.329   4.648   2.760  1.00  0.00     0.163 HD
BRANCH   5   7
ATOM      7  C   UNL     1       0.110   4.847   1.919  1.00  0.00     0.039 A 
ATOM      8  C   UNL     1      -0.591   4.553   3.091  1.00  0.00     0.014 A 
ATOM      9  C   UNL     1      -0.538   4.816   0.682  1.00  0.00     0.014 A 
ATOM     10  C   UNL     1      -1.890   4.068   3.010  1.00  0.00     0.010 A 
ATOM     11  C   UNL     1      -1.878   4.425   0.615  1.00  0.00     0.010 A 
ATOM     12  C   UNL     1      -2.556   4.018   1.775  1.00  0.00    -0.014 A 
BRANCH  12  13
ATOM     13  C   UNL     1      -3.984   3.617   1.734  1.00  0.00     0.031 A 
ATOM     14  C   UNL     1      -4.434   2.384   1.001  1.00  0.00     0.074 A 
ATOM     15  C   UNL     1      -4.880   4.386   2.386  1.00  0.00     0.049 A 
ATOM     16  N   UNL     1      -5.646   1.908   0.866  1.00  0.00    -0.248 NA
ATOM     17  C   UNL     1      -3.398   1.583   0.329  1.00  0.00     0.031 C 
ATOM     18  C   UNL     1      -4.558   5.610   3.127  1.00  0.00     0.029 A 
ATOM     19  N   UNL     1      -6.234   4.252   2.542  1.00  0.00    -0.354 N 
ATOM     20  C   UNL     1      -5.526   0.771   0.075  1.00  0.00     0.074 A 
ATOM     21  C   UNL     1      -4.122   0.635  -0.253  1.00  0.00     0.031 C 
ATOM     22  C   UNL     1      -5.674   6.089   3.693  1.00  0.00     0.029 A 
ATOM     23  C   UNL     1      -6.800   5.254   3.296  1.00  0.00     0.049 A 
ATOM     24  H   UNL     1      -6.753   3.511   2.153  1.00  0.00     0.167 HD
ATOM     25  C   UNL     1      -6.498  -0.078  -0.338  1.00  0.00     0.031 A 
ATOM     26  C   UNL     1      -8.085   5.497   3.610  1.00  0.00     0.031 A 
ATOM     27  C   UNL     1      -7.892   0.067  -0.004  1.00  0.00     0.049 A 
ATOM     28  C   UNL     1      -9.144   4.561   3.109  1.00  0.00     0.074 A 
ATOM     29  C   UNL     1      -8.947  -0.764  -0.340  1.00  0.00     0.029 A 
ATOM     30  N   UNL     1      -8.428   1.113   0.733  1.00  0.00    -0.354 N 
ATOM     31  N   UNL     1      -9.003   3.469   2.395  1.00  0.00    -0.248 NA
ATOM     32  C   UNL     1     -10.533   4.889   3.450  1.00  0.00     0.031 C 
ATOM     33  C   UNL     1     -10.127  -0.191   0.146  1.00  0.00     0.029 A 
ATOM     34  C   UNL     1      -9.801   0.966   0.834  1.00  0.00     0.049 A 
ATOM     35  H   UNL     1      -7.908   1.851   1.126  1.00  0.00     0.167 HD
ATOM     36  C   UNL     1     -10.286   2.973   2.211  1.00  0.00     0.074 A 
ATOM     37  C   UNL     1     -11.187   3.871   2.906  1.00  0.00     0.031 C 
ATOM     38  C   UNL     1     -10.683   1.874   1.523  1.00  0.00     0.031 A 
BRANCH  25  39
ATOM     39  C   UNL     1      -6.099  -1.228  -1.227  1.00  0.00    -0.014 A 
ATOM     40  C   UNL     1      -5.390  -2.333  -0.722  1.00  0.00     0.010 A 
ATOM     41  C   UNL     1      -6.496  -1.231  -2.578  1.00  0.00     0.010 A 
ATOM     42  C   UNL     1      -5.056  -3.402  -1.560  1.00  0.00     0.020 A 
ATOM     43  C   UNL     1      -6.184  -2.309  -3.412  1.00  0.00     0.020 A 
ATOM     44  C   UNL     1      -5.452  -3.382  -2.901  1.00  0.00     0.054 A 
BRANCH  44  45
ATOM     45  S   UNL     1      -5.023  -4.793  -3.958  1.00  0.00     0.124 S 
ATOM     46  O   UNL     1      -3.588  -4.598  -4.150  1.00  0.00    -0.237 OA
ATOM     47  O   UNL     1      -5.395  -5.938  -3.132  1.00  0.00    -0.237 OA
ATOM     48  O   UNL     1      -5.843  -4.596  -5.151  1.00  0.00    -0.744 OA
ENDBRANCH  44  45
ENDBRANCH  25  39
BRANCH  26  49
ATOM     49  C   UNL     1      -8.429   6.699   4.414  1.00  0.00    -0.014 A 
ATOM     50  C   UNL     1      -8.885   6.573   5.737  1.00  0.00     0.010 A 
ATOM     51  C   UNL     1      -8.264   7.985   3.865  1.00  0.00     0.010 A 
ATOM     52  C   UNL     1      -9.181   7.711   6.492  1.00  0.00     0.020 A 
ATOM     53  C   UNL     1      -8.529   9.125   4.626  1.00  0.00     0.020 A 
ATOM     54  C   UNL     1      -8.999   8.980   5.932  1.00  0.00     0.054 A 
BRANCH  54  55
ATOM     55  S   UNL     1      -9.335  10.444   6.949  1.00  0.00     0.124 S 
ATOM     56  O   UNL     1     -10.794  10.477   6.956  1.00  0.00    -0.237 OA
ATOM     57  O   UNL     1      -8.703  10.099   8.220  1.00  0.00    -0.237 OA
ATOM     58  O   UNL     1      -8.686  11.527   6.213  1.00  0.00    -0.744 OA
ENDBRANCH  54  55
ENDBRANCH  26  49
BRANCH  38  59
ATOM     59  C   UNL     1     -12.156   1.572   1.507  1.00  0.00    -0.014 A 
ATOM     60  C   UNL     1     -13.045   2.340   0.734  1.00  0.00     0.010 A 
ATOM     61  C   UNL     1     -12.649   0.474   2.235  1.00  0.00     0.010 A 
ATOM     62  C   UNL     1     -14.407   2.030   0.710  1.00  0.00     0.020 A 
ATOM     63  C   UNL     1     -14.005   0.145   2.192  1.00  0.00     0.020 A 
ATOM     64  C   UNL     1     -14.878   0.933   1.439  1.00  0.00     0.054 A 
BRANCH  64  65
ATOM     65  S   UNL     1     -16.642   0.519   1.350  1.00  0.00     0.124 S 
ATOM     66  O   UNL     1     -17.241   1.562   2.178  1.00  0.00    -0.237 OA
ATOM     67  O   UNL     1     -16.922   0.614  -0.081  1.00  0.00    -0.237 OA
ATOM     68  O   UNL     1     -16.709  -0.831   1.904  1.00  0.00    -0.744 OA
ENDBRANCH  64  65
ENDBRANCH  38  59
ENDBRANCH  12  13
ENDBRANCH   5   7
ENDBRANCH   2   3
ENDBRANCH   1   2
BRANCH   1  69
ATOM     69  C   UNL     1       4.351   1.927   2.970  1.00  0.00     0.023 C 
BRANCH  69  70
ATOM     70  C   UNL     1       4.845   2.343   4.347  1.00  0.00     0.116 C 
BRANCH  70  71
ATOM     71  N   UNL     1       4.281   1.593   5.463  1.00  0.00    -0.354 N 
ATOM     72  C   UNL     1       4.812   1.467   6.731  1.00  0.00     0.242 C 
ATOM     73  H   UNL     1       3.430   1.126   5.294  1.00  0.00     0.163 HD
ATOM     74  O   UNL     1       4.085   1.124   7.659  1.00  0.00    -0.273 OA
BRANCH  72  75
ATOM     75  C   UNL     1       6.289   1.849   6.903  1.00  0.00     0.175 C 
ATOM     76  C   UNL     1       6.263   3.373   7.062  1.00  0.00     0.044 C 
ATOM     77  N   UNL     1       7.130   1.437   8.019  1.00  0.00    -0.330 N 
ATOM     78  C   UNL     1       7.623   3.771   7.642  1.00  0.00    -0.006 C 
ATOM     79  C   UNL     1       8.102   2.482   8.326  1.00  0.00     0.127 C 
ATOM     80  C   UNL     1       7.452   4.920   8.651  1.00  0.00     0.030 C 
ATOM     81  C   UNL     1       8.596   4.238   6.536  1.00  0.00     0.030 C 
ATOM     82  C   UNL     1       6.941   6.179   7.956  1.00  0.00     0.120 C 
ATOM     83  C   UNL     1       8.203   5.583   5.911  1.00  0.00     0.120 C 
ATOM     84  N   UNL     1       7.871   6.601   6.908  1.00  0.00    -0.337 N 
ATOM     85  C   UNL     1       8.128   7.939   6.573  1.00  0.00     0.270 C 
ATOM     86  O   UNL     1       8.606   8.237   5.479  1.00  0.00    -0.267 OA
BRANCH  77  87
ATOM     87  C   UNL     1       7.464   0.144   8.399  1.00  0.00     0.226 C 
ATOM     88  O   UNL     1       8.563  -0.108   8.892  1.00  0.00    -0.275 OA
BRANCH  87  89
ATOM     89  C   UNL     1       6.463  -0.955   8.407  1.00  0.00     0.079 C 
ATOM     90  C   UNL     1       5.508  -1.435   7.354  1.00  0.00     0.014 C 
ATOM     91  C   UNL     1       6.784  -2.175   7.556  1.00  0.00     0.014 C 
ENDBRANCH  87  89
ENDBRANCH  77  87
BRANCH  85  92
ATOM     92  C   UNL     1       7.809   8.964   7.545  1.00  0.00     0.105 A 
ATOM     93  C   UNL     1       7.248  10.209   7.314  1.00  0.00     0.042 A 
ATOM     94  N   UNL     1       8.101   8.919   8.889  1.00  0.00    -0.351 N 
ATOM     95  C   UNL     1       7.090  10.871   8.560  1.00  0.00     0.000 A 
ATOM     96  C   UNL     1       7.611  10.027   9.539  1.00  0.00     0.046 A 
ATOM     97  H   UNL     1       8.597   8.190   9.328  1.00  0.00     0.167 HD
ATOM     98  C   UNL     1       6.547  12.109   8.952  1.00  0.00     0.010 A 
ATOM     99  C   UNL     1       7.597  10.347  10.901  1.00  0.00     0.026 A 
ATOM    100  C   UNL     1       6.528  12.448  10.309  1.00  0.00     0.001 A 
ATOM    101  C   UNL     1       7.041  11.576  11.268  1.00  0.00     0.002 A 
ENDBRANCH  85  92
ENDBRANCH  72  75
ENDBRANCH  70  71
ENDBRANCH  69  70
ENDBRANCH   1  69
TORSDOF 17
