REMARK SMILES O=C(NCCCCNC(=O)[C@@]1([NH2+]C2CC2)CC[C@@H]([N@@H+]2CC[N@@H+]3CCC[C@@H]3C2)C1)c1ccc(-c2c3nc(c(-c4ccc(S(=O)(=O)[O-])cc4)c4ccc([nH]4)c(-c4ccc(S(=O)(=O)[O-])cc4)c4nc(c(-c5ccc(S(=O)(=O)[O-])cc5)c5ccc2[nH]5)C=C4)C=C3)cc1
REMARK SMILES IDX 5 1 4 2 3 3 1 4 2 5 29 7 30 8 88 9 31 10 87 11 32 12 33 13
REMARK SMILES IDX 34 14 81 15 35 16 86 17 80 18 82 19 36 20 85 21 79 22 78 23
REMARK SMILES IDX 37 25 67 26 48 27 66 28 49 29 52 30 65 31 83 32 50 33 51 34
REMARK SMILES IDX 64 36 84 37 53 38 38 39 39 40 47 41 40 42 46 43 41 44 42 45
REMARK SMILES IDX 43 46 44 47 45 48 68 49 69 50 77 51 70 52 76 53 71 54 72 55
REMARK SMILES IDX 73 56 74 57 75 58 54 59 55 60 63 61 56 62 62 63 57 64 58 65
REMARK SMILES IDX 59 66 60 67 61 68 6 69 7 70 8 71 9 72 10 74 11 75 16 76
REMARK SMILES IDX 28 77 17 78 18 79 12 80 13 83 14 84 15 85 19 86 20 87 27 88
REMARK SMILES IDX 21 90 26 91 22 92 25 93 23 94 24 96
REMARK H PARENT 3 6 82 24 52 35 8 73 12 81 12 82 19 89 22 95
REMARK Flexibility Score: inf
ROOT
ATOM      1  C   UNL     1       5.130  -1.826  -1.683  1.00  0.00     0.023 C 
ENDROOT
BRANCH   1   2
ATOM      2  C   UNL     1       4.735  -0.417  -1.253  1.00  0.00     0.116 C 
BRANCH   2   3
ATOM      3  N   UNL     1       3.297  -0.244  -1.100  1.00  0.00    -0.352 N 
ATOM      4  O   UNL     1       1.307  -0.111  -0.054  1.00  0.00    -0.269 OA
ATOM      5  C   UNL     1       2.533  -0.105   0.036  1.00  0.00     0.251 C 
ATOM      6  H   UNL     1       2.791  -0.224  -1.944  1.00  0.00     0.163 HD
BRANCH   5   7
ATOM      7  C   UNL     1       3.173   0.019   1.365  1.00  0.00     0.039 A 
ATOM      8  C   UNL     1       4.262   0.869   1.561  1.00  0.00     0.014 A 
ATOM      9  C   UNL     1       2.665  -0.718   2.440  1.00  0.00     0.014 A 
ATOM     10  C   UNL     1       4.948   0.848   2.772  1.00  0.00     0.010 A 
ATOM     11  C   UNL     1       3.301  -0.665   3.687  1.00  0.00     0.010 A 
ATOM     12  C   UNL     1       4.474   0.086   3.852  1.00  0.00    -0.014 A 
BRANCH  12  13
ATOM     13  C   UNL     1       5.197   0.135   5.151  1.00  0.00     0.031 A 
ATOM     14  C   UNL     1       5.860  -1.090   5.725  1.00  0.00     0.074 A 
ATOM     15  C   UNL     1       5.287   1.313   5.799  1.00  0.00     0.049 A 
ATOM     16  N   UNL     1       6.561  -1.204   6.826  1.00  0.00    -0.248 NA
ATOM     17  C   UNL     1       5.715  -2.349   4.977  1.00  0.00     0.031 C 
ATOM     18  C   UNL     1       4.679   2.569   5.350  1.00  0.00     0.029 A 
ATOM     19  N   UNL     1       5.939   1.657   6.956  1.00  0.00    -0.354 N 
ATOM     20  C   UNL     1       6.919  -2.544   6.916  1.00  0.00     0.074 A 
ATOM     21  C   UNL     1       6.343  -3.210   5.767  1.00  0.00     0.031 C 
ATOM     22  C   UNL     1       5.029   3.553   6.190  1.00  0.00     0.029 A 
ATOM     23  C   UNL     1       5.832   2.991   7.270  1.00  0.00     0.049 A 
ATOM     24  H   UNL     1       6.436   1.011   7.507  1.00  0.00     0.167 HD
ATOM     25  C   UNL     1       7.662  -3.163   7.867  1.00  0.00     0.031 A 
ATOM     26  C   UNL     1       6.310   3.689   8.317  1.00  0.00     0.031 A 
ATOM     27  C   UNL     1       8.240  -2.495   9.005  1.00  0.00     0.049 A 
ATOM     28  C   UNL     1       7.120   2.979   9.361  1.00  0.00     0.074 A 
ATOM     29  C   UNL     1       9.038  -3.031  10.002  1.00  0.00     0.029 A 
ATOM     30  N   UNL     1       8.082  -1.150   9.303  1.00  0.00    -0.354 N 
ATOM     31  N   UNL     1       7.472   1.717   9.408  1.00  0.00    -0.248 NA
ATOM     32  C   UNL     1       7.598   3.786  10.490  1.00  0.00     0.031 C 
ATOM     33  C   UNL     1       9.322  -2.021  10.928  1.00  0.00     0.029 A 
ATOM     34  C   UNL     1       8.745  -0.843  10.479  1.00  0.00     0.049 A 
ATOM     35  H   UNL     1       7.573  -0.508   8.757  1.00  0.00     0.167 HD
ATOM     36  C   UNL     1       8.220   1.579  10.570  1.00  0.00     0.074 A 
ATOM     37  C   UNL     1       8.290   2.891  11.182  1.00  0.00     0.031 C 
ATOM     38  C   UNL     1       8.795   0.464  11.084  1.00  0.00     0.031 A 
BRANCH  25  39
ATOM     39  C   UNL     1       7.871  -4.649   7.737  1.00  0.00    -0.014 A 
ATOM     40  C   UNL     1       8.739  -5.184   6.768  1.00  0.00     0.010 A 
ATOM     41  C   UNL     1       7.234  -5.522   8.639  1.00  0.00     0.010 A 
ATOM     42  C   UNL     1       8.937  -6.566   6.680  1.00  0.00     0.020 A 
ATOM     43  C   UNL     1       7.447  -6.902   8.569  1.00  0.00     0.020 A 
ATOM     44  C   UNL     1       8.286  -7.417   7.579  1.00  0.00     0.054 A 
BRANCH  44  45
ATOM     45  S   UNL     1       8.577  -9.204   7.457  1.00  0.00     0.124 S 
ATOM     46  O   UNL     1       7.804  -9.553   6.268  1.00  0.00    -0.237 OA
ATOM     47  O   UNL     1      10.028  -9.284   7.307  1.00  0.00    -0.237 OA
ATOM     48  O   UNL     1       8.055  -9.728   8.716  1.00  0.00    -0.744 OA
ENDBRANCH  44  45
ENDBRANCH  25  39
BRANCH  26  49
ATOM     49  C   UNL     1       6.011   5.142   8.424  1.00  0.00    -0.014 A 
ATOM     50  C   UNL     1       7.017   6.100   8.211  1.00  0.00     0.010 A 
ATOM     51  C   UNL     1       4.698   5.573   8.691  1.00  0.00     0.010 A 
ATOM     52  C   UNL     1       6.715   7.464   8.267  1.00  0.00     0.020 A 
ATOM     53  C   UNL     1       4.387   6.934   8.719  1.00  0.00     0.020 A 
ATOM     54  C   UNL     1       5.401   7.872   8.515  1.00  0.00     0.054 A 
BRANCH  54  55
ATOM     55  S   UNL     1       5.014   9.644   8.505  1.00  0.00     0.124 S 
ATOM     56  O   UNL     1       5.530  10.074   9.800  1.00  0.00    -0.237 OA
ATOM     57  O   UNL     1       5.751  10.124   7.338  1.00  0.00    -0.237 OA
ATOM     58  O   UNL     1       3.559   9.674   8.367  1.00  0.00    -0.744 OA
ENDBRANCH  54  55
ENDBRANCH  26  49
BRANCH  38  59
ATOM     59  C   UNL     1       9.563   0.619  12.368  1.00  0.00    -0.014 A 
ATOM     60  C   UNL     1       8.898   0.804  13.593  1.00  0.00     0.010 A 
ATOM     61  C   UNL     1      10.967   0.542  12.352  1.00  0.00     0.010 A 
ATOM     62  C   UNL     1       9.626   0.942  14.777  1.00  0.00     0.020 A 
ATOM     63  C   UNL     1      11.698   0.655  13.538  1.00  0.00     0.020 A 
ATOM     64  C   UNL     1      11.023   0.870  14.741  1.00  0.00     0.054 A 
BRANCH  64  65
ATOM     65  S   UNL     1      11.946   1.017  16.295  1.00  0.00     0.124 S 
ATOM     66  O   UNL     1      11.874   2.452  16.556  1.00  0.00    -0.237 OA
ATOM     67  O   UNL     1      11.179   0.173  17.208  1.00  0.00    -0.237 OA
ATOM     68  O   UNL     1      13.274   0.510  15.957  1.00  0.00    -0.744 OA
ENDBRANCH  64  65
ENDBRANCH  38  59
ENDBRANCH  12  13
ENDBRANCH   5   7
ENDBRANCH   2   3
ENDBRANCH   1   2
BRANCH   1  69
ATOM     69  C   UNL     1       4.681  -2.249  -3.083  1.00  0.00     0.023 C 
BRANCH  69  70
ATOM     70  C   UNL     1       4.983  -1.264  -4.210  1.00  0.00     0.116 C 
BRANCH  70  71
ATOM     71  N   UNL     1       6.383  -0.907  -4.335  1.00  0.00    -0.351 N 
ATOM     72  C   UNL     1       7.002  -0.239  -5.361  1.00  0.00     0.281 C 
ATOM     73  H   UNL     1       6.963  -1.178  -3.588  1.00  0.00     0.163 HD
ATOM     74  O   UNL     1       8.158   0.148  -5.153  1.00  0.00    -0.268 OA
BRANCH  72  75
ATOM     75  C   UNL     1       6.335  -0.079  -6.757  1.00  0.00     0.181 C 
ATOM     76  C   UNL     1       7.142   0.812  -7.723  1.00  0.00     0.085 C 
ATOM     77  C   UNL     1       6.456  -1.449  -7.486  1.00  0.00     0.144 C 
ATOM     78  C   UNL     1       6.680   0.372  -9.107  1.00  0.00     0.072 C 
ATOM     79  C   UNL     1       6.589  -1.159  -9.002  1.00  0.00     0.191 C 
BRANCH  75  80
ATOM     80  N   UNL     1       4.918   0.354  -6.692  1.00  0.00    -0.331 N 
ATOM     81  H   UNL     1       4.391  -0.431  -6.310  1.00  0.00     0.347 HD
ATOM     82  H   UNL     1       4.723   0.639  -7.652  1.00  0.00     0.347 HD
BRANCH  80  83
ATOM     83  C   UNL     1       4.530   1.537  -5.915  1.00  0.00     0.183 C 
ATOM     84  C   UNL     1       5.471   2.549  -5.329  1.00  0.00     0.071 C 
ATOM     85  C   UNL     1       4.629   2.911  -6.518  1.00  0.00     0.071 C 
ENDBRANCH  80  83
ENDBRANCH  75  80
BRANCH  79  86
ATOM     86  N   UNL     1       7.689  -1.834  -9.700  1.00  0.00    -0.323 N 
ATOM     87  C   UNL     1       7.564  -3.301  -9.791  1.00  0.00     0.324 C 
ATOM     88  C   UNL     1       9.057  -1.421  -9.374  1.00  0.00     0.328 C 
ATOM     89  H   UNL     1       7.542  -1.461 -10.638  1.00  0.00     0.348 HD
ATOM     90  C   UNL     1       8.910  -4.089  -9.824  1.00  0.00     0.324 C 
ATOM     91  C   UNL     1      10.037  -1.998 -10.419  1.00  0.00     0.240 C 
ATOM     92  N   UNL     1       9.969  -3.461 -10.626  1.00  0.00    -0.323 N 
ATOM     93  C   UNL     1      11.494  -1.675 -10.098  1.00  0.00     0.077 C 
ATOM     94  C   UNL     1      11.298  -4.017 -10.355  1.00  0.00     0.263 C 
ATOM     95  H   UNL     1       9.711  -3.663 -11.592  1.00  0.00     0.348 HD
ATOM     96  C   UNL     1      12.245  -2.868 -10.655  1.00  0.00     0.068 C 
ENDBRANCH  79  86
ENDBRANCH  72  75
ENDBRANCH  70  71
ENDBRANCH  69  70
ENDBRANCH   1  69
TORSDOF 17
