REMARK SMILES O=C(NCCCCNC(=O)[C@@H]1CC2(CC[NH2+]CC2)C[N@@H+]1Cc1cccc2nonc12)c1ccc(-c2c3nc(c(-c4ccc(S(=O)(=O)[O-])cc4)c4ccc([nH]4)c(-c4ccc(S(=O)(=O)[O-])cc4)c4nc(c(-c5ccc(S(=O)(=O)[O-])cc5)c5ccc2[nH]5)C=C4)C=C3)cc1
REMARK SMILES IDX 5 1 4 2 3 3 1 4 2 5 31 7 32 8 90 9 33 10 89 11 34 12 35 13
REMARK SMILES IDX 36 14 83 15 37 16 88 17 82 18 84 19 38 20 87 21 81 22 80 23
REMARK SMILES IDX 39 25 69 26 50 27 68 28 51 29 54 30 67 31 85 32 52 33 53 34
REMARK SMILES IDX 66 36 86 37 55 38 40 39 41 40 49 41 42 42 48 43 43 44 44 45
REMARK SMILES IDX 45 46 46 47 47 48 70 49 71 50 79 51 72 52 78 53 73 54 74 55
REMARK SMILES IDX 75 56 76 57 77 58 56 59 57 60 65 61 58 62 64 63 59 64 60 65
REMARK SMILES IDX 61 66 62 67 63 68 6 69 7 70 8 71 9 72 10 74 11 75 12 76
REMARK SMILES IDX 20 77 13 78 19 79 14 81 18 82 15 83 17 84 16 85 21 88 22 89
REMARK SMILES IDX 23 90 30 91 24 92 26 93 29 94 25 95 27 96 28 97
REMARK H PARENT 3 6 84 24 54 35 8 73 20 80 16 86 16 87
REMARK Flexibility Score: inf
ROOT
ATOM      1  C   UNL     1       4.849   1.972   0.054  1.00  0.00     0.023 C 
ENDROOT
BRANCH   1   2
ATOM      2  C   UNL     1       4.332   0.622   0.583  1.00  0.00     0.116 C 
BRANCH   2   3
ATOM      3  N   UNL     1       2.887   0.567   0.450  1.00  0.00    -0.352 N 
ATOM      4  O   UNL     1       0.988   0.029  -0.554  1.00  0.00    -0.269 OA
ATOM      5  C   UNL     1       2.062  -0.371  -0.101  1.00  0.00     0.251 C 
ATOM      6  H   UNL     1       2.418   1.347   0.825  1.00  0.00     0.163 HD
BRANCH   5   7
ATOM      7  C   UNL     1       2.352  -1.825  -0.116  1.00  0.00     0.039 A 
ATOM      8  C   UNL     1       1.679  -2.595  -1.079  1.00  0.00     0.014 A 
ATOM      9  C   UNL     1       3.069  -2.470   0.892  1.00  0.00     0.014 A 
ATOM     10  C   UNL     1       1.707  -3.990  -1.035  1.00  0.00     0.010 A 
ATOM     11  C   UNL     1       3.095  -3.873   0.936  1.00  0.00     0.010 A 
ATOM     12  C   UNL     1       2.414  -4.645  -0.025  1.00  0.00    -0.014 A 
BRANCH  12  13
ATOM     13  C   UNL     1       2.502  -6.126  -0.087  1.00  0.00     0.031 A 
ATOM     14  C   UNL     1       3.895  -6.646   0.016  1.00  0.00     0.074 A 
ATOM     15  C   UNL     1       1.483  -6.943   0.274  1.00  0.00     0.049 A 
ATOM     16  N   UNL     1       4.487  -6.673   1.170  1.00  0.00    -0.248 NA
ATOM     17  C   UNL     1       4.801  -6.883  -1.103  1.00  0.00     0.031 C 
ATOM     18  C   UNL     1       0.406  -6.536   1.191  1.00  0.00     0.029 A 
ATOM     19  N   UNL     1       1.281  -8.299   0.109  1.00  0.00    -0.354 N 
ATOM     20  C   UNL     1       5.838  -6.872   0.957  1.00  0.00     0.074 A 
ATOM     21  C   UNL     1       5.984  -7.015  -0.473  1.00  0.00     0.031 C 
ATOM     22  C   UNL     1      -0.239  -7.638   1.625  1.00  0.00     0.029 A 
ATOM     23  C   UNL     1       0.262  -8.813   0.915  1.00  0.00     0.049 A 
ATOM     24  H   UNL     1       1.805  -8.851  -0.516  1.00  0.00     0.167 HD
ATOM     25  C   UNL     1       6.700  -6.948   2.010  1.00  0.00     0.031 A 
ATOM     26  C   UNL     1       0.208 -10.076   1.425  1.00  0.00     0.031 A 
ATOM     27  C   UNL     1       6.073  -6.891   3.313  1.00  0.00     0.049 A 
ATOM     28  C   UNL     1       1.348 -10.062   2.407  1.00  0.00     0.074 A 
ATOM     29  C   UNL     1       6.153  -6.203   4.503  1.00  0.00     0.029 A 
ATOM     30  N   UNL     1       5.019  -7.751   3.448  1.00  0.00    -0.354 N 
ATOM     31  N   UNL     1       1.324  -9.531   3.599  1.00  0.00    -0.248 NA
ATOM     32  C   UNL     1       2.685 -10.472   1.952  1.00  0.00     0.031 C 
ATOM     33  C   UNL     1       5.053  -6.648   5.317  1.00  0.00     0.029 A 
ATOM     34  C   UNL     1       4.338  -7.613   4.617  1.00  0.00     0.049 A 
ATOM     35  H   UNL     1       4.775  -8.412   2.760  1.00  0.00     0.167 HD
ATOM     36  C   UNL     1       2.655  -9.277   3.907  1.00  0.00     0.074 A 
ATOM     37  C   UNL     1       3.438 -10.044   2.958  1.00  0.00     0.031 C 
ATOM     38  C   UNL     1       3.054  -8.277   4.746  1.00  0.00     0.031 A 
BRANCH  25  39
ATOM     39  C   UNL     1       8.100  -7.423   1.896  1.00  0.00    -0.014 A 
ATOM     40  C   UNL     1       9.177  -6.603   1.540  1.00  0.00     0.010 A 
ATOM     41  C   UNL     1       8.354  -8.747   2.309  1.00  0.00     0.010 A 
ATOM     42  C   UNL     1      10.489  -7.102   1.612  1.00  0.00     0.020 A 
ATOM     43  C   UNL     1       9.654  -9.247   2.384  1.00  0.00     0.020 A 
ATOM     44  C   UNL     1      10.717  -8.418   2.038  1.00  0.00     0.054 A 
BRANCH  44  45
ATOM     45  S   UNL     1      12.423  -9.024   2.177  1.00  0.00     0.124 S 
ATOM     46  O   UNL     1      12.872  -8.992   0.788  1.00  0.00    -0.237 OA
ATOM     47  O   UNL     1      13.037  -8.038   3.061  1.00  0.00    -0.237 OA
ATOM     48  O   UNL     1      12.273 -10.361   2.750  1.00  0.00    -0.744 OA
ENDBRANCH  44  45
ENDBRANCH  25  39
BRANCH  26  49
ATOM     49  C   UNL     1      -0.011 -11.213   0.473  1.00  0.00    -0.014 A 
ATOM     50  C   UNL     1       0.740 -12.402   0.478  1.00  0.00     0.010 A 
ATOM     51  C   UNL     1      -1.040 -11.109  -0.487  1.00  0.00     0.010 A 
ATOM     52  C   UNL     1       0.647 -13.322  -0.573  1.00  0.00     0.020 A 
ATOM     53  C   UNL     1      -1.175 -12.046  -1.519  1.00  0.00     0.020 A 
ATOM     54  C   UNL     1      -0.275 -13.106  -1.596  1.00  0.00     0.054 A 
BRANCH  54  55
ATOM     55  S   UNL     1      -0.221 -14.177  -3.056  1.00  0.00     0.124 S 
ATOM     56  O   UNL     1       1.038 -13.767  -3.674  1.00  0.00    -0.237 OA
ATOM     57  O   UNL     1      -0.237 -15.514  -2.478  1.00  0.00    -0.237 OA
ATOM     58  O   UNL     1      -1.426 -13.804  -3.801  1.00  0.00    -0.744 OA
ENDBRANCH  54  55
ENDBRANCH  26  49
BRANCH  38  59
ATOM     59  C   UNL     1       2.050  -7.800   5.741  1.00  0.00    -0.014 A 
ATOM     60  C   UNL     1       1.746  -6.439   5.900  1.00  0.00     0.010 A 
ATOM     61  C   UNL     1       1.493  -8.736   6.632  1.00  0.00     0.010 A 
ATOM     62  C   UNL     1       0.963  -6.015   6.978  1.00  0.00     0.020 A 
ATOM     63  C   UNL     1       0.702  -8.321   7.699  1.00  0.00     0.020 A 
ATOM     64  C   UNL     1       0.472  -6.959   7.886  1.00  0.00     0.054 A 
BRANCH  64  65
ATOM     65  S   UNL     1      -0.405  -6.380   9.360  1.00  0.00     0.124 S 
ATOM     66  O   UNL     1       0.640  -5.648  10.072  1.00  0.00    -0.237 OA
ATOM     67  O   UNL     1      -1.474  -5.563   8.799  1.00  0.00    -0.237 OA
ATOM     68  O   UNL     1      -0.846  -7.615  10.014  1.00  0.00    -0.744 OA
ENDBRANCH  64  65
ENDBRANCH  38  59
ENDBRANCH  12  13
ENDBRANCH   5   7
ENDBRANCH   2   3
ENDBRANCH   1   2
BRANCH   1  69
ATOM     69  C   UNL     1       4.333   3.228   0.795  1.00  0.00     0.023 C 
BRANCH  69  70
ATOM     70  C   UNL     1       4.786   3.361   2.254  1.00  0.00     0.116 C 
BRANCH  70  71
ATOM     71  N   UNL     1       6.226   3.479   2.299  1.00  0.00    -0.351 N 
ATOM     72  C   UNL     1       6.992   4.588   2.486  1.00  0.00     0.278 C 
ATOM     73  H   UNL     1       6.723   2.638   2.177  1.00  0.00     0.163 HD
ATOM     74  O   UNL     1       8.061   4.606   1.873  1.00  0.00    -0.268 OA
BRANCH  72  75
ATOM     75  C   UNL     1       6.532   5.699   3.453  1.00  0.00     0.275 C 
ATOM     76  C   UNL     1       6.320   7.013   2.700  1.00  0.00     0.089 C 
ATOM     77  N   UNL     1       7.516   6.070   4.478  1.00  0.00    -0.320 N 
ATOM     78  C   UNL     1       7.615   7.843   2.887  1.00  0.00     0.036 C 
ATOM     79  C   UNL     1       8.138   7.357   4.247  1.00  0.00     0.270 C 
ATOM     80  H   UNL     1       6.903   6.175   5.286  1.00  0.00     0.349 HD
ATOM     81  C   UNL     1       7.319   9.356   2.890  1.00  0.00     0.074 C 
ATOM     82  C   UNL     1       8.679   7.617   1.785  1.00  0.00     0.074 C 
ATOM     83  C   UNL     1       6.907   9.855   1.502  1.00  0.00     0.261 C 
ATOM     84  C   UNL     1       8.223   8.134   0.422  1.00  0.00     0.261 C 
ATOM     85  N   UNL     1       7.917   9.567   0.480  1.00  0.00    -0.346 N 
ATOM     86  H   UNL     1       8.770  10.080   0.702  1.00  0.00     0.346 HD
ATOM     87  H   UNL     1       7.548   9.854  -0.426  1.00  0.00     0.346 HD
BRANCH  77  88
ATOM     88  C   UNL     1       8.145   5.097   5.355  1.00  0.00     0.302 C 
BRANCH  88  89
ATOM     89  C   UNL     1       9.096   4.165   4.661  1.00  0.00     0.038 A 
ATOM     90  C   UNL     1      10.314   4.610   4.082  1.00  0.00     0.012 A 
ATOM     91  C   UNL     1       8.799   2.814   4.360  1.00  0.00     0.144 A 
ATOM     92  C   UNL     1      11.102   3.829   3.195  1.00  0.00     0.003 A 
ATOM     93  C   UNL     1       9.603   2.018   3.442  1.00  0.00     0.135 A 
ATOM     94  N   UNL     1       7.764   2.062   4.762  1.00  0.00    -0.049 NA
ATOM     95  C   UNL     1      10.763   2.517   2.823  1.00  0.00     0.034 A 
ATOM     96  N   UNL     1       9.017   0.824   3.296  1.00  0.00    -0.050 NA
ATOM     97  O   UNL     1       7.910   0.843   4.125  1.00  0.00    -0.243 OA
ENDBRANCH  88  89
ENDBRANCH  77  88
ENDBRANCH  72  75
ENDBRANCH  70  71
ENDBRANCH  69  70
ENDBRANCH   1  69
TORSDOF 16
