REMARK SMILES O=C(NCCCCNC(=O)[C@@H]1CCCC[C@H]1C(=O)Nc1ccccc1C(=O)N1CCOCC1)c1ccc(-c2c3nc(c(-c4ccc(S(=O)(=O)[O-])cc4)c4ccc([nH]4)c(-c4ccc(S(=O)(=O)[O-])cc4)c4nc(c(-c5ccc(S(=O)(=O)[O-])cc5)c5ccc2[nH]5)C=C4)C=C3)cc1
REMARK SMILES IDX 5 1 4 2 3 3 1 4 2 5 34 7 35 8 93 9 36 10 92 11 37 12 38 13
REMARK SMILES IDX 39 14 86 15 40 16 91 17 85 18 87 19 41 20 90 21 84 22 83 23
REMARK SMILES IDX 42 25 72 26 53 27 71 28 54 29 57 30 70 31 88 32 55 33 56 34
REMARK SMILES IDX 69 36 89 37 58 38 43 39 44 40 52 41 45 42 51 43 46 44 47 45
REMARK SMILES IDX 48 46 49 47 50 48 73 49 74 50 82 51 75 52 81 53 76 54 77 55
REMARK SMILES IDX 78 56 79 57 80 58 59 59 60 60 68 61 61 62 67 63 62 64 63 65
REMARK SMILES IDX 64 66 65 67 66 68 6 69 7 70 8 71 9 72 10 74 11 75 12 76
REMARK SMILES IDX 16 77 13 78 15 79 14 80 17 81 18 82 19 83 20 85 21 86 25 87
REMARK SMILES IDX 22 88 24 89 23 90 26 91 27 92 28 93 29 94 33 95 30 96 32 97
REMARK SMILES IDX 31 98
REMARK H PARENT 3 6 87 24 57 35 8 73 19 84
REMARK Flexibility Score: inf
ROOT
ATOM      1  C   UNL     1       4.668  -2.611  -0.115  1.00  0.00     0.023 C 
ENDROOT
BRANCH   1   2
ATOM      2  C   UNL     1       4.421  -1.145  -0.464  1.00  0.00     0.116 C 
BRANCH   2   3
ATOM      3  N   UNL     1       3.011  -0.791  -0.565  1.00  0.00    -0.352 N 
ATOM      4  O   UNL     1       1.105   0.327  -0.127  1.00  0.00    -0.269 OA
ATOM      5  C   UNL     1       2.309   0.232   0.035  1.00  0.00     0.251 C 
ATOM      6  H   UNL     1       2.478  -1.373  -1.154  1.00  0.00     0.163 HD
BRANCH   5   7
ATOM      7  C   UNL     1       3.027   1.179   0.914  1.00  0.00     0.039 A 
ATOM      8  C   UNL     1       4.223   1.764   0.499  1.00  0.00     0.014 A 
ATOM      9  C   UNL     1       2.516   1.437   2.188  1.00  0.00     0.014 A 
ATOM     10  C   UNL     1       5.000   2.454   1.421  1.00  0.00     0.010 A 
ATOM     11  C   UNL     1       3.256   2.211   3.084  1.00  0.00     0.010 A 
ATOM     12  C   UNL     1       4.528   2.682   2.725  1.00  0.00    -0.014 A 
BRANCH  12  13
ATOM     13  C   UNL     1       5.378   3.432   3.684  1.00  0.00     0.031 A 
ATOM     14  C   UNL     1       5.906   2.776   4.933  1.00  0.00     0.074 A 
ATOM     15  C   UNL     1       5.707   4.706   3.395  1.00  0.00     0.049 A 
ATOM     16  N   UNL     1       6.690   3.275   5.855  1.00  0.00    -0.248 NA
ATOM     17  C   UNL     1       5.497   1.385   5.187  1.00  0.00     0.031 C 
ATOM     18  C   UNL     1       5.252   5.445   2.213  1.00  0.00     0.029 A 
ATOM     19  N   UNL     1       6.518   5.596   4.050  1.00  0.00    -0.354 N 
ATOM     20  C   UNL     1       6.843   2.277   6.811  1.00  0.00     0.074 A 
ATOM     21  C   UNL     1       6.055   1.147   6.367  1.00  0.00     0.031 C 
ATOM     22  C   UNL     1       5.840   6.650   2.194  1.00  0.00     0.029 A 
ATOM     23  C   UNL     1       6.656   6.795   3.393  1.00  0.00     0.049 A 
ATOM     24  H   UNL     1       6.958   5.395   4.907  1.00  0.00     0.167 HD
ATOM     25  C   UNL     1       7.573   2.301   7.953  1.00  0.00     0.031 A 
ATOM     26  C   UNL     1       7.355   7.897   3.722  1.00  0.00     0.031 A 
ATOM     27  C   UNL     1       8.364   3.428   8.380  1.00  0.00     0.049 A 
ATOM     28  C   UNL     1       8.151   7.898   4.994  1.00  0.00     0.074 A 
ATOM     29  C   UNL     1       9.165   3.541   9.503  1.00  0.00     0.029 A 
ATOM     30  N   UNL     1       8.453   4.635   7.703  1.00  0.00    -0.354 N 
ATOM     31  N   UNL     1       8.298   6.936   5.873  1.00  0.00    -0.248 NA
ATOM     32  C   UNL     1       8.879   9.131   5.315  1.00  0.00     0.031 C 
ATOM     33  C   UNL     1       9.700   4.834   9.530  1.00  0.00     0.029 A 
ATOM     34  C   UNL     1       9.280   5.506   8.393  1.00  0.00     0.049 A 
ATOM     35  H   UNL     1       7.996   4.843   6.856  1.00  0.00     0.167 HD
ATOM     36  C   UNL     1       9.156   7.440   6.842  1.00  0.00     0.074 A 
ATOM     37  C   UNL     1       9.507   8.785   6.430  1.00  0.00     0.031 C 
ATOM     38  C   UNL     1       9.614   6.843   7.970  1.00  0.00     0.031 A 
BRANCH  25  39
ATOM     39  C   UNL     1       7.523   1.086   8.845  1.00  0.00    -0.014 A 
ATOM     40  C   UNL     1       8.148  -0.121   8.481  1.00  0.00     0.010 A 
ATOM     41  C   UNL     1       6.875   1.167  10.092  1.00  0.00     0.010 A 
ATOM     42  C   UNL     1       8.089  -1.233   9.327  1.00  0.00     0.020 A 
ATOM     43  C   UNL     1       6.837   0.066  10.953  1.00  0.00     0.020 A 
ATOM     44  C   UNL     1       7.428  -1.134  10.556  1.00  0.00     0.054 A 
BRANCH  44  45
ATOM     45  S   UNL     1       7.377  -2.588  11.640  1.00  0.00     0.124 S 
ATOM     46  O   UNL     1       6.410  -3.441  10.953  1.00  0.00    -0.237 OA
ATOM     47  O   UNL     1       8.759  -3.059  11.613  1.00  0.00    -0.237 OA
ATOM     48  O   UNL     1       6.931  -2.050  12.923  1.00  0.00    -0.744 OA
ENDBRANCH  44  45
ENDBRANCH  25  39
BRANCH  26  49
ATOM     49  C   UNL     1       7.327   9.083   2.824  1.00  0.00    -0.014 A 
ATOM     50  C   UNL     1       8.468   9.454   2.093  1.00  0.00     0.010 A 
ATOM     51  C   UNL     1       6.143   9.827   2.670  1.00  0.00     0.010 A 
ATOM     52  C   UNL     1       8.430  10.558   1.236  1.00  0.00     0.020 A 
ATOM     53  C   UNL     1       6.092  10.912   1.792  1.00  0.00     0.020 A 
ATOM     54  C   UNL     1       7.241  11.278   1.089  1.00  0.00     0.054 A 
BRANCH  54  55
ATOM     55  S   UNL     1       7.198  12.673  -0.069  1.00  0.00     0.124 S 
ATOM     56  O   UNL     1       7.931  13.699   0.666  1.00  0.00    -0.237 OA
ATOM     57  O   UNL     1       7.874  12.130  -1.245  1.00  0.00    -0.237 OA
ATOM     58  O   UNL     1       5.769  12.928  -0.244  1.00  0.00    -0.744 OA
ENDBRANCH  54  55
ENDBRANCH  26  49
BRANCH  38  59
ATOM     59  C   UNL     1      10.579   7.630   8.815  1.00  0.00    -0.014 A 
ATOM     60  C   UNL     1      10.155   8.735   9.574  1.00  0.00     0.010 A 
ATOM     61  C   UNL     1      11.930   7.241   8.863  1.00  0.00     0.010 A 
ATOM     62  C   UNL     1      11.075   9.465  10.330  1.00  0.00     0.020 A 
ATOM     63  C   UNL     1      12.847   7.950   9.641  1.00  0.00     0.020 A 
ATOM     64  C   UNL     1      12.417   9.071  10.354  1.00  0.00     0.054 A 
BRANCH  64  65
ATOM     65  S   UNL     1      13.591  10.021  11.358  1.00  0.00     0.124 S 
ATOM     66  O   UNL     1      13.786  11.217  10.544  1.00  0.00    -0.237 OA
ATOM     67  O   UNL     1      12.858  10.222  12.606  1.00  0.00    -0.237 OA
ATOM     68  O   UNL     1      14.751   9.139  11.461  1.00  0.00    -0.744 OA
ENDBRANCH  64  65
ENDBRANCH  38  59
ENDBRANCH  12  13
ENDBRANCH   5   7
ENDBRANCH   2   3
ENDBRANCH   1   2
BRANCH   1  69
ATOM     69  C   UNL     1       3.909  -3.636  -0.955  1.00  0.00     0.023 C 
BRANCH  69  70
ATOM     70  C   UNL     1       4.032  -3.460  -2.462  1.00  0.00     0.116 C 
BRANCH  70  71
ATOM     71  N   UNL     1       5.369  -3.758  -2.957  1.00  0.00    -0.356 N 
ATOM     72  C   UNL     1       5.743  -4.182  -4.192  1.00  0.00     0.223 C 
ATOM     73  H   UNL     1       6.100  -3.636  -2.309  1.00  0.00     0.163 HD
ATOM     74  O   UNL     1       6.585  -3.465  -4.737  1.00  0.00    -0.275 OA
BRANCH  72  75
ATOM     75  C   UNL     1       5.254  -5.457  -4.907  1.00  0.00     0.091 C 
ATOM     76  C   UNL     1       3.721  -5.510  -4.835  1.00  0.00     0.014 C 
ATOM     77  C   UNL     1       5.840  -6.831  -4.471  1.00  0.00     0.091 C 
ATOM     78  C   UNL     1       3.113  -6.615  -5.674  1.00  0.00     0.001 C 
ATOM     79  C   UNL     1       5.154  -7.974  -5.273  1.00  0.00     0.014 C 
ATOM     80  C   UNL     1       3.640  -7.952  -5.190  1.00  0.00     0.001 C 
BRANCH  77  81
ATOM     81  C   UNL     1       7.317  -7.290  -4.500  1.00  0.00     0.228 C 
ATOM     82  O   UNL     1       7.716  -8.007  -3.571  1.00  0.00    -0.274 OA
ATOM     83  N   UNL     1       8.129  -7.225  -5.592  1.00  0.00    -0.325 N 
ATOM     84  H   UNL     1       8.878  -7.864  -5.611  1.00  0.00     0.169 HD
BRANCH  83  85
ATOM     85  C   UNL     1       8.032  -6.371  -6.683  1.00  0.00     0.054 A 
ATOM     86  C   UNL     1       7.707  -6.964  -7.912  1.00  0.00     0.027 A 
ATOM     87  C   UNL     1       8.230  -4.988  -6.594  1.00  0.00     0.063 A 
ATOM     88  C   UNL     1       7.343  -6.170  -8.997  1.00  0.00     0.002 A 
ATOM     89  C   UNL     1       7.794  -4.202  -7.675  1.00  0.00     0.016 A 
ATOM     90  C   UNL     1       7.319  -4.787  -8.854  1.00  0.00     0.001 A 
BRANCH  87  91
ATOM     91  C   UNL     1       9.046  -4.293  -5.528  1.00  0.00     0.256 C 
ATOM     92  O   UNL     1       9.413  -3.132  -5.720  1.00  0.00    -0.269 OA
ATOM     93  N   UNL     1       9.570  -5.043  -4.464  1.00  0.00    -0.334 N 
ATOM     94  C   UNL     1      11.024  -5.006  -4.356  1.00  0.00     0.148 C 
ATOM     95  C   UNL     1       8.935  -4.913  -3.145  1.00  0.00     0.148 C 
ATOM     96  C   UNL     1      11.518  -6.038  -3.345  1.00  0.00     0.181 C 
ATOM     97  C   UNL     1       9.539  -5.859  -2.093  1.00  0.00     0.181 C 
ATOM     98  O   UNL     1      10.969  -5.765  -2.048  1.00  0.00    -0.378 OA
ENDBRANCH  87  91
ENDBRANCH  83  85
ENDBRANCH  77  81
ENDBRANCH  72  75
ENDBRANCH  70  71
ENDBRANCH  69  70
ENDBRANCH   1  69
TORSDOF 17
