REMARK SMILES CCCCCC[C@@H](C(=O)NCCCCNC(=O)c1ccc(-c2c3nc(c(-c4ccc(S(=O)(=O)[O-])cc4)c4ccc([nH]4)c(-c4ccc(S(=O)(=O)[O-])cc4)c4nc(c(-c5ccc(S(=O)(=O)[O-])cc5)c5ccc2[nH]5)C=C4)C=C3)cc1)c1ccccc1C
REMARK SMILES IDX 11 1 10 2 8 3 9 4 7 6 6 7 5 8 4 9 3 10 2 11 1 12 78 13 79 14
REMARK SMILES IDX 83 15 80 16 82 17 84 18 81 19 12 20 13 21 14 22 15 23 16 24
REMARK SMILES IDX 17 26 18 27 19 28 77 29 20 30 76 31 21 32 22 33 23 34 70 35
REMARK SMILES IDX 24 36 75 37 69 38 71 39 25 40 74 41 68 42 67 43 26 45 56 46
REMARK SMILES IDX 37 47 55 48 38 49 41 50 54 51 72 52 39 53 40 54 53 56 73 57
REMARK SMILES IDX 42 58 27 59 28 60 36 61 29 62 35 63 30 64 31 65 32 66 33 67
REMARK SMILES IDX 34 68 57 69 58 70 66 71 59 72 65 73 60 74 61 75 62 76 63 77
REMARK SMILES IDX 64 78 43 79 44 80 52 81 45 82 51 83 46 84 47 85 48 86 49 87
REMARK SMILES IDX 50 88
REMARK H PARENT 10 5 15 25 71 44 41 55
REMARK Flexibility Score: inf
ROOT
ATOM      1  C   UNL     1      -0.765  -4.513  -2.234  1.00  0.00     0.116 C 
ENDROOT
BRANCH   1   2
ATOM      2  N   UNL     1      -1.909  -4.518  -3.126  1.00  0.00    -0.356 N 
ATOM      3  C   UNL     1      -2.380  -3.529  -3.947  1.00  0.00     0.227 C 
ATOM      4  O   UNL     1      -3.584  -3.568  -4.217  1.00  0.00    -0.274 OA
ATOM      5  H   UNL     1      -2.423  -5.358  -3.143  1.00  0.00     0.163 HD
BRANCH   3   6
ATOM      6  C   UNL     1      -1.436  -2.451  -4.540  1.00  0.00     0.109 C 
BRANCH   6   7
ATOM      7  C   UNL     1      -1.659  -1.142  -3.712  1.00  0.00     0.018 C 
BRANCH   7   8
ATOM      8  C   UNL     1      -1.022  -1.043  -2.326  1.00  0.00     0.001 C 
BRANCH   8   9
ATOM      9  C   UNL     1       0.509  -1.084  -2.306  1.00  0.00     0.000 C 
BRANCH   9  10
ATOM     10  C   UNL     1       1.178   0.290  -2.386  1.00  0.00    -0.000 C 
BRANCH  10  11
ATOM     11  C   UNL     1       0.874   1.244  -1.225  1.00  0.00    -0.003 C 
ATOM     12  C   UNL     1       1.152   0.653   0.150  1.00  0.00     0.004 C 
ENDBRANCH  10  11
ENDBRANCH   9  10
ENDBRANCH   8   9
ENDBRANCH   7   8
ENDBRANCH   6   7
BRANCH   6  13
ATOM     13  C   UNL     1      -1.695  -2.246  -6.070  1.00  0.00    -0.033 A 
ATOM     14  C   UNL     1      -1.604  -0.954  -6.640  1.00  0.00     0.005 A 
ATOM     15  C   UNL     1      -1.994  -3.304  -6.967  1.00  0.00    -0.047 A 
ATOM     16  C   UNL     1      -1.964  -0.684  -7.963  1.00  0.00     0.000 A 
ATOM     17  C   UNL     1      -2.397  -3.010  -8.290  1.00  0.00     0.004 A 
ATOM     18  C   UNL     1      -1.946  -4.766  -6.607  1.00  0.00     0.044 C 
ATOM     19  C   UNL     1      -2.403  -1.709  -8.778  1.00  0.00     0.000 A 
ENDBRANCH   6  13
ENDBRANCH   3   6
ENDBRANCH   1   2
BRANCH   1  20
ATOM     20  C   UNL     1      -1.219  -4.104  -0.826  1.00  0.00     0.023 C 
BRANCH  20  21
ATOM     21  C   UNL     1      -1.641  -5.249   0.081  1.00  0.00     0.023 C 
BRANCH  21  22
ATOM     22  C   UNL     1      -0.487  -6.095   0.585  1.00  0.00     0.116 C 
BRANCH  22  23
ATOM     23  N   UNL     1       0.458  -5.360   1.418  1.00  0.00    -0.352 N 
ATOM     24  C   UNL     1       1.096  -5.793   2.558  1.00  0.00     0.251 C 
ATOM     25  H   UNL     1       0.664  -4.441   1.130  1.00  0.00     0.163 HD
ATOM     26  O   UNL     1       1.807  -5.031   3.206  1.00  0.00    -0.269 OA
BRANCH  24  27
ATOM     27  C   UNL     1       0.866  -7.180   3.009  1.00  0.00     0.039 A 
ATOM     28  C   UNL     1       0.464  -7.410   4.326  1.00  0.00     0.014 A 
ATOM     29  C   UNL     1       0.944  -8.232   2.095  1.00  0.00     0.014 A 
ATOM     30  C   UNL     1       0.063  -8.693   4.704  1.00  0.00     0.010 A 
ATOM     31  C   UNL     1       0.446  -9.479   2.444  1.00  0.00     0.010 A 
ATOM     32  C   UNL     1       0.011  -9.726   3.755  1.00  0.00    -0.014 A 
BRANCH  32  33
ATOM     33  C   UNL     1      -0.454 -11.090   4.109  1.00  0.00     0.031 A 
ATOM     34  C   UNL     1       0.491 -12.253   3.961  1.00  0.00     0.074 A 
ATOM     35  C   UNL     1      -1.733 -11.295   4.483  1.00  0.00     0.049 A 
ATOM     36  N   UNL     1       0.259 -13.530   4.117  1.00  0.00    -0.248 NA
ATOM     37  C   UNL     1       1.867 -11.940   3.539  1.00  0.00     0.031 C 
ATOM     38  C   UNL     1      -2.762 -10.259   4.609  1.00  0.00     0.029 A 
ATOM     39  N   UNL     1      -2.388 -12.453   4.821  1.00  0.00    -0.354 N 
ATOM     40  C   UNL     1       1.446 -14.170   3.780  1.00  0.00     0.074 A 
ATOM     41  C   UNL     1       2.375 -13.148   3.354  1.00  0.00     0.031 C 
ATOM     42  C   UNL     1      -3.907 -10.825   5.030  1.00  0.00     0.029 A 
ATOM     43  C   UNL     1      -3.704 -12.263   5.169  1.00  0.00     0.049 A 
ATOM     44  H   UNL     1      -1.955 -13.337   4.814  1.00  0.00     0.167 HD
ATOM     45  C   UNL     1       1.750 -15.488   3.847  1.00  0.00     0.031 A 
ATOM     46  C   UNL     1      -4.640 -13.149   5.561  1.00  0.00     0.031 A 
ATOM     47  C   UNL     1       0.839 -16.496   4.314  1.00  0.00     0.049 A 
ATOM     48  C   UNL     1      -4.267 -14.602   5.674  1.00  0.00     0.074 A 
ATOM     49  C   UNL     1       1.064 -17.850   4.480  1.00  0.00     0.029 A 
ATOM     50  N   UNL     1      -0.469 -16.253   4.706  1.00  0.00    -0.354 N 
ATOM     51  N   UNL     1      -3.122 -15.183   5.401  1.00  0.00    -0.248 NA
ATOM     52  C   UNL     1      -5.306 -15.517   6.166  1.00  0.00     0.031 C 
ATOM     53  C   UNL     1      -0.119 -18.433   4.948  1.00  0.00     0.029 A 
ATOM     54  C   UNL     1      -1.065 -17.433   5.113  1.00  0.00     0.049 A 
ATOM     55  H   UNL     1      -0.908 -15.372   4.696  1.00  0.00     0.167 HD
ATOM     56  C   UNL     1      -3.294 -16.525   5.718  1.00  0.00     0.074 A 
ATOM     57  C   UNL     1      -4.649 -16.668   6.213  1.00  0.00     0.031 C 
ATOM     58  C   UNL     1      -2.411 -17.549   5.612  1.00  0.00     0.031 A 
BRANCH  45  59
ATOM     59  C   UNL     1       3.130 -15.900   3.412  1.00  0.00    -0.014 A 
ATOM     60  C   UNL     1       4.263 -15.555   4.173  1.00  0.00     0.010 A 
ATOM     61  C   UNL     1       3.300 -16.645   2.232  1.00  0.00     0.010 A 
ATOM     62  C   UNL     1       5.543 -15.900   3.735  1.00  0.00     0.020 A 
ATOM     63  C   UNL     1       4.578 -17.019   1.806  1.00  0.00     0.020 A 
ATOM     64  C   UNL     1       5.693 -16.625   2.550  1.00  0.00     0.054 A 
BRANCH  64  65
ATOM     65  S   UNL     1       7.365 -17.068   2.006  1.00  0.00     0.124 S 
ATOM     66  O   UNL     1       7.856 -15.796   1.481  1.00  0.00    -0.237 OA
ATOM     67  O   UNL     1       7.997 -17.521   3.243  1.00  0.00    -0.237 OA
ATOM     68  O   UNL     1       7.140 -18.110   1.008  1.00  0.00    -0.744 OA
ENDBRANCH  64  65
ENDBRANCH  45  59
BRANCH  46  69
ATOM     69  C   UNL     1      -6.008 -12.683   5.919  1.00  0.00    -0.014 A 
ATOM     70  C   UNL     1      -6.420 -12.660   7.263  1.00  0.00     0.010 A 
ATOM     71  C   UNL     1      -6.902 -12.254   4.922  1.00  0.00     0.010 A 
ATOM     72  C   UNL     1      -7.708 -12.239   7.604  1.00  0.00     0.020 A 
ATOM     73  C   UNL     1      -8.184 -11.808   5.261  1.00  0.00     0.020 A 
ATOM     74  C   UNL     1      -8.583 -11.815   6.599  1.00  0.00     0.054 A 
BRANCH  74  75
ATOM     75  S   UNL     1     -10.236 -11.228   7.068  1.00  0.00     0.124 S 
ATOM     76  O   UNL     1     -10.930 -12.478   7.360  1.00  0.00    -0.237 OA
ATOM     77  O   UNL     1      -9.954 -10.375   8.220  1.00  0.00    -0.237 OA
ATOM     78  O   UNL     1     -10.695 -10.519   5.875  1.00  0.00    -0.744 OA
ENDBRANCH  74  75
ENDBRANCH  46  69
BRANCH  58  79
ATOM     79  C   UNL     1      -2.865 -18.903   6.082  1.00  0.00    -0.014 A 
ATOM     80  C   UNL     1      -3.775 -19.668   5.333  1.00  0.00     0.010 A 
ATOM     81  C   UNL     1      -2.328 -19.436   7.268  1.00  0.00     0.010 A 
ATOM     82  C   UNL     1      -4.168 -20.932   5.781  1.00  0.00     0.020 A 
ATOM     83  C   UNL     1      -2.699 -20.709   7.705  1.00  0.00     0.020 A 
ATOM     84  C   UNL     1      -3.629 -21.443   6.966  1.00  0.00     0.054 A 
BRANCH  84  85
ATOM     85  S   UNL     1      -4.123 -23.102   7.508  1.00  0.00     0.124 S 
ATOM     86  O   UNL     1      -5.454 -22.857   8.057  1.00  0.00    -0.237 OA
ATOM     87  O   UNL     1      -4.086 -23.871   6.267  1.00  0.00    -0.237 OA
ATOM     88  O   UNL     1      -3.101 -23.463   8.488  1.00  0.00    -0.744 OA
ENDBRANCH  84  85
ENDBRANCH  58  79
ENDBRANCH  32  33
ENDBRANCH  24  27
ENDBRANCH  22  23
ENDBRANCH  21  22
ENDBRANCH  20  21
ENDBRANCH   1  20
TORSDOF 20
