REMARK SMILES CC(C)Cc1cc2c(cc1Cl)C=C(C(=O)NCCCCNC(=O)c1ccc(-c3c4nc(c(-c5ccc(S(=O)(=O)[O-])cc5)c5ccc([nH]5)c(-c5ccc(S(=O)(=O)[O-])cc5)c5nc(c(-c6ccc(S(=O)(=O)[O-])cc6)c6ccc3[nH]6)C=C5)C=C4)cc1)[C@H](C(F)(F)F)O2
REMARK SMILES IDX 19 1 18 2 17 3 16 4 14 5 15 6 13 8 5 9 6 10 10 11 7 12 9 13
REMARK SMILES IDX 11 14 8 15 89 16 12 17 84 18 4 19 2 20 1 21 3 22 85 23 86 24
REMARK SMILES IDX 87 25 88 26 20 27 21 28 22 29 23 31 24 32 25 33 83 34 26 35
REMARK SMILES IDX 82 36 27 37 28 38 29 39 76 40 30 41 81 42 75 43 77 44 31 45
REMARK SMILES IDX 80 46 74 47 73 48 32 50 62 51 43 52 61 53 44 54 47 55 60 56
REMARK SMILES IDX 78 57 45 58 46 59 59 61 79 62 48 63 33 64 34 65 42 66 35 67
REMARK SMILES IDX 41 68 36 69 37 70 38 71 39 72 40 73 63 74 64 75 72 76 65 77
REMARK SMILES IDX 71 78 66 79 67 80 68 81 69 82 70 83 49 84 50 85 58 86 51 87
REMARK SMILES IDX 57 88 52 89 53 90 54 91 55 92 56 93
REMARK H PARENT 16 7 21 30 77 49 47 60
REMARK Flexibility Score: inf
ROOT
ATOM      1  C   UNL     1      -6.222  -0.093  -9.499  1.00  0.00     0.023 C 
ENDROOT
BRANCH   1   2
ATOM      2  C   UNL     1      -5.354  -0.631  -8.362  1.00  0.00     0.023 C 
BRANCH   2   3
ATOM      3  C   UNL     1      -3.880  -0.244  -8.445  1.00  0.00     0.116 C 
BRANCH   3   4
ATOM      4  N   UNL     1      -3.639   1.091  -7.929  1.00  0.00    -0.352 N 
ATOM      5  C   UNL     1      -3.250   1.649  -6.760  1.00  0.00     0.251 C 
ATOM      6  O   UNL     1      -3.137   2.880  -6.787  1.00  0.00    -0.270 OA
ATOM      7  H   UNL     1      -3.805   1.776  -8.616  1.00  0.00     0.163 HD
BRANCH   5   8
ATOM      8  C   UNL     1      -2.947   0.915  -5.495  1.00  0.00     0.067 C 
ATOM      9  C   UNL     1      -1.358  -0.240  -0.838  1.00  0.00    -0.025 A 
ATOM     10  C   UNL     1      -1.637  -0.982  -1.999  1.00  0.00     0.052 A 
ATOM     11  C   UNL     1      -1.511   1.157  -0.886  1.00  0.00     0.045 A 
ATOM     12  C   UNL     1      -2.044  -0.343  -3.167  1.00  0.00     0.128 A 
ATOM     13  C   UNL     1      -1.893   1.794  -2.073  1.00  0.00     0.032 A 
ATOM     14  Cl  UNL     1      -1.216   2.161   0.489  1.00  0.00    -0.084 Cl
ATOM     15  C   UNL     1      -2.151   1.044  -3.220  1.00  0.00     0.019 A 
ATOM     16  O   UNL     1      -2.287  -1.135  -4.254  1.00  0.00    -0.475 OA
ATOM     17  C   UNL     1      -2.471   1.678  -4.492  1.00  0.00     0.025 C 
ATOM     18  C   UNL     1      -3.177  -0.551  -5.251  1.00  0.00     0.314 C 
BRANCH   9  19
ATOM     19  C   UNL     1      -0.863  -0.988   0.380  1.00  0.00     0.040 C 
BRANCH  19  20
ATOM     20  C   UNL     1       0.620  -1.402   0.270  1.00  0.00    -0.013 C 
ATOM     21  C   UNL     1       1.564  -0.197   0.274  1.00  0.00     0.008 C 
ATOM     22  C   UNL     1       0.984  -2.344   1.419  1.00  0.00     0.008 C 
ENDBRANCH  19  20
ENDBRANCH   9  19
BRANCH  18  23
ATOM     23  C   UNL     1      -4.643  -0.895  -4.924  1.00  0.00     0.429 C 
ATOM     24  F   UNL     1      -5.500   0.094  -5.263  1.00  0.00    -0.167 F 
ATOM     25  F   UNL     1      -5.027  -2.006  -5.603  1.00  0.00    -0.167 F 
ATOM     26  F   UNL     1      -4.844  -1.148  -3.610  1.00  0.00    -0.167 F 
ENDBRANCH  18  23
ENDBRANCH   5   8
ENDBRANCH   3   4
ENDBRANCH   2   3
ENDBRANCH   1   2
BRANCH   1  27
ATOM     27  C   UNL     1      -5.821  -0.552 -10.894  1.00  0.00     0.116 C 
BRANCH  27  28
ATOM     28  N   UNL     1      -5.735  -1.999 -11.043  1.00  0.00    -0.352 N 
ATOM     29  C   UNL     1      -5.914  -2.728 -12.197  1.00  0.00     0.251 C 
ATOM     30  H   UNL     1      -5.527  -2.512 -10.228  1.00  0.00     0.163 HD
ATOM     31  O   UNL     1      -5.867  -3.953 -12.189  1.00  0.00    -0.269 OA
BRANCH  29  32
ATOM     32  C   UNL     1      -6.224  -1.986 -13.432  1.00  0.00     0.039 A 
ATOM     33  C   UNL     1      -5.360  -0.979 -13.867  1.00  0.00     0.014 A 
ATOM     34  C   UNL     1      -7.459  -2.193 -14.049  1.00  0.00     0.014 A 
ATOM     35  C   UNL     1      -5.804  -0.070 -14.818  1.00  0.00     0.010 A 
ATOM     36  C   UNL     1      -7.874  -1.318 -15.053  1.00  0.00     0.010 A 
ATOM     37  C   UNL     1      -7.073  -0.220 -15.404  1.00  0.00    -0.014 A 
BRANCH  37  38
ATOM     38  C   UNL     1      -7.558   0.800 -16.365  1.00  0.00     0.031 A 
ATOM     39  C   UNL     1      -8.707   1.703 -16.007  1.00  0.00     0.074 A 
ATOM     40  C   UNL     1      -6.914   0.953 -17.536  1.00  0.00     0.049 A 
ATOM     41  N   UNL     1      -9.272   2.633 -16.731  1.00  0.00    -0.248 NA
ATOM     42  C   UNL     1      -9.293   1.550 -14.664  1.00  0.00     0.031 C 
ATOM     43  C   UNL     1      -5.751   0.172 -17.963  1.00  0.00     0.029 A 
ATOM     44  N   UNL     1      -7.120   1.836 -18.564  1.00  0.00    -0.354 N 
ATOM     45  C   UNL     1     -10.290   3.162 -15.947  1.00  0.00     0.074 A 
ATOM     46  C   UNL     1     -10.275   2.443 -14.692  1.00  0.00     0.031 C 
ATOM     47  C   UNL     1      -5.307   0.653 -19.133  1.00  0.00     0.029 A 
ATOM     48  C   UNL     1      -6.197   1.723 -19.575  1.00  0.00     0.049 A 
ATOM     49  H   UNL     1      -7.858   2.488 -18.576  1.00  0.00     0.167 HD
ATOM     50  C   UNL     1     -11.152   4.161 -16.247  1.00  0.00     0.031 A 
ATOM     51  C   UNL     1      -6.084   2.390 -20.740  1.00  0.00     0.031 A 
ATOM     52  C   UNL     1     -11.149   4.883 -17.491  1.00  0.00     0.049 A 
ATOM     53  C   UNL     1      -7.104   3.429 -21.088  1.00  0.00     0.074 A 
ATOM     54  C   UNL     1     -11.981   5.917 -17.884  1.00  0.00     0.029 A 
ATOM     55  N   UNL     1     -10.272   4.652 -18.539  1.00  0.00    -0.354 N 
ATOM     56  N   UNL     1      -8.092   3.881 -20.354  1.00  0.00    -0.248 NA
ATOM     57  C   UNL     1      -7.021   4.025 -22.428  1.00  0.00     0.031 C 
ATOM     58  C   UNL     1     -11.635   6.281 -19.188  1.00  0.00     0.029 A 
ATOM     59  C   UNL     1     -10.561   5.503 -19.591  1.00  0.00     0.049 A 
ATOM     60  H   UNL     1      -9.550   3.982 -18.535  1.00  0.00     0.167 HD
ATOM     61  C   UNL     1      -8.761   4.803 -21.148  1.00  0.00     0.074 A 
ATOM     62  C   UNL     1      -8.052   4.862 -22.411  1.00  0.00     0.031 C 
ATOM     63  C   UNL     1      -9.866   5.528 -20.853  1.00  0.00     0.031 A 
BRANCH  50  64
ATOM     64  C   UNL     1     -12.194   4.531 -15.227  1.00  0.00    -0.014 A 
ATOM     65  C   UNL     1     -13.535   4.164 -15.438  1.00  0.00     0.010 A 
ATOM     66  C   UNL     1     -11.865   5.322 -14.113  1.00  0.00     0.010 A 
ATOM     67  C   UNL     1     -14.535   4.592 -14.561  1.00  0.00     0.020 A 
ATOM     68  C   UNL     1     -12.861   5.739 -13.223  1.00  0.00     0.020 A 
ATOM     69  C   UNL     1     -14.192   5.385 -13.463  1.00  0.00     0.054 A 
BRANCH  69  70
ATOM     70  S   UNL     1     -15.497   5.930 -12.325  1.00  0.00     0.124 S 
ATOM     71  O   UNL     1     -16.037   7.098 -13.013  1.00  0.00    -0.237 OA
ATOM     72  O   UNL     1     -16.380   4.768 -12.264  1.00  0.00    -0.237 OA
ATOM     73  O   UNL     1     -14.769   6.210 -11.089  1.00  0.00    -0.744 OA
ENDBRANCH  69  70
ENDBRANCH  50  64
BRANCH  51  74
ATOM     74  C   UNL     1      -4.957   2.051 -21.645  1.00  0.00    -0.014 A 
ATOM     75  C   UNL     1      -4.945   0.822 -22.330  1.00  0.00     0.010 A 
ATOM     76  C   UNL     1      -3.831   2.888 -21.711  1.00  0.00     0.010 A 
ATOM     77  C   UNL     1      -3.798   0.401 -23.006  1.00  0.00     0.020 A 
ATOM     78  C   UNL     1      -2.689   2.478 -22.406  1.00  0.00     0.020 A 
ATOM     79  C   UNL     1      -2.668   1.222 -23.018  1.00  0.00     0.054 A 
BRANCH  79  80
ATOM     80  S   UNL     1      -1.154   0.627 -23.820  1.00  0.00     0.124 S 
ATOM     81  O   UNL     1      -0.552  -0.176 -22.759  1.00  0.00    -0.237 OA
ATOM     82  O   UNL     1      -1.665  -0.124 -24.964  1.00  0.00    -0.237 OA
ATOM     83  O   UNL     1      -0.444   1.858 -24.155  1.00  0.00    -0.744 OA
ENDBRANCH  79  80
ENDBRANCH  51  74
BRANCH  63  84
ATOM     84  C   UNL     1     -10.421   6.429 -21.917  1.00  0.00    -0.014 A 
ATOM     85  C   UNL     1     -10.244   7.821 -21.823  1.00  0.00     0.010 A 
ATOM     86  C   UNL     1     -11.239   5.902 -22.931  1.00  0.00     0.010 A 
ATOM     87  C   UNL     1     -10.906   8.676 -22.706  1.00  0.00     0.020 A 
ATOM     88  C   UNL     1     -11.890   6.754 -23.826  1.00  0.00     0.020 A 
ATOM     89  C   UNL     1     -11.739   8.137 -23.692  1.00  0.00     0.054 A 
BRANCH  89  90
ATOM     90  S   UNL     1     -12.630   9.262 -24.801  1.00  0.00     0.124 S 
ATOM     91  O   UNL     1     -13.755   9.683 -23.971  1.00  0.00    -0.237 OA
ATOM     92  O   UNL     1     -11.635  10.293 -25.084  1.00  0.00    -0.237 OA
ATOM     93  O   UNL     1     -12.976   8.414 -25.940  1.00  0.00    -0.744 OA
ENDBRANCH  89  90
ENDBRANCH  63  84
ENDBRANCH  37  38
ENDBRANCH  29  32
ENDBRANCH  27  28
ENDBRANCH   1  27
TORSDOF 17
