REMARK SMILES O=C(CCN1C(=O)/C(=C2/C(=O)N(Cc3ccccc3)c3ccccc32)SC1=S)NCCCCNC(=O)c1ccc(-c2c3nc(c(-c4ccc(S(=O)(=O)[O-])cc4)c4ccc([nH]4)c(-c4ccc(S(=O)(=O)[O-])cc4)c4nc(c(-c5ccc(S(=O)(=O)[O-])cc5)c5ccc2[nH]5)C=C4)C=C3)cc1
REMARK SMILES IDX 31 1 30 2 29 3 1 4 2 5 3 7 4 8 5 9 6 10 27 11 7 12 8 13
REMARK SMILES IDX 26 14 28 15 9 16 10 17 25 18 11 19 12 20 20 21 24 22 21 23
REMARK SMILES IDX 23 24 22 25 13 26 14 27 15 28 19 29 16 30 18 31 17 32 32 33
REMARK SMILES IDX 33 34 34 35 35 36 36 38 37 39 38 40 96 41 39 42 95 43 40 44
REMARK SMILES IDX 41 45 42 46 89 47 43 48 94 49 88 50 90 51 44 52 93 53 87 54
REMARK SMILES IDX 86 55 45 57 75 58 56 59 74 60 57 61 60 62 73 63 91 64 58 65
REMARK SMILES IDX 59 66 72 68 92 69 61 70 46 71 47 72 55 73 48 74 54 75 49 76
REMARK SMILES IDX 50 77 51 78 52 79 53 80 76 81 77 82 85 83 78 84 84 85 79 86
REMARK SMILES IDX 80 87 81 88 82 89 83 90 62 91 63 92 71 93 64 94 70 95 65 96
REMARK SMILES IDX 66 97 67 98 68 99 69 100
REMARK H PARENT 29 6 34 37 90 56 60 67
REMARK Flexibility Score: inf
ROOT
ATOM      1  C   UNL     1       1.953  -2.056  -2.925  1.00  0.00     0.023 C 
ENDROOT
BRANCH   1   2
ATOM      2  C   UNL     1       1.780  -1.998  -1.407  1.00  0.00     0.116 C 
BRANCH   2   3
ATOM      3  N   UNL     1       2.582  -0.962  -0.775  1.00  0.00    -0.356 N 
ATOM      4  O   UNL     1       0.950  -0.188   0.647  1.00  0.00    -0.275 OA
ATOM      5  C   UNL     1       2.113  -0.178   0.258  1.00  0.00     0.221 C 
ATOM      6  H   UNL     1       3.499  -0.813  -1.099  1.00  0.00     0.163 HD
BRANCH   5   7
ATOM      7  C   UNL     1       3.157   0.719   0.898  1.00  0.00     0.122 C 
BRANCH   7   8
ATOM      8  C   UNL     1       4.150  -0.070   1.765  1.00  0.00     0.137 C 
BRANCH   8   9
ATOM      9  N   UNL     1       5.097  -0.835   0.944  1.00  0.00    -0.292 N 
ATOM     10  C   UNL     1       5.979  -0.131   0.143  1.00  0.00     0.267 C 
ATOM     11  C   UNL     1       5.236  -2.202   0.913  1.00  0.00     0.148 C 
ATOM     12  O   UNL     1       6.330   1.018   0.346  1.00  0.00    -0.268 OA
ATOM     13  C   UNL     1       6.410  -0.992  -0.988  1.00  0.00     0.093 C 
ATOM     14  S   UNL     1       6.344  -2.624  -0.390  1.00  0.00    -0.053 SA
ATOM     15  S   UNL     1       4.472  -3.340   1.858  1.00  0.00    -0.052 S 
ATOM     16  C   UNL     1       6.525  -0.588  -2.269  1.00  0.00     0.069 C 
ATOM     17  C   UNL     1       6.732  -1.555  -3.414  1.00  0.00     0.260 C 
ATOM     18  C   UNL     1       6.339   0.725  -2.911  1.00  0.00     0.012 A 
ATOM     19  O   UNL     1       7.108  -2.696  -3.312  1.00  0.00    -0.269 OA
ATOM     20  N   UNL     1       6.411  -0.870  -4.582  1.00  0.00    -0.303 N 
ATOM     21  C   UNL     1       6.381   0.501  -4.298  1.00  0.00     0.052 A 
ATOM     22  C   UNL     1       6.176   2.016  -2.441  1.00  0.00     0.011 A 
ATOM     23  C   UNL     1       6.461   1.546  -5.195  1.00  0.00     0.027 A 
ATOM     24  C   UNL     1       6.127   3.072  -3.354  1.00  0.00     0.001 A 
ATOM     25  C   UNL     1       6.302   2.842  -4.720  1.00  0.00     0.002 A 
BRANCH  20  26
ATOM     26  C   UNL     1       6.262  -1.498  -5.901  1.00  0.00     0.161 C 
BRANCH  26  27
ATOM     27  C   UNL     1       4.911  -1.373  -6.623  1.00  0.00    -0.028 A 
ATOM     28  C   UNL     1       4.433  -0.157  -7.130  1.00  0.00     0.005 A 
ATOM     29  C   UNL     1       4.126  -2.507  -6.907  1.00  0.00     0.005 A 
ATOM     30  C   UNL     1       3.211  -0.050  -7.804  1.00  0.00     0.000 A 
ATOM     31  C   UNL     1       2.895  -2.410  -7.579  1.00  0.00     0.000 A 
ATOM     32  C   UNL     1       2.432  -1.176  -8.018  1.00  0.00     0.000 A 
ENDBRANCH  26  27
ENDBRANCH  20  26
ENDBRANCH   8   9
ENDBRANCH   7   8
ENDBRANCH   5   7
ENDBRANCH   2   3
ENDBRANCH   1   2
BRANCH   1  33
ATOM     33  C   UNL     1       3.370  -2.363  -3.413  1.00  0.00     0.023 C 
BRANCH  33  34
ATOM     34  C   UNL     1       3.950  -3.749  -3.099  1.00  0.00     0.116 C 
BRANCH  34  35
ATOM     35  N   UNL     1       3.647  -4.769  -4.091  1.00  0.00    -0.352 N 
ATOM     36  C   UNL     1       4.473  -5.574  -4.857  1.00  0.00     0.251 C 
ATOM     37  H   UNL     1       2.685  -4.911  -4.246  1.00  0.00     0.163 HD
ATOM     38  O   UNL     1       3.947  -6.311  -5.692  1.00  0.00    -0.269 OA
BRANCH  36  39
ATOM     39  C   UNL     1       5.965  -5.522  -4.787  1.00  0.00     0.039 A 
ATOM     40  C   UNL     1       6.666  -5.503  -3.587  1.00  0.00     0.014 A 
ATOM     41  C   UNL     1       6.699  -5.506  -5.984  1.00  0.00     0.014 A 
ATOM     42  C   UNL     1       8.056  -5.268  -3.589  1.00  0.00     0.010 A 
ATOM     43  C   UNL     1       8.099  -5.329  -5.979  1.00  0.00     0.010 A 
ATOM     44  C   UNL     1       8.799  -5.129  -4.780  1.00  0.00    -0.014 A 
BRANCH  44  45
ATOM     45  C   UNL     1      10.264  -4.759  -4.755  1.00  0.00     0.031 A 
ATOM     46  C   UNL     1      10.807  -3.542  -5.498  1.00  0.00     0.074 A 
ATOM     47  C   UNL     1      11.141  -5.482  -4.023  1.00  0.00     0.049 A 
ATOM     48  N   UNL     1      12.044  -3.105  -5.593  1.00  0.00    -0.248 NA
ATOM     49  C   UNL     1       9.845  -2.704  -6.228  1.00  0.00     0.031 C 
ATOM     50  C   UNL     1      10.799  -6.648  -3.209  1.00  0.00     0.029 A 
ATOM     51  N   UNL     1      12.498  -5.333  -3.823  1.00  0.00    -0.354 N 
ATOM     52  C   UNL     1      12.004  -1.965  -6.397  1.00  0.00     0.074 A 
ATOM     53  C   UNL     1      10.623  -1.784  -6.786  1.00  0.00     0.031 C 
ATOM     54  C   UNL     1      11.888  -7.061  -2.547  1.00  0.00     0.029 A 
ATOM     55  C   UNL     1      13.038  -6.262  -2.961  1.00  0.00     0.049 A 
ATOM     56  H   UNL     1      13.031  -4.628  -4.256  1.00  0.00     0.167 HD
ATOM     57  C   UNL     1      13.014  -1.139  -6.774  1.00  0.00     0.031 A 
ATOM     58  C   UNL     1      14.307  -6.481  -2.553  1.00  0.00     0.031 A 
ATOM     59  C   UNL     1      14.392  -1.286  -6.367  1.00  0.00     0.049 A 
ATOM     60  C   UNL     1      15.423  -5.606  -3.058  1.00  0.00     0.074 A 
ATOM     61  C   UNL     1      15.465  -0.464  -6.682  1.00  0.00     0.029 A 
ATOM     62  N   UNL     1      14.894  -2.297  -5.565  1.00  0.00    -0.354 N 
ATOM     63  N   UNL     1      15.353  -4.534  -3.808  1.00  0.00    -0.248 NA
ATOM     64  C   UNL     1      16.792  -5.972  -2.663  1.00  0.00     0.031 C 
ATOM     65  C   UNL     1      16.625  -1.027  -6.151  1.00  0.00     0.029 A 
ATOM     66  C   UNL     1      16.265  -2.143  -5.417  1.00  0.00     0.049 A 
ATOM     67  H   UNL     1      14.358  -3.017  -5.161  1.00  0.00     0.167 HD
ATOM     68  C   UNL     1      16.663  -4.083  -3.948  1.00  0.00     0.074 A 
ATOM     69  C   UNL     1      17.503  -4.983  -3.189  1.00  0.00     0.031 C 
ATOM     70  C   UNL     1      17.118  -3.018  -4.651  1.00  0.00     0.031 A 
BRANCH  57  71
ATOM     71  C   UNL     1      12.719   0.043  -7.677  1.00  0.00    -0.014 A 
ATOM     72  C   UNL     1      13.296   0.092  -8.964  1.00  0.00     0.010 A 
ATOM     73  C   UNL     1      12.081   1.192  -7.178  1.00  0.00     0.010 A 
ATOM     74  C   UNL     1      13.302   1.280  -9.702  1.00  0.00     0.020 A 
ATOM     75  C   UNL     1      12.056   2.375  -7.928  1.00  0.00     0.020 A 
ATOM     76  C   UNL     1      12.697   2.421  -9.170  1.00  0.00     0.054 A 
BRANCH  76  77
ATOM     77  S   UNL     1      12.795   3.978 -10.100  1.00  0.00     0.124 S 
ATOM     78  O   UNL     1      14.204   4.332  -9.966  1.00  0.00    -0.237 OA
ATOM     79  O   UNL     1      12.368   3.575 -11.438  1.00  0.00    -0.237 OA
ATOM     80  O   UNL     1      11.860   4.855  -9.397  1.00  0.00    -0.744 OA
ENDBRANCH  76  77
ENDBRANCH  57  71
BRANCH  58  81
ATOM     81  C   UNL     1      14.591  -7.591  -1.595  1.00  0.00    -0.014 A 
ATOM     82  C   UNL     1      14.341  -8.930  -1.952  1.00  0.00     0.010 A 
ATOM     83  C   UNL     1      15.074  -7.312  -0.304  1.00  0.00     0.010 A 
ATOM     84  C   UNL     1      14.501  -9.957  -1.020  1.00  0.00     0.020 A 
ATOM     85  C   UNL     1      15.280  -8.343   0.618  1.00  0.00     0.020 A 
ATOM     86  C   UNL     1      14.961  -9.655   0.264  1.00  0.00     0.054 A 
BRANCH  86  87
ATOM     87  S   UNL     1      15.129 -11.003   1.466  1.00  0.00     0.124 S 
ATOM     88  O   UNL     1      13.735 -11.280   1.801  1.00  0.00    -0.237 OA
ATOM     89  O   UNL     1      15.807 -12.038   0.690  1.00  0.00    -0.237 OA
ATOM     90  O   UNL     1      15.925 -10.410   2.537  1.00  0.00    -0.744 OA
ENDBRANCH  86  87
ENDBRANCH  58  81
BRANCH  70  91
ATOM     91  C   UNL     1      18.598  -2.718  -4.645  1.00  0.00    -0.014 A 
ATOM     92  C   UNL     1      19.064  -1.507  -4.096  1.00  0.00     0.010 A 
ATOM     93  C   UNL     1      19.512  -3.558  -5.306  1.00  0.00     0.010 A 
ATOM     94  C   UNL     1      20.398  -1.118  -4.251  1.00  0.00     0.020 A 
ATOM     95  C   UNL     1      20.857  -3.191  -5.431  1.00  0.00     0.020 A 
ATOM     96  C   UNL     1      21.284  -1.959  -4.929  1.00  0.00     0.054 A 
BRANCH  96  97
ATOM     97  S   UNL     1      22.997  -1.410  -5.171  1.00  0.00     0.124 S 
ATOM     98  O   UNL     1      22.846  -0.359  -6.173  1.00  0.00    -0.237 OA
ATOM     99  O   UNL     1      23.379  -0.957  -3.835  1.00  0.00    -0.237 OA
ATOM    100  O   UNL     1      23.683  -2.616  -5.631  1.00  0.00    -0.744 OA
ENDBRANCH  96  97
ENDBRANCH  70  91
ENDBRANCH  44  45
ENDBRANCH  36  39
ENDBRANCH  34  35
ENDBRANCH  33  34
ENDBRANCH   1  33
TORSDOF 18
