REMARK SMILES CC1(C)C(=O)N([C@H]2COC[C@@H]2C(=O)NCCCCNC(=O)c2ccc(-c3c4nc(c(-c5ccc(S(=O)(=O)[O-])cc5)c5ccc([nH]5)c(-c5ccc(S(=O)(=O)[O-])cc5)c5nc(c(-c6ccc(S(=O)(=O)[O-])cc6)c6ccc3[nH]6)C=C5)C=C4)cc2)S1(=O)=O
REMARK SMILES IDX 17 1 16 2 15 3 14 4 12 5 13 6 11 8 7 9 8 10 9 11 10 12 6 13
REMARK SMILES IDX 1 14 2 15 3 16 4 17 82 18 5 19 83 20 84 21 18 22 19 23 20 24
REMARK SMILES IDX 21 26 22 27 23 28 81 29 24 30 80 31 25 32 26 33 27 34 74 35
REMARK SMILES IDX 28 36 79 37 73 38 75 39 29 40 78 41 72 42 71 43 30 45 60 46
REMARK SMILES IDX 41 47 59 48 42 49 45 50 58 51 76 52 43 53 44 54 57 56 77 57
REMARK SMILES IDX 46 58 31 59 32 60 40 61 33 62 39 63 34 64 35 65 36 66 37 67
REMARK SMILES IDX 38 68 61 69 62 70 70 71 63 72 69 73 64 74 65 75 66 76 67 77
REMARK SMILES IDX 68 78 47 79 48 80 56 81 49 82 55 83 50 84 51 85 52 86 53 87
REMARK SMILES IDX 54 88
REMARK H PARENT 14 7 19 25 75 44 45 55
REMARK Flexibility Score: inf
ROOT
ATOM      1  C   UNL     1       5.458   4.722   1.067  1.00  0.00     0.023 C 
ENDROOT
BRANCH   1   2
ATOM      2  C   UNL     1       4.217   4.930   1.940  1.00  0.00     0.023 C 
BRANCH   2   3
ATOM      3  C   UNL     1       3.412   6.185   1.608  1.00  0.00     0.116 C 
BRANCH   3   4
ATOM      4  N   UNL     1       2.785   6.088   0.298  1.00  0.00    -0.356 N 
ATOM      5  C   UNL     1       1.473   5.972  -0.054  1.00  0.00     0.227 C 
ATOM      6  O   UNL     1       1.199   5.816  -1.244  1.00  0.00    -0.275 OA
ATOM      7  H   UNL     1       3.413   6.111  -0.460  1.00  0.00     0.163 HD
BRANCH   5   8
ATOM      8  C   UNL     1       0.394   6.036   1.006  1.00  0.00     0.130 C 
ATOM      9  C   UNL     1      -0.518   4.830   0.889  1.00  0.00     0.143 C 
ATOM     10  C   UNL     1      -1.699   5.357   0.088  1.00  0.00     0.187 C 
ATOM     11  O   UNL     1      -1.798   6.760   0.349  1.00  0.00    -0.378 OA
ATOM     12  C   UNL     1      -0.513   7.232   0.770  1.00  0.00     0.176 C 
BRANCH   9  13
ATOM     13  N   UNL     1      -0.893   4.265   2.187  1.00  0.00    -0.231 N 
ATOM     14  C   UNL     1      -2.761   3.266   4.961  1.00  0.00     0.041 C 
ATOM     15  C   UNL     1      -1.537   3.344   4.057  1.00  0.00     0.165 C 
ATOM     16  C   UNL     1      -0.467   2.336   4.486  1.00  0.00     0.041 C 
ATOM     17  C   UNL     1      -1.829   3.282   2.533  1.00  0.00     0.259 C 
ATOM     18  S   UNL     1      -0.960   4.973   3.676  1.00  0.00     0.252 S 
ATOM     19  O   UNL     1      -2.461   2.571   1.778  1.00  0.00    -0.272 OA
ATOM     20  O   UNL     1      -1.999   5.971   3.694  1.00  0.00    -0.205 OA
ATOM     21  O   UNL     1       0.380   5.213   4.159  1.00  0.00    -0.205 OA
ENDBRANCH   9  13
ENDBRANCH   5   8
ENDBRANCH   3   4
ENDBRANCH   2   3
ENDBRANCH   1   2
BRANCH   1  22
ATOM     22  C   UNL     1       6.445   5.886   1.050  1.00  0.00     0.116 C 
BRANCH  22  23
ATOM     23  N   UNL     1       6.958   6.216   2.371  1.00  0.00    -0.352 N 
ATOM     24  C   UNL     1       8.254   6.448   2.764  1.00  0.00     0.251 C 
ATOM     25  H   UNL     1       6.281   6.282   3.083  1.00  0.00     0.163 HD
ATOM     26  O   UNL     1       8.518   6.576   3.956  1.00  0.00    -0.269 OA
BRANCH  24  27
ATOM     27  C   UNL     1       9.331   6.510   1.751  1.00  0.00     0.039 A 
ATOM     28  C   UNL     1      10.517   5.809   1.984  1.00  0.00     0.014 A 
ATOM     29  C   UNL     1       9.166   7.238   0.570  1.00  0.00     0.014 A 
ATOM     30  C   UNL     1      11.508   5.780   1.000  1.00  0.00     0.010 A 
ATOM     31  C   UNL     1      10.121   7.144  -0.440  1.00  0.00     0.010 A 
ATOM     32  C   UNL     1      11.302   6.414  -0.237  1.00  0.00    -0.014 A 
BRANCH  32  33
ATOM     33  C   UNL     1      12.302   6.312  -1.332  1.00  0.00     0.031 A 
ATOM     34  C   UNL     1      12.990   7.547  -1.849  1.00  0.00     0.074 A 
ATOM     35  C   UNL     1      12.545   5.116  -1.905  1.00  0.00     0.049 A 
ATOM     36  N   UNL     1      13.849   7.662  -2.830  1.00  0.00    -0.248 NA
ATOM     37  C   UNL     1      12.653   8.822  -1.195  1.00  0.00     0.031 C 
ATOM     38  C   UNL     1      11.915   3.849  -1.523  1.00  0.00     0.029 A 
ATOM     39  N   UNL     1      13.383   4.769  -2.936  1.00  0.00    -0.354 N 
ATOM     40  C   UNL     1      14.142   9.018  -2.920  1.00  0.00     0.074 A 
ATOM     41  C   UNL     1      13.330   9.692  -1.930  1.00  0.00     0.031 C 
ATOM     42  C   UNL     1      12.411   2.863  -2.287  1.00  0.00     0.029 A 
ATOM     43  C   UNL     1      13.357   3.429  -3.243  1.00  0.00     0.049 A 
ATOM     44  H   UNL     1      13.950   5.419  -3.411  1.00  0.00     0.167 HD
ATOM     45  C   UNL     1      15.022   9.645  -3.738  1.00  0.00     0.031 A 
ATOM     46  C   UNL     1      14.012   2.732  -4.193  1.00  0.00     0.031 A 
ATOM     47  C   UNL     1      15.831   8.972  -4.720  1.00  0.00     0.049 A 
ATOM     48  C   UNL     1      14.966   3.454  -5.106  1.00  0.00     0.074 A 
ATOM     49  C   UNL     1      16.790   9.512  -5.560  1.00  0.00     0.029 A 
ATOM     50  N   UNL     1      15.774   7.615  -4.999  1.00  0.00    -0.354 N 
ATOM     51  N   UNL     1      15.280   4.728  -5.128  1.00  0.00    -0.248 NA
ATOM     52  C   UNL     1      15.661   2.643  -6.115  1.00  0.00     0.031 C 
ATOM     53  C   UNL     1      17.268   8.492  -6.388  1.00  0.00     0.029 A 
ATOM     54  C   UNL     1      16.659   7.304  -6.018  1.00  0.00     0.049 A 
ATOM     55  H   UNL     1      15.191   6.968  -4.540  1.00  0.00     0.167 HD
ATOM     56  C   UNL     1      16.233   4.864  -6.132  1.00  0.00     0.074 A 
ATOM     57  C   UNL     1      16.454   3.542  -6.682  1.00  0.00     0.031 C 
ATOM     58  C   UNL     1      16.870   5.984  -6.558  1.00  0.00     0.031 A 
BRANCH  45  59
ATOM     59  C   UNL     1      15.146  11.143  -3.612  1.00  0.00    -0.014 A 
ATOM     60  C   UNL     1      15.712  11.733  -2.467  1.00  0.00     0.010 A 
ATOM     61  C   UNL     1      14.729  11.970  -4.670  1.00  0.00     0.010 A 
ATOM     62  C   UNL     1      15.816  13.123  -2.363  1.00  0.00     0.020 A 
ATOM     63  C   UNL     1      14.860  13.360  -4.584  1.00  0.00     0.020 A 
ATOM     64  C   UNL     1      15.386  13.928  -3.422  1.00  0.00     0.054 A 
BRANCH  64  65
ATOM     65  S   UNL     1      15.551  15.727  -3.267  1.00  0.00     0.124 S 
ATOM     66  O   UNL     1      14.521  16.038  -2.278  1.00  0.00    -0.237 OA
ATOM     67  O   UNL     1      16.929  15.883  -2.808  1.00  0.00    -0.237 OA
ATOM     68  O   UNL     1      15.287  16.219  -4.616  1.00  0.00    -0.744 OA
ENDBRANCH  64  65
ENDBRANCH  45  59
BRANCH  46  69
ATOM     69  C   UNL     1      13.797   1.263  -4.321  1.00  0.00    -0.014 A 
ATOM     70  C   UNL     1      14.822   0.359  -3.987  1.00  0.00     0.010 A 
ATOM     71  C   UNL     1      12.562   0.760  -4.769  1.00  0.00     0.010 A 
ATOM     72  C   UNL     1      14.622  -1.019  -4.119  1.00  0.00     0.020 A 
ATOM     73  C   UNL     1      12.349  -0.618  -4.872  1.00  0.00     0.020 A 
ATOM     74  C   UNL     1      13.385  -1.498  -4.558  1.00  0.00     0.054 A 
BRANCH  74  75
ATOM     75  S   UNL     1      13.134  -3.292  -4.673  1.00  0.00     0.124 S 
ATOM     76  O   UNL     1      13.945  -3.638  -5.835  1.00  0.00    -0.237 OA
ATOM     77  O   UNL     1      13.637  -3.763  -3.385  1.00  0.00    -0.237 OA
ATOM     78  O   UNL     1      11.690  -3.423  -4.854  1.00  0.00    -0.744 OA
ENDBRANCH  74  75
ENDBRANCH  46  69
BRANCH  58  79
ATOM     79  C   UNL     1      17.898   5.827  -7.648  1.00  0.00    -0.014 A 
ATOM     80  C   UNL     1      17.525   5.532  -8.971  1.00  0.00     0.010 A 
ATOM     81  C   UNL     1      19.258   6.036  -7.351  1.00  0.00     0.010 A 
ATOM     82  C   UNL     1      18.496   5.415  -9.970  1.00  0.00     0.020 A 
ATOM     83  C   UNL     1      20.228   5.952  -8.352  1.00  0.00     0.020 A 
ATOM     84  C   UNL     1      19.842   5.628  -9.654  1.00  0.00     0.054 A 
BRANCH  84  85
ATOM     85  S   UNL     1      21.077   5.515 -10.977  1.00  0.00     0.124 S 
ATOM     86  O   UNL     1      21.122   4.077 -11.230  1.00  0.00    -0.237 OA
ATOM     87  O   UNL     1      20.481   6.321 -12.040  1.00  0.00    -0.237 OA
ATOM     88  O   UNL     1      22.283   6.080 -10.376  1.00  0.00    -0.744 OA
ENDBRANCH  84  85
ENDBRANCH  58  79
ENDBRANCH  32  33
ENDBRANCH  24  27
ENDBRANCH  22  23
ENDBRANCH   1  22
TORSDOF 15
