REMARK SMILES C[C@H]1CN(S(=O)(=O)N2CCO[C@H](CC(=O)NCCCCNC(=O)c3ccc(-c4c5nc(c(-c6ccc(S(=O)(=O)[O-])cc6)c6ccc([nH]6)c(-c6ccc(S(=O)(=O)[O-])cc6)c6nc(c(-c7ccc(S(=O)(=O)[O-])cc7)c7ccc4[nH]7)C=C6)C=C5)cc3)C2)C[C@H](C)O1
REMARK SMILES IDX 18 1 17 2 16 3 14 4 15 5 13 7 12 8 8 9 9 10 84 11 10 12
REMARK SMILES IDX 11 13 5 14 6 15 7 16 4 17 1 18 2 19 3 20 88 21 86 22 85 23
REMARK SMILES IDX 87 24 19 25 20 26 21 27 22 28 23 30 24 31 25 32 83 33 26 34
REMARK SMILES IDX 82 35 27 36 28 37 29 38 76 39 30 40 81 41 75 42 77 43 31 44
REMARK SMILES IDX 80 45 74 46 73 47 32 49 62 50 43 51 61 52 44 53 47 54 60 55
REMARK SMILES IDX 78 56 45 57 46 58 59 60 79 61 48 62 33 63 34 64 42 65 35 66
REMARK SMILES IDX 41 67 36 68 37 69 38 70 39 71 40 72 63 73 64 74 72 75 65 76
REMARK SMILES IDX 71 77 66 78 67 79 68 80 69 81 70 82 49 83 50 84 58 85 51 86
REMARK SMILES IDX 57 87 52 88 53 89 54 90 55 91 56 92
REMARK H PARENT 16 6 21 29 77 48 47 59
REMARK Flexibility Score: inf
ROOT
ATOM      1  C   UNL     1      -4.349  -3.444  -1.630  1.00  0.00     0.023 C 
ENDROOT
BRANCH   1   2
ATOM      2  C   UNL     1      -4.583  -3.100  -0.156  1.00  0.00     0.116 C 
BRANCH   2   3
ATOM      3  N   UNL     1      -3.468  -3.502   0.673  1.00  0.00    -0.356 N 
ATOM      4  C   UNL     1      -2.645  -2.754   1.453  1.00  0.00     0.222 C 
ATOM      5  O   UNL     1      -1.835  -3.333   2.179  1.00  0.00    -0.275 OA
ATOM      6  H   UNL     1      -3.276  -4.468   0.673  1.00  0.00     0.163 HD
BRANCH   4   7
ATOM      7  C   UNL     1      -2.740  -1.249   1.435  1.00  0.00     0.133 C 
BRANCH   7   8
ATOM      8  C   UNL     1      -1.972  -0.607   0.277  1.00  0.00     0.142 C 
ATOM      9  N   UNL     1      -2.059   0.174  -2.067  1.00  0.00    -0.184 NA
ATOM     10  C   UNL     1      -0.925  -0.704  -2.423  1.00  0.00     0.132 C 
ATOM     11  C   UNL     1      -2.836  -0.383  -0.959  1.00  0.00     0.136 C 
ATOM     12  C   UNL     1      -0.067  -0.974  -1.183  1.00  0.00     0.177 C 
ATOM     13  O   UNL     1      -0.798  -1.375  -0.018  1.00  0.00    -0.375 OA
BRANCH   9  14
ATOM     14  S   UNL     1      -2.027   1.808  -2.363  1.00  0.00     0.282 S 
ATOM     15  O   UNL     1      -3.152   2.424  -1.709  1.00  0.00    -0.195 OA
ATOM     16  O   UNL     1      -1.794   1.962  -3.784  1.00  0.00    -0.195 OA
BRANCH  14  17
ATOM     17  N   UNL     1      -0.629   2.269  -1.567  1.00  0.00    -0.184 NA
ATOM     18  C   UNL     1       0.729   2.435   1.955  1.00  0.00     0.040 C 
ATOM     19  C   UNL     1       0.692   2.392   0.437  1.00  0.00     0.130 C 
ATOM     20  C   UNL     1      -0.707   2.662  -0.134  1.00  0.00     0.135 C 
ATOM     21  O   UNL     1       1.599   3.359  -0.127  1.00  0.00    -0.373 OA
ATOM     22  C   UNL     1       1.637   3.313  -1.576  1.00  0.00     0.130 C 
ATOM     23  C   UNL     1       0.243   3.260  -2.259  1.00  0.00     0.135 C 
ATOM     24  C   UNL     1       2.548   2.186  -2.058  1.00  0.00     0.040 C 
ENDBRANCH  14  17
ENDBRANCH   9  14
ENDBRANCH   7   8
ENDBRANCH   4   7
ENDBRANCH   2   3
ENDBRANCH   1   2
BRANCH   1  25
ATOM     25  C   UNL     1      -4.280  -4.929  -1.920  1.00  0.00     0.023 C 
BRANCH  25  26
ATOM     26  C   UNL     1      -5.515  -5.669  -1.465  1.00  0.00     0.116 C 
BRANCH  26  27
ATOM     27  N   UNL     1      -6.727  -5.121  -2.068  1.00  0.00    -0.352 N 
ATOM     28  C   UNL     1      -7.632  -5.770  -2.872  1.00  0.00     0.251 C 
ATOM     29  H   UNL     1      -6.918  -4.175  -1.875  1.00  0.00     0.163 HD
ATOM     30  O   UNL     1      -8.467  -5.150  -3.517  1.00  0.00    -0.269 OA
BRANCH  28  31
ATOM     31  C   UNL     1      -7.539  -7.237  -2.939  1.00  0.00     0.039 A 
ATOM     32  C   UNL     1      -7.495  -7.872  -4.177  1.00  0.00     0.014 A 
ATOM     33  C   UNL     1      -7.347  -7.948  -1.751  1.00  0.00     0.014 A 
ATOM     34  C   UNL     1      -7.191  -9.230  -4.222  1.00  0.00     0.010 A 
ATOM     35  C   UNL     1      -6.897  -9.253  -1.812  1.00  0.00     0.010 A 
ATOM     36  C   UNL     1      -6.849  -9.918  -3.044  1.00  0.00    -0.014 A 
BRANCH  36  37
ATOM     37  C   UNL     1      -6.490 -11.354  -3.057  1.00  0.00     0.031 A 
ATOM     38  C   UNL     1      -7.318 -12.318  -2.249  1.00  0.00     0.074 A 
ATOM     39  C   UNL     1      -5.405 -11.772  -3.736  1.00  0.00     0.049 A 
ATOM     40  N   UNL     1      -7.135 -13.597  -2.056  1.00  0.00    -0.248 NA
ATOM     41  C   UNL     1      -8.484 -11.767  -1.530  1.00  0.00     0.031 C 
ATOM     42  C   UNL     1      -4.496 -10.916  -4.505  1.00  0.00     0.029 A 
ATOM     43  N   UNL     1      -4.879 -13.029  -3.888  1.00  0.00    -0.354 N 
ATOM     44  C   UNL     1      -8.151 -13.993  -1.195  1.00  0.00     0.074 A 
ATOM     45  C   UNL     1      -8.894 -12.812  -0.830  1.00  0.00     0.031 C 
ATOM     46  C   UNL     1      -3.550 -11.678  -5.076  1.00  0.00     0.029 A 
ATOM     47  C   UNL     1      -3.752 -13.066  -4.676  1.00  0.00     0.049 A 
ATOM     48  H   UNL     1      -5.271 -13.830  -3.471  1.00  0.00     0.167 HD
ATOM     49  C   UNL     1      -8.468 -15.240  -0.779  1.00  0.00     0.031 A 
ATOM     50  C   UNL     1      -2.969 -14.104  -5.026  1.00  0.00     0.031 A 
ATOM     51  C   UNL     1      -7.739 -16.415  -1.166  1.00  0.00     0.049 A 
ATOM     52  C   UNL     1      -3.333 -15.480  -4.534  1.00  0.00     0.074 A 
ATOM     53  C   UNL     1      -7.995 -17.732  -0.834  1.00  0.00     0.029 A 
ATOM     54  N   UNL     1      -6.618 -16.413  -1.981  1.00  0.00    -0.354 N 
ATOM     55  N   UNL     1      -4.337 -15.843  -3.769  1.00  0.00    -0.248 NA
ATOM     56  C   UNL     1      -2.469 -16.588  -4.962  1.00  0.00     0.031 C 
ATOM     57  C   UNL     1      -6.996 -18.523  -1.406  1.00  0.00     0.029 A 
ATOM     58  C   UNL     1      -6.159 -17.706  -2.151  1.00  0.00     0.049 A 
ATOM     59  H   UNL     1      -6.209 -15.611  -2.380  1.00  0.00     0.167 HD
ATOM     60  C   UNL     1      -4.242 -17.226  -3.653  1.00  0.00     0.074 A 
ATOM     61  C   UNL     1      -3.098 -17.633  -4.444  1.00  0.00     0.031 C 
ATOM     62  C   UNL     1      -5.026 -18.084  -2.955  1.00  0.00     0.031 A 
BRANCH  49  63
ATOM     63  C   UNL     1      -9.669 -15.394   0.115  1.00  0.00    -0.014 A 
ATOM     64  C   UNL     1     -10.968 -15.168  -0.378  1.00  0.00     0.010 A 
ATOM     65  C   UNL     1      -9.506 -15.823   1.444  1.00  0.00     0.010 A 
ATOM     66  C   UNL     1     -12.079 -15.346   0.447  1.00  0.00     0.020 A 
ATOM     67  C   UNL     1     -10.618 -16.033   2.264  1.00  0.00     0.020 A 
ATOM     68  C   UNL     1     -11.898 -15.785   1.762  1.00  0.00     0.054 A 
BRANCH  68  69
ATOM     69  S   UNL     1     -13.366 -16.070   2.787  1.00  0.00     0.124 S 
ATOM     70  O   UNL     1     -13.848 -14.709   3.007  1.00  0.00    -0.237 OA
ATOM     71  O   UNL     1     -14.201 -16.899   1.922  1.00  0.00    -0.237 OA
ATOM     72  O   UNL     1     -12.838 -16.742   3.971  1.00  0.00    -0.744 OA
ENDBRANCH  68  69
ENDBRANCH  49  63
BRANCH  50  73
ATOM     73  C   UNL     1      -1.765 -13.888  -5.877  1.00  0.00    -0.014 A 
ATOM     74  C   UNL     1      -1.690 -14.425  -7.174  1.00  0.00     0.010 A 
ATOM     75  C   UNL     1      -0.667 -13.162  -5.377  1.00  0.00     0.010 A 
ATOM     76  C   UNL     1      -0.526 -14.282  -7.936  1.00  0.00     0.020 A 
ATOM     77  C   UNL     1       0.484 -12.985  -6.149  1.00  0.00     0.020 A 
ATOM     78  C   UNL     1       0.556 -13.566  -7.415  1.00  0.00     0.054 A 
BRANCH  78  79
ATOM     79  S   UNL     1       2.056 -13.390  -8.420  1.00  0.00     0.124 S 
ATOM     80  O   UNL     1       2.614 -14.738  -8.369  1.00  0.00    -0.237 OA
ATOM     81  O   UNL     1       1.521 -12.974  -9.714  1.00  0.00    -0.237 OA
ATOM     82  O   UNL     1       2.823 -12.367  -7.713  1.00  0.00    -0.744 OA
ENDBRANCH  78  79
ENDBRANCH  50  73
BRANCH  62  83
ATOM     83  C   UNL     1      -4.705 -19.551  -3.052  1.00  0.00    -0.014 A 
ATOM     84  C   UNL     1      -3.558 -20.091  -2.446  1.00  0.00     0.010 A 
ATOM     85  C   UNL     1      -5.605 -20.410  -3.710  1.00  0.00     0.010 A 
ATOM     86  C   UNL     1      -3.298 -21.461  -2.528  1.00  0.00     0.020 A 
ATOM     87  C   UNL     1      -5.367 -21.784  -3.763  1.00  0.00     0.020 A 
ATOM     88  C   UNL     1      -4.206 -22.299  -3.184  1.00  0.00     0.054 A 
BRANCH  88  89
ATOM     89  S   UNL     1      -3.866 -24.078  -3.235  1.00  0.00     0.124 S 
ATOM     90  O   UNL     1      -2.746 -24.147  -4.169  1.00  0.00    -0.237 OA
ATOM     91  O   UNL     1      -3.545 -24.381  -1.843  1.00  0.00    -0.237 OA
ATOM     92  O   UNL     1      -5.117 -24.657  -3.720  1.00  0.00    -0.744 OA
ENDBRANCH  88  89
ENDBRANCH  62  83
ENDBRANCH  36  37
ENDBRANCH  28  31
ENDBRANCH  26  27
ENDBRANCH  25  26
ENDBRANCH   1  25
TORSDOF 17
