REMARK SMILES O=C(NCCCCNC(=O)c1cccc(Nc2ccnc3ccc(Cl)cc23)c1)c1ccc(-c2c3nc(c(-c4ccc(S(=O)(=O)[O-])cc4)c4ccc([nH]4)c(-c4ccc(S(=O)(=O)[O-])cc4)c4nc(c(-c5ccc(S(=O)(=O)[O-])cc5)c5ccc2[nH]5)C=C4)C=C3)cc1
REMARK SMILES IDX 5 1 4 2 3 3 1 4 2 5 29 7 30 8 88 9 31 10 87 11 32 12 33 13
REMARK SMILES IDX 34 14 81 15 35 16 86 17 80 18 82 19 36 20 85 21 79 22 78 23
REMARK SMILES IDX 37 25 67 26 48 27 66 28 49 29 52 30 65 31 83 32 50 33 51 34
REMARK SMILES IDX 64 36 84 37 53 38 38 39 39 40 47 41 40 42 46 43 41 44 42 45
REMARK SMILES IDX 43 46 44 47 45 48 68 49 69 50 77 51 70 52 76 53 71 54 72 55
REMARK SMILES IDX 73 56 74 57 75 58 54 59 55 60 63 61 56 62 62 63 57 64 58 65
REMARK SMILES IDX 59 66 60 67 61 68 6 69 7 70 8 71 9 72 10 74 11 75 12 76
REMARK SMILES IDX 28 77 13 78 15 79 14 80 16 81 17 83 18 84 27 85 19 86 21 87
REMARK SMILES IDX 26 88 20 89 22 90 24 91 23 92 25 93
REMARK H PARENT 3 6 82 24 52 35 8 73 16 82
REMARK Flexibility Score: inf
ROOT
ATOM      1  C   UNL     1       4.903  -0.668  -2.728  1.00  0.00     0.023 C 
ENDROOT
BRANCH   1   2
ATOM      2  C   UNL     1       4.529   0.088  -1.458  1.00  0.00     0.116 C 
BRANCH   2   3
ATOM      3  N   UNL     1       3.094   0.187  -1.235  1.00  0.00    -0.352 N 
ATOM      4  O   UNL     1       1.142   0.000  -0.129  1.00  0.00    -0.269 OA
ATOM      5  C   UNL     1       2.364  -0.064  -0.095  1.00  0.00     0.251 C 
ATOM      6  H   UNL     1       2.567   0.475  -2.015  1.00  0.00     0.163 HD
BRANCH   5   7
ATOM      7  C   UNL     1       3.058  -0.447   1.157  1.00  0.00     0.039 A 
ATOM      8  C   UNL     1       4.202   0.232   1.577  1.00  0.00     0.014 A 
ATOM      9  C   UNL     1       2.562  -1.515   1.911  1.00  0.00     0.014 A 
ATOM     10  C   UNL     1       4.939  -0.259   2.647  1.00  0.00     0.010 A 
ATOM     11  C   UNL     1       3.257  -1.950   3.044  1.00  0.00     0.010 A 
ATOM     12  C   UNL     1       4.474  -1.350   3.400  1.00  0.00    -0.014 A 
BRANCH  12  13
ATOM     13  C   UNL     1       5.261  -1.799   4.579  1.00  0.00     0.031 A 
ATOM     14  C   UNL     1       5.902  -3.161   4.623  1.00  0.00     0.074 A 
ATOM     15  C   UNL     1       5.446  -0.933   5.595  1.00  0.00     0.049 A 
ATOM     16  N   UNL     1       6.673  -3.674   5.549  1.00  0.00    -0.248 NA
ATOM     17  C   UNL     1       5.646  -4.065   3.491  1.00  0.00     0.031 C 
ATOM     18  C   UNL     1       4.864   0.411   5.672  1.00  0.00     0.029 A 
ATOM     19  N   UNL     1       6.195  -1.034   6.738  1.00  0.00    -0.354 N 
ATOM     20  C   UNL     1       6.989  -4.958   5.119  1.00  0.00     0.074 A 
ATOM     21  C   UNL     1       6.299  -5.159   3.862  1.00  0.00     0.031 C 
ATOM     22  C   UNL     1       5.322   1.027   6.770  1.00  0.00     0.029 A 
ATOM     23  C   UNL     1       6.178   0.105   7.507  1.00  0.00     0.049 A 
ATOM     24  H   UNL     1       6.696  -1.845   6.985  1.00  0.00     0.167 HD
ATOM     25  C   UNL     1       7.787  -5.880   5.711  1.00  0.00     0.031 A 
ATOM     26  C   UNL     1       6.774   0.381   8.682  1.00  0.00     0.031 A 
ATOM     27  C   UNL     1       8.467  -5.678   6.965  1.00  0.00     0.049 A 
ATOM     28  C   UNL     1       7.637  -0.666   9.324  1.00  0.00     0.074 A 
ATOM     29  C   UNL     1       9.297  -6.553   7.646  1.00  0.00     0.029 A 
ATOM     30  N   UNL     1       8.399  -4.522   7.728  1.00  0.00    -0.354 N 
ATOM     31  N   UNL     1       7.931  -1.868   8.890  1.00  0.00    -0.248 NA
ATOM     32  C   UNL     1       8.251  -0.318  10.612  1.00  0.00     0.031 C 
ATOM     33  C   UNL     1       9.698  -5.941   8.839  1.00  0.00     0.029 A 
ATOM     34  C   UNL     1       9.161  -4.665   8.877  1.00  0.00     0.049 A 
ATOM     35  H   UNL     1       7.885  -3.717   7.489  1.00  0.00     0.167 HD
ATOM     36  C   UNL     1       8.773  -2.417   9.849  1.00  0.00     0.074 A 
ATOM     37  C   UNL     1       8.964  -1.405  10.868  1.00  0.00     0.031 C 
ATOM     38  C   UNL     1       9.332  -3.652   9.886  1.00  0.00     0.031 A 
BRANCH  25  39
ATOM     39  C   UNL     1       7.966  -7.203   5.012  1.00  0.00    -0.014 A 
ATOM     40  C   UNL     1       8.748  -7.307   3.848  1.00  0.00     0.010 A 
ATOM     41  C   UNL     1       7.397  -8.369   5.559  1.00  0.00     0.010 A 
ATOM     42  C   UNL     1       8.932  -8.546   3.226  1.00  0.00     0.020 A 
ATOM     43  C   UNL     1       7.599  -9.613   4.953  1.00  0.00     0.020 A 
ATOM     44  C   UNL     1       8.354  -9.691   3.781  1.00  0.00     0.054 A 
BRANCH  44  45
ATOM     45  S   UNL     1       8.633 -11.289   2.968  1.00  0.00     0.124 S 
ATOM     46  O   UNL     1       7.784 -11.177   1.785  1.00  0.00    -0.237 OA
ATOM     47  O   UNL     1      10.071 -11.272   2.712  1.00  0.00    -0.237 OA
ATOM     48  O   UNL     1       8.192 -12.266   3.961  1.00  0.00    -0.744 OA
ENDBRANCH  44  45
ENDBRANCH  25  39
BRANCH  26  49
ATOM     49  C   UNL     1       6.547   1.698   9.334  1.00  0.00    -0.014 A 
ATOM     50  C   UNL     1       7.583   2.642   9.436  1.00  0.00     0.010 A 
ATOM     51  C   UNL     1       5.275   2.018   9.844  1.00  0.00     0.010 A 
ATOM     52  C   UNL     1       7.357   3.874  10.058  1.00  0.00     0.020 A 
ATOM     53  C   UNL     1       5.037   3.259  10.438  1.00  0.00     0.020 A 
ATOM     54  C   UNL     1       6.085   4.173  10.556  1.00  0.00     0.054 A 
BRANCH  54  55
ATOM     55  S   UNL     1       5.797   5.792  11.322  1.00  0.00     0.124 S 
ATOM     56  O   UNL     1       6.401   5.614  12.638  1.00  0.00    -0.237 OA
ATOM     57  O   UNL     1       6.499   6.701  10.420  1.00  0.00    -0.237 OA
ATOM     58  O   UNL     1       4.341   5.919  11.311  1.00  0.00    -0.744 OA
ENDBRANCH  54  55
ENDBRANCH  26  49
BRANCH  38  59
ATOM     59  C   UNL     1      10.220  -3.962  11.061  1.00  0.00    -0.014 A 
ATOM     60  C   UNL     1       9.680  -4.174  12.342  1.00  0.00     0.010 A 
ATOM     61  C   UNL     1      11.610  -4.059  10.876  1.00  0.00     0.010 A 
ATOM     62  C   UNL     1      10.520  -4.434  13.427  1.00  0.00     0.020 A 
ATOM     63  C   UNL     1      12.451  -4.346  11.954  1.00  0.00     0.020 A 
ATOM     64  C   UNL     1      11.902  -4.513  13.227  1.00  0.00     0.054 A 
BRANCH  64  65
ATOM     65  S   UNL     1      12.972  -4.871  14.647  1.00  0.00     0.124 S 
ATOM     66  O   UNL     1      12.990  -3.588  15.344  1.00  0.00    -0.237 OA
ATOM     67  O   UNL     1      12.256  -5.946  15.328  1.00  0.00    -0.237 OA
ATOM     68  O   UNL     1      14.239  -5.265  14.034  1.00  0.00    -0.744 OA
ENDBRANCH  64  65
ENDBRANCH  38  59
ENDBRANCH  12  13
ENDBRANCH   5   7
ENDBRANCH   2   3
ENDBRANCH   1   2
BRANCH   1  69
ATOM     69  C   UNL     1       4.292  -0.142  -4.025  1.00  0.00     0.023 C 
BRANCH  69  70
ATOM     70  C   UNL     1       4.418   1.362  -4.241  1.00  0.00     0.116 C 
BRANCH  70  71
ATOM     71  N   UNL     1       5.792   1.808  -4.372  1.00  0.00    -0.352 N 
ATOM     72  C   UNL     1       6.602   1.925  -5.471  1.00  0.00     0.251 C 
ATOM     73  H   UNL     1       6.217   2.072  -3.524  1.00  0.00     0.163 HD
ATOM     74  O   UNL     1       7.784   2.224  -5.316  1.00  0.00    -0.269 OA
BRANCH  72  75
ATOM     75  C   UNL     1       6.095   1.696  -6.842  1.00  0.00     0.041 A 
ATOM     76  C   UNL     1       6.919   1.005  -7.738  1.00  0.00     0.014 A 
ATOM     77  C   UNL     1       4.916   2.291  -7.302  1.00  0.00     0.039 A 
ATOM     78  C   UNL     1       6.544   0.870  -9.073  1.00  0.00     0.003 A 
ATOM     79  C   UNL     1       4.530   2.157  -8.641  1.00  0.00     0.039 A 
ATOM     80  C   UNL     1       5.356   1.447  -9.521  1.00  0.00     0.026 A 
BRANCH  79  81
ATOM     81  N   UNL     1       3.468   2.943  -9.158  1.00  0.00    -0.355 N 
ATOM     82  H   UNL     1       2.534   2.658  -9.034  1.00  0.00     0.167 HD
BRANCH  81  83
ATOM     83  C   UNL     1       3.764   4.147  -9.855  1.00  0.00     0.050 A 
ATOM     84  C   UNL     1       4.438   5.166  -9.175  1.00  0.00     0.047 A 
ATOM     85  C   UNL     1       3.422   4.327 -11.212  1.00  0.00     0.025 A 
ATOM     86  C   UNL     1       4.826   6.283  -9.880  1.00  0.00     0.114 A 
ATOM     87  C   UNL     1       3.879   5.510 -11.835  1.00  0.00     0.072 A 
ATOM     88  C   UNL     1       2.679   3.388 -11.966  1.00  0.00     0.033 A 
ATOM     89  N   UNL     1       4.568   6.463 -11.189  1.00  0.00    -0.256 NA
ATOM     90  C   UNL     1       3.614   5.702 -13.182  1.00  0.00     0.030 A 
ATOM     91  C   UNL     1       2.405   3.625 -13.311  1.00  0.00     0.041 A 
ATOM     92  C   UNL     1       2.880   4.776 -13.927  1.00  0.00     0.023 A 
ATOM     93  Cl  UNL     1       1.474   2.497 -14.215  1.00  0.00    -0.084 Cl
ENDBRANCH  81  83
ENDBRANCH  79  81
ENDBRANCH  72  75
ENDBRANCH  70  71
ENDBRANCH  69  70
ENDBRANCH   1  69
TORSDOF 16
