REMARK SMILES O=C(/C=N\OCc1ccccc1)NCCCCNC(=O)c1ccc(-c2c3nc(c(-c4ccc(S(=O)(=O)[O-])cc4)c4ccc([nH]4)c(-c4ccc(S(=O)(=O)[O-])cc4)c4nc(c(-c5ccc(S(=O)(=O)[O-])cc5)c5ccc2[nH]5)C=C4)C=C3)cc1
REMARK SMILES IDX 15 1 14 2 13 3 1 4 2 5 3 7 4 8 5 9 6 10 7 11 8 12 12 13 9 14
REMARK SMILES IDX 11 15 10 16 16 17 17 18 18 19 19 20 20 22 21 23 22 24 80 25
REMARK SMILES IDX 23 26 79 27 24 28 25 29 26 30 73 31 27 32 78 33 72 34 74 35
REMARK SMILES IDX 28 36 77 37 71 38 70 39 29 41 59 42 40 43 58 44 41 45 44 46
REMARK SMILES IDX 57 47 75 48 42 49 43 50 56 52 76 53 45 54 30 55 31 56 39 57
REMARK SMILES IDX 32 58 38 59 33 60 34 61 35 62 36 63 37 64 60 65 61 66 69 67
REMARK SMILES IDX 62 68 68 69 63 70 64 71 65 72 66 73 67 74 46 75 47 76 55 77
REMARK SMILES IDX 48 78 54 79 49 80 50 81 51 82 52 83 53 84
REMARK H PARENT 13 6 18 21 74 40 44 51
REMARK Flexibility Score: inf
ROOT
ATOM      1  C   UNL     1       2.494  -0.049  -3.538  1.00  0.00     0.023 C 
ENDROOT
BRANCH   1   2
ATOM      2  C   UNL     1       2.106  -0.907  -2.336  1.00  0.00     0.116 C 
BRANCH   2   3
ATOM      3  N   UNL     1       2.831  -0.550  -1.139  1.00  0.00    -0.351 N 
ATOM      4  O   UNL     1       1.106   0.470   0.007  1.00  0.00    -0.268 OA
ATOM      5  C   UNL     1       2.271   0.102  -0.072  1.00  0.00     0.265 C 
ATOM      6  H   UNL     1       3.785  -0.788  -1.087  1.00  0.00     0.163 HD
BRANCH   5   7
ATOM      7  C   UNL     1       3.159   0.309   1.135  1.00  0.00     0.225 C 
ATOM      8  N   UNL     1       4.456   0.243   1.214  1.00  0.00    -0.089 NA
BRANCH   8   9
ATOM      9  O   UNL     1       5.088   0.018  -0.018  1.00  0.00    -0.391 OA
BRANCH   9  10
ATOM     10  C   UNL     1       6.512   0.138   0.147  1.00  0.00     0.299 C 
BRANCH  10  11
ATOM     11  C   UNL     1       6.966   1.569   0.322  1.00  0.00    -0.008 A 
ATOM     12  C   UNL     1       8.106   1.847   1.090  1.00  0.00     0.007 A 
ATOM     13  C   UNL     1       6.302   2.631  -0.310  1.00  0.00     0.007 A 
ATOM     14  C   UNL     1       8.551   3.160   1.251  1.00  0.00     0.000 A 
ATOM     15  C   UNL     1       6.746   3.943  -0.146  1.00  0.00     0.000 A 
ATOM     16  C   UNL     1       7.868   4.208   0.637  1.00  0.00     0.000 A 
ENDBRANCH  10  11
ENDBRANCH   9  10
ENDBRANCH   8   9
ENDBRANCH   5   7
ENDBRANCH   2   3
ENDBRANCH   1   2
BRANCH   1  17
ATOM     17  C   UNL     1       3.981  -0.071  -3.906  1.00  0.00     0.023 C 
BRANCH  17  18
ATOM     18  C   UNL     1       4.588  -1.451  -4.144  1.00  0.00     0.116 C 
BRANCH  18  19
ATOM     19  N   UNL     1       3.989  -2.150  -5.269  1.00  0.00    -0.352 N 
ATOM     20  C   UNL     1       4.593  -2.769  -6.340  1.00  0.00     0.251 C 
ATOM     21  H   UNL     1       3.006  -2.187  -5.264  1.00  0.00     0.163 HD
ATOM     22  O   UNL     1       3.901  -3.192  -7.262  1.00  0.00    -0.269 OA
BRANCH  20  23
ATOM     23  C   UNL     1       6.068  -2.899  -6.403  1.00  0.00     0.039 A 
ATOM     24  C   UNL     1       6.716  -2.623  -7.611  1.00  0.00     0.014 A 
ATOM     25  C   UNL     1       6.814  -3.300  -5.291  1.00  0.00     0.014 A 
ATOM     26  C   UNL     1       8.112  -2.677  -7.683  1.00  0.00     0.010 A 
ATOM     27  C   UNL     1       8.208  -3.286  -5.345  1.00  0.00     0.010 A 
ATOM     28  C   UNL     1       8.873  -2.970  -6.540  1.00  0.00    -0.014 A 
BRANCH  28  29
ATOM     29  C   UNL     1      10.361  -2.933  -6.571  1.00  0.00     0.031 A 
ATOM     30  C   UNL     1      11.163  -4.181  -6.315  1.00  0.00     0.074 A 
ATOM     31  C   UNL     1      10.994  -1.758  -6.766  1.00  0.00     0.049 A 
ATOM     32  N   UNL     1      12.462  -4.326  -6.241  1.00  0.00    -0.248 NA
ATOM     33  C   UNL     1      10.408  -5.424  -6.091  1.00  0.00     0.031 C 
ATOM     34  C   UNL     1      10.338  -0.468  -6.991  1.00  0.00     0.029 A 
ATOM     35  N   UNL     1      12.334  -1.456  -6.799  1.00  0.00    -0.354 N 
ATOM     36  C   UNL     1      12.679  -5.667  -5.945  1.00  0.00     0.074 A 
ATOM     37  C   UNL     1      11.377  -6.283  -5.809  1.00  0.00     0.031 C 
ATOM     38  C   UNL     1      11.274   0.479  -7.164  1.00  0.00     0.029 A 
ATOM     39  C   UNL     1      12.596  -0.124  -7.019  1.00  0.00     0.049 A 
ATOM     40  H   UNL     1      13.041  -2.130  -6.676  1.00  0.00     0.167 HD
ATOM     41  C   UNL     1      13.854  -6.330  -5.814  1.00  0.00     0.031 A 
ATOM     42  C   UNL     1      13.764   0.544  -7.089  1.00  0.00     0.031 A 
ATOM     43  C   UNL     1      15.149  -5.719  -5.959  1.00  0.00     0.049 A 
ATOM     44  C   UNL     1      15.055  -0.211  -6.925  1.00  0.00     0.074 A 
ATOM     45  C   UNL     1      16.395  -6.321  -5.901  1.00  0.00     0.029 A 
ATOM     46  N   UNL     1      15.369  -4.369  -6.187  1.00  0.00    -0.354 N 
ATOM     47  N   UNL     1      15.238  -1.492  -6.709  1.00  0.00    -0.248 NA
ATOM     48  C   UNL     1      16.297   0.568  -7.023  1.00  0.00     0.031 C 
ATOM     49  C   UNL     1      17.369  -5.326  -6.039  1.00  0.00     0.029 A 
ATOM     50  C   UNL     1      16.730  -4.114  -6.245  1.00  0.00     0.049 A 
ATOM     51  H   UNL     1      14.663  -3.691  -6.292  1.00  0.00     0.167 HD
ATOM     52  C   UNL     1      16.616  -1.677  -6.675  1.00  0.00     0.074 A 
ATOM     53  C   UNL     1      17.218  -0.379  -6.906  1.00  0.00     0.031 C 
ATOM     54  C   UNL     1      17.319  -2.819  -6.475  1.00  0.00     0.031 A 
BRANCH  41  55
ATOM     55  C   UNL     1      13.793  -7.800  -5.485  1.00  0.00    -0.014 A 
ATOM     56  C   UNL     1      13.333  -8.738  -6.427  1.00  0.00     0.010 A 
ATOM     57  C   UNL     1      14.242  -8.254  -4.232  1.00  0.00     0.010 A 
ATOM     58  C   UNL     1      13.283 -10.097  -6.106  1.00  0.00     0.020 A 
ATOM     59  C   UNL     1      14.221  -9.617  -3.917  1.00  0.00     0.020 A 
ATOM     60  C   UNL     1      13.724 -10.527  -4.851  1.00  0.00     0.054 A 
BRANCH  60  61
ATOM     61  S   UNL     1      13.663 -12.300  -4.469  1.00  0.00     0.124 S 
ATOM     62  O   UNL     1      12.230 -12.520  -4.294  1.00  0.00    -0.237 OA
ATOM     63  O   UNL     1      14.250 -12.905  -5.661  1.00  0.00    -0.237 OA
ATOM     64  O   UNL     1      14.464 -12.420  -3.253  1.00  0.00    -0.744 OA
ENDBRANCH  60  61
ENDBRANCH  41  55
BRANCH  42  65
ATOM     65  C   UNL     1      13.769   2.012  -7.341  1.00  0.00    -0.014 A 
ATOM     66  C   UNL     1      14.222   2.523  -8.569  1.00  0.00     0.010 A 
ATOM     67  C   UNL     1      13.311   2.906  -6.356  1.00  0.00     0.010 A 
ATOM     68  C   UNL     1      14.236   3.902  -8.802  1.00  0.00     0.020 A 
ATOM     69  C   UNL     1      13.295   4.283  -6.595  1.00  0.00     0.020 A 
ATOM     70  C   UNL     1      13.769   4.773  -7.814  1.00  0.00     0.054 A 
BRANCH  70  71
ATOM     71  S   UNL     1      13.749   6.555  -8.157  1.00  0.00     0.124 S 
ATOM     72  O   UNL     1      15.166   6.895  -8.080  1.00  0.00    -0.237 OA
ATOM     73  O   UNL     1      13.155   6.612  -9.491  1.00  0.00    -0.237 OA
ATOM     74  O   UNL     1      12.914   7.099  -7.088  1.00  0.00    -0.744 OA
ENDBRANCH  70  71
ENDBRANCH  42  65
BRANCH  54  75
ATOM     75  C   UNL     1      18.822  -2.730  -6.531  1.00  0.00    -0.014 A 
ATOM     76  C   UNL     1      19.557  -2.112  -5.504  1.00  0.00     0.010 A 
ATOM     77  C   UNL     1      19.511  -3.325  -7.604  1.00  0.00     0.010 A 
ATOM     78  C   UNL     1      20.953  -2.064  -5.566  1.00  0.00     0.020 A 
ATOM     79  C   UNL     1      20.907  -3.304  -7.655  1.00  0.00     0.020 A 
ATOM     80  C   UNL     1      21.619  -2.660  -6.641  1.00  0.00     0.054 A 
BRANCH  80  81
ATOM     81  S   UNL     1      23.432  -2.623  -6.675  1.00  0.00     0.124 S 
ATOM     82  O   UNL     1      23.701  -1.229  -7.017  1.00  0.00    -0.237 OA
ATOM     83  O   UNL     1      23.786  -3.016  -5.313  1.00  0.00    -0.237 OA
ATOM     84  O   UNL     1      23.780  -3.596  -7.708  1.00  0.00    -0.744 OA
ENDBRANCH  80  81
ENDBRANCH  54  75
ENDBRANCH  28  29
ENDBRANCH  20  23
ENDBRANCH  18  19
ENDBRANCH  17  18
ENDBRANCH   1  17
TORSDOF 17
