REMARK SMILES COc1ccc(NC(=O)C[C@@H](C[NH+]2CCOCC2)C(=O)NCCCCNC(=O)c2ccc(-c3c4nc(c(-c5ccc(S(=O)(=O)[O-])cc5)c5ccc([nH]5)c(-c5ccc(S(=O)(=O)[O-])cc5)c5nc(c(-c6ccc(S(=O)(=O)[O-])cc6)c6ccc3[nH]6)C=C5)C=C4)cc2)cc1
REMARK SMILES IDX 23 1 22 2 21 3 19 4 20 5 11 7 10 8 8 9 7 10 9 12 6 13 3 14
REMARK SMILES IDX 4 15 90 16 5 17 89 18 2 19 1 20 12 21 13 22 14 23 18 24
REMARK SMILES IDX 15 26 17 27 16 28 24 29 25 30 26 31 27 32 28 34 29 35 30 36
REMARK SMILES IDX 88 37 31 38 87 39 32 40 33 41 34 42 81 43 35 44 86 45 80 46
REMARK SMILES IDX 82 47 36 48 85 49 79 50 78 51 37 53 67 54 48 55 66 56 49 57
REMARK SMILES IDX 52 58 65 59 83 60 50 61 51 62 64 64 84 65 53 66 38 67 39 68
REMARK SMILES IDX 47 69 40 70 46 71 41 72 42 73 43 74 44 75 45 76 68 77 69 78
REMARK SMILES IDX 77 79 70 80 76 81 71 82 72 83 73 84 74 85 75 86 54 87 55 88
REMARK SMILES IDX 63 89 56 90 62 91 57 92 58 93 59 94 60 95 61 96
REMARK H PARENT 21 6 7 11 13 25 26 33 82 52 52 63
REMARK Flexibility Score: inf
ROOT
ATOM      1  C   UNL     1      -3.348   4.035   4.244  1.00  0.00     0.023 C 
ENDROOT
BRANCH   1   2
ATOM      2  C   UNL     1      -2.520   4.582   3.088  1.00  0.00     0.116 C 
BRANCH   2   3
ATOM      3  N   UNL     1      -2.538   6.031   3.015  1.00  0.00    -0.356 N 
ATOM      4  C   UNL     1      -1.556   6.874   2.574  1.00  0.00     0.229 C 
ATOM      5  O   UNL     1      -1.865   8.040   2.316  1.00  0.00    -0.275 OA
ATOM      6  H   UNL     1      -3.366   6.465   3.324  1.00  0.00     0.163 HD
BRANCH   4   7
ATOM      7  C   UNL     1      -0.109   6.408   2.436  1.00  0.00     0.142 C 
BRANCH   7   8
ATOM      8  C   UNL     1       0.365   5.931   3.828  1.00  0.00     0.119 C 
BRANCH   8   9
ATOM      9  C   UNL     1       1.850   6.010   4.081  1.00  0.00     0.225 C 
ATOM     10  N   UNL     1       2.703   4.969   3.873  1.00  0.00    -0.326 N 
ATOM     11  H   UNL     1       3.625   5.154   4.164  1.00  0.00     0.169 HD
ATOM     12  O   UNL     1       2.352   7.078   4.451  1.00  0.00    -0.275 OA
BRANCH  10  13
ATOM     13  C   UNL     1       2.537   3.686   3.330  1.00  0.00     0.041 A 
ATOM     14  C   UNL     1       2.260   1.408   1.715  1.00  0.00     0.119 A 
ATOM     15  C   UNL     1       1.233   1.779   2.579  1.00  0.00     0.048 A 
ATOM     16  C   UNL     1       3.467   2.101   1.755  1.00  0.00     0.048 A 
ATOM     17  C   UNL     1       1.380   2.911   3.395  1.00  0.00     0.030 A 
ATOM     18  C   UNL     1       3.618   3.211   2.583  1.00  0.00     0.030 A 
BRANCH  14  19
ATOM     19  O   UNL     1       2.161   0.503   0.701  1.00  0.00    -0.497 OA
ATOM     20  C   UNL     1       1.379  -0.662   0.914  1.00  0.00     0.278 C 
ENDBRANCH  14  19
ENDBRANCH  10  13
ENDBRANCH   8   9
ENDBRANCH   7   8
BRANCH   7  21
ATOM     21  C   UNL     1       0.199   5.535   1.179  1.00  0.00     0.276 C 
BRANCH  21  22
ATOM     22  N   UNL     1      -0.872   4.696   0.611  1.00  0.00    -0.330 N 
ATOM     23  C   UNL     1      -0.379   3.518  -0.139  1.00  0.00     0.291 C 
ATOM     24  C   UNL     1      -1.794   5.438  -0.290  1.00  0.00     0.291 C 
ATOM     25  H   UNL     1      -1.375   4.385   1.442  1.00  0.00     0.348 HD
ATOM     26  C   UNL     1       0.134   3.803  -1.556  1.00  0.00     0.221 C 
ATOM     27  C   UNL     1      -1.255   5.689  -1.709  1.00  0.00     0.221 C 
ATOM     28  O   UNL     1      -0.858   4.469  -2.341  1.00  0.00    -0.370 OA
ENDBRANCH  21  22
ENDBRANCH   7  21
ENDBRANCH   4   7
ENDBRANCH   2   3
ENDBRANCH   1   2
BRANCH   1  29
ATOM     29  C   UNL     1      -4.758   3.629   3.817  1.00  0.00     0.023 C 
BRANCH  29  30
ATOM     30  C   UNL     1      -4.821   2.530   2.755  1.00  0.00     0.116 C 
BRANCH  30  31
ATOM     31  N   UNL     1      -4.207   1.279   3.181  1.00  0.00    -0.352 N 
ATOM     32  C   UNL     1      -4.739   0.012   3.152  1.00  0.00     0.251 C 
ATOM     33  H   UNL     1      -3.292   1.351   3.536  1.00  0.00     0.163 HD
ATOM     34  O   UNL     1      -4.127  -0.931   3.644  1.00  0.00    -0.269 OA
BRANCH  32  35
ATOM     35  C   UNL     1      -6.074  -0.188   2.553  1.00  0.00     0.039 A 
ATOM     36  C   UNL     1      -7.073  -0.799   3.312  1.00  0.00     0.014 A 
ATOM     37  C   UNL     1      -6.352   0.300   1.272  1.00  0.00     0.014 A 
ATOM     38  C   UNL     1      -8.378  -0.847   2.818  1.00  0.00     0.010 A 
ATOM     39  C   UNL     1      -7.666   0.315   0.815  1.00  0.00     0.010 A 
ATOM     40  C   UNL     1      -8.694  -0.249   1.586  1.00  0.00    -0.014 A 
BRANCH  40  41
ATOM     41  C   UNL     1     -10.095  -0.194   1.092  1.00  0.00     0.031 A 
ATOM     42  C   UNL     1     -10.474  -0.905  -0.179  1.00  0.00     0.074 A 
ATOM     43  C   UNL     1     -11.011   0.544   1.752  1.00  0.00     0.049 A 
ATOM     44  N   UNL     1     -11.619  -0.908  -0.810  1.00  0.00    -0.248 NA
ATOM     45  C   UNL     1      -9.423  -1.700  -0.837  1.00  0.00     0.031 C 
ATOM     46  C   UNL     1     -10.763   1.315   2.974  1.00  0.00     0.029 A 
ATOM     47  N   UNL     1     -12.338   0.775   1.483  1.00  0.00    -0.354 N 
ATOM     48  C   UNL     1     -11.427  -1.695  -1.939  1.00  0.00     0.074 A 
ATOM     49  C   UNL     1     -10.041  -2.109  -1.936  1.00  0.00     0.031 C 
ATOM     50  C   UNL     1     -11.904   1.913   3.358  1.00  0.00     0.029 A 
ATOM     51  C   UNL     1     -12.953   1.603   2.393  1.00  0.00     0.049 A 
ATOM     52  H   UNL     1     -12.805   0.383   0.710  1.00  0.00     0.167 HD
ATOM     53  C   UNL     1     -12.327  -2.063  -2.881  1.00  0.00     0.031 A 
ATOM     54  C   UNL     1     -14.217   2.069   2.440  1.00  0.00     0.031 A 
ATOM     55  C   UNL     1     -13.708  -1.665  -2.881  1.00  0.00     0.049 A 
ATOM     56  C   UNL     1     -15.193   1.656   1.370  1.00  0.00     0.074 A 
ATOM     57  C   UNL     1     -14.703  -2.009  -3.780  1.00  0.00     0.029 A 
ATOM     58  N   UNL     1     -14.294  -0.844  -1.931  1.00  0.00    -0.354 N 
ATOM     59  N   UNL     1     -14.998   0.875   0.334  1.00  0.00    -0.248 NA
ATOM     60  C   UNL     1     -16.562   2.179   1.482  1.00  0.00     0.031 C 
ATOM     61  C   UNL     1     -15.884  -1.368  -3.392  1.00  0.00     0.029 A 
ATOM     62  C   UNL     1     -15.635  -0.665  -2.225  1.00  0.00     0.049 A 
ATOM     63  H   UNL     1     -13.827  -0.446  -1.161  1.00  0.00     0.167 HD
ATOM     64  C   UNL     1     -16.228   0.788  -0.309  1.00  0.00     0.074 A 
ATOM     65  C   UNL     1     -17.162   1.582   0.462  1.00  0.00     0.031 C 
ATOM     66  C   UNL     1     -16.555   0.114  -1.438  1.00  0.00     0.031 A 
BRANCH  53  67
ATOM     67  C   UNL     1     -11.849  -2.966  -3.986  1.00  0.00    -0.014 A 
ATOM     68  C   UNL     1     -11.565  -4.320  -3.731  1.00  0.00     0.010 A 
ATOM     69  C   UNL     1     -11.746  -2.480  -5.302  1.00  0.00     0.010 A 
ATOM     70  C   UNL     1     -11.163  -5.166  -4.766  1.00  0.00     0.020 A 
ATOM     71  C   UNL     1     -11.369  -3.330  -6.346  1.00  0.00     0.020 A 
ATOM     72  C   UNL     1     -11.069  -4.666  -6.068  1.00  0.00     0.054 A 
BRANCH  72  73
ATOM     73  S   UNL     1     -10.594  -5.801  -7.400  1.00  0.00     0.124 S 
ATOM     74  O   UNL     1      -9.170  -5.994  -7.137  1.00  0.00    -0.237 OA
ATOM     75  O   UNL     1     -11.441  -6.964  -7.148  1.00  0.00    -0.237 OA
ATOM     76  O   UNL     1     -10.907  -5.058  -8.618  1.00  0.00    -0.744 OA
ENDBRANCH  72  73
ENDBRANCH  53  67
BRANCH  54  77
ATOM     77  C   UNL     1     -14.645   2.983   3.535  1.00  0.00    -0.014 A 
ATOM     78  C   UNL     1     -15.561   2.550   4.511  1.00  0.00     0.010 A 
ATOM     79  C   UNL     1     -14.169   4.306   3.583  1.00  0.00     0.010 A 
ATOM     80  C   UNL     1     -16.027   3.435   5.487  1.00  0.00     0.020 A 
ATOM     81  C   UNL     1     -14.610   5.185   4.577  1.00  0.00     0.020 A 
ATOM     82  C   UNL     1     -15.553   4.750   5.509  1.00  0.00     0.054 A 
BRANCH  82  83
ATOM     83  S   UNL     1     -16.166   5.884   6.787  1.00  0.00     0.124 S 
ATOM     84  O   UNL     1     -17.489   6.226   6.277  1.00  0.00    -0.237 OA
ATOM     85  O   UNL     1     -16.144   5.052   7.987  1.00  0.00    -0.237 OA
ATOM     86  O   UNL     1     -15.187   6.969   6.773  1.00  0.00    -0.744 OA
ENDBRANCH  82  83
ENDBRANCH  54  77
BRANCH  66  87
ATOM     87  C   UNL     1     -17.991   0.162  -1.883  1.00  0.00    -0.014 A 
ATOM     88  C   UNL     1     -18.538   1.321  -2.460  1.00  0.00     0.010 A 
ATOM     89  C   UNL     1     -18.789  -0.992  -1.770  1.00  0.00     0.010 A 
ATOM     90  C   UNL     1     -19.868   1.335  -2.889  1.00  0.00     0.020 A 
ATOM     91  C   UNL     1     -20.111  -0.989  -2.221  1.00  0.00     0.020 A 
ATOM     92  C   UNL     1     -20.646   0.180  -2.766  1.00  0.00     0.054 A 
BRANCH  92  93
ATOM     93  S   UNL     1     -22.356   0.209  -3.371  1.00  0.00     0.124 S 
ATOM     94  O   UNL     1     -23.033   0.977  -2.330  1.00  0.00    -0.237 OA
ATOM     95  O   UNL     1     -22.228   0.878  -4.663  1.00  0.00    -0.237 OA
ATOM     96  O   UNL     1     -22.722  -1.204  -3.441  1.00  0.00    -0.744 OA
ENDBRANCH  92  93
ENDBRANCH  66  87
ENDBRANCH  40  41
ENDBRANCH  32  35
ENDBRANCH  30  31
ENDBRANCH  29  30
ENDBRANCH   1  29
TORSDOF 20
