REMARK SMILES O=C(CSc1nnc(-c2ccncc2)s1)Nc1cccc(C(=O)NCCCCNC(=O)c2ccc(-c3c4nc(c(-c5ccc(S(=O)(=O)[O-])cc5)c5ccc([nH]5)c(-c5ccc(S(=O)(=O)[O-])cc5)c5nc(c(-c6ccc(S(=O)(=O)[O-])cc6)c6ccc3[nH]6)C=C5)C=C4)cc2)c1
REMARK SMILES IDX 25 1 24 2 22 3 23 4 21 6 17 7 18 8 92 9 19 10 20 11 16 12
REMARK SMILES IDX 1 13 2 14 3 16 4 17 5 18 6 19 15 20 7 21 8 22 9 23 10 24
REMARK SMILES IDX 14 25 11 26 13 27 12 28 26 29 27 30 28 31 29 32 30 33 31 35
REMARK SMILES IDX 32 36 33 37 91 38 34 39 90 40 35 41 36 42 37 43 84 44 38 45
REMARK SMILES IDX 89 46 83 47 85 48 39 49 88 50 82 51 81 52 40 54 70 55 51 56
REMARK SMILES IDX 69 57 52 58 55 59 68 60 86 61 53 62 54 63 67 65 87 66 56 67
REMARK SMILES IDX 41 68 42 69 50 70 43 71 49 72 44 73 45 74 46 75 47 76 48 77
REMARK SMILES IDX 71 78 72 79 80 80 73 81 79 82 74 83 75 84 76 85 77 86 78 87
REMARK SMILES IDX 57 88 58 89 66 90 59 91 65 92 60 93 61 94 62 95 63 96 64 97
REMARK H PARENT 24 5 16 15 29 34 85 53 55 64
REMARK Flexibility Score: inf
ROOT
ATOM      1  C   UNL     1       0.023  -1.646   2.991  1.00  0.00     0.116 C 
ENDROOT
BRANCH   1   2
ATOM      2  N   UNL     1      -0.635  -0.867   4.033  1.00  0.00    -0.352 N 
ATOM      3  C   UNL     1      -0.403   0.427   4.457  1.00  0.00     0.251 C 
ATOM      4  O   UNL     1      -1.069   0.897   5.376  1.00  0.00    -0.269 OA
ATOM      5  H   UNL     1      -1.358  -1.337   4.508  1.00  0.00     0.163 HD
BRANCH   3   6
ATOM      6  C   UNL     1       0.696   1.237   3.872  1.00  0.00     0.041 A 
ATOM      7  C   UNL     1       2.222   1.636   2.042  1.00  0.00     0.041 A 
ATOM      8  C   UNL     1       3.021   2.410   2.890  1.00  0.00     0.026 A 
ATOM      9  C   UNL     1       0.996   1.175   2.511  1.00  0.00     0.040 A 
ATOM     10  C   UNL     1       2.639   2.627   4.218  1.00  0.00     0.003 A 
ATOM     11  C   UNL     1       1.494   2.009   4.720  1.00  0.00     0.014 A 
BRANCH   7  12
ATOM     12  N   UNL     1       2.758   1.241   0.797  1.00  0.00    -0.325 N 
ATOM     13  O   UNL     1       1.140  -0.261   0.053  1.00  0.00    -0.274 OA
ATOM     14  C   UNL     1       2.232   0.292  -0.072  1.00  0.00     0.234 C 
ATOM     15  H   UNL     1       3.591   1.683   0.515  1.00  0.00     0.169 HD
BRANCH  14  16
ATOM     16  C   UNL     1       3.188  -0.202  -1.151  1.00  0.00     0.177 C 
BRANCH  16  17
ATOM     17  S   UNL     1       4.411   1.023  -1.690  1.00  0.00    -0.084 SA
BRANCH  17  18
ATOM     18  C   UNL     1       3.359   2.233  -2.380  1.00  0.00     0.175 A 
ATOM     19  N   UNL     1       2.113   1.990  -2.711  1.00  0.00    -0.131 NA
ATOM     20  S   UNL     1       3.860   3.847  -2.622  1.00  0.00    -0.086 S 
ATOM     21  N   UNL     1       1.468   3.126  -3.155  1.00  0.00    -0.137 NA
ATOM     22  C   UNL     1       2.262   4.178  -3.174  1.00  0.00     0.148 A 
BRANCH  22  23
ATOM     23  C   UNL     1       1.857   5.534  -3.544  1.00  0.00     0.015 A 
ATOM     24  C   UNL     1       2.698   6.388  -4.263  1.00  0.00     0.031 A 
ATOM     25  C   UNL     1       0.591   5.997  -3.176  1.00  0.00     0.031 A 
ATOM     26  C   UNL     1       2.250   7.664  -4.558  1.00  0.00     0.111 A 
ATOM     27  C   UNL     1       0.236   7.292  -3.513  1.00  0.00     0.111 A 
ATOM     28  N   UNL     1       1.042   8.137  -4.190  1.00  0.00    -0.265 NA
ENDBRANCH  22  23
ENDBRANCH  17  18
ENDBRANCH  16  17
ENDBRANCH  14  16
ENDBRANCH   7  12
ENDBRANCH   3   6
ENDBRANCH   1   2
BRANCH   1  29
ATOM     29  C   UNL     1       0.358  -3.080   3.378  1.00  0.00     0.023 C 
BRANCH  29  30
ATOM     30  C   UNL     1      -0.823  -3.990   3.690  1.00  0.00     0.023 C 
BRANCH  30  31
ATOM     31  C   UNL     1      -1.933  -4.028   2.647  1.00  0.00     0.116 C 
BRANCH  31  32
ATOM     32  N   UNL     1      -1.484  -4.429   1.321  1.00  0.00    -0.352 N 
ATOM     33  C   UNL     1      -1.979  -5.407   0.485  1.00  0.00     0.251 C 
ATOM     34  H   UNL     1      -0.713  -3.928   0.970  1.00  0.00     0.163 HD
ATOM     35  O   UNL     1      -1.403  -5.660  -0.567  1.00  0.00    -0.269 OA
BRANCH  33  36
ATOM     36  C   UNL     1      -3.181  -6.179   0.877  1.00  0.00     0.039 A 
ATOM     37  C   UNL     1      -3.168  -7.569   0.727  1.00  0.00     0.014 A 
ATOM     38  C   UNL     1      -4.307  -5.546   1.407  1.00  0.00     0.014 A 
ATOM     39  C   UNL     1      -4.246  -8.328   1.193  1.00  0.00     0.010 A 
ATOM     40  C   UNL     1      -5.341  -6.307   1.946  1.00  0.00     0.010 A 
ATOM     41  C   UNL     1      -5.321  -7.707   1.848  1.00  0.00    -0.014 A 
BRANCH  41  42
ATOM     42  C   UNL     1      -6.437  -8.497   2.434  1.00  0.00     0.031 A 
ATOM     43  C   UNL     1      -7.839  -8.318   1.915  1.00  0.00     0.074 A 
ATOM     44  C   UNL     1      -6.204  -9.321   3.476  1.00  0.00     0.049 A 
ATOM     45  N   UNL     1      -8.954  -8.844   2.353  1.00  0.00    -0.248 NA
ATOM     46  C   UNL     1      -8.014  -7.409   0.770  1.00  0.00     0.031 C 
ATOM     47  C   UNL     1      -4.899  -9.556   4.101  1.00  0.00     0.029 A 
ATOM     48  N   UNL     1      -7.062 -10.112   4.200  1.00  0.00    -0.354 N 
ATOM     49  C   UNL     1      -9.961  -8.316   1.553  1.00  0.00     0.074 A 
ATOM     50  C   UNL     1      -9.332  -7.392   0.636  1.00  0.00     0.031 C 
ATOM     51  C   UNL     1      -5.040 -10.451   5.093  1.00  0.00     0.029 A 
ATOM     52  C   UNL     1      -6.446 -10.824   5.204  1.00  0.00     0.049 A 
ATOM     53  H   UNL     1      -8.028 -10.164   4.019  1.00  0.00     0.167 HD
ATOM     54  C   UNL     1     -11.288  -8.592   1.562  1.00  0.00     0.031 A 
ATOM     55  C   UNL     1      -6.956 -11.677   6.113  1.00  0.00     0.031 A 
ATOM     56  C   UNL     1     -11.912  -9.528   2.458  1.00  0.00     0.049 A 
ATOM     57  C   UNL     1      -8.433 -11.969   6.101  1.00  0.00     0.074 A 
ATOM     58  C   UNL     1     -13.243  -9.903   2.520  1.00  0.00     0.029 A 
ATOM     59  N   UNL     1     -11.247 -10.246   3.440  1.00  0.00    -0.354 N 
ATOM     60  N   UNL     1      -9.361 -11.489   5.308  1.00  0.00    -0.248 NA
ATOM     61  C   UNL     1      -8.928 -12.929   7.098  1.00  0.00     0.031 C 
ATOM     62  C   UNL     1     -13.389 -10.826   3.561  1.00  0.00     0.029 A 
ATOM     63  C   UNL     1     -12.140 -11.060   4.115  1.00  0.00     0.049 A 
ATOM     64  H   UNL     1     -10.283 -10.186   3.628  1.00  0.00     0.167 HD
ATOM     65  C   UNL     1     -10.543 -12.115   5.689  1.00  0.00     0.074 A 
ATOM     66  C   UNL     1     -10.211 -13.014   6.774  1.00  0.00     0.031 C 
ATOM     67  C   UNL     1     -11.791 -11.961   5.183  1.00  0.00     0.031 A 
BRANCH  54  68
ATOM     68  C   UNL     1     -12.152  -7.876   0.559  1.00  0.00    -0.014 A 
ATOM     69  C   UNL     1     -12.081  -8.194  -0.809  1.00  0.00     0.010 A 
ATOM     70  C   UNL     1     -13.074  -6.905   0.990  1.00  0.00     0.010 A 
ATOM     71  C   UNL     1     -12.889  -7.528  -1.734  1.00  0.00     0.020 A 
ATOM     72  C   UNL     1     -13.904  -6.256   0.071  1.00  0.00     0.020 A 
ATOM     73  C   UNL     1     -13.794  -6.561  -1.288  1.00  0.00     0.054 A 
BRANCH  73  74
ATOM     74  S   UNL     1     -14.852  -5.733  -2.507  1.00  0.00     0.124 S 
ATOM     75  O   UNL     1     -13.910  -4.824  -3.155  1.00  0.00    -0.237 OA
ATOM     76  O   UNL     1     -15.321  -6.844  -3.333  1.00  0.00    -0.237 OA
ATOM     77  O   UNL     1     -15.880  -5.089  -1.693  1.00  0.00    -0.744 OA
ENDBRANCH  73  74
ENDBRANCH  54  68
BRANCH  55  78
ATOM     78  C   UNL     1      -6.065 -12.342   7.103  1.00  0.00    -0.014 A 
ATOM     79  C   UNL     1      -5.793 -13.718   7.003  1.00  0.00     0.010 A 
ATOM     80  C   UNL     1      -5.497 -11.608   8.161  1.00  0.00     0.010 A 
ATOM     81  C   UNL     1      -4.999 -14.356   7.960  1.00  0.00     0.020 A 
ATOM     82  C   UNL     1      -4.680 -12.238   9.105  1.00  0.00     0.020 A 
ATOM     83  C   UNL     1      -4.450 -13.612   9.008  1.00  0.00     0.054 A 
BRANCH  83  84
ATOM     84  S   UNL     1      -3.400 -14.453  10.226  1.00  0.00     0.124 S 
ATOM     85  O   UNL     1      -4.386 -15.148  11.047  1.00  0.00    -0.237 OA
ATOM     86  O   UNL     1      -2.560 -15.306   9.387  1.00  0.00    -0.237 OA
ATOM     87  O   UNL     1      -2.697 -13.355  10.885  1.00  0.00    -0.744 OA
ENDBRANCH  83  84
ENDBRANCH  55  78
BRANCH  67  88
ATOM     88  C   UNL     1     -12.883 -12.821   5.758  1.00  0.00    -0.014 A 
ATOM     89  C   UNL     1     -13.417 -12.568   7.033  1.00  0.00     0.010 A 
ATOM     90  C   UNL     1     -13.417 -13.867   4.984  1.00  0.00     0.010 A 
ATOM     91  C   UNL     1     -14.447 -13.367   7.537  1.00  0.00     0.020 A 
ATOM     92  C   UNL     1     -14.463 -14.652   5.474  1.00  0.00     0.020 A 
ATOM     93  C   UNL     1     -14.962 -14.405   6.754  1.00  0.00     0.054 A 
BRANCH  93  94
ATOM     94  S   UNL     1     -16.328 -15.402   7.411  1.00  0.00     0.124 S 
ATOM     95  O   UNL     1     -15.642 -16.265   8.368  1.00  0.00    -0.237 OA
ATOM     96  O   UNL     1     -17.212 -14.394   7.993  1.00  0.00    -0.237 OA
ATOM     97  O   UNL     1     -16.860 -16.080   6.231  1.00  0.00    -0.744 OA
ENDBRANCH  93  94
ENDBRANCH  67  88
ENDBRANCH  41  42
ENDBRANCH  33  36
ENDBRANCH  31  32
ENDBRANCH  30  31
ENDBRANCH  29  30
ENDBRANCH   1  29
TORSDOF 19
