REMARK SMILES O=C(NCCCCNC(=O)[C@H](c1c[nH]c2cc(F)ccc12)[NH+]1CC[NH+](CC(=O)N2CCOCC2)CC1)c1ccc(-c2c3nc(c(-c4ccc(S(=O)(=O)[O-])cc4)c4ccc([nH]4)c(-c4ccc(S(=O)(=O)[O-])cc4)c4nc(c(-c5ccc(S(=O)(=O)[O-])cc5)c5ccc2[nH]5)C=C4)C=C3)cc1
REMARK SMILES IDX 5 1 4 2 3 3 1 4 2 5 37 7 38 8 96 9 39 10 95 11 40 12 41 13
REMARK SMILES IDX 42 14 89 15 43 16 94 17 88 18 90 19 44 20 93 21 87 22 86 23
REMARK SMILES IDX 45 25 75 26 56 27 74 28 57 29 60 30 73 31 91 32 58 33 59 34
REMARK SMILES IDX 72 36 92 37 61 38 46 39 47 40 55 41 48 42 54 43 49 44 50 45
REMARK SMILES IDX 51 46 52 47 53 48 76 49 77 50 85 51 78 52 84 53 79 54 80 55
REMARK SMILES IDX 81 56 82 57 83 58 62 59 63 60 71 61 64 62 70 63 65 64 66 65
REMARK SMILES IDX 67 66 68 67 69 68 6 69 7 70 8 71 9 72 10 74 11 75 22 76
REMARK SMILES IDX 23 77 36 78 24 80 35 81 25 82 26 84 27 85 28 86 29 87 30 88
REMARK SMILES IDX 34 89 31 90 33 91 32 92 12 93 13 94 21 95 14 96 15 97 20 98
REMARK SMILES IDX 16 100 19 101 17 102 18 103
REMARK H PARENT 3 6 90 24 60 35 8 73 22 79 25 83 14 99
REMARK Flexibility Score: inf
ROOT
ATOM      1  C   UNL     1       4.795   6.902  -8.804  1.00  0.00     0.023 C 
ENDROOT
BRANCH   1   2
ATOM      2  C   UNL     1       3.465   7.450  -8.289  1.00  0.00     0.116 C 
BRANCH   2   3
ATOM      3  N   UNL     1       3.359   8.905  -8.296  1.00  0.00    -0.352 N 
ATOM      4  O   UNL     1       2.585  10.956  -8.817  1.00  0.00    -0.269 OA
ATOM      5  C   UNL     1       2.484   9.739  -8.965  1.00  0.00     0.251 C 
ATOM      6  H   UNL     1       4.020   9.369  -7.732  1.00  0.00     0.163 HD
BRANCH   5   7
ATOM      7  C   UNL     1       1.476   9.188  -9.903  1.00  0.00     0.039 A 
ATOM      8  C   UNL     1       0.696   8.087  -9.557  1.00  0.00     0.014 A 
ATOM      9  C   UNL     1       1.340   9.758 -11.175  1.00  0.00     0.014 A 
ATOM     10  C   UNL     1      -0.028   7.421 -10.542  1.00  0.00     0.010 A 
ATOM     11  C   UNL     1       0.524   9.146 -12.137  1.00  0.00     0.010 A 
ATOM     12  C   UNL     1      -0.116   7.931 -11.850  1.00  0.00    -0.014 A 
BRANCH  12  13
ATOM     13  C   UNL     1      -0.891   7.173 -12.873  1.00  0.00     0.031 A 
ATOM     14  C   UNL     1      -0.225   6.593 -14.098  1.00  0.00     0.074 A 
ATOM     15  C   UNL     1      -2.199   6.934 -12.649  1.00  0.00     0.049 A 
ATOM     16  N   UNL     1      -0.744   5.840 -15.037  1.00  0.00    -0.248 NA
ATOM     17  C   UNL     1       1.201   6.897 -14.303  1.00  0.00     0.031 C 
ATOM     18  C   UNL     1      -2.966   7.449 -11.510  1.00  0.00     0.029 A 
ATOM     19  N   UNL     1      -3.107   6.170 -13.338  1.00  0.00    -0.354 N 
ATOM     20  C   UNL     1       0.280   5.593 -15.946  1.00  0.00     0.074 A 
ATOM     21  C   UNL     1       1.447   6.298 -15.462  1.00  0.00     0.031 C 
ATOM     22  C   UNL     1      -4.203   6.935 -11.543  1.00  0.00     0.029 A 
ATOM     23  C   UNL     1      -4.341   6.107 -12.735  1.00  0.00     0.049 A 
ATOM     24  H   UNL     1      -2.895   5.712 -14.183  1.00  0.00     0.167 HD
ATOM     25  C   UNL     1       0.255   4.842 -17.076  1.00  0.00     0.031 A 
ATOM     26  C   UNL     1      -5.468   5.466 -13.099  1.00  0.00     0.031 A 
ATOM     27  C   UNL     1      -0.906   4.135 -17.556  1.00  0.00     0.049 A 
ATOM     28  C   UNL     1      -5.467   4.643 -14.353  1.00  0.00     0.074 A 
ATOM     29  C   UNL     1      -1.026   3.343 -18.687  1.00  0.00     0.029 A 
ATOM     30  N   UNL     1      -2.145   4.126 -16.933  1.00  0.00    -0.354 N 
ATOM     31  N   UNL     1      -4.482   4.421 -15.190  1.00  0.00    -0.248 NA
ATOM     32  C   UNL     1      -6.729   3.983 -14.711  1.00  0.00     0.031 C 
ATOM     33  C   UNL     1      -2.348   2.889 -18.768  1.00  0.00     0.029 A 
ATOM     34  C   UNL     1      -3.037   3.356 -17.662  1.00  0.00     0.049 A 
ATOM     35  H   UNL     1      -2.359   4.598 -16.096  1.00  0.00     0.167 HD
ATOM     36  C   UNL     1      -5.007   3.596 -16.177  1.00  0.00     0.074 A 
ATOM     37  C   UNL     1      -6.383   3.328 -15.810  1.00  0.00     0.031 C 
ATOM     38  C   UNL     1      -4.408   3.115 -17.294  1.00  0.00     0.031 A 
BRANCH  25  39
ATOM     39  C   UNL     1       1.521   4.746 -17.890  1.00  0.00    -0.014 A 
ATOM     40  C   UNL     1       2.605   3.963 -17.455  1.00  0.00     0.010 A 
ATOM     41  C   UNL     1       1.597   5.379 -19.145  1.00  0.00     0.010 A 
ATOM     42  C   UNL     1       3.750   3.833 -18.248  1.00  0.00     0.020 A 
ATOM     43  C   UNL     1       2.731   5.234 -19.951  1.00  0.00     0.020 A 
ATOM     44  C   UNL     1       3.806   4.470 -19.492  1.00  0.00     0.054 A 
BRANCH  44  45
ATOM     45  S   UNL     1       5.286   4.249 -20.519  1.00  0.00     0.124 S 
ATOM     46  O   UNL     1       6.265   5.075 -19.816  1.00  0.00    -0.237 OA
ATOM     47  O   UNL     1       5.514   2.808 -20.448  1.00  0.00    -0.237 OA
ATOM     48  O   UNL     1       4.877   4.748 -21.830  1.00  0.00    -0.744 OA
ENDBRANCH  44  45
ENDBRANCH  25  39
BRANCH  26  49
ATOM     49  C   UNL     1      -6.698   5.611 -12.275  1.00  0.00    -0.014 A 
ATOM     50  C   UNL     1      -7.208   4.530 -11.537  1.00  0.00     0.010 A 
ATOM     51  C   UNL     1      -7.357   6.853 -12.216  1.00  0.00     0.010 A 
ATOM     52  C   UNL     1      -8.367   4.683 -10.770  1.00  0.00     0.020 A 
ATOM     53  C   UNL     1      -8.496   7.019 -11.426  1.00  0.00     0.020 A 
ATOM     54  C   UNL     1      -9.003   5.927 -10.720  1.00  0.00     0.054 A 
BRANCH  54  55
ATOM     55  S   UNL     1     -10.477   6.125  -9.681  1.00  0.00     0.124 S 
ATOM     56  O   UNL     1     -11.516   5.530 -10.516  1.00  0.00    -0.237 OA
ATOM     57  O   UNL     1     -10.124   5.375  -8.478  1.00  0.00    -0.237 OA
ATOM     58  O   UNL     1     -10.571   7.572  -9.498  1.00  0.00    -0.744 OA
ENDBRANCH  54  55
ENDBRANCH  26  49
BRANCH  38  59
ATOM     59  C   UNL     1      -5.247   2.247 -18.191  1.00  0.00    -0.014 A 
ATOM     60  C   UNL     1      -6.275   2.800 -18.977  1.00  0.00     0.010 A 
ATOM     61  C   UNL     1      -5.007   0.863 -18.248  1.00  0.00     0.010 A 
ATOM     62  C   UNL     1      -7.081   1.976 -19.765  1.00  0.00     0.020 A 
ATOM     63  C   UNL     1      -5.796   0.039 -19.056  1.00  0.00     0.020 A 
ATOM     64  C   UNL     1      -6.843   0.599 -19.792  1.00  0.00     0.054 A 
BRANCH  64  65
ATOM     65  S   UNL     1      -7.901  -0.452 -20.823  1.00  0.00     0.124 S 
ATOM     66  O   UNL     1      -9.116  -0.541 -20.018  1.00  0.00    -0.237 OA
ATOM     67  O   UNL     1      -8.020   0.320 -22.058  1.00  0.00    -0.237 OA
ATOM     68  O   UNL     1      -7.141  -1.694 -20.944  1.00  0.00    -0.744 OA
ENDBRANCH  64  65
ENDBRANCH  38  59
ENDBRANCH  12  13
ENDBRANCH   5   7
ENDBRANCH   2   3
ENDBRANCH   1   2
BRANCH   1  69
ATOM     69  C   UNL     1       6.038   7.150  -7.948  1.00  0.00     0.023 C 
BRANCH  69  70
ATOM     70  C   UNL     1       5.973   6.713  -6.487  1.00  0.00     0.116 C 
BRANCH  70  71
ATOM     71  N   UNL     1       5.745   5.303  -6.237  1.00  0.00    -0.351 N 
ATOM     72  C   UNL     1       5.942   4.543  -5.097  1.00  0.00     0.283 C 
ATOM     73  H   UNL     1       5.391   4.802  -7.007  1.00  0.00     0.163 HD
ATOM     74  O   UNL     1       5.404   3.429  -5.122  1.00  0.00    -0.268 OA
BRANCH  72  75
ATOM     75  C   UNL     1       6.790   5.068  -3.850  1.00  0.00     0.308 C 
BRANCH  75  76
ATOM     76  N   UNL     1       5.905   5.698  -2.821  1.00  0.00    -0.312 N 
ATOM     77  C   UNL     1       6.534   6.151  -1.550  1.00  0.00     0.325 C 
ATOM     78  C   UNL     1       5.156   6.829  -3.344  1.00  0.00     0.325 C 
ATOM     79  H   UNL     1       5.307   4.905  -2.589  1.00  0.00     0.349 HD
ATOM     80  C   UNL     1       7.010   7.645  -1.396  1.00  0.00     0.325 C 
ATOM     81  C   UNL     1       6.080   8.049  -3.568  1.00  0.00     0.325 C 
ATOM     82  N   UNL     1       6.491   8.664  -2.324  1.00  0.00    -0.318 N 
ATOM     83  H   UNL     1       7.288   9.273  -2.510  1.00  0.00     0.348 HD
BRANCH  82  84
ATOM     84  C   UNL     1       5.564   9.682  -1.794  1.00  0.00     0.364 C 
BRANCH  84  85
ATOM     85  C   UNL     1       4.131   9.219  -1.479  1.00  0.00     0.277 C 
ATOM     86  O   UNL     1       3.896   8.714  -0.375  1.00  0.00    -0.268 OA
ATOM     87  N   UNL     1       3.116   9.383  -2.433  1.00  0.00    -0.333 N 
ATOM     88  C   UNL     1       3.322   9.643  -3.867  1.00  0.00     0.148 C 
ATOM     89  C   UNL     1       1.797   8.827  -2.102  1.00  0.00     0.148 C 
ATOM     90  C   UNL     1       2.098  10.175  -4.614  1.00  0.00     0.181 C 
ATOM     91  C   UNL     1       0.662   9.452  -2.916  1.00  0.00     0.181 C 
ATOM     92  O   UNL     1       0.943   9.388  -4.319  1.00  0.00    -0.378 OA
ENDBRANCH  84  85
ENDBRANCH  82  84
ENDBRANCH  75  76
BRANCH  75  93
ATOM     93  C   UNL     1       7.506   3.891  -3.199  1.00  0.00     0.044 A 
ATOM     94  C   UNL     1       6.917   2.835  -2.521  1.00  0.00     0.094 A 
ATOM     95  C   UNL     1       8.925   3.691  -3.095  1.00  0.00     0.009 A 
ATOM     96  N   UNL     1       7.895   2.034  -2.010  1.00  0.00    -0.361 N 
ATOM     97  C   UNL     1       9.132   2.544  -2.321  1.00  0.00     0.049 A 
ATOM     98  C   UNL     1      10.056   4.398  -3.561  1.00  0.00     0.014 A 
ATOM     99  H   UNL     1       7.738   1.210  -1.494  1.00  0.00     0.166 HD
ATOM    100  C   UNL     1      10.407   2.082  -1.973  1.00  0.00     0.065 A 
ATOM    101  C   UNL     1      11.338   3.944  -3.228  1.00  0.00     0.040 A 
ATOM    102  C   UNL     1      11.497   2.811  -2.442  1.00  0.00     0.125 A 
ATOM    103  F   UNL     1      12.735   2.408  -2.121  1.00  0.00    -0.207 F 
ENDBRANCH  75  93
ENDBRANCH  72  75
ENDBRANCH  70  71
ENDBRANCH  69  70
ENDBRANCH   1  69
TORSDOF 18
