REMARK SMILES CC(C)(C)OC(=O)N[C@@H](CC(=O)NCCCCNC(=O)c1ccc(-c2c3nc(c(-c4ccc(S(=O)(=O)[O-])cc4)c4ccc([nH]4)c(-c4ccc(S(=O)(=O)[O-])cc4)c4nc(c(-c5ccc(S(=O)(=O)[O-])cc5)c5ccc2[nH]5)C=C4)C=C3)cc1)c1cccnc1
REMARK SMILES IDX 15 1 14 2 13 3 11 4 12 5 10 7 9 8 8 9 6 10 7 11 5 13 2 14
REMARK SMILES IDX 1 15 3 16 4 17 81 18 82 19 86 20 83 21 85 22 84 23 16 24
REMARK SMILES IDX 17 25 18 26 19 27 20 29 21 30 22 31 80 32 23 33 79 34 24 35
REMARK SMILES IDX 25 36 26 37 73 38 27 39 78 40 72 41 74 42 28 43 77 44 71 45
REMARK SMILES IDX 70 46 29 48 59 49 40 50 58 51 41 52 44 53 57 54 75 55 42 56
REMARK SMILES IDX 43 57 56 59 76 60 45 61 30 62 31 63 39 64 32 65 38 66 33 67
REMARK SMILES IDX 34 68 35 69 36 70 37 71 60 72 61 73 69 74 62 75 68 76 63 77
REMARK SMILES IDX 64 78 65 79 66 80 67 81 46 82 47 83 55 84 48 85 54 86 49 87
REMARK SMILES IDX 50 88 51 89 52 90 53 91
REMARK H PARENT 13 6 8 12 18 28 74 47 44 58
REMARK Flexibility Score: inf
ROOT
ATOM      1  C   UNL     1       0.346   6.835   1.136  1.00  0.00     0.023 C 
ENDROOT
BRANCH   1   2
ATOM      2  C   UNL     1       1.831   6.590   0.873  1.00  0.00     0.116 C 
BRANCH   2   3
ATOM      3  N   UNL     1       2.629   6.857   2.052  1.00  0.00    -0.356 N 
ATOM      4  C   UNL     1       3.243   5.989   2.901  1.00  0.00     0.222 C 
ATOM      5  O   UNL     1       3.906   6.464   3.826  1.00  0.00    -0.275 OA
ATOM      6  H   UNL     1       2.743   7.809   2.273  1.00  0.00     0.163 HD
BRANCH   4   7
ATOM      7  C   UNL     1       3.140   4.486   2.723  1.00  0.00     0.130 C 
BRANCH   7   8
ATOM      8  C   UNL     1       1.858   3.763   3.190  1.00  0.00     0.126 C 
BRANCH   8   9
ATOM      9  N   UNL     1       0.736   3.936   2.285  1.00  0.00    -0.314 N 
ATOM     10  C   UNL     1       0.392   3.276   1.153  1.00  0.00     0.408 C 
ATOM     11  O   UNL     1      -0.480   3.739   0.430  1.00  0.00    -0.225 OA
ATOM     12  H   UNL     1       0.117   4.658   2.538  1.00  0.00     0.167 HD
BRANCH  10  13
ATOM     13  O   UNL     1       1.045   2.109   0.958  1.00  0.00    -0.444 OA
BRANCH  13  14
ATOM     14  C   UNL     1       0.617   1.257  -0.144  1.00  0.00     0.106 C 
ATOM     15  C   UNL     1       1.278  -0.104   0.115  1.00  0.00     0.056 C 
ATOM     16  C   UNL     1       1.130   1.820  -1.474  1.00  0.00     0.056 C 
ATOM     17  C   UNL     1      -0.907   1.032  -0.178  1.00  0.00     0.056 C 
ENDBRANCH  13  14
ENDBRANCH  10  13
ENDBRANCH   8   9
BRANCH   8  18
ATOM     18  C   UNL     1       1.352   4.035   4.594  1.00  0.00    -0.007 A 
ATOM     19  C   UNL     1       0.924   2.966   5.394  1.00  0.00     0.009 A 
ATOM     20  C   UNL     1       1.106   5.313   5.094  1.00  0.00     0.116 A 
ATOM     21  C   UNL     1       0.294   3.205   6.613  1.00  0.00     0.020 A 
ATOM     22  N   UNL     1       0.500   5.574   6.277  1.00  0.00    -0.264 NA
ATOM     23  C   UNL     1       0.104   4.516   7.008  1.00  0.00     0.111 A 
ENDBRANCH   8  18
ENDBRANCH   7   8
ENDBRANCH   4   7
ENDBRANCH   2   3
ENDBRANCH   1   2
BRANCH   1  24
ATOM     24  C   UNL     1      -0.116   8.282   1.092  1.00  0.00     0.023 C 
BRANCH  24  25
ATOM     25  C   UNL     1       0.165   9.008  -0.209  1.00  0.00     0.116 C 
BRANCH  25  26
ATOM     26  N   UNL     1      -0.330   8.318  -1.394  1.00  0.00    -0.352 N 
ATOM     27  C   UNL     1      -0.965   8.853  -2.492  1.00  0.00     0.251 C 
ATOM     28  H   UNL     1      -0.193   7.343  -1.411  1.00  0.00     0.163 HD
ATOM     29  O   UNL     1      -1.385   8.128  -3.387  1.00  0.00    -0.269 OA
BRANCH  27  30
ATOM     30  C   UNL     1      -1.178  10.314  -2.547  1.00  0.00     0.039 A 
ATOM     31  C   UNL     1      -2.459  10.800  -2.813  1.00  0.00     0.014 A 
ATOM     32  C   UNL     1      -0.136  11.190  -2.235  1.00  0.00     0.014 A 
ATOM     33  C   UNL     1      -2.714  12.165  -2.676  1.00  0.00     0.010 A 
ATOM     34  C   UNL     1      -0.418  12.528  -1.994  1.00  0.00     0.010 A 
ATOM     35  C   UNL     1      -1.708  13.032  -2.215  1.00  0.00    -0.014 A 
BRANCH  35  36
ATOM     36  C   UNL     1      -1.982  14.468  -1.958  1.00  0.00     0.031 A 
ATOM     37  C   UNL     1      -1.228  15.522  -2.723  1.00  0.00     0.074 A 
ATOM     38  C   UNL     1      -2.853  14.821  -0.991  1.00  0.00     0.049 A 
ATOM     39  N   UNL     1      -1.283  16.823  -2.604  1.00  0.00    -0.248 NA
ATOM     40  C   UNL     1      -0.258  15.054  -3.728  1.00  0.00     0.031 C 
ATOM     41  C   UNL     1      -3.598  13.892  -0.135  1.00  0.00     0.029 A 
ATOM     42  N   UNL     1      -3.256  16.060  -0.559  1.00  0.00    -0.354 N 
ATOM     43  C   UNL     1      -0.345  17.324  -3.498  1.00  0.00     0.074 A 
ATOM     44  C   UNL     1       0.308  16.189  -4.110  1.00  0.00     0.031 C 
ATOM     45  C   UNL     1      -4.393  14.593   0.690  1.00  0.00     0.029 A 
ATOM     46  C   UNL     1      -4.188  16.018   0.452  1.00  0.00     0.049 A 
ATOM     47  H   UNL     1      -2.911  16.900  -0.938  1.00  0.00     0.167 HD
ATOM     48  C   UNL     1      -0.069  18.613  -3.805  1.00  0.00     0.031 A 
ATOM     49  C   UNL     1      -4.807  17.015   1.114  1.00  0.00     0.031 A 
ATOM     50  C   UNL     1      -0.742  19.739  -3.216  1.00  0.00     0.049 A 
ATOM     51  C   UNL     1      -4.500  18.439   0.740  1.00  0.00     0.074 A 
ATOM     52  C   UNL     1      -0.588  21.082  -3.510  1.00  0.00     0.029 A 
ATOM     53  N   UNL     1      -1.700  19.652  -2.218  1.00  0.00    -0.354 N 
ATOM     54  N   UNL     1      -3.665  18.890  -0.166  1.00  0.00    -0.248 NA
ATOM     55  C   UNL     1      -5.229  19.488   1.466  1.00  0.00     0.031 C 
ATOM     56  C   UNL     1      -1.420  21.812  -2.654  1.00  0.00     0.029 A 
ATOM     57  C   UNL     1      -2.132  20.920  -1.868  1.00  0.00     0.049 A 
ATOM     58  H   UNL     1      -2.025  18.814  -1.817  1.00  0.00     0.167 HD
ATOM     59  C   UNL     1      -3.788  20.275  -0.137  1.00  0.00     0.074 A 
ATOM     60  C   UNL     1      -4.789  20.585   0.864  1.00  0.00     0.031 C 
ATOM     61  C   UNL     1      -3.132  21.207  -0.871  1.00  0.00     0.031 A 
BRANCH  48  62
ATOM     62  C   UNL     1       1.001  18.871  -4.832  1.00  0.00    -0.014 A 
ATOM     63  C   UNL     1       0.799  18.552  -6.188  1.00  0.00     0.010 A 
ATOM     64  C   UNL     1       2.211  19.476  -4.445  1.00  0.00     0.010 A 
ATOM     65  C   UNL     1       1.801  18.795  -7.130  1.00  0.00     0.020 A 
ATOM     66  C   UNL     1       3.205  19.748  -5.390  1.00  0.00     0.020 A 
ATOM     67  C   UNL     1       2.999  19.391  -6.724  1.00  0.00     0.054 A 
BRANCH  67  68
ATOM     68  S   UNL     1       4.269  19.724  -7.975  1.00  0.00     0.124 S 
ATOM     69  O   UNL     1       4.778  18.383  -8.251  1.00  0.00    -0.237 OA
ATOM     70  O   UNL     1       3.502  20.338  -9.055  1.00  0.00    -0.237 OA
ATOM     71  O   UNL     1       5.203  20.616  -7.292  1.00  0.00    -0.744 OA
ENDBRANCH  67  68
ENDBRANCH  48  62
BRANCH  49  72
ATOM     72  C   UNL     1      -5.798  16.701   2.181  1.00  0.00    -0.014 A 
ATOM     73  C   UNL     1      -7.169  16.938   1.974  1.00  0.00     0.010 A 
ATOM     74  C   UNL     1      -5.378  16.158   3.409  1.00  0.00     0.010 A 
ATOM     75  C   UNL     1      -8.098  16.661   2.982  1.00  0.00     0.020 A 
ATOM     76  C   UNL     1      -6.307  15.853   4.409  1.00  0.00     0.020 A 
ATOM     77  C   UNL     1      -7.660  16.120   4.193  1.00  0.00     0.054 A 
BRANCH  77  78
ATOM     78  S   UNL     1      -8.887  15.728   5.472  1.00  0.00     0.124 S 
ATOM     79  O   UNL     1      -9.236  17.053   5.973  1.00  0.00    -0.237 OA
ATOM     80  O   UNL     1      -9.930  15.045   4.710  1.00  0.00    -0.237 OA
ATOM     81  O   UNL     1      -8.150  14.878   6.404  1.00  0.00    -0.744 OA
ENDBRANCH  77  78
ENDBRANCH  49  72
BRANCH  61  82
ATOM     82  C   UNL     1      -3.498  22.649  -0.647  1.00  0.00    -0.014 A 
ATOM     83  C   UNL     1      -3.109  23.326   0.521  1.00  0.00     0.010 A 
ATOM     84  C   UNL     1      -4.192  23.350  -1.650  1.00  0.00     0.010 A 
ATOM     85  C   UNL     1      -3.435  24.673   0.697  1.00  0.00     0.020 A 
ATOM     86  C   UNL     1      -4.495  24.704  -1.491  1.00  0.00     0.020 A 
ATOM     87  C   UNL     1      -4.127  25.353  -0.311  1.00  0.00     0.054 A 
BRANCH  87  88
ATOM     88  S   UNL     1      -4.500  27.113  -0.079  1.00  0.00     0.124 S 
ATOM     89  O   UNL     1      -5.587  27.067   0.895  1.00  0.00    -0.237 OA
ATOM     90  O   UNL     1      -3.233  27.647   0.417  1.00  0.00    -0.237 OA
ATOM     91  O   UNL     1      -4.879  27.566  -1.415  1.00  0.00    -0.744 OA
ENDBRANCH  87  88
ENDBRANCH  61  82
ENDBRANCH  35  36
ENDBRANCH  27  30
ENDBRANCH  25  26
ENDBRANCH  24  25
ENDBRANCH   1  24
TORSDOF 19
