REMARK SMILES CC1(C)[C@@]2(CC[C@@H]2C(=O)NCc2ccco2)[C@]1(C)C(=O)NCCCCNC(=O)c1ccc(-c2c3nc(c(-c4ccc(S(=O)(=O)[O-])cc4)c4ccc([nH]4)c(-c4ccc(S(=O)(=O)[O-])cc4)c4nc(c(-c5ccc(S(=O)(=O)[O-])cc5)c5ccc2[nH]5)C=C4)C=C3)cc1
REMARK SMILES IDX 23 1 22 2 21 3 19 4 20 5 17 7 1 8 2 9 3 10 4 11 18 12 5 13
REMARK SMILES IDX 7 14 6 15 8 16 9 17 10 18 11 20 12 21 13 22 16 23 14 24
REMARK SMILES IDX 15 25 24 26 25 27 26 28 27 29 28 31 29 32 30 33 88 34 31 35
REMARK SMILES IDX 87 36 32 37 33 38 34 39 81 40 35 41 86 42 80 43 82 44 36 45
REMARK SMILES IDX 85 46 79 47 78 48 37 50 67 51 48 52 66 53 49 54 52 55 65 56
REMARK SMILES IDX 83 57 50 58 51 59 64 61 84 62 53 63 38 64 39 65 47 66 40 67
REMARK SMILES IDX 46 68 41 69 42 70 43 71 44 72 45 73 68 74 69 75 77 76 70 77
REMARK SMILES IDX 76 78 71 79 72 80 73 81 74 82 75 83 54 84 55 85 63 86 56 87
REMARK SMILES IDX 62 88 57 89 58 90 59 91 60 92 61 93
REMARK H PARENT 21 6 10 19 26 30 82 49 52 60
REMARK Flexibility Score: inf
ROOT
ATOM      1  C   UNL     1      -2.313   2.626   1.717  1.00  0.00     0.023 C 
ENDROOT
BRANCH   1   2
ATOM      2  C   UNL     1      -1.506   1.383   1.350  1.00  0.00     0.116 C 
BRANCH   2   3
ATOM      3  N   UNL     1      -2.177   0.545   0.388  1.00  0.00    -0.356 N 
ATOM      4  C   UNL     1      -1.887   0.049  -0.849  1.00  0.00     0.227 C 
ATOM      5  O   UNL     1      -2.633  -0.880  -1.180  1.00  0.00    -0.274 OA
ATOM      6  H   UNL     1      -3.065   0.260   0.702  1.00  0.00     0.163 HD
BRANCH   4   7
ATOM      7  C   UNL     1      -0.826   0.480  -1.867  1.00  0.00     0.059 C 
ATOM      8  C   UNL     1       1.112   0.041  -0.139  1.00  0.00     0.013 C 
ATOM      9  C   UNL     1       0.693   0.439  -1.542  1.00  0.00    -0.013 C 
ATOM     10  C   UNL     1       1.677  -0.115  -2.559  1.00  0.00     0.013 C 
ATOM     11  C   UNL     1       0.012   1.768  -1.878  1.00  0.00     0.003 C 
ATOM     12  C   UNL     1      -1.218  -0.077  -3.259  1.00  0.00     0.023 C 
ATOM     13  C   UNL     1       0.136   2.554  -3.161  1.00  0.00     0.010 C 
ATOM     14  C   UNL     1      -0.093   3.027  -1.069  1.00  0.00     0.086 C 
ATOM     15  C   UNL     1      -0.213   3.803  -2.375  1.00  0.00     0.015 C 
BRANCH  14  16
ATOM     16  C   UNL     1       0.980   3.434  -0.024  1.00  0.00     0.224 C 
ATOM     17  O   UNL     1       0.676   3.714   1.148  1.00  0.00    -0.275 OA
ATOM     18  N   UNL     1       2.321   3.544  -0.280  1.00  0.00    -0.349 N 
ATOM     19  H   UNL     1       2.873   3.681   0.524  1.00  0.00     0.163 HD
BRANCH  18  20
ATOM     20  C   UNL     1       3.074   3.498  -1.507  1.00  0.00     0.191 C 
BRANCH  20  21
ATOM     21  C   UNL     1       3.248   4.874  -2.042  1.00  0.00     0.122 A 
ATOM     22  C   UNL     1       2.776   6.121  -1.676  1.00  0.00     0.047 A 
ATOM     23  O   UNL     1       4.045   4.991  -3.144  1.00  0.00    -0.467 OA
ATOM     24  C   UNL     1       3.305   7.043  -2.609  1.00  0.00     0.042 A 
ATOM     25  C   UNL     1       4.074   6.307  -3.478  1.00  0.00     0.195 A 
ENDBRANCH  20  21
ENDBRANCH  18  20
ENDBRANCH  14  16
ENDBRANCH   4   7
ENDBRANCH   2   3
ENDBRANCH   1   2
BRANCH   1  26
ATOM     26  C   UNL     1      -3.567   2.365   2.544  1.00  0.00     0.023 C 
BRANCH  26  27
ATOM     27  C   UNL     1      -3.353   1.560   3.817  1.00  0.00     0.116 C 
BRANCH  27  28
ATOM     28  N   UNL     1      -2.330   2.113   4.696  1.00  0.00    -0.352 N 
ATOM     29  C   UNL     1      -2.372   2.278   6.061  1.00  0.00     0.251 C 
ATOM     30  H   UNL     1      -1.501   2.408   4.254  1.00  0.00     0.163 HD
ATOM     31  O   UNL     1      -1.455   2.829   6.659  1.00  0.00    -0.269 OA
BRANCH  29  32
ATOM     32  C   UNL     1      -3.570   1.818   6.790  1.00  0.00     0.039 A 
ATOM     33  C   UNL     1      -4.266   2.728   7.588  1.00  0.00     0.014 A 
ATOM     34  C   UNL     1      -4.051   0.520   6.600  1.00  0.00     0.014 A 
ATOM     35  C   UNL     1      -5.503   2.365   8.124  1.00  0.00     0.010 A 
ATOM     36  C   UNL     1      -5.314   0.187   7.072  1.00  0.00     0.010 A 
ATOM     37  C   UNL     1      -6.057   1.109   7.828  1.00  0.00    -0.014 A 
BRANCH  37  38
ATOM     38  C   UNL     1      -7.420   0.729   8.276  1.00  0.00     0.031 A 
ATOM     39  C   UNL     1      -7.598  -0.443   9.198  1.00  0.00     0.074 A 
ATOM     40  C   UNL     1      -8.495   1.355   7.757  1.00  0.00     0.049 A 
ATOM     41  N   UNL     1      -8.700  -1.037   9.574  1.00  0.00    -0.248 NA
ATOM     42  C   UNL     1      -6.370  -1.053   9.734  1.00  0.00     0.031 C 
ATOM     43  C   UNL     1      -8.455   2.470   6.808  1.00  0.00     0.029 A 
ATOM     44  N   UNL     1      -9.836   1.120   7.934  1.00  0.00    -0.354 N 
ATOM     45  C   UNL     1      -8.298  -2.116  10.350  1.00  0.00     0.074 A 
ATOM     46  C   UNL     1      -6.851  -2.112  10.368  1.00  0.00     0.031 C 
ATOM     47  C   UNL     1      -9.711   2.824   6.491  1.00  0.00     0.029 A 
ATOM     48  C   UNL     1     -10.644   1.938   7.181  1.00  0.00     0.049 A 
ATOM     49  H   UNL     1     -10.186   0.430   8.543  1.00  0.00     0.167 HD
ATOM     50  C   UNL     1      -9.065  -3.026  10.997  1.00  0.00     0.031 A 
ATOM     51  C   UNL     1     -11.984   1.963   7.044  1.00  0.00     0.031 A 
ATOM     52  C   UNL     1     -10.502  -3.003  11.008  1.00  0.00     0.049 A 
ATOM     53  C   UNL     1     -12.819   0.979   7.813  1.00  0.00     0.074 A 
ATOM     54  C   UNL     1     -11.369  -3.824  11.706  1.00  0.00     0.029 A 
ATOM     55  N   UNL     1     -11.282  -2.111  10.288  1.00  0.00    -0.354 N 
ATOM     56  N   UNL     1     -12.425   0.011   8.605  1.00  0.00    -0.248 NA
ATOM     57  C   UNL     1     -14.278   1.094   7.679  1.00  0.00     0.031 C 
ATOM     58  C   UNL     1     -12.678  -3.449  11.381  1.00  0.00     0.029 A 
ATOM     59  C   UNL     1     -12.623  -2.370  10.512  1.00  0.00     0.049 A 
ATOM     60  H   UNL     1     -10.934  -1.399   9.704  1.00  0.00     0.167 HD
ATOM     61  C   UNL     1     -13.586  -0.587   9.080  1.00  0.00     0.074 A 
ATOM     62  C   UNL     1     -14.698   0.133   8.493  1.00  0.00     0.031 C 
ATOM     63  C   UNL     1     -13.716  -1.637   9.927  1.00  0.00     0.031 A 
BRANCH  50  64
ATOM     64  C   UNL     1      -8.353  -4.127  11.734  1.00  0.00    -0.014 A 
ATOM     65  C   UNL     1      -7.637  -3.867  12.916  1.00  0.00     0.010 A 
ATOM     66  C   UNL     1      -8.399  -5.440  11.234  1.00  0.00     0.010 A 
ATOM     67  C   UNL     1      -6.931  -4.891  13.553  1.00  0.00     0.020 A 
ATOM     68  C   UNL     1      -7.717  -6.472  11.883  1.00  0.00     0.020 A 
ATOM     69  C   UNL     1      -6.966  -6.185  13.026  1.00  0.00     0.054 A 
BRANCH  69  70
ATOM     70  S   UNL     1      -6.034  -7.496  13.863  1.00  0.00     0.124 S 
ATOM     71  O   UNL     1      -4.670  -7.228  13.414  1.00  0.00    -0.237 OA
ATOM     72  O   UNL     1      -6.293  -7.227  15.276  1.00  0.00    -0.237 OA
ATOM     73  O   UNL     1      -6.630  -8.726  13.348  1.00  0.00    -0.744 OA
ENDBRANCH  69  70
ENDBRANCH  50  64
BRANCH  51  74
ATOM     74  C   UNL     1     -12.610   2.970   6.146  1.00  0.00    -0.014 A 
ATOM     75  C   UNL     1     -13.247   4.102   6.682  1.00  0.00     0.010 A 
ATOM     76  C   UNL     1     -12.525   2.828   4.749  1.00  0.00     0.010 A 
ATOM     77  C   UNL     1     -13.790   5.075   5.838  1.00  0.00     0.020 A 
ATOM     78  C   UNL     1     -13.048   3.809   3.901  1.00  0.00     0.020 A 
ATOM     79  C   UNL     1     -13.682   4.925   4.452  1.00  0.00     0.054 A 
BRANCH  79  80
ATOM     80  S   UNL     1     -14.316   6.242   3.375  1.00  0.00     0.124 S 
ATOM     81  O   UNL     1     -15.754   5.995   3.407  1.00  0.00    -0.237 OA
ATOM     82  O   UNL     1     -13.867   7.454   4.056  1.00  0.00    -0.237 OA
ATOM     83  O   UNL     1     -13.662   5.979   2.095  1.00  0.00    -0.744 OA
ENDBRANCH  79  80
ENDBRANCH  51  74
BRANCH  63  84
ATOM     84  C   UNL     1     -15.108  -2.061  10.303  1.00  0.00    -0.014 A 
ATOM     85  C   UNL     1     -15.895  -2.821   9.422  1.00  0.00     0.010 A 
ATOM     86  C   UNL     1     -15.592  -1.779  11.594  1.00  0.00     0.010 A 
ATOM     87  C   UNL     1     -17.148  -3.291   9.825  1.00  0.00     0.020 A 
ATOM     88  C   UNL     1     -16.836  -2.263  12.006  1.00  0.00     0.020 A 
ATOM     89  C   UNL     1     -17.609  -3.012  11.116  1.00  0.00     0.054 A 
BRANCH  89  90
ATOM     90  S   UNL     1     -19.200  -3.703  11.647  1.00  0.00     0.124 S 
ATOM     91  O   UNL     1     -20.152  -2.820  10.980  1.00  0.00    -0.237 OA
ATOM     92  O   UNL     1     -19.146  -5.070  11.135  1.00  0.00    -0.237 OA
ATOM     93  O   UNL     1     -19.157  -3.589  13.103  1.00  0.00    -0.744 OA
ENDBRANCH  89  90
ENDBRANCH  63  84
ENDBRANCH  37  38
ENDBRANCH  29  32
ENDBRANCH  27  28
ENDBRANCH  26  27
ENDBRANCH   1  26
TORSDOF 17
