REMARK SMILES O=C(C[C@H]1CN(C(=O)c2sccc2Br)CCO1)NCCCCNC(=O)c1ccc(-c2c3nc(c(-c4ccc(S(=O)(=O)[O-])cc4)c4ccc([nH]4)c(-c4ccc(S(=O)(=O)[O-])cc4)c4nc(c(-c5ccc(S(=O)(=O)[O-])cc5)c5ccc2[nH]5)C=C4)C=C3)cc1
REMARK SMILES IDX 20 1 19 2 18 3 1 4 2 5 3 7 4 8 5 9 17 10 6 11 16 12 15 13
REMARK SMILES IDX 7 14 8 15 9 16 10 17 13 18 11 19 12 20 14 21 21 22 22 23
REMARK SMILES IDX 23 24 24 25 25 27 26 28 27 29 85 30 28 31 84 32 29 33 30 34
REMARK SMILES IDX 31 35 78 36 32 37 83 38 77 39 79 40 33 41 82 42 76 43 75 44
REMARK SMILES IDX 34 46 64 47 45 48 63 49 46 50 49 51 62 52 80 53 47 54 48 55
REMARK SMILES IDX 61 57 81 58 50 59 35 60 36 61 44 62 37 63 43 64 38 65 39 66
REMARK SMILES IDX 40 67 41 68 42 69 65 70 66 71 74 72 67 73 73 74 68 75 69 76
REMARK SMILES IDX 70 77 71 78 72 79 51 80 52 81 60 82 53 83 59 84 54 85 55 86
REMARK SMILES IDX 56 87 57 88 58 89
REMARK H PARENT 18 6 23 26 79 45 49 56
REMARK Flexibility Score: inf
ROOT
ATOM      1  C   UNL     1       3.929   3.048  -3.623  1.00  0.00     0.023 C 
ENDROOT
BRANCH   1   2
ATOM      2  C   UNL     1       4.935   1.937  -3.332  1.00  0.00     0.116 C 
BRANCH   2   3
ATOM      3  N   UNL     1       4.390   0.873  -2.516  1.00  0.00    -0.356 N 
ATOM      4  O   UNL     1       3.349  -0.164  -4.260  1.00  0.00    -0.275 OA
ATOM      5  C   UNL     1       3.672  -0.151  -3.073  1.00  0.00     0.222 C 
ATOM      6  H   UNL     1       4.538   0.886  -1.543  1.00  0.00     0.163 HD
BRANCH   5   7
ATOM      7  C   UNL     1       3.237  -1.270  -2.151  1.00  0.00     0.133 C 
BRANCH   7   8
ATOM      8  C   UNL     1       4.111  -1.679  -0.956  1.00  0.00     0.147 C 
ATOM      9  C   UNL     1       4.090  -3.218  -0.741  1.00  0.00     0.152 C 
ATOM     10  O   UNL     1       5.464  -1.188  -1.005  1.00  0.00    -0.374 OA
ATOM     11  N   UNL     1       4.929  -3.878  -1.748  1.00  0.00    -0.333 N 
ATOM     12  C   UNL     1       6.278  -1.844  -1.995  1.00  0.00     0.182 C 
ATOM     13  C   UNL     1       6.292  -3.358  -1.806  1.00  0.00     0.148 C 
BRANCH  11  14
ATOM     14  C   UNL     1       4.514  -4.837  -2.671  1.00  0.00     0.265 C 
ATOM     15  O   UNL     1       5.208  -5.119  -3.650  1.00  0.00    -0.268 OA
BRANCH  14  16
ATOM     16  C   UNL     1       3.275  -5.535  -2.408  1.00  0.00     0.106 A 
ATOM     17  S   UNL     1       3.327  -6.890  -1.354  1.00  0.00    -0.137 S 
ATOM     18  C   UNL     1       2.021  -5.381  -2.952  1.00  0.00     0.041 A 
ATOM     19  C   UNL     1       1.675  -7.244  -1.623  1.00  0.00     0.067 A 
ATOM     20  C   UNL     1       1.085  -6.341  -2.480  1.00  0.00     0.028 A 
ATOM     21  Br  UNL     1       1.490  -4.085  -4.216  1.00  0.00    -0.049 Br
ENDBRANCH  14  16
ENDBRANCH  11  14
ENDBRANCH   7   8
ENDBRANCH   5   7
ENDBRANCH   2   3
ENDBRANCH   1   2
BRANCH   1  22
ATOM     22  C   UNL     1       3.369   3.749  -2.384  1.00  0.00     0.023 C 
BRANCH  22  23
ATOM     23  C   UNL     1       4.407   4.267  -1.395  1.00  0.00     0.116 C 
BRANCH  23  24
ATOM     24  N   UNL     1       5.321   5.236  -1.979  1.00  0.00    -0.352 N 
ATOM     25  C   UNL     1       5.742   6.443  -1.477  1.00  0.00     0.251 C 
ATOM     26  H   UNL     1       5.689   4.992  -2.859  1.00  0.00     0.163 HD
ATOM     27  O   UNL     1       6.432   7.187  -2.169  1.00  0.00    -0.269 OA
BRANCH  25  28
ATOM     28  C   UNL     1       5.337   6.862  -0.117  1.00  0.00     0.039 A 
ATOM     29  C   UNL     1       4.843   8.156   0.069  1.00  0.00     0.014 A 
ATOM     30  C   UNL     1       5.433   5.986   0.968  1.00  0.00     0.014 A 
ATOM     31  C   UNL     1       4.378   8.548   1.327  1.00  0.00     0.010 A 
ATOM     32  C   UNL     1       4.910   6.356   2.206  1.00  0.00     0.010 A 
ATOM     33  C   UNL     1       4.374   7.639   2.398  1.00  0.00    -0.014 A 
BRANCH  33  34
ATOM     34  C   UNL     1       3.801   8.006   3.719  1.00  0.00     0.031 A 
ATOM     35  C   UNL     1       4.682   8.076   4.936  1.00  0.00     0.074 A 
ATOM     36  C   UNL     1       2.473   8.212   3.836  1.00  0.00     0.049 A 
ATOM     37  N   UNL     1       4.351   8.309   6.181  1.00  0.00    -0.248 NA
ATOM     38  C   UNL     1       6.118   7.829   4.733  1.00  0.00     0.031 C 
ATOM     39  C   UNL     1       1.502   8.135   2.742  1.00  0.00     0.029 A 
ATOM     40  N   UNL     1       1.709   8.519   4.935  1.00  0.00    -0.354 N 
ATOM     41  C   UNL     1       5.531   8.220   6.910  1.00  0.00     0.074 A 
ATOM     42  C   UNL     1       6.578   7.869   5.975  1.00  0.00     0.031 C 
ATOM     43  C   UNL     1       0.277   8.406   3.220  1.00  0.00     0.029 A 
ATOM     44  C   UNL     1       0.367   8.640   4.658  1.00  0.00     0.049 A 
ATOM     45  H   UNL     1       2.086   8.640   5.836  1.00  0.00     0.167 HD
ATOM     46  C   UNL     1       5.730   8.428   8.234  1.00  0.00     0.031 A 
ATOM     47  C   UNL     1      -0.676   8.903   5.469  1.00  0.00     0.031 A 
ATOM     48  C   UNL     1       4.691   8.792   9.161  1.00  0.00     0.049 A 
ATOM     49  C   UNL     1      -0.430   9.132   6.935  1.00  0.00     0.074 A 
ATOM     50  C   UNL     1       4.804   9.076  10.511  1.00  0.00     0.029 A 
ATOM     51  N   UNL     1       3.350   8.925   8.836  1.00  0.00    -0.354 N 
ATOM     52  N   UNL     1       0.703   9.098   7.595  1.00  0.00    -0.248 NA
ATOM     53  C   UNL     1      -1.603   9.446   7.764  1.00  0.00     0.031 C 
ATOM     54  C   UNL     1       3.525   9.340  11.012  1.00  0.00     0.029 A 
ATOM     55  C   UNL     1       2.623   9.270   9.963  1.00  0.00     0.049 A 
ATOM     56  H   UNL     1       2.971   8.795   7.937  1.00  0.00     0.167 HD
ATOM     57  C   UNL     1       0.383   9.411   8.911  1.00  0.00     0.074 A 
ATOM     58  C   UNL     1      -1.046   9.643   8.951  1.00  0.00     0.031 C 
ATOM     59  C   UNL     1       1.200   9.499   9.989  1.00  0.00     0.031 A 
BRANCH  46  60
ATOM     60  C   UNL     1       7.131   8.265   8.759  1.00  0.00    -0.014 A 
ATOM     61  C   UNL     1       8.134   9.201   8.450  1.00  0.00     0.010 A 
ATOM     62  C   UNL     1       7.441   7.184   9.604  1.00  0.00     0.010 A 
ATOM     63  C   UNL     1       9.432   9.037   8.941  1.00  0.00     0.020 A 
ATOM     64  C   UNL     1       8.731   7.030  10.119  1.00  0.00     0.020 A 
ATOM     65  C   UNL     1       9.723   7.949   9.769  1.00  0.00     0.054 A 
BRANCH  65  66
ATOM     66  S   UNL     1      11.412   7.768  10.407  1.00  0.00     0.124 S 
ATOM     67  O   UNL     1      12.131   7.300   9.225  1.00  0.00    -0.237 OA
ATOM     68  O   UNL     1      11.737   9.123  10.844  1.00  0.00    -0.237 OA
ATOM     69  O   UNL     1      11.274   6.787  11.480  1.00  0.00    -0.744 OA
ENDBRANCH  65  66
ENDBRANCH  46  60
BRANCH  47  70
ATOM     70  C   UNL     1      -2.052   8.976   4.908  1.00  0.00    -0.014 A 
ATOM     71  C   UNL     1      -2.710  10.213   4.791  1.00  0.00     0.010 A 
ATOM     72  C   UNL     1      -2.708   7.808   4.478  1.00  0.00     0.010 A 
ATOM     73  C   UNL     1      -4.006  10.279   4.272  1.00  0.00     0.020 A 
ATOM     74  C   UNL     1      -3.994   7.874   3.934  1.00  0.00     0.020 A 
ATOM     75  C   UNL     1      -4.640   9.109   3.846  1.00  0.00     0.054 A 
BRANCH  75  76
ATOM     76  S   UNL     1      -6.303   9.223   3.128  1.00  0.00     0.124 S 
ATOM     77  O   UNL     1      -7.131   9.420   4.314  1.00  0.00    -0.237 OA
ATOM     78  O   UNL     1      -6.186  10.375   2.238  1.00  0.00    -0.237 OA
ATOM     79  O   UNL     1      -6.470   7.938   2.452  1.00  0.00    -0.744 OA
ENDBRANCH  75  76
ENDBRANCH  47  70
BRANCH  59  80
ATOM     80  C   UNL     1       0.577   9.893  11.300  1.00  0.00    -0.014 A 
ATOM     81  C   UNL     1      -0.219   8.992  12.028  1.00  0.00     0.010 A 
ATOM     82  C   UNL     1       0.838  11.167  11.837  1.00  0.00     0.010 A 
ATOM     83  C   UNL     1      -0.767   9.368  13.257  1.00  0.00     0.020 A 
ATOM     84  C   UNL     1       0.312  11.538  13.077  1.00  0.00     0.020 A 
ATOM     85  C   UNL     1      -0.499  10.640  13.773  1.00  0.00     0.054 A 
BRANCH  85  86
ATOM     86  S   UNL     1      -1.183  11.089  15.392  1.00  0.00     0.124 S 
ATOM     87  O   UNL     1      -2.585  11.342  15.069  1.00  0.00    -0.237 OA
ATOM     88  O   UNL     1      -0.928   9.894  16.193  1.00  0.00    -0.237 OA
ATOM     89  O   UNL     1      -0.410  12.267  15.780  1.00  0.00    -0.744 OA
ENDBRANCH  85  86
ENDBRANCH  59  80
ENDBRANCH  33  34
ENDBRANCH  25  28
ENDBRANCH  23  24
ENDBRANCH  22  23
ENDBRANCH   1  22
TORSDOF 17
