REMARK SMILES CCOC(=O)c1ccc(NC(=O)[C@H]2CC=CC[C@@]2(C)C(=O)NCCCCNC(=O)c2ccc(-c3c4nc(c(-c5ccc(S(=O)(=O)[O-])cc5)c5ccc([nH]5)c(-c5ccc(S(=O)(=O)[O-])cc5)c5nc(c(-c6ccc(S(=O)(=O)[O-])cc6)c6ccc3[nH]6)C=C5)C=C4)cc2)cc1
REMARK SMILES IDX 23 1 22 2 20 3 21 4 18 6 13 7 14 8 15 9 17 10 19 11 16 12
REMARK SMILES IDX 11 13 10 14 12 16 9 17 6 18 7 19 91 20 8 21 90 22 4 23 5 24
REMARK SMILES IDX 3 25 2 26 1 27 24 28 25 29 26 30 27 31 28 32 29 34 30 35
REMARK SMILES IDX 31 36 89 37 32 38 88 39 33 40 34 41 35 42 82 43 36 44 87 45
REMARK SMILES IDX 81 46 83 47 37 48 86 49 80 50 79 51 38 53 68 54 49 55 67 56
REMARK SMILES IDX 50 57 53 58 66 59 84 60 51 61 52 62 65 64 85 65 54 66 39 67
REMARK SMILES IDX 40 68 48 69 41 70 47 71 42 72 43 73 44 74 45 75 46 76 69 77
REMARK SMILES IDX 70 78 78 79 71 80 77 81 72 82 73 83 74 84 75 85 76 86 55 87
REMARK SMILES IDX 56 88 64 89 57 90 63 91 58 92 59 93 60 94 61 95 62 96
REMARK H PARENT 22 5 10 15 27 33 83 52 53 63
REMARK Flexibility Score: inf
ROOT
ATOM      1  C   UNL     1       5.786   8.755   4.167  1.00  0.00     0.116 C 
ENDROOT
BRANCH   1   2
ATOM      2  N   UNL     1       4.782   8.596   3.134  1.00  0.00    -0.356 N 
ATOM      3  C   UNL     1       4.701   7.742   2.075  1.00  0.00     0.227 C 
ATOM      4  O   UNL     1       3.601   7.709   1.512  1.00  0.00    -0.274 OA
ATOM      5  H   UNL     1       4.022   9.218   3.210  1.00  0.00     0.163 HD
BRANCH   3   6
ATOM      6  C   UNL     1       5.903   6.920   1.528  1.00  0.00     0.062 C 
ATOM      7  C   UNL     1       6.577   5.938   2.554  1.00  0.00     0.098 C 
ATOM      8  C   UNL     1       7.152   4.597   2.054  1.00  0.00     0.041 C 
ATOM      9  C   UNL     1       6.974   4.283   0.606  1.00  0.00    -0.030 C 
ATOM     10  C   UNL     1       5.426   6.204   0.213  1.00  0.00     0.044 C 
ATOM     11  C   UNL     1       6.963   7.955   1.037  1.00  0.00     0.023 C 
ATOM     12  C   UNL     1       6.210   5.002  -0.220  1.00  0.00    -0.030 C 
BRANCH   7  13
ATOM     13  C   UNL     1       5.999   5.770   3.961  1.00  0.00     0.228 C 
ATOM     14  N   UNL     1       4.797   5.278   4.333  1.00  0.00    -0.326 N 
ATOM     15  H   UNL     1       4.539   5.575   5.236  1.00  0.00     0.169 HD
ATOM     16  O   UNL     1       6.728   6.103   4.914  1.00  0.00    -0.274 OA
BRANCH  14  17
ATOM     17  C   UNL     1       3.828   4.452   3.756  1.00  0.00     0.041 A 
ATOM     18  C   UNL     1       2.189   2.351   2.936  1.00  0.00     0.060 A 
ATOM     19  C   UNL     1       3.059   2.941   2.031  1.00  0.00     0.018 A 
ATOM     20  C   UNL     1       2.039   2.863   4.218  1.00  0.00     0.018 A 
ATOM     21  C   UNL     1       3.869   3.994   2.451  1.00  0.00     0.027 A 
ATOM     22  C   UNL     1       2.850   3.931   4.620  1.00  0.00     0.027 A 
BRANCH  18  23
ATOM     23  C   UNL     1       1.628   1.048   2.581  1.00  0.00     0.338 C 
ATOM     24  O   UNL     1       2.236   0.000   2.765  1.00  0.00    -0.246 OA
BRANCH  23  25
ATOM     25  O   UNL     1       0.457   1.218   1.926  1.00  0.00    -0.462 OA
BRANCH  25  26
ATOM     26  C   UNL     1      -0.046   0.027   1.318  1.00  0.00     0.230 C 
ATOM     27  C   UNL     1       0.554  -0.121  -0.070  1.00  0.00     0.049 C 
ENDBRANCH  25  26
ENDBRANCH  23  25
ENDBRANCH  18  23
ENDBRANCH  14  17
ENDBRANCH   7  13
ENDBRANCH   3   6
ENDBRANCH   1   2
BRANCH   1  28
ATOM     28  C   UNL     1       5.955  10.177   4.680  1.00  0.00     0.023 C 
BRANCH  28  29
ATOM     29  C   UNL     1       4.830  10.691   5.579  1.00  0.00     0.023 C 
BRANCH  29  30
ATOM     30  C   UNL     1       4.395   9.786   6.732  1.00  0.00     0.116 C 
BRANCH  30  31
ATOM     31  N   UNL     1       5.476   9.353   7.610  1.00  0.00    -0.352 N 
ATOM     32  C   UNL     1       5.489   9.297   8.988  1.00  0.00     0.251 C 
ATOM     33  H   UNL     1       6.303   9.063   7.161  1.00  0.00     0.163 HD
ATOM     34  O   UNL     1       6.492   8.939   9.595  1.00  0.00    -0.269 OA
BRANCH  32  35
ATOM     35  C   UNL     1       4.284   9.723   9.728  1.00  0.00     0.039 A 
ATOM     36  C   UNL     1       4.389  10.772  10.645  1.00  0.00     0.014 A 
ATOM     37  C   UNL     1       3.042   9.154   9.437  1.00  0.00     0.014 A 
ATOM     38  C   UNL     1       3.229  11.325  11.192  1.00  0.00     0.010 A 
ATOM     39  C   UNL     1       1.886   9.748   9.933  1.00  0.00     0.010 A 
ATOM     40  C   UNL     1       1.966  10.855  10.796  1.00  0.00    -0.014 A 
BRANCH  40  41
ATOM     41  C   UNL     1       0.711  11.519  11.233  1.00  0.00     0.031 A 
ATOM     42  C   UNL     1      -0.288  10.761  12.061  1.00  0.00     0.074 A 
ATOM     43  C   UNL     1       0.421  12.761  10.795  1.00  0.00     0.049 A 
ATOM     44  N   UNL     1      -1.499  11.107  12.414  1.00  0.00    -0.248 NA
ATOM     45  C   UNL     1       0.117   9.425  12.526  1.00  0.00     0.031 C 
ATOM     46  C   UNL     1       1.288  13.590   9.952  1.00  0.00     0.029 A 
ATOM     47  N   UNL     1      -0.696  13.538  10.982  1.00  0.00    -0.354 N 
ATOM     48  C   UNL     1      -2.013  10.021  13.111  1.00  0.00     0.074 A 
ATOM     49  C   UNL     1      -0.995   8.992  13.102  1.00  0.00     0.031 C 
ATOM     50  C   UNL     1       0.677  14.761   9.709  1.00  0.00     0.029 A 
ATOM     51  C   UNL     1      -0.639  14.754  10.340  1.00  0.00     0.049 A 
ATOM     52  H   UNL     1      -1.465  13.252  11.525  1.00  0.00     0.167 HD
ATOM     53  C   UNL     1      -3.218   9.895  13.716  1.00  0.00     0.031 A 
ATOM     54  C   UNL     1      -1.548  15.746  10.256  1.00  0.00     0.031 A 
ATOM     55  C   UNL     1      -4.217  10.929  13.748  1.00  0.00     0.049 A 
ATOM     56  C   UNL     1      -2.872  15.592  10.954  1.00  0.00     0.074 A 
ATOM     57  C   UNL     1      -5.447  10.917  14.383  1.00  0.00     0.029 A 
ATOM     58  N   UNL     1      -4.098  12.162  13.126  1.00  0.00    -0.354 N 
ATOM     59  N   UNL     1      -3.320  14.575  11.650  1.00  0.00    -0.248 NA
ATOM     60  C   UNL     1      -3.809  16.722  10.863  1.00  0.00     0.031 C 
ATOM     61  C   UNL     1      -6.086  12.132  14.117  1.00  0.00     0.029 A 
ATOM     62  C   UNL     1      -5.236  12.917  13.355  1.00  0.00     0.049 A 
ATOM     63  H   UNL     1      -3.321  12.457  12.600  1.00  0.00     0.167 HD
ATOM     64  C   UNL     1      -4.577  14.955  12.107  1.00  0.00     0.074 A 
ATOM     65  C   UNL     1      -4.818  16.295  11.611  1.00  0.00     0.031 C 
ATOM     66  C   UNL     1      -5.451  14.257  12.871  1.00  0.00     0.031 A 
BRANCH  53  67
ATOM     67  C   UNL     1      -3.520   8.584  14.389  1.00  0.00    -0.014 A 
ATOM     68  C   UNL     1      -2.868   8.213  15.579  1.00  0.00     0.010 A 
ATOM     69  C   UNL     1      -4.483   7.720  13.838  1.00  0.00     0.010 A 
ATOM     70  C   UNL     1      -3.136   6.980  16.177  1.00  0.00     0.020 A 
ATOM     71  C   UNL     1      -4.774   6.497  14.448  1.00  0.00     0.020 A 
ATOM     72  C   UNL     1      -4.082   6.126  15.603  1.00  0.00     0.054 A 
BRANCH  72  73
ATOM     73  S   UNL     1      -4.414   4.532  16.401  1.00  0.00     0.124 S 
ATOM     74  O   UNL     1      -3.242   3.752  16.010  1.00  0.00    -0.237 OA
ATOM     75  O   UNL     1      -4.488   4.887  17.815  1.00  0.00    -0.237 OA
ATOM     76  O   UNL     1      -5.676   4.102  15.803  1.00  0.00    -0.744 OA
ENDBRANCH  72  73
ENDBRANCH  53  67
BRANCH  54  77
ATOM     77  C   UNL     1      -1.229  16.985   9.495  1.00  0.00    -0.014 A 
ATOM     78  C   UNL     1      -0.958  18.185  10.176  1.00  0.00     0.010 A 
ATOM     79  C   UNL     1      -1.179  16.969   8.089  1.00  0.00     0.010 A 
ATOM     80  C   UNL     1      -0.660  19.351   9.465  1.00  0.00     0.020 A 
ATOM     81  C   UNL     1      -0.859  18.128   7.376  1.00  0.00     0.020 A 
ATOM     82  C   UNL     1      -0.612  19.315   8.069  1.00  0.00     0.054 A 
BRANCH  82  83
ATOM     83  S   UNL     1      -0.171  20.828   7.168  1.00  0.00     0.124 S 
ATOM     84  O   UNL     1      -1.405  21.602   7.252  1.00  0.00    -0.237 OA
ATOM     85  O   UNL     1       0.954  21.343   7.945  1.00  0.00    -0.237 OA
ATOM     86  O   UNL     1       0.176  20.340   5.834  1.00  0.00    -0.744 OA
ENDBRANCH  82  83
ENDBRANCH  54  77
BRANCH  66  87
ATOM     87  C   UNL     1      -6.732  14.936  13.270  1.00  0.00    -0.014 A 
ATOM     88  C   UNL     1      -7.794  15.079  12.361  1.00  0.00     0.010 A 
ATOM     89  C   UNL     1      -6.906  15.348  14.604  1.00  0.00     0.010 A 
ATOM     90  C   UNL     1      -9.008  15.630  12.779  1.00  0.00     0.020 A 
ATOM     91  C   UNL     1      -8.125  15.880  15.030  1.00  0.00     0.020 A 
ATOM     92  C   UNL     1      -9.167  16.023  14.113  1.00  0.00     0.054 A 
BRANCH  92  93
ATOM     93  S   UNL     1     -10.779  16.658  14.652  1.00  0.00     0.124 S 
ATOM     94  O   UNL     1     -10.775  18.009  14.098  1.00  0.00    -0.237 OA
ATOM     95  O   UNL     1     -11.717  15.726  14.029  1.00  0.00    -0.237 OA
ATOM     96  O   UNL     1     -10.711  16.581  16.109  1.00  0.00    -0.744 OA
ENDBRANCH  92  93
ENDBRANCH  66  87
ENDBRANCH  40  41
ENDBRANCH  32  35
ENDBRANCH  30  31
ENDBRANCH  29  30
ENDBRANCH  28  29
ENDBRANCH   1  28
TORSDOF 19
