REMARK SMILES COc1ccc(NC(=O)N[C@@H]2C=C[C@H](C(=O)NCCCCNC(=O)c3ccc(-c4c5nc(c(-c6ccc(S(=O)(=O)[O-])cc6)c6ccc([nH]6)c(-c6ccc(S(=O)(=O)[O-])cc6)c6nc(c(-c7ccc(S(=O)(=O)[O-])cc7)c7ccc4[nH]7)C=C6)C=C5)cc3)C2)c(C)c1
REMARK SMILES IDX 19 1 18 2 17 3 15 4 16 5 14 7 11 8 12 9 85 10 13 11 10 12
REMARK SMILES IDX 7 13 8 14 9 16 6 18 3 19 4 20 88 21 5 22 86 23 87 24 2 25
REMARK SMILES IDX 1 26 20 27 21 28 22 29 23 30 24 32 25 33 26 34 84 35 27 36
REMARK SMILES IDX 83 37 28 38 29 39 30 40 77 41 31 42 82 43 76 44 78 45 32 46
REMARK SMILES IDX 81 47 75 48 74 49 33 51 63 52 44 53 62 54 45 55 48 56 61 57
REMARK SMILES IDX 79 58 46 59 47 60 60 62 80 63 49 64 34 65 35 66 43 67 36 68
REMARK SMILES IDX 42 69 37 70 38 71 39 72 40 73 41 74 64 75 65 76 73 77 66 78
REMARK SMILES IDX 72 79 67 80 68 81 69 82 70 83 71 84 50 85 51 86 59 87 52 88
REMARK SMILES IDX 58 89 53 90 54 91 55 92 56 93 57 94
REMARK H PARENT 17 6 7 15 10 17 22 31 78 50 48 61
REMARK Flexibility Score: inf
ROOT
ATOM      1  C   UNL     1       1.649   1.443   3.230  1.00  0.00     0.023 C 
ENDROOT
BRANCH   1   2
ATOM      2  C   UNL     1       1.418   0.705   1.790  1.00  0.00     0.116 C 
BRANCH   2   3
ATOM      3  N   UNL     1       2.609   0.365   0.651  1.00  0.00    -0.356 N 
ATOM      4  C   UNL     1       3.857  -0.523   0.452  1.00  0.00     0.227 C 
ATOM      5  O   UNL     1       4.390  -0.407  -0.665  1.00  0.00    -0.274 OA
ATOM      6  H   UNL     1       2.461   0.912  -0.154  1.00  0.00     0.163 HD
BRANCH   4   7
ATOM      7  C   UNL     1       4.644  -1.758   1.741  1.00  0.00     0.103 C 
ATOM      8  C   UNL     1       4.197  -4.803   1.045  1.00  0.00     0.107 C 
ATOM      9  C   UNL     1       3.532  -4.545   2.918  1.00  0.00    -0.006 C 
ATOM     10  C   UNL     1       5.175  -3.200   0.431  1.00  0.00     0.047 C 
ATOM     11  C   UNL     1       3.615  -2.913   3.328  1.00  0.00    -0.016 C 
BRANCH   8  12
ATOM     12  N   UNL     1       2.936  -4.616  -0.089  1.00  0.00    -0.332 N 
ATOM     13  N   UNL     1       1.923  -2.187   0.380  1.00  0.00    -0.308 N 
ATOM     14  C   UNL     1       2.135  -3.430  -0.512  1.00  0.00     0.319 C 
ATOM     15  H   UNL     1       1.295  -1.510   0.040  1.00  0.00     0.171 HD
ATOM     16  O   UNL     1       1.645  -3.467  -1.645  1.00  0.00    -0.248 OA
ATOM     17  H   UNL     1       2.688  -5.449  -0.551  1.00  0.00     0.165 HD
BRANCH  13  18
ATOM     18  C   UNL     1       2.579  -1.886   1.734  1.00  0.00     0.046 A 
ATOM     19  C   UNL     1       5.650  -2.350   3.748  1.00  0.00     0.119 A 
ATOM     20  C   UNL     1       5.209  -3.394   2.471  1.00  0.00     0.048 A 
ATOM     21  C   UNL     1       4.726  -1.035   3.947  1.00  0.00     0.052 A 
ATOM     22  C   UNL     1       3.453  -3.071   1.531  1.00  0.00     0.030 A 
ATOM     23  C   UNL     1       3.349  -0.681   2.904  1.00  0.00    -0.024 A 
ATOM     24  C   UNL     1       4.182   0.869   2.490  1.00  0.00     0.047 C 
BRANCH  19  25
ATOM     25  O   UNL     1       6.311  -3.010   4.754  1.00  0.00    -0.497 OA
ATOM     26  C   UNL     1       6.332  -2.407   6.040  1.00  0.00     0.278 C 
ENDBRANCH  19  25
ENDBRANCH  13  18
ENDBRANCH   8  12
ENDBRANCH   4   7
ENDBRANCH   2   3
ENDBRANCH   1   2
BRANCH   1  27
ATOM     27  C   UNL     1       1.892   2.972   3.237  1.00  0.00     0.023 C 
BRANCH  27  28
ATOM     28  C   UNL     1       0.589   3.677   3.506  1.00  0.00     0.116 C 
BRANCH  28  29
ATOM     29  N   UNL     1       0.349   4.219   4.832  1.00  0.00    -0.352 N 
ATOM     30  C   UNL     1      -0.811   4.960   5.097  1.00  0.00     0.251 C 
ATOM     31  H   UNL     1       1.006   4.065   5.550  1.00  0.00     0.163 HD
ATOM     32  O   UNL     1      -0.822   6.142   5.407  1.00  0.00    -0.269 OA
BRANCH  30  33
ATOM     33  C   UNL     1      -2.077   4.196   4.964  1.00  0.00     0.039 A 
ATOM     34  C   UNL     1      -2.882   3.942   6.074  1.00  0.00     0.014 A 
ATOM     35  C   UNL     1      -2.234   3.460   3.801  1.00  0.00     0.014 A 
ATOM     36  C   UNL     1      -3.645   2.782   6.086  1.00  0.00     0.010 A 
ATOM     37  C   UNL     1      -2.684   2.184   3.932  1.00  0.00     0.010 A 
ATOM     38  C   UNL     1      -3.414   1.862   5.072  1.00  0.00    -0.014 A 
BRANCH  38  39
ATOM     39  C   UNL     1      -4.090   0.602   4.895  1.00  0.00     0.031 A 
ATOM     40  C   UNL     1      -5.309   0.716   4.068  1.00  0.00     0.074 A 
ATOM     41  C   UNL     1      -3.374  -0.494   5.231  1.00  0.00     0.049 A 
ATOM     42  N   UNL     1      -6.282  -0.112   4.068  1.00  0.00    -0.248 NA
ATOM     43  C   UNL     1      -5.574   1.867   3.181  1.00  0.00     0.031 C 
ATOM     44  C   UNL     1      -3.541  -1.897   4.880  1.00  0.00     0.029 A 
ATOM     45  N   UNL     1      -2.380  -0.525   6.212  1.00  0.00    -0.354 N 
ATOM     46  C   UNL     1      -6.995   0.136   2.909  1.00  0.00     0.074 A 
ATOM     47  C   UNL     1      -6.656   1.470   2.510  1.00  0.00     0.031 C 
ATOM     48  C   UNL     1      -2.970  -2.654   5.843  1.00  0.00     0.029 A 
ATOM     49  C   UNL     1      -2.503  -1.749   6.888  1.00  0.00     0.049 A 
ATOM     50  H   UNL     1      -1.717   0.180   6.395  1.00  0.00     0.167 HD
ATOM     51  C   UNL     1      -7.586  -0.920   2.291  1.00  0.00     0.031 A 
ATOM     52  C   UNL     1      -2.989  -1.716   8.168  1.00  0.00     0.031 A 
ATOM     53  C   UNL     1      -7.361  -2.121   3.094  1.00  0.00     0.049 A 
ATOM     54  C   UNL     1      -4.412  -2.237   8.201  1.00  0.00     0.074 A 
ATOM     55  C   UNL     1      -6.418  -3.130   2.996  1.00  0.00     0.029 A 
ATOM     56  N   UNL     1      -7.835  -2.143   4.399  1.00  0.00    -0.354 N 
ATOM     57  N   UNL     1      -5.253  -2.150   7.202  1.00  0.00    -0.248 NA
ATOM     58  C   UNL     1      -4.938  -3.018   9.316  1.00  0.00     0.031 C 
ATOM     59  C   UNL     1      -6.254  -3.686   4.297  1.00  0.00     0.029 A 
ATOM     60  C   UNL     1      -7.087  -3.009   5.173  1.00  0.00     0.049 A 
ATOM     61  H   UNL     1      -8.598  -1.614   4.726  1.00  0.00     0.167 HD
ATOM     62  C   UNL     1      -6.359  -2.911   7.477  1.00  0.00     0.074 A 
ATOM     63  C   UNL     1      -6.121  -3.416   8.819  1.00  0.00     0.031 C 
ATOM     64  C   UNL     1      -7.378  -3.137   6.593  1.00  0.00     0.031 A 
BRANCH  51  65
ATOM     65  C   UNL     1      -8.080  -0.966   0.866  1.00  0.00    -0.014 A 
ATOM     66  C   UNL     1      -8.339  -2.237   0.311  1.00  0.00     0.010 A 
ATOM     67  C   UNL     1      -8.294   0.139   0.018  1.00  0.00     0.010 A 
ATOM     68  C   UNL     1      -8.767  -2.407  -1.008  1.00  0.00     0.020 A 
ATOM     69  C   UNL     1      -8.722  -0.017  -1.315  1.00  0.00     0.020 A 
ATOM     70  C   UNL     1      -8.960  -1.293  -1.816  1.00  0.00     0.054 A 
BRANCH  70  71
ATOM     71  S   UNL     1      -9.561  -1.554  -3.504  1.00  0.00     0.124 S 
ATOM     72  O   UNL     1      -8.499  -2.367  -4.091  1.00  0.00    -0.237 OA
ATOM     73  O   UNL     1     -10.829  -2.242  -3.280  1.00  0.00    -0.237 OA
ATOM     74  O   UNL     1      -9.676  -0.202  -4.045  1.00  0.00    -0.744 OA
ENDBRANCH  70  71
ENDBRANCH  51  65
BRANCH  52  75
ATOM     75  C   UNL     1      -2.425  -0.552   8.939  1.00  0.00    -0.014 A 
ATOM     76  C   UNL     1      -1.025  -0.573   9.164  1.00  0.00     0.010 A 
ATOM     77  C   UNL     1      -3.083   0.690   8.976  1.00  0.00     0.010 A 
ATOM     78  C   UNL     1      -0.281   0.612   9.193  1.00  0.00     0.020 A 
ATOM     79  C   UNL     1      -2.337   1.883   9.043  1.00  0.00     0.020 A 
ATOM     80  C   UNL     1      -0.940   1.833   9.069  1.00  0.00     0.054 A 
BRANCH  80  81
ATOM     81  S   UNL     1       0.066   3.319   8.759  1.00  0.00     0.124 S 
ATOM     82  O   UNL     1       0.876   3.401   9.970  1.00  0.00    -0.237 OA
ATOM     83  O   UNL     1       0.788   2.959   7.534  1.00  0.00    -0.237 OA
ATOM     84  O   UNL     1      -0.927   4.375   8.598  1.00  0.00    -0.744 OA
ENDBRANCH  80  81
ENDBRANCH  52  75
BRANCH  64  85
ATOM     85  C   UNL     1      -8.760  -3.592   6.994  1.00  0.00    -0.014 A 
ATOM     86  C   UNL     1      -9.230  -3.554   8.312  1.00  0.00     0.010 A 
ATOM     87  C   UNL     1      -9.697  -3.945   5.991  1.00  0.00     0.010 A 
ATOM     88  C   UNL     1     -10.524  -3.969   8.632  1.00  0.00     0.020 A 
ATOM     89  C   UNL     1     -11.018  -4.275   6.287  1.00  0.00     0.020 A 
ATOM     90  C   UNL     1     -11.406  -4.334   7.617  1.00  0.00     0.054 A 
BRANCH  90  91
ATOM     91  S   UNL     1     -13.067  -4.871   8.062  1.00  0.00     0.124 S 
ATOM     92  O   UNL     1     -12.816  -6.224   8.553  1.00  0.00    -0.237 OA
ATOM     93  O   UNL     1     -13.455  -3.896   9.079  1.00  0.00    -0.237 OA
ATOM     94  O   UNL     1     -13.809  -4.786   6.808  1.00  0.00    -0.744 OA
ENDBRANCH  90  91
ENDBRANCH  64  85
ENDBRANCH  38  39
ENDBRANCH  30  33
ENDBRANCH  28  29
ENDBRANCH  27  28
ENDBRANCH   1  27
TORSDOF 17
