REMARK SMILES COCCC(=O)N[C@@H](Cc1c[nH]c2ccccc12)C(=O)NCCCCNC(=O)c1ccc(-c2c3nc(c(-c4ccc(S(=O)(=O)[O-])cc4)c4ccc([nH]4)c(-c4ccc(S(=O)(=O)[O-])cc4)c4nc(c(-c5ccc(S(=O)(=O)[O-])cc5)c5ccc2[nH]5)C=C4)C=C3)cc1
REMARK SMILES IDX 23 1 22 2 21 3 19 4 20 5 8 7 7 8 5 9 6 10 4 12 3 13 2 14
REMARK SMILES IDX 1 15 9 16 10 17 11 18 18 19 12 20 13 21 17 22 14 24 16 25
REMARK SMILES IDX 15 26 24 27 25 28 26 29 27 30 28 32 29 33 30 34 88 35 31 36
REMARK SMILES IDX 87 37 32 38 33 39 34 40 81 41 35 42 86 43 80 44 82 45 36 46
REMARK SMILES IDX 85 47 79 48 78 49 37 51 67 52 48 53 66 54 49 55 52 56 65 57
REMARK SMILES IDX 83 58 50 59 51 60 64 62 84 63 53 64 38 65 39 66 47 67 40 68
REMARK SMILES IDX 46 69 41 70 42 71 43 72 44 73 45 74 68 75 69 76 77 77 70 78
REMARK SMILES IDX 76 79 71 80 72 81 73 82 74 83 75 84 54 85 55 86 63 87 56 88
REMARK SMILES IDX 62 89 57 90 58 91 59 92 60 93 61 94
REMARK H PARENT 21 6 7 11 12 23 26 31 82 50 52 61
REMARK Flexibility Score: inf
ROOT
ATOM      1  C   UNL     1      -0.652   2.692   4.381  1.00  0.00     0.023 C 
ENDROOT
BRANCH   1   2
ATOM      2  C   UNL     1      -0.688   1.370   3.633  1.00  0.00     0.116 C 
BRANCH   2   3
ATOM      3  N   UNL     1      -1.761   1.237   2.682  1.00  0.00    -0.354 N 
ATOM      4  C   UNL     1      -1.712   0.675   1.436  1.00  0.00     0.242 C 
ATOM      5  O   UNL     1      -2.786   0.470   0.861  1.00  0.00    -0.273 OA
ATOM      6  H   UNL     1      -2.635   1.592   2.962  1.00  0.00     0.163 HD
BRANCH   4   7
ATOM      7  C   UNL     1      -0.373   0.296   0.746  1.00  0.00     0.175 C 
BRANCH   7   8
ATOM      8  N   UNL     1       0.481   1.478   0.577  1.00  0.00    -0.344 N 
ATOM      9  C   UNL     1       0.667   2.271  -0.510  1.00  0.00     0.222 C 
ATOM     10  O   UNL     1       1.341   3.295  -0.375  1.00  0.00    -0.275 OA
ATOM     11  H   UNL     1       0.999   1.735   1.374  1.00  0.00     0.164 HD
BRANCH   9  12
ATOM     12  C   UNL     1       0.142   1.864  -1.863  1.00  0.00     0.128 C 
BRANCH  12  13
ATOM     13  C   UNL     1       1.208   1.079  -2.614  1.00  0.00     0.169 C 
BRANCH  13  14
ATOM     14  O   UNL     1       1.447  -0.182  -1.984  1.00  0.00    -0.384 OA
ATOM     15  C   UNL     1       2.743  -0.256  -1.395  1.00  0.00     0.194 C 
ENDBRANCH  13  14
ENDBRANCH  12  13
ENDBRANCH   9  12
ENDBRANCH   7   8
BRANCH   7  16
ATOM     16  C   UNL     1       0.299  -0.994   1.270  1.00  0.00     0.072 C 
BRANCH  16  17
ATOM     17  C   UNL     1       1.228  -0.977   2.460  1.00  0.00    -0.020 A 
ATOM     18  C   UNL     1       2.188  -0.048   2.822  1.00  0.00     0.087 A 
ATOM     19  C   UNL     1       1.347  -2.043   3.423  1.00  0.00     0.003 A 
ATOM     20  N   UNL     1       2.663  -0.371   4.067  1.00  0.00    -0.361 N 
ATOM     21  C   UNL     1       2.187  -1.602   4.445  1.00  0.00     0.046 A 
ATOM     22  C   UNL     1       0.808  -3.343   3.522  1.00  0.00     0.010 A 
ATOM     23  H   UNL     1       3.257   0.195   4.611  1.00  0.00     0.166 HD
ATOM     24  C   UNL     1       2.451  -2.354   5.595  1.00  0.00     0.026 A 
ATOM     25  C   UNL     1       1.112  -4.136   4.636  1.00  0.00     0.001 A 
ATOM     26  C   UNL     1       1.903  -3.637   5.667  1.00  0.00     0.002 A 
ENDBRANCH  16  17
ENDBRANCH   7  16
ENDBRANCH   4   7
ENDBRANCH   2   3
ENDBRANCH   1   2
BRANCH   1  27
ATOM     27  C   UNL     1      -1.567   2.773   5.593  1.00  0.00     0.023 C 
BRANCH  27  28
ATOM     28  C   UNL     1      -1.436   1.631   6.594  1.00  0.00     0.116 C 
BRANCH  28  29
ATOM     29  N   UNL     1      -0.083   1.421   7.096  1.00  0.00    -0.352 N 
ATOM     30  C   UNL     1       0.316   1.181   8.397  1.00  0.00     0.251 C 
ATOM     31  H   UNL     1       0.636   1.453   6.425  1.00  0.00     0.163 HD
ATOM     32  O   UNL     1       1.497   1.073   8.683  1.00  0.00    -0.269 OA
BRANCH  30  33
ATOM     33  C   UNL     1      -0.732   1.108   9.440  1.00  0.00     0.039 A 
ATOM     34  C   UNL     1      -0.684   1.996  10.516  1.00  0.00     0.014 A 
ATOM     35  C   UNL     1      -1.828   0.261   9.261  1.00  0.00     0.014 A 
ATOM     36  C   UNL     1      -1.793   2.108  11.358  1.00  0.00     0.010 A 
ATOM     37  C   UNL     1      -2.962   0.442  10.045  1.00  0.00     0.010 A 
ATOM     38  C   UNL     1      -2.962   1.375  11.093  1.00  0.00    -0.014 A 
BRANCH  38  39
ATOM     39  C   UNL     1      -4.206   1.583  11.881  1.00  0.00     0.031 A 
ATOM     40  C   UNL     1      -4.801   0.441  12.660  1.00  0.00     0.074 A 
ATOM     41  C   UNL     1      -4.849   2.767  11.826  1.00  0.00     0.049 A 
ATOM     42  N   UNL     1      -5.915   0.402  13.345  1.00  0.00    -0.248 NA
ATOM     43  C   UNL     1      -4.065  -0.834  12.639  1.00  0.00     0.031 C 
ATOM     44  C   UNL     1      -4.413   3.939  11.061  1.00  0.00     0.029 A 
ATOM     45  N   UNL     1      -6.016   3.181  12.421  1.00  0.00    -0.354 N 
ATOM     46  C   UNL     1      -6.027  -0.904  13.808  1.00  0.00     0.074 A 
ATOM     47  C   UNL     1      -4.895  -1.637  13.286  1.00  0.00     0.031 C 
ATOM     48  C   UNL     1      -5.278   4.947  11.264  1.00  0.00     0.029 A 
ATOM     49  C   UNL     1      -6.351   4.486  12.139  1.00  0.00     0.049 A 
ATOM     50  H   UNL     1      -6.562   2.599  12.997  1.00  0.00     0.167 HD
ATOM     51  C   UNL     1      -6.974  -1.442  14.613  1.00  0.00     0.031 A 
ATOM     52  C   UNL     1      -7.402   5.228  12.539  1.00  0.00     0.031 A 
ATOM     53  C   UNL     1      -8.082  -0.706  15.157  1.00  0.00     0.049 A 
ATOM     54  C   UNL     1      -8.430   4.615  13.450  1.00  0.00     0.074 A 
ATOM     55  C   UNL     1      -9.050  -1.141  16.046  1.00  0.00     0.029 A 
ATOM     56  N   UNL     1      -8.370   0.618  14.866  1.00  0.00    -0.354 N 
ATOM     57  N   UNL     1      -8.476   3.399  13.939  1.00  0.00    -0.248 NA
ATOM     58  C   UNL     1      -9.543   5.477  13.870  1.00  0.00     0.031 C 
ATOM     59  C   UNL     1      -9.948  -0.090  16.260  1.00  0.00     0.029 A 
ATOM     60  C   UNL     1      -9.512   1.012  15.543  1.00  0.00     0.049 A 
ATOM     61  H   UNL     1      -7.841   1.193  14.268  1.00  0.00     0.167 HD
ATOM     62  C   UNL     1      -9.606   3.359  14.748  1.00  0.00     0.074 A 
ATOM     63  C   UNL     1     -10.209   4.675  14.691  1.00  0.00     0.031 C 
ATOM     64  C   UNL     1     -10.098   2.327  15.476  1.00  0.00     0.031 A 
BRANCH  51  65
ATOM     65  C   UNL     1      -6.845  -2.904  14.949  1.00  0.00    -0.014 A 
ATOM     66  C   UNL     1      -5.819  -3.368  15.792  1.00  0.00     0.010 A 
ATOM     67  C   UNL     1      -7.772  -3.825  14.428  1.00  0.00     0.010 A 
ATOM     68  C   UNL     1      -5.691  -4.731  16.066  1.00  0.00     0.020 A 
ATOM     69  C   UNL     1      -7.665  -5.186  14.723  1.00  0.00     0.020 A 
ATOM     70  C   UNL     1      -6.611  -5.633  15.524  1.00  0.00     0.054 A 
BRANCH  70  71
ATOM     71  S   UNL     1      -6.426  -7.397  15.901  1.00  0.00     0.124 S 
ATOM     72  O   UNL     1      -5.298  -7.769  15.050  1.00  0.00    -0.237 OA
ATOM     73  O   UNL     1      -6.154  -7.393  17.337  1.00  0.00    -0.237 OA
ATOM     74  O   UNL     1      -7.713  -7.971  15.516  1.00  0.00    -0.744 OA
ENDBRANCH  70  71
ENDBRANCH  51  65
BRANCH  52  75
ATOM     75  C   UNL     1      -7.519   6.649  12.111  1.00  0.00    -0.014 A 
ATOM     76  C   UNL     1      -7.292   7.686  13.033  1.00  0.00     0.010 A 
ATOM     77  C   UNL     1      -7.848   6.975  10.783  1.00  0.00     0.010 A 
ATOM     78  C   UNL     1      -7.409   9.023  12.640  1.00  0.00     0.020 A 
ATOM     79  C   UNL     1      -7.942   8.311  10.380  1.00  0.00     0.020 A 
ATOM     80  C   UNL     1      -7.732   9.327  11.315  1.00  0.00     0.054 A 
BRANCH  80  81
ATOM     81  S   UNL     1      -7.824  11.069  10.815  1.00  0.00     0.124 S 
ATOM     82  O   UNL     1      -9.099  11.484  11.392  1.00  0.00    -0.237 OA
ATOM     83  O   UNL     1      -6.632  11.641  11.435  1.00  0.00    -0.237 OA
ATOM     84  O   UNL     1      -7.787  11.006   9.355  1.00  0.00    -0.744 OA
ENDBRANCH  80  81
ENDBRANCH  52  75
BRANCH  64  85
ATOM     85  C   UNL     1     -11.330   2.584  16.299  1.00  0.00    -0.014 A 
ATOM     86  C   UNL     1     -12.595   2.704  15.697  1.00  0.00     0.010 A 
ATOM     87  C   UNL     1     -11.226   2.648  17.701  1.00  0.00     0.010 A 
ATOM     88  C   UNL     1     -13.732   2.912  16.483  1.00  0.00     0.020 A 
ATOM     89  C   UNL     1     -12.364   2.830  18.490  1.00  0.00     0.020 A 
ATOM     90  C   UNL     1     -13.609   2.974  17.875  1.00  0.00     0.054 A 
BRANCH  90  91
ATOM     91  S   UNL     1     -15.105   3.195  18.877  1.00  0.00     0.124 S 
ATOM     92  O   UNL     1     -15.391   4.614  18.686  1.00  0.00    -0.237 OA
ATOM     93  O   UNL     1     -16.050   2.273  18.252  1.00  0.00    -0.237 OA
ATOM     94  O   UNL     1     -14.677   2.820  20.223  1.00  0.00    -0.744 OA
ENDBRANCH  90  91
ENDBRANCH  64  85
ENDBRANCH  38  39
ENDBRANCH  30  33
ENDBRANCH  28  29
ENDBRANCH  27  28
ENDBRANCH   1  27
TORSDOF 20
