REMARK SMILES Cc1cc(-c2cc(C(=O)NCCCCNC(=O)c3ccc(-c4c5nc(c(-c6ccc(S(=O)(=O)[O-])cc6)c6ccc([nH]6)c(-c6ccc(S(=O)(=O)[O-])cc6)c6nc(c(-c7ccc(S(=O)(=O)[O-])cc7)c7ccc4[nH]7)C=C6)C=C5)cc3)c[nH]c2=O)ccc1Cl
REMARK SMILES IDX 13 1 12 2 11 3 10 4 8 5 9 6 7 8 5 9 6 10 80 11 79 12 81 13
REMARK SMILES IDX 78 14 4 16 1 17 2 18 3 19 84 20 83 21 85 22 82 23 14 24
REMARK SMILES IDX 15 25 16 26 17 28 18 29 19 30 77 31 20 32 76 33 21 34 22 35
REMARK SMILES IDX 23 36 70 37 24 38 75 39 69 40 71 41 25 42 74 43 68 44 67 45
REMARK SMILES IDX 26 47 56 48 37 49 55 50 38 51 41 52 54 53 72 54 39 55 40 56
REMARK SMILES IDX 53 58 73 59 42 60 27 61 28 62 36 63 29 64 35 65 30 66 31 67
REMARK SMILES IDX 32 68 33 69 34 70 57 71 58 72 66 73 59 74 65 75 60 76 61 77
REMARK SMILES IDX 62 78 63 79 64 80 43 81 44 82 52 83 45 84 51 85 46 86 47 87
REMARK SMILES IDX 48 88 49 89 50 90
REMARK H PARENT 10 7 79 15 15 27 71 46 41 57
REMARK Flexibility Score: inf
ROOT
ATOM      1  C   UNL     1      -4.763  -1.470   5.720  1.00  0.00     0.023 C 
ENDROOT
BRANCH   1   2
ATOM      2  C   UNL     1      -4.355  -1.213   4.265  1.00  0.00     0.023 C 
BRANCH   2   3
ATOM      3  C   UNL     1      -5.094  -2.088   3.248  1.00  0.00     0.116 C 
BRANCH   3   4
ATOM      4  N   UNL     1      -6.408  -1.545   2.966  1.00  0.00    -0.352 N 
ATOM      5  C   UNL     1      -6.879  -0.685   2.023  1.00  0.00     0.252 C 
ATOM      6  O   UNL     1      -8.079  -0.400   2.085  1.00  0.00    -0.269 OA
ATOM      7  H   UNL     1      -7.104  -1.864   3.586  1.00  0.00     0.163 HD
BRANCH   5   8
ATOM      8  C   UNL     1      -6.034  -0.139   0.909  1.00  0.00     0.056 A 
ATOM      9  C   UNL     1      -3.905   0.276  -0.231  1.00  0.00     0.048 A 
ATOM     10  C   UNL     1      -4.588  -0.066   0.878  1.00  0.00     0.029 A 
ATOM     11  C   UNL     1      -4.670   0.767  -1.422  1.00  0.00     0.255 A 
ATOM     12  N   UNL     1      -6.040   0.773  -1.280  1.00  0.00    -0.328 N 
ATOM     13  O   UNL     1      -4.125   1.155  -2.449  1.00  0.00    -0.269 OA
ATOM     14  C   UNL     1      -6.704   0.318  -0.165  1.00  0.00     0.099 A 
ATOM     15  H   UNL     1      -6.578   1.127  -2.024  1.00  0.00     0.169 HD
BRANCH   9  16
ATOM     16  C   UNL     1      -2.442   0.148  -0.225  1.00  0.00    -0.012 A 
ATOM     17  C   UNL     1       0.645   2.367  -0.040  1.00  0.00     0.046 C 
ATOM     18  C   UNL     1      -0.215   1.137  -0.100  1.00  0.00    -0.032 A 
ATOM     19  C   UNL     1      -1.613   1.274  -0.189  1.00  0.00     0.014 A 
ATOM     20  C   UNL     1       0.339  -0.153  -0.064  1.00  0.00     0.044 A 
ATOM     21  C   UNL     1      -0.482  -1.280  -0.113  1.00  0.00     0.021 A 
ATOM     22  Cl  UNL     1       2.045  -0.403   0.049  1.00  0.00    -0.084 Cl
ATOM     23  C   UNL     1      -1.866  -1.131  -0.192  1.00  0.00     0.010 A 
ENDBRANCH   9  16
ENDBRANCH   5   8
ENDBRANCH   3   4
ENDBRANCH   2   3
ENDBRANCH   1   2
BRANCH   1  24
ATOM     24  C   UNL     1      -4.460  -2.875   6.230  1.00  0.00     0.116 C 
BRANCH  24  25
ATOM     25  N   UNL     1      -3.055  -3.234   6.123  1.00  0.00    -0.352 N 
ATOM     26  C   UNL     1      -2.325  -4.080   6.926  1.00  0.00     0.251 C 
ATOM     27  H   UNL     1      -2.562  -2.817   5.380  1.00  0.00     0.163 HD
ATOM     28  O   UNL     1      -1.119  -4.186   6.769  1.00  0.00    -0.269 OA
BRANCH  26  29
ATOM     29  C   UNL     1      -3.013  -4.824   8.004  1.00  0.00     0.039 A 
ATOM     30  C   UNL     1      -2.454  -4.821   9.284  1.00  0.00     0.014 A 
ATOM     31  C   UNL     1      -4.210  -5.501   7.758  1.00  0.00     0.014 A 
ATOM     32  C   UNL     1      -3.123  -5.459  10.329  1.00  0.00     0.010 A 
ATOM     33  C   UNL     1      -4.913  -6.069   8.816  1.00  0.00     0.010 A 
ATOM     34  C   UNL     1      -4.371  -6.066  10.109  1.00  0.00    -0.014 A 
BRANCH  34  35
ATOM     35  C   UNL     1      -5.105  -6.730  11.217  1.00  0.00     0.031 A 
ATOM     36  C   UNL     1      -5.361  -8.213  11.167  1.00  0.00     0.074 A 
ATOM     37  C   UNL     1      -5.572  -5.995  12.245  1.00  0.00     0.049 A 
ATOM     38  N   UNL     1      -6.006  -8.967  12.019  1.00  0.00    -0.248 NA
ATOM     39  C   UNL     1      -4.846  -8.939   9.993  1.00  0.00     0.031 C 
ATOM     40  C   UNL     1      -5.434  -4.543  12.384  1.00  0.00     0.029 A 
ATOM     41  N   UNL     1      -6.262  -6.371  13.371  1.00  0.00    -0.354 N 
ATOM     42  C   UNL     1      -5.978 -10.250  11.484  1.00  0.00     0.074 A 
ATOM     43  C   UNL     1      -5.315 -10.160  10.203  1.00  0.00     0.031 C 
ATOM     44  C   UNL     1      -5.998  -4.156  13.540  1.00  0.00     0.029 A 
ATOM     45  C   UNL     1      -6.565  -5.323  14.208  1.00  0.00     0.049 A 
ATOM     46  H   UNL     1      -6.517  -7.303  13.560  1.00  0.00     0.167 HD
ATOM     47  C   UNL     1      -6.433 -11.406  12.023  1.00  0.00     0.031 A 
ATOM     48  C   UNL     1      -7.226  -5.304  15.383  1.00  0.00     0.031 A 
ATOM     49  C   UNL     1      -7.088 -11.495  13.301  1.00  0.00     0.049 A 
ATOM     50  C   UNL     1      -7.718  -6.603  15.964  1.00  0.00     0.074 A 
ATOM     51  C   UNL     1      -7.566 -12.621  13.948  1.00  0.00     0.029 A 
ATOM     52  N   UNL     1      -7.348 -10.416  14.132  1.00  0.00    -0.354 N 
ATOM     53  N   UNL     1      -7.639  -7.813  15.464  1.00  0.00    -0.248 NA
ATOM     54  C   UNL     1      -8.364  -6.535  17.282  1.00  0.00     0.031 C 
ATOM     55  C   UNL     1      -8.150 -12.217  15.154  1.00  0.00     0.029 A 
ATOM     56  C   UNL     1      -7.981 -10.848  15.284  1.00  0.00     0.049 A 
ATOM     57  H   UNL     1      -7.116  -9.480  13.932  1.00  0.00     0.167 HD
ATOM     58  C   UNL     1      -8.194  -8.655  16.422  1.00  0.00     0.074 A 
ATOM     59  C   UNL     1      -8.587  -7.816  17.536  1.00  0.00     0.031 C 
ATOM     60  C   UNL     1      -8.361 -10.001  16.386  1.00  0.00     0.031 A 
BRANCH  47  61
ATOM     61  C   UNL     1      -6.221 -12.671  11.231  1.00  0.00    -0.014 A 
ATOM     62  C   UNL     1      -4.929 -13.198  11.049  1.00  0.00     0.010 A 
ATOM     63  C   UNL     1      -7.322 -13.359  10.690  1.00  0.00     0.010 A 
ATOM     64  C   UNL     1      -4.737 -14.366  10.307  1.00  0.00     0.020 A 
ATOM     65  C   UNL     1      -7.137 -14.545   9.973  1.00  0.00     0.020 A 
ATOM     66  C   UNL     1      -5.843 -15.031   9.772  1.00  0.00     0.054 A 
BRANCH  66  67
ATOM     67  S   UNL     1      -5.566 -16.560   8.836  1.00  0.00     0.124 S 
ATOM     68  O   UNL     1      -4.976 -16.052   7.599  1.00  0.00    -0.237 OA
ATOM     69  O   UNL     1      -4.658 -17.306   9.703  1.00  0.00    -0.237 OA
ATOM     70  O   UNL     1      -6.903 -17.131   8.699  1.00  0.00    -0.744 OA
ENDBRANCH  66  67
ENDBRANCH  47  61
BRANCH  48  71
ATOM     71  C   UNL     1      -7.445  -4.015  16.096  1.00  0.00    -0.014 A 
ATOM     72  C   UNL     1      -6.781  -3.737  17.304  1.00  0.00     0.010 A 
ATOM     73  C   UNL     1      -8.331  -3.058  15.569  1.00  0.00     0.010 A 
ATOM     74  C   UNL     1      -7.024  -2.542  17.988  1.00  0.00     0.020 A 
ATOM     75  C   UNL     1      -8.553  -1.849  16.234  1.00  0.00     0.020 A 
ATOM     76  C   UNL     1      -7.911  -1.606  17.449  1.00  0.00     0.054 A 
BRANCH  76  77
ATOM     77  S   UNL     1      -8.190  -0.049  18.338  1.00  0.00     0.124 S 
ATOM     78  O   UNL     1      -9.021  -0.483  19.456  1.00  0.00    -0.237 OA
ATOM     79  O   UNL     1      -6.833   0.367  18.681  1.00  0.00    -0.237 OA
ATOM     80  O   UNL     1      -8.860   0.792  17.349  1.00  0.00    -0.744 OA
ENDBRANCH  76  77
ENDBRANCH  48  71
BRANCH  60  81
ATOM     81  C   UNL     1      -8.944 -10.657  17.610  1.00  0.00    -0.014 A 
ATOM     82  C   UNL     1     -10.293 -10.483  17.968  1.00  0.00     0.010 A 
ATOM     83  C   UNL     1      -8.126 -11.484  18.402  1.00  0.00     0.010 A 
ATOM     84  C   UNL     1     -10.799 -11.082  19.124  1.00  0.00     0.020 A 
ATOM     85  C   UNL     1      -8.637 -12.111  19.541  1.00  0.00     0.020 A 
ATOM     86  C   UNL     1      -9.965 -11.888  19.907  1.00  0.00     0.054 A 
BRANCH  86  87
ATOM     87  S   UNL     1     -10.646 -12.664  21.398  1.00  0.00     0.124 S 
ATOM     88  O   UNL     1     -10.732 -11.531  22.316  1.00  0.00    -0.237 OA
ATOM     89  O   UNL     1     -11.925 -13.191  20.929  1.00  0.00    -0.237 OA
ATOM     90  O   UNL     1      -9.652 -13.676  21.747  1.00  0.00    -0.744 OA
ENDBRANCH  86  87
ENDBRANCH  60  81
ENDBRANCH  34  35
ENDBRANCH  26  29
ENDBRANCH  24  25
ENDBRANCH   1  24
TORSDOF 15
