REMARK SMILES CC[C@@](C)([NH2+]CC(=O)Nc1ccc(Br)cc1F)C(=O)NCCCCNC(=O)c1ccc(-c2c3nc(c(-c4ccc(S(=O)(=O)[O-])cc4)c4ccc([nH]4)c(-c4ccc(S(=O)(=O)[O-])cc4)c4nc(c(-c5ccc(S(=O)(=O)[O-])cc5)c5ccc2[nH]5)C=C4)C=C3)cc1
REMARK SMILES IDX 22 1 21 2 20 3 18 4 19 5 3 7 4 8 2 9 1 10 5 11 6 14 7 15
REMARK SMILES IDX 8 16 9 17 10 19 11 20 16 21 12 22 15 23 17 24 13 25 14 26
REMARK SMILES IDX 23 27 24 28 25 29 26 30 27 32 28 33 29 34 87 35 30 36 86 37
REMARK SMILES IDX 31 38 32 39 33 40 80 41 34 42 85 43 79 44 81 45 35 46 84 47
REMARK SMILES IDX 78 48 77 49 36 51 66 52 47 53 65 54 48 55 51 56 64 57 82 58
REMARK SMILES IDX 49 59 50 60 63 62 83 63 52 64 37 65 38 66 46 67 39 68 45 69
REMARK SMILES IDX 40 70 41 71 42 72 43 73 44 74 67 75 68 76 76 77 69 78 75 79
REMARK SMILES IDX 70 80 71 81 72 82 73 83 74 84 53 85 54 86 62 87 55 88 61 89
REMARK SMILES IDX 56 90 57 91 58 92 59 93 60 94
REMARK H PARENT 20 6 5 12 5 13 9 18 25 31 81 50 51 61
REMARK Flexibility Score: inf
ROOT
ATOM      1  C   UNL     1       3.404  -5.760   0.518  1.00  0.00     0.023 C 
ENDROOT
BRANCH   1   2
ATOM      2  C   UNL     1       3.194  -4.291   0.916  1.00  0.00     0.116 C 
BRANCH   2   3
ATOM      3  N   UNL     1       2.757  -3.419  -0.184  1.00  0.00    -0.351 N 
ATOM      4  C   UNL     1       1.863  -2.364  -0.242  1.00  0.00     0.281 C 
ATOM      5  O   UNL     1       2.414  -1.310  -0.594  1.00  0.00    -0.268 OA
ATOM      6  H   UNL     1       3.182  -3.627  -1.048  1.00  0.00     0.163 HD
BRANCH   4   7
ATOM      7  C   UNL     1       0.229  -2.500  -0.231  1.00  0.00     0.172 C 
ATOM      8  C   UNL     1      -0.870  -1.888   0.693  1.00  0.00     0.090 C 
BRANCH   7   9
ATOM      9  C   UNL     1      -0.158  -1.870  -1.638  1.00  0.00     0.075 C 
ATOM     10  C   UNL     1      -0.049  -0.318  -1.720  1.00  0.00     0.011 C 
ENDBRANCH   7   9
BRANCH   7  11
ATOM     11  N   UNL     1      -0.051  -3.939  -0.142  1.00  0.00    -0.326 N 
ATOM     12  H   UNL     1       0.593  -4.417  -0.772  1.00  0.00     0.347 HD
ATOM     13  H   UNL     1      -1.037  -4.033  -0.383  1.00  0.00     0.347 HD
BRANCH  11  14
ATOM     14  C   UNL     1       0.081  -4.569   1.194  1.00  0.00     0.363 C 
BRANCH  14  15
ATOM     15  C   UNL     1      -0.029  -3.839   2.572  1.00  0.00     0.279 C 
ATOM     16  O   UNL     1      -0.988  -4.188   3.291  1.00  0.00    -0.268 OA
ATOM     17  N   UNL     1       0.861  -3.026   3.235  1.00  0.00    -0.319 N 
ATOM     18  H   UNL     1       0.702  -3.088   4.204  1.00  0.00     0.170 HD
BRANCH  17  19
ATOM     19  C   UNL     1       1.935  -2.124   2.989  1.00  0.00     0.077 A 
ATOM     20  C   UNL     1       3.103  -2.333   3.736  1.00  0.00     0.030 A 
ATOM     21  C   UNL     1       1.901  -0.930   2.248  1.00  0.00     0.147 A 
ATOM     22  C   UNL     1       4.236  -1.512   3.577  1.00  0.00     0.018 A 
ATOM     23  C   UNL     1       3.028  -0.126   2.049  1.00  0.00     0.057 A 
ATOM     24  F   UNL     1       0.775  -0.428   1.740  1.00  0.00    -0.205 F 
ATOM     25  C   UNL     1       4.207  -0.439   2.694  1.00  0.00     0.021 A 
ATOM     26  Br  UNL     1       5.741   0.621   2.405  1.00  0.00    -0.051 Br
ENDBRANCH  17  19
ENDBRANCH  14  15
ENDBRANCH  11  14
ENDBRANCH   7  11
ENDBRANCH   4   7
ENDBRANCH   2   3
ENDBRANCH   1   2
BRANCH   1  27
ATOM     27  C   UNL     1       4.753  -6.350   0.936  1.00  0.00     0.023 C 
BRANCH  27  28
ATOM     28  C   UNL     1       5.105  -6.279   2.422  1.00  0.00     0.116 C 
BRANCH  28  29
ATOM     29  N   UNL     1       4.322  -7.159   3.279  1.00  0.00    -0.352 N 
ATOM     30  C   UNL     1       4.773  -8.004   4.275  1.00  0.00     0.251 C 
ATOM     31  H   UNL     1       3.349  -7.151   3.130  1.00  0.00     0.163 HD
ATOM     32  O   UNL     1       3.986  -8.723   4.886  1.00  0.00    -0.269 OA
BRANCH  30  33
ATOM     33  C   UNL     1       6.223  -8.073   4.565  1.00  0.00     0.039 A 
ATOM     34  C   UNL     1       6.869  -9.311   4.515  1.00  0.00     0.014 A 
ATOM     35  C   UNL     1       6.956  -6.905   4.790  1.00  0.00     0.014 A 
ATOM     36  C   UNL     1       8.265  -9.364   4.585  1.00  0.00     0.010 A 
ATOM     37  C   UNL     1       8.347  -6.954   4.775  1.00  0.00     0.010 A 
ATOM     38  C   UNL     1       9.020  -8.181   4.659  1.00  0.00    -0.014 A 
BRANCH  38  39
ATOM     39  C   UNL     1      10.507  -8.201   4.596  1.00  0.00     0.031 A 
ATOM     40  C   UNL     1      11.319  -7.676   5.749  1.00  0.00     0.074 A 
ATOM     41  C   UNL     1      11.128  -8.617   3.472  1.00  0.00     0.049 A 
ATOM     42  N   UNL     1      12.616  -7.539   5.851  1.00  0.00    -0.248 NA
ATOM     43  C   UNL     1      10.573  -7.214   6.931  1.00  0.00     0.031 C 
ATOM     44  C   UNL     1      10.461  -9.098   2.259  1.00  0.00     0.029 A 
ATOM     45  N   UNL     1      12.465  -8.692   3.162  1.00  0.00    -0.354 N 
ATOM     46  C   UNL     1      12.839  -6.960   7.095  1.00  0.00     0.074 A 
ATOM     47  C   UNL     1      11.541  -6.717   7.685  1.00  0.00     0.031 C 
ATOM     48  C   UNL     1      11.389  -9.444   1.352  1.00  0.00     0.029 A 
ATOM     49  C   UNL     1      12.715  -9.174   1.898  1.00  0.00     0.049 A 
ATOM     50  H   UNL     1      13.178  -8.426   3.787  1.00  0.00     0.167 HD
ATOM     51  C   UNL     1      14.015  -6.678   7.705  1.00  0.00     0.031 A 
ATOM     52  C   UNL     1      13.879  -9.375   1.247  1.00  0.00     0.031 A 
ATOM     53  C   UNL     1      15.306  -6.935   7.125  1.00  0.00     0.049 A 
ATOM     54  C   UNL     1      15.174  -9.063   1.946  1.00  0.00     0.074 A 
ATOM     55  C   UNL     1      16.556  -6.737   7.686  1.00  0.00     0.029 A 
ATOM     56  N   UNL     1      15.514  -7.450   5.855  1.00  0.00    -0.354 N 
ATOM     57  N   UNL     1      15.363  -8.576   3.150  1.00  0.00    -0.248 NA
ATOM     58  C   UNL     1      16.413  -9.339   1.206  1.00  0.00     0.031 C 
ATOM     59  C   UNL     1      17.521  -7.089   6.736  1.00  0.00     0.029 A 
ATOM     60  C   UNL     1      16.872  -7.560   5.606  1.00  0.00     0.049 A 
ATOM     61  H   UNL     1      14.802  -7.700   5.223  1.00  0.00     0.167 HD
ATOM     62  C   UNL     1      16.742  -8.513   3.320  1.00  0.00     0.074 A 
ATOM     63  C   UNL     1      17.338  -9.025   2.103  1.00  0.00     0.031 C 
ATOM     64  C   UNL     1      17.450  -8.072   4.389  1.00  0.00     0.031 A 
BRANCH  51  65
ATOM     65  C   UNL     1      13.951  -6.059   9.077  1.00  0.00    -0.014 A 
ATOM     66  C   UNL     1      13.493  -6.797  10.184  1.00  0.00     0.010 A 
ATOM     67  C   UNL     1      14.371  -4.730   9.269  1.00  0.00     0.010 A 
ATOM     68  C   UNL     1      13.406  -6.203  11.445  1.00  0.00     0.020 A 
ATOM     69  C   UNL     1      14.315  -4.141  10.536  1.00  0.00     0.020 A 
ATOM     70  C   UNL     1      13.812  -4.876  11.611  1.00  0.00     0.054 A 
BRANCH  70  71
ATOM     71  S   UNL     1      13.692  -4.133  13.261  1.00  0.00     0.124 S 
ATOM     72  O   UNL     1      12.252  -3.928  13.394  1.00  0.00    -0.237 OA
ATOM     73  O   UNL     1      14.261  -5.167  14.121  1.00  0.00    -0.237 OA
ATOM     74  O   UNL     1      14.487  -2.912  13.150  1.00  0.00    -0.744 OA
ENDBRANCH  70  71
ENDBRANCH  51  65
BRANCH  52  75
ATOM     75  C   UNL     1      13.872  -9.920  -0.139  1.00  0.00    -0.014 A 
ATOM     76  C   UNL     1      14.303 -11.234  -0.392  1.00  0.00     0.010 A 
ATOM     77  C   UNL     1      13.419  -9.132  -1.214  1.00  0.00     0.010 A 
ATOM     78  C   UNL     1      14.296 -11.746  -1.693  1.00  0.00     0.020 A 
ATOM     79  C   UNL     1      13.385  -9.649  -2.512  1.00  0.00     0.020 A 
ATOM     80  C   UNL     1      13.834 -10.950  -2.745  1.00  0.00     0.054 A 
BRANCH  80  81
ATOM     81  S   UNL     1      13.778 -11.655  -4.417  1.00  0.00     0.124 S 
ATOM     82  O   UNL     1      15.189 -11.665  -4.790  1.00  0.00    -0.237 OA
ATOM     83  O   UNL     1      13.175 -12.965  -4.187  1.00  0.00    -0.237 OA
ATOM     84  O   UNL     1      12.940 -10.713  -5.156  1.00  0.00    -0.744 OA
ENDBRANCH  80  81
ENDBRANCH  52  75
BRANCH  64  85
ATOM     85  C   UNL     1      18.951  -8.152   4.309  1.00  0.00    -0.014 A 
ATOM     86  C   UNL     1      19.686  -7.275   3.492  1.00  0.00     0.010 A 
ATOM     87  C   UNL     1      19.639  -9.080   5.112  1.00  0.00     0.010 A 
ATOM     88  C   UNL     1      21.082  -7.344   3.459  1.00  0.00     0.020 A 
ATOM     89  C   UNL     1      21.035  -9.134   5.102  1.00  0.00     0.020 A 
ATOM     90  C   UNL     1      21.747  -8.273   4.265  1.00  0.00     0.054 A 
BRANCH  90  91
ATOM     91  S   UNL     1      23.561  -8.311   4.240  1.00  0.00     0.124 S 
ATOM     92  O   UNL     1      23.834  -8.944   2.954  1.00  0.00    -0.237 OA
ATOM     93  O   UNL     1      23.912  -6.896   4.331  1.00  0.00    -0.237 OA
ATOM     94  O   UNL     1      23.907  -9.109   5.414  1.00  0.00    -0.744 OA
ENDBRANCH  90  91
ENDBRANCH  64  85
ENDBRANCH  38  39
ENDBRANCH  30  33
ENDBRANCH  28  29
ENDBRANCH  27  28
ENDBRANCH   1  27
TORSDOF 19
