REMARK SMILES CCN(CC(C)(C)O)C(=O)Nc1ccc(C(=O)NCCCCNC(=O)c2ccc(-c3c4nc(c(-c5ccc(S(=O)(=O)[O-])cc5)c5ccc([nH]5)c(-c5ccc(S(=O)(=O)[O-])cc5)c5nc(c(-c6ccc(S(=O)(=O)[O-])cc6)c6ccc3[nH]6)C=C5)C=C4)cc2)c(O)c1
REMARK SMILES IDX 19 1 18 2 16 3 17 4 15 6 12 7 13 8 88 9 14 10 86 11 11 12
REMARK SMILES IDX 9 13 10 14 3 16 2 17 1 18 4 19 5 20 6 21 7 22 8 23 87 25
REMARK SMILES IDX 20 27 21 28 22 29 23 30 24 31 25 33 26 34 27 35 85 36 28 37
REMARK SMILES IDX 84 38 29 39 30 40 31 41 78 42 32 43 83 44 77 45 79 46 33 47
REMARK SMILES IDX 82 48 76 49 75 50 34 52 64 53 45 54 63 55 46 56 49 57 62 58
REMARK SMILES IDX 80 59 47 60 48 61 61 63 81 64 50 65 35 66 36 67 44 68 37 69
REMARK SMILES IDX 43 70 38 71 39 72 40 73 41 74 42 75 65 76 66 77 74 78 67 79
REMARK SMILES IDX 73 80 68 81 69 82 70 83 71 84 72 85 51 86 52 87 60 88 53 89
REMARK SMILES IDX 59 90 54 91 55 92 56 93 57 94 58 95
REMARK H PARENT 18 5 11 15 8 24 87 26 23 32 79 51 49 62
REMARK Flexibility Score: inf
ROOT
ATOM      1  C   UNL     1       0.196  -4.008   8.181  1.00  0.00     0.116 C 
ENDROOT
BRANCH   1   2
ATOM      2  N   UNL     1      -0.318  -5.286   7.723  1.00  0.00    -0.352 N 
ATOM      3  C   UNL     1       0.113  -6.066   6.676  1.00  0.00     0.255 C 
ATOM      4  O   UNL     1      -0.378  -7.180   6.510  1.00  0.00    -0.269 OA
ATOM      5  H   UNL     1      -1.081  -5.644   8.232  1.00  0.00     0.163 HD
BRANCH   3   6
ATOM      6  C   UNL     1       1.051  -5.524   5.667  1.00  0.00     0.081 A 
ATOM      7  C   UNL     1       2.262  -4.041   3.601  1.00  0.00     0.046 A 
ATOM      8  C   UNL     1       1.344  -5.036   3.324  1.00  0.00     0.027 A 
ATOM      9  C   UNL     1       2.761  -3.990   4.908  1.00  0.00     0.073 A 
ATOM     10  C   UNL     1       0.694  -5.736   4.340  1.00  0.00     0.020 A 
ATOM     11  C   UNL     1       2.192  -4.767   5.921  1.00  0.00     0.130 A 
BRANCH   7  12
ATOM     12  N   UNL     1       2.795  -3.137   2.673  1.00  0.00    -0.308 N 
ATOM     13  C   UNL     1       2.523  -2.544   1.490  1.00  0.00     0.321 C 
ATOM     14  O   UNL     1       3.493  -1.924   1.026  1.00  0.00    -0.248 OA
ATOM     15  H   UNL     1       3.672  -2.825   2.994  1.00  0.00     0.171 HD
BRANCH  13  16
ATOM     16  N   UNL     1       1.308  -2.479   0.862  1.00  0.00    -0.322 N 
BRANCH  16  17
ATOM     17  C   UNL     1       1.220  -1.580  -0.302  1.00  0.00     0.118 C 
ATOM     18  C   UNL     1       1.233  -0.105   0.087  1.00  0.00     0.027 C 
ENDBRANCH  16  17
BRANCH  16  19
ATOM     19  C   UNL     1       0.053  -3.179   1.158  1.00  0.00     0.155 C 
BRANCH  19  20
ATOM     20  C   UNL     1      -0.203  -4.428   0.239  1.00  0.00     0.077 C 
ATOM     21  C   UNL     1       1.086  -5.115  -0.262  1.00  0.00     0.043 C 
ATOM     22  C   UNL     1      -1.166  -5.415   0.927  1.00  0.00     0.043 C 
BRANCH  20  23
ATOM     23  O   UNL     1      -0.885  -3.983  -0.953  1.00  0.00    -0.389 OA
ATOM     24  H   UNL     1      -0.323  -3.355  -1.432  1.00  0.00     0.211 HD
ENDBRANCH  20  23
ENDBRANCH  19  20
ENDBRANCH  16  19
ENDBRANCH  13  16
ENDBRANCH   7  12
BRANCH  11  25
ATOM     25  O   UNL     1       2.829  -4.744   7.129  1.00  0.00    -0.507 OA
ATOM     26  H   UNL     1       2.493  -5.246   7.845  1.00  0.00     0.293 HD
ENDBRANCH  11  25
ENDBRANCH   3   6
ENDBRANCH   1   2
BRANCH   1  27
ATOM     27  C   UNL     1      -0.693  -3.251   9.156  1.00  0.00     0.023 C 
BRANCH  27  28
ATOM     28  C   UNL     1      -1.248  -4.043  10.336  1.00  0.00     0.023 C 
BRANCH  28  29
ATOM     29  C   UNL     1      -0.336  -5.094  10.956  1.00  0.00     0.116 C 
BRANCH  29  30
ATOM     30  N   UNL     1       0.917  -4.568  11.473  1.00  0.00    -0.352 N 
ATOM     31  C   UNL     1       1.435  -4.651  12.744  1.00  0.00     0.251 C 
ATOM     32  H   UNL     1       1.474  -4.085  10.821  1.00  0.00     0.163 HD
ATOM     33  O   UNL     1       2.498  -4.099  13.015  1.00  0.00    -0.269 OA
BRANCH  31  34
ATOM     34  C   UNL     1       0.673  -5.360  13.791  1.00  0.00     0.039 A 
ATOM     35  C   UNL     1       0.405  -4.697  14.989  1.00  0.00     0.014 A 
ATOM     36  C   UNL     1       0.166  -6.641  13.560  1.00  0.00     0.014 A 
ATOM     37  C   UNL     1      -0.444  -5.288  15.926  1.00  0.00     0.010 A 
ATOM     38  C   UNL     1      -0.758  -7.181  14.447  1.00  0.00     0.010 A 
ATOM     39  C   UNL     1      -1.067  -6.515  15.643  1.00  0.00    -0.014 A 
BRANCH  39  40
ATOM     40  C   UNL     1      -2.026  -7.129  16.597  1.00  0.00     0.031 A 
ATOM     41  C   UNL     1      -1.719  -8.472  17.204  1.00  0.00     0.074 A 
ATOM     42  C   UNL     1      -3.193  -6.511  16.871  1.00  0.00     0.049 A 
ATOM     43  N   UNL     1      -2.446  -9.197  18.014  1.00  0.00    -0.248 NA
ATOM     44  C   UNL     1      -0.442  -9.098  16.823  1.00  0.00     0.031 C 
ATOM     45  C   UNL     1      -3.635  -5.234  16.303  1.00  0.00     0.029 A 
ATOM     46  N   UNL     1      -4.226  -6.878  17.698  1.00  0.00    -0.354 N 
ATOM     47  C   UNL     1      -1.729 -10.370  18.215  1.00  0.00     0.074 A 
ATOM     48  C   UNL     1      -0.540 -10.287  17.398  1.00  0.00     0.031 C 
ATOM     49  C   UNL     1      -4.829  -4.908  16.826  1.00  0.00     0.029 A 
ATOM     50  C   UNL     1      -5.254  -5.965  17.738  1.00  0.00     0.049 A 
ATOM     51  H   UNL     1      -4.230  -7.716  18.215  1.00  0.00     0.167 HD
ATOM     52  C   UNL     1      -2.017 -11.413  19.029  1.00  0.00     0.031 A 
ATOM     53  C   UNL     1      -6.407  -5.976  18.434  1.00  0.00     0.031 A 
ATOM     54  C   UNL     1      -3.184 -11.479  19.866  1.00  0.00     0.049 A 
ATOM     55  C   UNL     1      -6.689  -7.128  19.360  1.00  0.00     0.074 A 
ATOM     56  C   UNL     1      -3.540 -12.462  20.771  1.00  0.00     0.029 A 
ATOM     57  N   UNL     1      -4.181 -10.516  19.905  1.00  0.00    -0.354 N 
ATOM     58  N   UNL     1      -5.967  -8.201  19.584  1.00  0.00    -0.248 NA
ATOM     59  C   UNL     1      -7.931  -7.061  20.143  1.00  0.00     0.031 C 
ATOM     60  C   UNL     1      -4.773 -12.111  21.332  1.00  0.00     0.029 A 
ATOM     61  C   UNL     1      -5.157 -10.884  20.814  1.00  0.00     0.049 A 
ATOM     62  H   UNL     1      -4.192  -9.692  19.366  1.00  0.00     0.167 HD
ATOM     63  C   UNL     1      -6.651  -8.920  20.558  1.00  0.00     0.074 A 
ATOM     64  C   UNL     1      -7.837  -8.154  20.888  1.00  0.00     0.031 C 
ATOM     65  C   UNL     1      -6.326 -10.105  21.132  1.00  0.00     0.031 A 
BRANCH  52  66
ATOM     66  C   UNL     1      -1.043 -12.562  19.053  1.00  0.00    -0.014 A 
ATOM     67  C   UNL     1       0.240 -12.414  19.613  1.00  0.00     0.010 A 
ATOM     68  C   UNL     1      -1.418 -13.809  18.522  1.00  0.00     0.010 A 
ATOM     69  C   UNL     1       1.147 -13.477  19.597  1.00  0.00     0.020 A 
ATOM     70  C   UNL     1      -0.524 -14.884  18.533  1.00  0.00     0.020 A 
ATOM     71  C   UNL     1       0.760 -14.704  19.052  1.00  0.00     0.054 A 
BRANCH  71  72
ATOM     72  S   UNL     1       1.951 -16.072  19.058  1.00  0.00     0.124 S 
ATOM     73  O   UNL     1       2.872 -15.672  17.996  1.00  0.00    -0.237 OA
ATOM     74  O   UNL     1       2.495 -16.018  20.412  1.00  0.00    -0.237 OA
ATOM     75  O   UNL     1       1.133 -17.245  18.764  1.00  0.00    -0.744 OA
ENDBRANCH  71  72
ENDBRANCH  52  66
BRANCH  53  76
ATOM     76  C   UNL     1      -7.363  -4.840  18.314  1.00  0.00    -0.014 A 
ATOM     77  C   UNL     1      -7.527  -3.932  19.375  1.00  0.00     0.010 A 
ATOM     78  C   UNL     1      -8.107  -4.655  17.135  1.00  0.00     0.010 A 
ATOM     79  C   UNL     1      -8.432  -2.872  19.268  1.00  0.00     0.020 A 
ATOM     80  C   UNL     1      -8.994  -3.580  17.014  1.00  0.00     0.020 A 
ATOM     81  C   UNL     1      -9.160  -2.702  18.087  1.00  0.00     0.054 A 
BRANCH  81  82
ATOM     82  S   UNL     1     -10.293  -1.291  17.951  1.00  0.00     0.124 S 
ATOM     83  O   UNL     1     -11.410  -1.716  18.788  1.00  0.00    -0.237 OA
ATOM     84  O   UNL     1      -9.490  -0.189  18.476  1.00  0.00    -0.237 OA
ATOM     85  O   UNL     1     -10.574  -1.217  16.518  1.00  0.00    -0.744 OA
ENDBRANCH  81  82
ENDBRANCH  53  76
BRANCH  65  86
ATOM     86  C   UNL     1      -7.239 -10.624  22.210  1.00  0.00    -0.014 A 
ATOM     87  C   UNL     1      -8.511 -11.140  21.907  1.00  0.00     0.010 A 
ATOM     88  C   UNL     1      -6.793 -10.633  23.544  1.00  0.00     0.010 A 
ATOM     89  C   UNL     1      -9.337 -11.621  22.926  1.00  0.00     0.020 A 
ATOM     90  C   UNL     1      -7.605 -11.139  24.562  1.00  0.00     0.020 A 
ATOM     91  C   UNL     1      -8.880 -11.614  24.248  1.00  0.00     0.054 A 
BRANCH  91  92
ATOM     92  S   UNL     1      -9.957 -12.270  25.550  1.00  0.00     0.124 S 
ATOM     93  O   UNL     1     -10.930 -11.193  25.709  1.00  0.00    -0.237 OA
ATOM     94  O   UNL     1     -10.473 -13.499  24.953  1.00  0.00    -0.237 OA
ATOM     95  O   UNL     1      -9.053 -12.466  26.681  1.00  0.00    -0.744 OA
ENDBRANCH  91  92
ENDBRANCH  65  86
ENDBRANCH  39  40
ENDBRANCH  31  34
ENDBRANCH  29  30
ENDBRANCH  28  29
ENDBRANCH  27  28
ENDBRANCH   1  27
TORSDOF 21
