REMARK SMILES Cc1ccc(NC(=O)c2ccccc2NC(=O)[C@H]2CCCC[C@H]2C(=O)NCCCCNC(=O)c2ccc(-c3c4nc(c(-c5ccc(S(=O)(=O)[O-])cc5)c5ccc([nH]5)c(-c5ccc(S(=O)(=O)[O-])cc5)c5nc(c(-c6ccc(S(=O)(=O)[O-])cc6)c6ccc3[nH]6)C=C5)C=C4)cc2)cc1
REMARK SMILES IDX 28 1 27 2 26 3 24 4 25 5 23 7 18 8 19 9 20 10 22 11 21 12
REMARK SMILES IDX 16 13 15 14 17 16 14 17 9 18 10 19 11 20 13 21 12 22 7 23
REMARK SMILES IDX 6 24 8 26 5 27 1 28 2 29 3 30 95 31 4 32 94 33 29 34 30 35
REMARK SMILES IDX 31 36 32 37 33 39 34 40 35 41 93 42 36 43 92 44 37 45 38 46
REMARK SMILES IDX 39 47 86 48 40 49 91 50 85 51 87 52 41 53 90 54 84 55 83 56
REMARK SMILES IDX 42 58 72 59 53 60 71 61 54 62 57 63 70 64 88 65 55 66 56 67
REMARK SMILES IDX 69 69 89 70 58 71 43 72 44 73 52 74 45 75 51 76 46 77 47 78
REMARK SMILES IDX 48 79 49 80 50 81 73 82 74 83 82 84 75 85 81 86 76 87 77 88
REMARK SMILES IDX 78 89 79 90 80 91 59 92 60 93 68 94 61 95 67 96 62 97 63 98
REMARK SMILES IDX 64 99 65 100 66 101
REMARK H PARENT 26 6 15 15 6 25 31 38 87 57 57 68
REMARK Flexibility Score: inf
ROOT
ATOM      1  C   UNL     1       1.898  -0.163   6.114  1.00  0.00     0.023 C 
ENDROOT
BRANCH   1   2
ATOM      2  C   UNL     1       0.764  -0.808   6.918  1.00  0.00     0.116 C 
BRANCH   2   3
ATOM      3  N   UNL     1      -0.534  -0.289   6.501  1.00  0.00    -0.356 N 
ATOM      4  C   UNL     1      -1.493  -0.730   5.654  1.00  0.00     0.223 C 
ATOM      5  O   UNL     1      -2.413   0.067   5.416  1.00  0.00    -0.275 OA
ATOM      6  H   UNL     1      -0.762   0.568   6.929  1.00  0.00     0.163 HD
BRANCH   4   7
ATOM      7  C   UNL     1      -1.512  -2.085   4.939  1.00  0.00     0.091 C 
ATOM      8  C   UNL     1      -0.814  -2.068   3.563  1.00  0.00     0.091 C 
ATOM      9  C   UNL     1      -1.074  -3.382   2.799  1.00  0.00     0.014 C 
ATOM     10  C   UNL     1      -0.852  -4.643   3.646  1.00  0.00     0.001 C 
ATOM     11  C   UNL     1      -1.285  -3.343   5.778  1.00  0.00     0.014 C 
ATOM     12  C   UNL     1      -1.614  -4.599   4.968  1.00  0.00     0.001 C 
BRANCH   8  13
ATOM     13  C   UNL     1       0.681  -1.886   3.668  1.00  0.00     0.228 C 
ATOM     14  N   UNL     1       1.384  -0.897   3.064  1.00  0.00    -0.325 N 
ATOM     15  H   UNL     1       2.308  -0.877   3.404  1.00  0.00     0.169 HD
ATOM     16  O   UNL     1       1.337  -2.652   4.382  1.00  0.00    -0.274 OA
BRANCH  14  17
ATOM     17  C   UNL     1       1.195   0.107   2.102  1.00  0.00     0.054 A 
ATOM     18  C   UNL     1       2.154   1.147   1.949  1.00  0.00     0.063 A 
ATOM     19  C   UNL     1       1.893   2.184   1.024  1.00  0.00     0.016 A 
ATOM     20  C   UNL     1       0.743   2.193   0.241  1.00  0.00     0.001 A 
ATOM     21  C   UNL     1       0.082   0.102   1.251  1.00  0.00     0.027 A 
ATOM     22  C   UNL     1      -0.155   1.144   0.347  1.00  0.00     0.002 A 
BRANCH  18  23
ATOM     23  C   UNL     1       3.361   1.423   2.795  1.00  0.00     0.257 C 
ATOM     24  N   UNL     1       4.256   0.505   3.287  1.00  0.00    -0.322 N 
ATOM     25  H   UNL     1       4.881   0.898   3.939  1.00  0.00     0.170 HD
ATOM     26  O   UNL     1       3.549   2.601   3.126  1.00  0.00    -0.269 OA
BRANCH  24  27
ATOM     27  C   UNL     1       4.487  -0.859   3.078  1.00  0.00     0.041 A 
ATOM     28  C   UNL     1       4.135  -5.123   3.229  1.00  0.00     0.044 C 
ATOM     29  C   UNL     1       4.403  -3.653   3.117  1.00  0.00    -0.051 A 
ATOM     30  C   UNL     1       4.021  -2.947   1.968  1.00  0.00     0.005 A 
ATOM     31  C   UNL     1       4.957  -2.954   4.192  1.00  0.00     0.005 A 
ATOM     32  C   UNL     1       4.080  -1.550   1.940  1.00  0.00     0.026 A 
ATOM     33  C   UNL     1       5.021  -1.563   4.163  1.00  0.00     0.026 A 
ENDBRANCH  24  27
ENDBRANCH  18  23
ENDBRANCH  14  17
ENDBRANCH   8  13
ENDBRANCH   4   7
ENDBRANCH   2   3
ENDBRANCH   1   2
BRANCH   1  34
ATOM     34  C   UNL     1       2.411   1.181   6.597  1.00  0.00     0.023 C 
BRANCH  34  35
ATOM     35  C   UNL     1       3.258   1.075   7.846  1.00  0.00     0.116 C 
BRANCH  35  36
ATOM     36  N   UNL     1       4.699   1.114   7.626  1.00  0.00    -0.352 N 
ATOM     37  C   UNL     1       5.694   1.166   8.597  1.00  0.00     0.251 C 
ATOM     38  H   UNL     1       5.001   1.103   6.689  1.00  0.00     0.163 HD
ATOM     39  O   UNL     1       6.864   1.355   8.312  1.00  0.00    -0.269 OA
BRANCH  37  40
ATOM     40  C   UNL     1       5.274   0.907   9.996  1.00  0.00     0.039 A 
ATOM     41  C   UNL     1       5.683  -0.290  10.588  1.00  0.00     0.014 A 
ATOM     42  C   UNL     1       4.208   1.631  10.515  1.00  0.00     0.014 A 
ATOM     43  C   UNL     1       4.872  -0.878  11.558  1.00  0.00     0.010 A 
ATOM     44  C   UNL     1       3.322   0.964  11.338  1.00  0.00     0.010 A 
ATOM     45  C   UNL     1       3.627  -0.312  11.838  1.00  0.00    -0.014 A 
BRANCH  45  46
ATOM     46  C   UNL     1       2.550  -1.005  12.551  1.00  0.00     0.031 A 
ATOM     47  C   UNL     1       2.014  -0.438  13.821  1.00  0.00     0.074 A 
ATOM     48  C   UNL     1       1.971  -2.123  12.049  1.00  0.00     0.049 A 
ATOM     49  N   UNL     1       1.372  -1.118  14.715  1.00  0.00    -0.248 NA
ATOM     50  C   UNL     1       2.224   0.951  14.219  1.00  0.00     0.031 C 
ATOM     51  C   UNL     1       0.701  -2.708  12.482  1.00  0.00     0.029 A 
ATOM     52  N   UNL     1       2.494  -3.088  11.185  1.00  0.00    -0.354 N 
ATOM     53  C   UNL     1       0.838  -0.226  15.620  1.00  0.00     0.074 A 
ATOM     54  C   UNL     1       1.466   1.034  15.314  1.00  0.00     0.031 C 
ATOM     55  C   UNL     1       0.693  -4.010  12.162  1.00  0.00     0.029 A 
ATOM     56  C   UNL     1       2.001  -4.330  11.621  1.00  0.00     0.049 A 
ATOM     57  H   UNL     1       3.092  -2.930  10.419  1.00  0.00     0.167 HD
ATOM     58  C   UNL     1      -0.174  -0.617  16.446  1.00  0.00     0.031 A 
ATOM     59  C   UNL     1       2.772  -5.394  11.992  1.00  0.00     0.031 A 
ATOM     60  C   UNL     1      -0.433  -2.052  16.345  1.00  0.00     0.049 A 
ATOM     61  C   UNL     1       2.490  -5.877  13.399  1.00  0.00     0.074 A 
ATOM     62  C   UNL     1      -1.416  -2.798  15.716  1.00  0.00     0.029 A 
ATOM     63  N   UNL     1       0.551  -2.949  16.742  1.00  0.00    -0.354 N 
ATOM     64  N   UNL     1       1.739  -5.235  14.249  1.00  0.00    -0.248 NA
ATOM     65  C   UNL     1       3.086  -7.076  13.987  1.00  0.00     0.031 C 
ATOM     66  C   UNL     1      -0.979  -4.148  15.674  1.00  0.00     0.029 A 
ATOM     67  C   UNL     1       0.254  -4.222  16.298  1.00  0.00     0.049 A 
ATOM     68  H   UNL     1       1.349  -2.709  17.266  1.00  0.00     0.167 HD
ATOM     69  C   UNL     1       1.790  -5.852  15.470  1.00  0.00     0.074 A 
ATOM     70  C   UNL     1       2.619  -7.021  15.248  1.00  0.00     0.031 C 
ATOM     71  C   UNL     1       1.170  -5.323  16.566  1.00  0.00     0.031 A 
BRANCH  58  72
ATOM     72  C   UNL     1      -1.112   0.344  17.156  1.00  0.00    -0.014 A 
ATOM     73  C   UNL     1      -2.389  -0.101  17.559  1.00  0.00     0.010 A 
ATOM     74  C   UNL     1      -0.840   1.704  17.392  1.00  0.00     0.010 A 
ATOM     75  C   UNL     1      -3.364   0.775  18.066  1.00  0.00     0.020 A 
ATOM     76  C   UNL     1      -1.809   2.599  17.868  1.00  0.00     0.020 A 
ATOM     77  C   UNL     1      -3.075   2.131  18.188  1.00  0.00     0.054 A 
BRANCH  77  78
ATOM     78  S   UNL     1      -4.362   3.271  18.757  1.00  0.00     0.124 S 
ATOM     79  O   UNL     1      -5.421   3.067  17.772  1.00  0.00    -0.237 OA
ATOM     80  O   UNL     1      -4.646   2.779  20.102  1.00  0.00    -0.237 OA
ATOM     81  O   UNL     1      -3.715   4.581  18.700  1.00  0.00    -0.744 OA
ENDBRANCH  77  78
ENDBRANCH  58  72
BRANCH  59  82
ATOM     82  C   UNL     1       4.092  -5.464  11.313  1.00  0.00    -0.014 A 
ATOM     83  C   UNL     1       4.088  -5.803   9.945  1.00  0.00     0.010 A 
ATOM     84  C   UNL     1       5.202  -4.788  11.850  1.00  0.00     0.010 A 
ATOM     85  C   UNL     1       5.070  -5.301   9.091  1.00  0.00     0.020 A 
ATOM     86  C   UNL     1       6.192  -4.289  10.993  1.00  0.00     0.020 A 
ATOM     87  C   UNL     1       6.072  -4.484   9.614  1.00  0.00     0.054 A 
BRANCH  87  88
ATOM     88  S   UNL     1       7.065  -3.509   8.445  1.00  0.00     0.124 S 
ATOM     89  O   UNL     1       7.594  -4.532   7.548  1.00  0.00    -0.237 OA
ATOM     90  O   UNL     1       6.054  -2.626   7.865  1.00  0.00    -0.237 OA
ATOM     91  O   UNL     1       8.046  -2.855   9.306  1.00  0.00    -0.744 OA
ENDBRANCH  87  88
ENDBRANCH  59  82
BRANCH  71  92
ATOM     92  C   UNL     1       1.315  -5.809  17.988  1.00  0.00    -0.014 A 
ATOM     93  C   UNL     1       2.433  -6.504  18.475  1.00  0.00     0.010 A 
ATOM     94  C   UNL     1       0.327  -5.439  18.933  1.00  0.00     0.010 A 
ATOM     95  C   UNL     1       2.531  -6.868  19.827  1.00  0.00     0.020 A 
ATOM     96  C   UNL     1       0.435  -5.761  20.289  1.00  0.00     0.020 A 
ATOM     97  C   UNL     1       1.529  -6.499  20.725  1.00  0.00     0.054 A 
BRANCH  97  98
ATOM     98  S   UNL     1       1.686  -6.919  22.480  1.00  0.00     0.124 S 
ATOM     99  O   UNL     1       1.014  -8.214  22.540  1.00  0.00    -0.237 OA
ATOM    100  O   UNL     1       3.132  -6.956  22.684  1.00  0.00    -0.237 OA
ATOM    101  O   UNL     1       0.998  -5.821  23.154  1.00  0.00    -0.744 OA
ENDBRANCH  97  98
ENDBRANCH  71  92
ENDBRANCH  45  46
ENDBRANCH  37  40
ENDBRANCH  35  36
ENDBRANCH  34  35
ENDBRANCH   1  34
TORSDOF 18
