REMARK SMILES O=C(NCCCCNC(=O)c1ccc(-c2c3nc(c(-c4ccc(S(=O)(=O)[O-])cc4)c4ccc([nH]4)c(-c4ccc(S(=O)(=O)[O-])cc4)c4nc(c(-c5ccc(S(=O)(=O)[O-])cc5)c5ccc2[nH]5)C=C4)C=C3)cc1)C1=Cc2cc(S(F)(F)(F)(F)F)ccc2O[C@@H]1C(F)(F)F
REMARK SMILES IDX 6 1 5 2 4 3 3 4 1 5 2 6 71 8 72 9 86 10 73 11 85 12 74 13
REMARK SMILES IDX 84 14 75 15 83 16 82 17 87 18 88 19 89 20 90 21 76 22 77 23
REMARK SMILES IDX 78 24 79 25 80 26 81 27 7 28 8 29 9 30 10 32 11 33 12 34
REMARK SMILES IDX 70 35 13 36 69 37 14 38 15 39 16 40 63 41 17 42 68 43 62 44
REMARK SMILES IDX 64 45 18 46 67 47 61 48 60 49 19 51 49 52 30 53 48 54 31 55
REMARK SMILES IDX 34 56 47 57 65 58 32 59 33 60 46 62 66 63 35 64 20 65 21 66
REMARK SMILES IDX 29 67 22 68 28 69 23 70 24 71 25 72 26 73 27 74 50 75 51 76
REMARK SMILES IDX 59 77 52 78 58 79 53 80 54 81 55 82 56 83 57 84 36 85 37 86
REMARK SMILES IDX 45 87 38 88 44 89 39 90 40 91 41 92 42 93 43 94
REMARK H PARENT 3 7 8 31 64 50 34 61
REMARK Flexibility Score: inf
ROOT
ATOM      1  C   UNL     1       4.453  -0.349   3.655  1.00  0.00     0.023 C 
ENDROOT
BRANCH   1   2
ATOM      2  C   UNL     1       4.959   0.298   2.376  1.00  0.00     0.023 C 
BRANCH   2   3
ATOM      3  C   UNL     1       4.453  -0.486   1.177  1.00  0.00     0.116 C 
BRANCH   3   4
ATOM      4  N   UNL     1       2.983  -0.486   1.177  1.00  0.00    -0.352 N 
ATOM      5  O   UNL     1       0.977   0.088   0.041  1.00  0.00    -0.270 OA
ATOM      6  C   UNL     1       2.248   0.088   0.041  1.00  0.00     0.251 C 
ATOM      7  H   UNL     1       2.490  -0.871   1.937  1.00  0.00     0.163 HD
BRANCH   6   8
ATOM      8  C   UNL     1       3.008   0.683  -1.134  1.00  0.00     0.067 C 
ATOM      9  C   UNL     1       4.368   0.683  -1.134  1.00  0.00     0.025 C 
ATOM     10  C   UNL     1       2.248   1.277  -2.309  1.00  0.00     0.314 C 
ATOM     11  C   UNL     1       5.128   0.088   0.041  1.00  0.00     0.019 A 
ATOM     12  O   UNL     1       3.513  -1.648   0.198  1.00  0.00    -0.475 OA
ATOM     13  C   UNL     1       6.264   0.746   0.482  1.00  0.00     0.036 A 
ATOM     14  C   UNL     1       4.764  -1.079   0.557  1.00  0.00     0.128 A 
ATOM     15  C   UNL     1       7.117  -0.054   1.278  1.00  0.00     0.107 A 
ATOM     16  C   UNL     1       5.587  -1.743   1.435  1.00  0.00     0.048 A 
ATOM     17  C   UNL     1       6.754  -1.178   1.868  1.00  0.00     0.028 A 
BRANCH  10  18
ATOM     18  C   UNL     1       2.615   0.529  -3.580  1.00  0.00     0.429 C 
ATOM     19  F   UNL     1       2.293  -0.755  -3.448  1.00  0.00    -0.167 F 
ATOM     20  F   UNL     1       1.950   1.049  -4.608  1.00  0.00    -0.167 F 
ATOM     21  F   UNL     1       3.922   0.639  -3.797  1.00  0.00    -0.167 F 
ENDBRANCH  10  18
BRANCH  15  22
ATOM     22  S   UNL     1       8.825   0.501   1.503  1.00  0.00     0.310 S 
ATOM     23  F   UNL     1       8.682   0.501   3.083  1.00  0.00    -0.094 F 
ATOM     24  F   UNL     1       8.305   1.988   1.525  1.00  0.00    -0.094 F 
ATOM     25  F   UNL     1      10.291   0.981   1.698  1.00  0.00    -0.094 F 
ATOM     26  F   UNL     1       9.309  -0.998   1.619  1.00  0.00    -0.094 F 
ATOM     27  F   UNL     1       7.329  -0.003   1.419  1.00  0.00    -0.094 F 
ENDBRANCH  15  22
ENDBRANCH   6   8
ENDBRANCH   3   4
ENDBRANCH   2   3
ENDBRANCH   1   2
BRANCH   1  28
ATOM     28  C   UNL     1       4.959  -1.780   3.734  1.00  0.00     0.116 C 
BRANCH  28  29
ATOM     29  N   UNL     1       6.429  -1.780   3.734  1.00  0.00    -0.352 N 
ATOM     30  C   UNL     1       7.164  -2.354   4.870  1.00  0.00     0.251 C 
ATOM     31  H   UNL     1       6.921  -1.395   2.973  1.00  0.00     0.163 HD
ATOM     32  O   UNL     1       8.435  -2.354   4.870  1.00  0.00    -0.269 OA
BRANCH  30  33
ATOM     33  C   UNL     1       6.404  -2.949   6.045  1.00  0.00     0.039 A 
ATOM     34  C   UNL     1       6.839  -2.746   7.344  1.00  0.00     0.014 A 
ATOM     35  C   UNL     1       5.375  -3.744   5.779  1.00  0.00     0.014 A 
ATOM     36  C   UNL     1       6.300  -3.661   8.278  1.00  0.00     0.010 A 
ATOM     37  C   UNL     1       4.809  -4.510   6.770  1.00  0.00     0.010 A 
ATOM     38  C   UNL     1       5.229  -4.404   8.067  1.00  0.00    -0.014 A 
BRANCH  38  39
ATOM     39  C   UNL     1       4.503  -5.105   9.203  1.00  0.00     0.031 A 
ATOM     40  C   UNL     1       4.434  -6.496   9.111  1.00  0.00     0.074 A 
ATOM     41  C   UNL     1       4.064  -4.379  10.297  1.00  0.00     0.049 A 
ATOM     42  N   UNL     1       3.985  -7.351  10.032  1.00  0.00    -0.248 NA
ATOM     43  C   UNL     1       4.868  -7.267   7.937  1.00  0.00     0.031 C 
ATOM     44  C   UNL     1       4.137  -2.976  10.401  1.00  0.00     0.029 A 
ATOM     45  N   UNL     1       3.490  -4.857  11.454  1.00  0.00    -0.354 N 
ATOM     46  C   UNL     1       4.095  -8.605   9.588  1.00  0.00     0.074 A 
ATOM     47  C   UNL     1       4.659  -8.568   8.232  1.00  0.00     0.031 C 
ATOM     48  C   UNL     1       3.606  -2.613  11.598  1.00  0.00     0.029 A 
ATOM     49  C   UNL     1       3.192  -3.783  12.263  1.00  0.00     0.049 A 
ATOM     50  H   UNL     1       3.323  -5.804  11.667  1.00  0.00     0.167 HD
ATOM     51  C   UNL     1       3.749  -9.777  10.263  1.00  0.00     0.031 A 
ATOM     52  C   UNL     1       2.590  -3.801  13.511  1.00  0.00     0.031 A 
ATOM     53  C   UNL     1       3.187  -9.798  11.530  1.00  0.00     0.049 A 
ATOM     54  C   UNL     1       2.190  -4.971  14.162  1.00  0.00     0.074 A 
ATOM     55  C   UNL     1       2.840 -10.971  12.226  1.00  0.00     0.029 A 
ATOM     56  N   UNL     1       2.866  -8.722  12.328  1.00  0.00    -0.354 N 
ATOM     57  N   UNL     1       2.337  -6.226  13.735  1.00  0.00    -0.248 NA
ATOM     58  C   UNL     1       1.523  -5.001  15.470  1.00  0.00     0.031 C 
ATOM     59  C   UNL     1       2.308 -10.608  13.424  1.00  0.00     0.029 A 
ATOM     60  C   UNL     1       2.314  -9.202  13.494  1.00  0.00     0.049 A 
ATOM     61  H   UNL     1       3.007  -7.774  12.103  1.00  0.00     0.167 HD
ATOM     62  C   UNL     1       1.849  -7.079  14.639  1.00  0.00     0.074 A 
ATOM     63  C   UNL     1       1.312  -6.302  15.765  1.00  0.00     0.031 C 
ATOM     64  C   UNL     1       1.834  -8.473  14.571  1.00  0.00     0.031 A 
BRANCH  51  65
ATOM     65  C   UNL     1       4.002 -11.105   9.568  1.00  0.00    -0.014 A 
ATOM     66  C   UNL     1       5.333 -11.394   9.316  1.00  0.00     0.010 A 
ATOM     67  C   UNL     1       3.043 -11.978   9.285  1.00  0.00     0.010 A 
ATOM     68  C   UNL     1       5.528 -12.525   8.489  1.00  0.00     0.020 A 
ATOM     69  C   UNL     1       3.327 -13.130   8.592  1.00  0.00     0.020 A 
ATOM     70  C   UNL     1       4.614 -13.450   8.258  1.00  0.00     0.054 A 
BRANCH  70  71
ATOM     71  S   UNL     1       5.041 -15.054   7.537  1.00  0.00     0.124 S 
ATOM     72  O   UNL     1       5.674 -14.842   6.159  1.00  0.00    -0.237 OA
ATOM     73  O   UNL     1       6.036 -15.775   8.449  1.00  0.00    -0.237 OA
ATOM     74  O   UNL     1       3.627 -16.001   7.375  1.00  0.00    -0.744 OA
ENDBRANCH  70  71
ENDBRANCH  51  65
BRANCH  52  75
ATOM     75  C   UNL     1       2.352  -2.474  14.212  1.00  0.00    -0.014 A 
ATOM     76  C   UNL     1       2.829  -2.260  15.495  1.00  0.00     0.010 A 
ATOM     77  C   UNL     1       1.581  -1.579  13.606  1.00  0.00     0.010 A 
ATOM     78  C   UNL     1       2.196  -1.190  16.171  1.00  0.00     0.020 A 
ATOM     79  C   UNL     1       1.107  -0.485  14.290  1.00  0.00     0.020 A 
ATOM     80  C   UNL     1       1.491  -0.243  15.580  1.00  0.00     0.054 A 
BRANCH  80  81
ATOM     81  S   UNL     1       1.056   1.294  16.431  1.00  0.00     0.124 S 
ATOM     82  O   UNL     1       0.224   0.971  17.674  1.00  0.00    -0.237 OA
ATOM     83  O   UNL     1       2.334   2.025  16.849  1.00  0.00    -0.237 OA
ATOM     84  O   UNL     1       0.146   2.290  15.380  1.00  0.00    -0.744 OA
ENDBRANCH  80  81
ENDBRANCH  52  75
BRANCH  64  85
ATOM     85  C   UNL     1       1.256  -9.238  15.751  1.00  0.00    -0.014 A 
ATOM     86  C   UNL     1      -0.006  -8.944  16.239  1.00  0.00     0.010 A 
ATOM     87  C   UNL     1       2.059 -10.086  16.383  1.00  0.00     0.010 A 
ATOM     88  C   UNL     1      -0.222  -9.378  17.569  1.00  0.00     0.020 A 
ATOM     89  C   UNL     1       1.722 -10.578  17.621  1.00  0.00     0.020 A 
ATOM     90  C   UNL     1       0.515 -10.281  18.191  1.00  0.00     0.054 A 
BRANCH  90  91
ATOM     91  S   UNL     1      -0.043 -11.081  19.715  1.00  0.00     0.124 S 
ATOM     92  O   UNL     1      -0.271 -10.020  20.794  1.00  0.00    -0.237 OA
ATOM     93  O   UNL     1      -1.352 -11.829  19.450  1.00  0.00    -0.237 OA
ATOM     94  O   UNL     1       1.148 -12.187  20.247  1.00  0.00    -0.744 OA
ENDBRANCH  90  91
ENDBRANCH  64  85
ENDBRANCH  38  39
ENDBRANCH  30  33
ENDBRANCH  28  29
ENDBRANCH   1  28
TORSDOF 16
