REMARK SMILES O=C(NCCCCNC(=O)[C@H](c1c[nH]c2cc(OCc3ccccc3)ccc12)[NH+]1CC[NH+]([C@H]2CCS(=O)(=O)C2)CC1)c1ccc(-c2c3nc(c(-c4ccc(S(=O)(=O)[O-])cc4)c4ccc([nH]4)c(-c4ccc(S(=O)(=O)[O-])cc4)c4nc(c(-c5ccc(S(=O)(=O)[O-])cc5)c5ccc2[nH]5)C=C4)C=C3)cc1
REMARK SMILES IDX 6 1 5 2 4 3 3 4 1 5 2 6 42 8 43 9 101 10 44 11 100 12 45 13
REMARK SMILES IDX 46 14 47 15 94 16 48 17 99 18 93 19 95 20 49 21 98 22 92 23
REMARK SMILES IDX 91 24 50 26 80 27 61 28 79 29 62 30 65 31 78 32 96 33 63 34
REMARK SMILES IDX 64 35 77 37 97 38 66 39 51 40 52 41 60 42 53 43 59 44 54 45
REMARK SMILES IDX 55 46 56 47 57 48 58 49 81 50 82 51 90 52 83 53 89 54 84 55
REMARK SMILES IDX 85 56 86 57 87 58 88 59 67 60 68 61 76 62 69 63 75 64 70 65
REMARK SMILES IDX 71 66 72 67 73 68 74 69 7 70 8 71 9 72 10 74 11 75 29 76
REMARK SMILES IDX 30 77 41 78 31 80 40 81 32 82 33 84 34 85 39 86 35 87 36 88
REMARK SMILES IDX 37 89 38 90 12 91 13 92 28 93 14 94 15 95 27 96 16 98 26 99
REMARK SMILES IDX 17 100 18 101 19 102 20 103 21 104 25 105 22 106 24 107
REMARK SMILES IDX 23 108
REMARK H PARENT 3 7 95 25 65 36 8 73 29 79 32 83 14 97
REMARK Flexibility Score: inf
ROOT
ATOM      1  C   UNL     1       1.489  -8.597  -6.824  1.00  0.00     0.023 C 
ENDROOT
BRANCH   1   2
ATOM      2  C   UNL     1       3.018  -8.733  -6.849  1.00  0.00     0.023 C 
BRANCH   2   3
ATOM      3  C   UNL     1       3.765  -8.379  -5.564  1.00  0.00     0.116 C 
BRANCH   3   4
ATOM      4  N   UNL     1       3.509  -9.294  -4.459  1.00  0.00    -0.352 N 
ATOM      5  O   UNL     1       3.878 -10.987  -3.013  1.00  0.00    -0.269 OA
ATOM      6  C   UNL     1       4.330 -10.236  -3.873  1.00  0.00     0.251 C 
ATOM      7  H   UNL     1       2.608  -9.230  -4.068  1.00  0.00     0.163 HD
BRANCH   6   8
ATOM      8  C   UNL     1       5.739 -10.370  -4.307  1.00  0.00     0.039 A 
ATOM      9  C   UNL     1       6.547  -9.245  -4.457  1.00  0.00     0.014 A 
ATOM     10  C   UNL     1       6.253 -11.639  -4.594  1.00  0.00     0.014 A 
ATOM     11  C   UNL     1       7.776  -9.361  -5.096  1.00  0.00     0.010 A 
ATOM     12  C   UNL     1       7.538 -11.764  -5.136  1.00  0.00     0.010 A 
ATOM     13  C   UNL     1       8.289 -10.620  -5.450  1.00  0.00    -0.014 A 
BRANCH  13  14
ATOM     14  C   UNL     1       9.614 -10.704  -6.127  1.00  0.00     0.031 A 
ATOM     15  C   UNL     1       9.751 -11.276  -7.516  1.00  0.00     0.074 A 
ATOM     16  C   UNL     1      10.699 -10.204  -5.499  1.00  0.00     0.049 A 
ATOM     17  N   UNL     1      10.819 -11.356  -8.271  1.00  0.00    -0.248 NA
ATOM     18  C   UNL     1       8.541 -11.837  -8.138  1.00  0.00     0.031 C 
ATOM     19  C   UNL     1      10.700  -9.623  -4.154  1.00  0.00     0.029 A 
ATOM     20  N   UNL     1      11.999 -10.075  -5.915  1.00  0.00    -0.354 N 
ATOM     21  C   UNL     1      10.418 -11.997  -9.440  1.00  0.00     0.074 A 
ATOM     22  C   UNL     1       9.014 -12.309  -9.284  1.00  0.00     0.031 C 
ATOM     23  C   UNL     1      11.921  -9.139  -3.884  1.00  0.00     0.029 A 
ATOM     24  C   UNL     1      12.808  -9.442  -5.000  1.00  0.00     0.049 A 
ATOM     25  H   UNL     1      12.323 -10.403  -6.785  1.00  0.00     0.167 HD
ATOM     26  C   UNL     1      11.151 -12.297 -10.542  1.00  0.00     0.031 A 
ATOM     27  C   UNL     1      14.121  -9.147  -5.041  1.00  0.00     0.031 A 
ATOM     28  C   UNL     1      12.550 -11.983 -10.692  1.00  0.00     0.049 A 
ATOM     29  C   UNL     1      14.915  -9.521  -6.259  1.00  0.00     0.074 A 
ATOM     30  C   UNL     1      13.368 -12.208 -11.787  1.00  0.00     0.029 A 
ATOM     31  N   UNL     1      13.342 -11.389  -9.721  1.00  0.00    -0.354 N 
ATOM     32  N   UNL     1      14.505 -10.088  -7.368  1.00  0.00    -0.248 NA
ATOM     33  C   UNL     1      16.350  -9.207  -6.233  1.00  0.00     0.031 C 
ATOM     34  C   UNL     1      14.668 -11.816 -11.452  1.00  0.00     0.029 A 
ATOM     35  C   UNL     1      14.646 -11.271 -10.178  1.00  0.00     0.049 A 
ATOM     36  H   UNL     1      13.025 -11.095  -8.836  1.00  0.00     0.167 HD
ATOM     37  C   UNL     1      15.627 -10.171  -8.186  1.00  0.00     0.074 A 
ATOM     38  C   UNL     1      16.725  -9.579  -7.448  1.00  0.00     0.031 C 
ATOM     39  C   UNL     1      15.735 -10.686  -9.435  1.00  0.00     0.031 A 
BRANCH  26  40
ATOM     40  C   UNL     1      10.466 -13.039 -11.665  1.00  0.00    -0.014 A 
ATOM     41  C   UNL     1       9.476 -12.430 -12.458  1.00  0.00     0.010 A 
ATOM     42  C   UNL     1      10.859 -14.358 -11.964  1.00  0.00     0.010 A 
ATOM     43  C   UNL     1       8.863 -13.139 -13.496  1.00  0.00     0.020 A 
ATOM     44  C   UNL     1      10.271 -15.060 -13.021  1.00  0.00     0.020 A 
ATOM     45  C   UNL     1       9.262 -14.451 -13.768  1.00  0.00     0.054 A 
BRANCH  45  46
ATOM     46  S   UNL     1       8.456 -15.342 -15.128  1.00  0.00     0.124 S 
ATOM     47  O   UNL     1       7.120 -15.576 -14.585  1.00  0.00    -0.237 OA
ATOM     48  O   UNL     1       8.527 -14.382 -16.226  1.00  0.00    -0.237 OA
ATOM     49  O   UNL     1       9.277 -16.539 -15.296  1.00  0.00    -0.744 OA
ENDBRANCH  45  46
ENDBRANCH  26  40
BRANCH  27  50
ATOM     50  C   UNL     1      14.763  -8.462  -3.885  1.00  0.00    -0.014 A 
ATOM     51  C   UNL     1      15.247  -7.148  -4.007  1.00  0.00     0.010 A 
ATOM     52  C   UNL     1      14.880  -9.121  -2.647  1.00  0.00     0.010 A 
ATOM     53  C   UNL     1      15.853  -6.513  -2.919  1.00  0.00     0.020 A 
ATOM     54  C   UNL     1      15.453  -8.477  -1.548  1.00  0.00     0.020 A 
ATOM     55  C   UNL     1      15.949  -7.181  -1.695  1.00  0.00     0.054 A 
BRANCH  55  56
ATOM     56  S   UNL     1      16.699  -6.321  -0.286  1.00  0.00     0.124 S 
ATOM     57  O   UNL     1      18.108  -6.292  -0.664  1.00  0.00    -0.237 OA
ATOM     58  O   UNL     1      16.011  -5.033  -0.302  1.00  0.00    -0.237 OA
ATOM     59  O   UNL     1      16.373  -7.179   0.851  1.00  0.00    -0.744 OA
ENDBRANCH  55  56
ENDBRANCH  27  50
BRANCH  39  60
ATOM     60  C   UNL     1      17.080 -10.588 -10.108  1.00  0.00    -0.014 A 
ATOM     61  C   UNL     1      18.185 -11.337  -9.665  1.00  0.00     0.010 A 
ATOM     62  C   UNL     1      17.231  -9.744 -11.225  1.00  0.00     0.010 A 
ATOM     63  C   UNL     1      19.426 -11.206 -10.295  1.00  0.00     0.020 A 
ATOM     64  C   UNL     1      18.460  -9.638 -11.879  1.00  0.00     0.020 A 
ATOM     65  C   UNL     1      19.555 -10.356 -11.397  1.00  0.00     0.054 A 
BRANCH  65  66
ATOM     66  S   UNL     1      21.170 -10.221 -12.212  1.00  0.00     0.124 S 
ATOM     67  O   UNL     1      21.941  -9.457 -11.235  1.00  0.00    -0.237 OA
ATOM     68  O   UNL     1      21.566 -11.618 -12.370  1.00  0.00    -0.237 OA
ATOM     69  O   UNL     1      20.873  -9.518 -13.458  1.00  0.00    -0.744 OA
ENDBRANCH  65  66
ENDBRANCH  39  60
ENDBRANCH  13  14
ENDBRANCH   6   8
ENDBRANCH   3   4
ENDBRANCH   2   3
ENDBRANCH   1   2
BRANCH   1  70
ATOM     70  C   UNL     1       0.947  -7.277  -6.275  1.00  0.00     0.116 C 
BRANCH  70  71
ATOM     71  N   UNL     1       1.421  -6.097  -6.979  1.00  0.00    -0.351 N 
ATOM     72  C   UNL     1       0.989  -4.792  -6.952  1.00  0.00     0.283 C 
ATOM     73  H   UNL     1       2.183  -6.261  -7.581  1.00  0.00     0.163 HD
ATOM     74  O   UNL     1       1.704  -3.995  -7.575  1.00  0.00    -0.268 OA
BRANCH  72  75
ATOM     75  C   UNL     1      -0.317  -4.353  -6.201  1.00  0.00     0.308 C 
BRANCH  75  76
ATOM     76  N   UNL     1      -0.214  -4.203  -4.702  1.00  0.00    -0.312 N 
ATOM     77  C   UNL     1       0.973  -4.702  -4.004  1.00  0.00     0.325 C 
ATOM     78  C   UNL     1      -0.513  -2.905  -4.079  1.00  0.00     0.325 C 
ATOM     79  H   UNL     1      -0.996  -4.844  -4.568  1.00  0.00     0.349 HD
ATOM     80  C   UNL     1       2.225  -3.840  -4.194  1.00  0.00     0.324 C 
ATOM     81  C   UNL     1       0.681  -1.907  -3.941  1.00  0.00     0.324 C 
ATOM     82  N   UNL     1       2.048  -2.440  -3.802  1.00  0.00    -0.322 N 
ATOM     83  H   UNL     1       2.135  -2.417  -2.786  1.00  0.00     0.348 HD
BRANCH  82  84
ATOM     84  C   UNL     1       3.152  -1.586  -4.281  1.00  0.00     0.200 C 
ATOM     85  C   UNL     1       3.319  -1.455  -5.812  1.00  0.00     0.082 C 
ATOM     86  C   UNL     1       3.092  -0.143  -3.773  1.00  0.00     0.201 C 
ATOM     87  C   UNL     1       4.441  -0.456  -6.061  1.00  0.00     0.143 C 
ATOM     88  S   UNL     1       4.341   0.711  -4.716  1.00  0.00     0.156 S 
ATOM     89  O   UNL     1       5.587   0.667  -3.975  1.00  0.00    -0.229 OA
ATOM     90  O   UNL     1       3.779   1.950  -5.206  1.00  0.00    -0.229 OA
ENDBRANCH  82  84
ENDBRANCH  75  76
BRANCH  75  91
ATOM     91  C   UNL     1      -0.948  -3.131  -6.896  1.00  0.00     0.044 A 
ATOM     92  C   UNL     1      -0.383  -1.873  -7.025  1.00  0.00     0.094 A 
ATOM     93  C   UNL     1      -2.176  -3.042  -7.651  1.00  0.00     0.009 A 
ATOM     94  N   UNL     1      -1.291  -1.000  -7.536  1.00  0.00    -0.361 N 
ATOM     95  C   UNL     1      -2.365  -1.702  -8.005  1.00  0.00     0.050 A 
ATOM     96  C   UNL     1      -3.139  -3.966  -8.102  1.00  0.00     0.015 A 
ATOM     97  H   UNL     1      -1.190  -0.021  -7.564  1.00  0.00     0.166 HD
ATOM     98  C   UNL     1      -3.451  -1.238  -8.750  1.00  0.00     0.073 A 
ATOM     99  C   UNL     1      -4.205  -3.524  -8.912  1.00  0.00     0.047 A 
ATOM    100  C   UNL     1      -4.350  -2.178  -9.246  1.00  0.00     0.121 A 
BRANCH 100 101
ATOM    101  O   UNL     1      -5.290  -1.636 -10.083  1.00  0.00    -0.489 OA
BRANCH 101 102
ATOM    102  C   UNL     1      -6.093  -2.513 -10.873  1.00  0.00     0.265 C 
BRANCH 102 103
ATOM    103  C   UNL     1      -5.328  -3.304 -11.912  1.00  0.00    -0.011 A 
ATOM    104  C   UNL     1      -4.258  -2.740 -12.623  1.00  0.00     0.007 A 
ATOM    105  C   UNL     1      -5.691  -4.633 -12.176  1.00  0.00     0.007 A 
ATOM    106  C   UNL     1      -3.539  -3.505 -13.543  1.00  0.00     0.000 A 
ATOM    107  C   UNL     1      -4.971  -5.395 -13.095  1.00  0.00     0.000 A 
ATOM    108  C   UNL     1      -3.892  -4.833 -13.774  1.00  0.00     0.000 A 
ENDBRANCH 102 103
ENDBRANCH 101 102
ENDBRANCH 100 101
ENDBRANCH  75  91
ENDBRANCH  72  75
ENDBRANCH  70  71
ENDBRANCH   1  70
TORSDOF 20
