REMARK SMILES CC/C=C/C/C=C/C/C=C/C/C=C/CCSCCCC(=O)NCCCCNC(=O)c1ccc(-c2c3nc(c(-c4ccc(S(=O)(=O)[O-])cc4)c4ccc([nH]4)c(-c4ccc(S(=O)(=O)[O-])cc4)c4nc(c(-c5ccc(S(=O)(=O)[O-])cc5)c5ccc2[nH]5)C=C4)C=C3)cc1
REMARK SMILES IDX 17 1 16 2 15 3 14 4 13 5 12 6 11 7 10 8 9 9 8 10 7 11 6 12
REMARK SMILES IDX 5 13 4 14 3 15 2 16 1 17 18 18 19 19 20 20 21 21 22 22 23 24
REMARK SMILES IDX 24 25 25 26 26 27 27 28 28 29 29 31 30 32 31 33 89 34 32 35
REMARK SMILES IDX 88 36 33 37 34 38 35 39 82 40 36 41 87 42 81 43 83 44 37 45
REMARK SMILES IDX 86 46 80 47 79 48 38 50 68 51 49 52 67 53 50 54 53 55 66 56
REMARK SMILES IDX 84 57 51 58 52 59 65 61 85 62 54 63 39 64 40 65 48 66 41 67
REMARK SMILES IDX 47 68 42 69 43 70 44 71 45 72 46 73 69 74 70 75 78 76 71 77
REMARK SMILES IDX 77 78 72 79 73 80 74 81 75 82 76 83 55 84 56 85 64 86 57 87
REMARK SMILES IDX 63 88 58 89 59 90 60 91 61 92 62 93
REMARK H PARENT 22 23 27 30 83 49 53 60
REMARK Flexibility Score: inf
ROOT
ATOM      1  C   UNL     1      -6.306  -3.313  13.385  1.00  0.00     0.070 C 
ENDROOT
BRANCH   1   2
ATOM      2  S   UNL     1      -6.795  -4.977  12.752  1.00  0.00    -0.162 SA
BRANCH   2   3
ATOM      3  C   UNL     1      -5.719  -5.478  11.340  1.00  0.00     0.073 C 
BRANCH   3   4
ATOM      4  C   UNL     1      -6.244  -5.210   9.904  1.00  0.00     0.038 C 
BRANCH   4   5
ATOM      5  C   UNL     1      -5.570  -4.090   9.160  1.00  0.00    -0.030 C 
ATOM      6  C   UNL     1      -5.517  -3.870   7.835  1.00  0.00    -0.027 C 
BRANCH   6   7
ATOM      7  C   UNL     1      -5.048  -2.548   7.256  1.00  0.00     0.054 C 
BRANCH   7   8
ATOM      8  C   UNL     1      -3.606  -2.223   7.523  1.00  0.00    -0.027 C 
ATOM      9  C   UNL     1      -2.835  -1.551   6.652  1.00  0.00    -0.027 C 
BRANCH   9  10
ATOM     10  C   UNL     1      -1.377  -1.252   6.861  1.00  0.00     0.054 C 
BRANCH  10  11
ATOM     11  C   UNL     1      -0.574  -2.159   5.976  1.00  0.00    -0.027 C 
ATOM     12  C   UNL     1       0.214  -1.743   4.974  1.00  0.00    -0.027 C 
BRANCH  12  13
ATOM     13  C   UNL     1       0.823  -2.673   3.965  1.00  0.00     0.054 C 
BRANCH  13  14
ATOM     14  C   UNL     1       0.303  -2.330   2.599  1.00  0.00    -0.027 C 
ATOM     15  C   UNL     1       1.071  -1.932   1.573  1.00  0.00    -0.031 C 
BRANCH  15  16
ATOM     16  C   UNL     1       0.520  -1.488   0.250  1.00  0.00     0.023 C 
ATOM     17  C   UNL     1       0.942  -0.057  -0.051  1.00  0.00     0.008 C 
ENDBRANCH  15  16
ENDBRANCH  13  14
ENDBRANCH  12  13
ENDBRANCH  10  11
ENDBRANCH   9  10
ENDBRANCH   7   8
ENDBRANCH   6   7
ENDBRANCH   4   5
ENDBRANCH   3   4
ENDBRANCH   2   3
ENDBRANCH   1   2
BRANCH   1  18
ATOM     18  C   UNL     1      -4.907  -2.706  13.378  1.00  0.00     0.021 C 
BRANCH  18  19
ATOM     19  C   UNL     1      -4.205  -2.444  12.062  1.00  0.00     0.101 C 
BRANCH  19  20
ATOM     20  C   UNL     1      -4.517  -1.163  11.305  1.00  0.00     0.220 C 
ATOM     21  O   UNL     1      -3.596  -0.376  11.056  1.00  0.00    -0.275 OA
ATOM     22  N   UNL     1      -5.740  -0.834  10.822  1.00  0.00    -0.356 N 
ATOM     23  H   UNL     1      -5.827   0.118  10.588  1.00  0.00     0.163 HD
BRANCH  22  24
ATOM     24  C   UNL     1      -6.948  -1.601  10.580  1.00  0.00     0.116 C 
BRANCH  24  25
ATOM     25  C   UNL     1      -8.223  -0.869  10.995  1.00  0.00     0.023 C 
BRANCH  25  26
ATOM     26  C   UNL     1      -9.204  -0.727   9.826  1.00  0.00     0.023 C 
BRANCH  26  27
ATOM     27  C   UNL     1      -9.746  -2.053   9.290  1.00  0.00     0.116 C 
BRANCH  27  28
ATOM     28  N   UNL     1     -10.726  -2.659  10.179  1.00  0.00    -0.352 N 
ATOM     29  C   UNL     1     -12.085  -2.822  10.003  1.00  0.00     0.251 C 
ATOM     30  H   UNL     1     -10.367  -3.003  11.029  1.00  0.00     0.163 HD
ATOM     31  O   UNL     1     -12.786  -3.212  10.920  1.00  0.00    -0.269 OA
BRANCH  29  32
ATOM     32  C   UNL     1     -12.690  -2.483   8.694  1.00  0.00     0.039 A 
ATOM     33  C   UNL     1     -13.768  -1.597   8.656  1.00  0.00     0.014 A 
ATOM     34  C   UNL     1     -12.165  -3.006   7.511  1.00  0.00     0.014 A 
ATOM     35  C   UNL     1     -14.256  -1.155   7.423  1.00  0.00     0.010 A 
ATOM     36  C   UNL     1     -12.605  -2.512   6.285  1.00  0.00     0.010 A 
ATOM     37  C   UNL     1     -13.642  -1.566   6.228  1.00  0.00    -0.014 A 
BRANCH  37  38
ATOM     38  C   UNL     1     -14.029  -0.985   4.915  1.00  0.00     0.031 A 
ATOM     39  C   UNL     1     -14.591  -1.863   3.830  1.00  0.00     0.074 A 
ATOM     40  C   UNL     1     -13.781   0.319   4.665  1.00  0.00     0.049 A 
ATOM     41  N   UNL     1     -14.886  -1.557   2.593  1.00  0.00    -0.248 NA
ATOM     42  C   UNL     1     -14.830  -3.275   4.172  1.00  0.00     0.031 C 
ATOM     43  C   UNL     1     -13.196   1.268   5.617  1.00  0.00     0.029 A 
ATOM     44  N   UNL     1     -13.970   1.068   3.530  1.00  0.00    -0.354 N 
ATOM     45  C   UNL     1     -15.317  -2.739   2.002  1.00  0.00     0.074 A 
ATOM     46  C   UNL     1     -15.215  -3.775   3.006  1.00  0.00     0.031 C 
ATOM     47  C   UNL     1     -13.086   2.471   5.030  1.00  0.00     0.029 A 
ATOM     48  C   UNL     1     -13.546   2.372   3.649  1.00  0.00     0.049 A 
ATOM     49  H   UNL     1     -14.372   0.706   2.707  1.00  0.00     0.167 HD
ATOM     50  C   UNL     1     -15.768  -2.939   0.740  1.00  0.00     0.031 A 
ATOM     51  C   UNL     1     -13.507   3.372   2.745  1.00  0.00     0.031 A 
ATOM     52  C   UNL     1     -15.887  -1.901  -0.249  1.00  0.00     0.049 A 
ATOM     53  C   UNL     1     -14.003   3.118   1.347  1.00  0.00     0.074 A 
ATOM     54  C   UNL     1     -16.414  -1.991  -1.526  1.00  0.00     0.029 A 
ATOM     55  N   UNL     1     -15.466  -0.591  -0.081  1.00  0.00    -0.354 N 
ATOM     56  N   UNL     1     -14.497   2.015   0.838  1.00  0.00    -0.248 NA
ATOM     57  C   UNL     1     -13.939   4.243   0.402  1.00  0.00     0.031 C 
ATOM     58  C   UNL     1     -16.253  -0.752  -2.152  1.00  0.00     0.029 A 
ATOM     59  C   UNL     1     -15.684   0.127  -1.245  1.00  0.00     0.049 A 
ATOM     60  H   UNL     1     -15.072  -0.226   0.744  1.00  0.00     0.167 HD
ATOM     61  C   UNL     1     -14.823   2.320  -0.479  1.00  0.00     0.074 A 
ATOM     62  C   UNL     1     -14.488   3.714  -0.683  1.00  0.00     0.031 C 
ATOM     63  C   UNL     1     -15.350   1.515  -1.434  1.00  0.00     0.031 A 
BRANCH  50  64
ATOM     64  C   UNL     1     -16.157  -4.340   0.344  1.00  0.00    -0.014 A 
ATOM     65  C   UNL     1     -17.315  -4.949   0.859  1.00  0.00     0.010 A 
ATOM     66  C   UNL     1     -15.389  -5.029  -0.613  1.00  0.00     0.010 A 
ATOM     67  C   UNL     1     -17.680  -6.234   0.447  1.00  0.00     0.020 A 
ATOM     68  C   UNL     1     -15.766  -6.302  -1.048  1.00  0.00     0.020 A 
ATOM     69  C   UNL     1     -16.903  -6.902  -0.504  1.00  0.00     0.054 A 
BRANCH  69  70
ATOM     70  S   UNL     1     -17.426  -8.551  -1.049  1.00  0.00     0.124 S 
ATOM     71  O   UNL     1     -17.127  -9.365   0.126  1.00  0.00    -0.237 OA
ATOM     72  O   UNL     1     -18.845  -8.358  -1.335  1.00  0.00    -0.237 OA
ATOM     73  O   UNL     1     -16.588  -8.813  -2.217  1.00  0.00    -0.744 OA
ENDBRANCH  69  70
ENDBRANCH  50  64
BRANCH  51  74
ATOM     74  C   UNL     1     -12.958   4.704   3.126  1.00  0.00    -0.014 A 
ATOM     75  C   UNL     1     -13.798   5.828   3.217  1.00  0.00     0.010 A 
ATOM     76  C   UNL     1     -11.585   4.857   3.393  1.00  0.00     0.010 A 
ATOM     77  C   UNL     1     -13.272   7.083   3.541  1.00  0.00     0.020 A 
ATOM     78  C   UNL     1     -11.060   6.103   3.748  1.00  0.00     0.020 A 
ATOM     79  C   UNL     1     -11.906   7.212   3.804  1.00  0.00     0.054 A 
BRANCH  79  80
ATOM     80  S   UNL     1     -11.251   8.842   4.257  1.00  0.00     0.124 S 
ATOM     81  O   UNL     1     -11.280   9.546   2.979  1.00  0.00    -0.237 OA
ATOM     82  O   UNL     1     -12.212   9.303   5.256  1.00  0.00    -0.237 OA
ATOM     83  O   UNL     1      -9.919   8.542   4.778  1.00  0.00    -0.744 OA
ENDBRANCH  79  80
ENDBRANCH  51  74
BRANCH  63  84
ATOM     84  C   UNL     1     -15.623   2.119  -2.786  1.00  0.00    -0.014 A 
ATOM     85  C   UNL     1     -14.573   2.424  -3.670  1.00  0.00     0.010 A 
ATOM     86  C   UNL     1     -16.952   2.302  -3.209  1.00  0.00     0.010 A 
ATOM     87  C   UNL     1     -14.848   2.914  -4.949  1.00  0.00     0.020 A 
ATOM     88  C   UNL     1     -17.232   2.765  -4.497  1.00  0.00     0.020 A 
ATOM     89  C   UNL     1     -16.176   3.075  -5.357  1.00  0.00     0.054 A 
BRANCH  89  90
ATOM     90  S   UNL     1     -16.506   3.642  -7.049  1.00  0.00     0.124 S 
ATOM     91  O   UNL     1     -16.117   5.048  -6.980  1.00  0.00    -0.237 OA
ATOM     92  O   UNL     1     -15.631   2.786  -7.848  1.00  0.00    -0.237 OA
ATOM     93  O   UNL     1     -17.936   3.398  -7.224  1.00  0.00    -0.744 OA
ENDBRANCH  89  90
ENDBRANCH  63  84
ENDBRANCH  37  38
ENDBRANCH  29  32
ENDBRANCH  27  28
ENDBRANCH  26  27
ENDBRANCH  25  26
ENDBRANCH  24  25
ENDBRANCH  22  24
ENDBRANCH  19  20
ENDBRANCH  18  19
ENDBRANCH   1  18
TORSDOF 27
