REMARK SMILES O=C1C[C@H](C(=O)NCCCCNC(=O)c2ccc(-c3c4nc(c(-c5ccc(S(=O)(=O)[O-])cc5)c5ccc([nH]5)c(-c5ccc(S(=O)(=O)[O-])cc5)c5nc(c(-c6ccc(S(=O)(=O)[O-])cc6)c6ccc3[nH]6)C=C5)C=C4)cc2)c2c(nc(Nc3ccc(Oc4ccccc4)cc3)[nH]c2=O)N1
REMARK SMILES IDX 9 1 8 2 7 3 5 4 6 5 4 7 1 8 2 9 3 10 96 11 76 12 75 14 77 15
REMARK SMILES IDX 94 16 78 17 93 18 95 19 79 21 80 23 81 24 92 25 82 26 91 27
REMARK SMILES IDX 83 28 84 29 85 30 86 31 90 32 87 33 89 34 88 35 10 36 11 37
REMARK SMILES IDX 12 38 13 39 14 41 15 42 16 43 74 44 17 45 73 46 18 47 19 48
REMARK SMILES IDX 20 49 67 50 21 51 72 52 66 53 68 54 22 55 71 56 65 57 64 58
REMARK SMILES IDX 23 60 53 61 34 62 52 63 35 64 38 65 51 66 69 67 36 68 37 69
REMARK SMILES IDX 50 71 70 72 39 73 24 74 25 75 33 76 26 77 32 78 27 79 28 80
REMARK SMILES IDX 29 81 30 82 31 83 54 84 55 85 63 86 56 87 62 88 57 89 58 90
REMARK SMILES IDX 59 91 60 92 61 93 40 94 41 95 49 96 42 97 48 98 43 99 44 100
REMARK SMILES IDX 45 101 46 102 47 103
REMARK H PARENT 7 6 96 13 93 20 79 22 12 40 68 59 38 70
REMARK Flexibility Score: inf
ROOT
ATOM      1  C   UNL     1       5.931  -1.212   2.373  1.00  0.00     0.023 C 
ENDROOT
BRANCH   1   2
ATOM      2  C   UNL     1       5.969  -1.001   0.863  1.00  0.00     0.116 C 
BRANCH   2   3
ATOM      3  N   UNL     1       5.738  -2.239   0.142  1.00  0.00    -0.356 N 
ATOM      4  C   UNL     1       4.755  -2.592  -0.734  1.00  0.00     0.228 C 
ATOM      5  O   UNL     1       4.716  -3.766  -1.110  1.00  0.00    -0.274 OA
ATOM      6  H   UNL     1       6.404  -2.943   0.315  1.00  0.00     0.163 HD
BRANCH   4   7
ATOM      7  C   UNL     1       3.693  -1.596  -1.200  1.00  0.00     0.127 C 
ATOM      8  O   UNL     1       1.324   0.439   0.804  1.00  0.00    -0.275 OA
ATOM      9  C   UNL     1       2.263   0.123   0.076  1.00  0.00     0.226 C 
ATOM     10  C   UNL     1       2.725  -1.309  -0.045  1.00  0.00     0.119 C 
ATOM     11  N   UNL     1       2.970   1.071  -0.597  1.00  0.00    -0.310 N 
ATOM     12  C   UNL     1       3.971   0.855  -1.489  1.00  0.00     0.146 A 
ATOM     13  H   UNL     1       2.732   2.010  -0.420  1.00  0.00     0.171 HD
ATOM     14  C   UNL     1       4.319  -0.389  -1.824  1.00  0.00     0.073 A 
ATOM     15  N   UNL     1       4.535   1.988  -1.972  1.00  0.00    -0.196 NA
ATOM     16  C   UNL     1       5.370  -0.510  -2.849  1.00  0.00     0.258 A 
ATOM     17  C   UNL     1       5.489   1.889  -2.846  1.00  0.00     0.209 A 
ATOM     18  N   UNL     1       5.912   0.665  -3.282  1.00  0.00    -0.292 N 
ATOM     19  O   UNL     1       5.735  -1.587  -3.304  1.00  0.00    -0.269 OA
ATOM     20  H   UNL     1       6.643   0.629  -3.941  1.00  0.00     0.173 HD
BRANCH  17  21
ATOM     21  N   UNL     1       6.103   2.980  -3.404  1.00  0.00    -0.326 N 
ATOM     22  H   UNL     1       6.710   2.841  -4.166  1.00  0.00     0.170 HD
BRANCH  21  23
ATOM     23  C   UNL     1       5.902   4.288  -2.933  1.00  0.00     0.041 A 
ATOM     24  C   UNL     1       5.369   5.268  -3.776  1.00  0.00     0.030 A 
ATOM     25  C   UNL     1       6.094   4.595  -1.581  1.00  0.00     0.030 A 
ATOM     26  C   UNL     1       5.017   6.524  -3.269  1.00  0.00     0.049 A 
ATOM     27  C   UNL     1       5.759   5.850  -1.076  1.00  0.00     0.049 A 
ATOM     28  C   UNL     1       5.214   6.821  -1.919  1.00  0.00     0.127 A 
BRANCH  28  29
ATOM     29  O   UNL     1       4.802   8.076  -1.512  1.00  0.00    -0.457 OA
BRANCH  29  30
ATOM     30  C   UNL     1       5.174   8.473  -0.251  1.00  0.00     0.127 A 
ATOM     31  C   UNL     1       4.219   8.474   0.765  1.00  0.00     0.047 A 
ATOM     32  C   UNL     1       6.492   8.856   0.004  1.00  0.00     0.047 A 
ATOM     33  C   UNL     1       4.604   8.801   2.065  1.00  0.00     0.004 A 
ATOM     34  C   UNL     1       6.873   9.176   1.305  1.00  0.00     0.004 A 
ATOM     35  C   UNL     1       5.932   9.139   2.336  1.00  0.00     0.000 A 
ENDBRANCH  29  30
ENDBRANCH  28  29
ENDBRANCH  21  23
ENDBRANCH  17  21
ENDBRANCH   4   7
ENDBRANCH   2   3
ENDBRANCH   1   2
BRANCH   1  36
ATOM     36  C   UNL     1       7.058  -2.088   2.917  1.00  0.00     0.023 C 
BRANCH  36  37
ATOM     37  C   UNL     1       8.461  -1.605   2.574  1.00  0.00     0.116 C 
BRANCH  37  38
ATOM     38  N   UNL     1       8.738  -0.277   3.102  1.00  0.00    -0.352 N 
ATOM     39  C   UNL     1       9.782   0.116   3.905  1.00  0.00     0.251 C 
ATOM     40  H   UNL     1       8.098   0.428   2.853  1.00  0.00     0.163 HD
ATOM     41  O   UNL     1       9.811   1.238   4.396  1.00  0.00    -0.269 OA
BRANCH  39  42
ATOM     42  C   UNL     1      10.856  -0.856   4.180  1.00  0.00     0.039 A 
ATOM     43  C   UNL     1      11.151  -1.186   5.503  1.00  0.00     0.014 A 
ATOM     44  C   UNL     1      11.507  -1.491   3.117  1.00  0.00     0.014 A 
ATOM     45  C   UNL     1      12.066  -2.206   5.763  1.00  0.00     0.010 A 
ATOM     46  C   UNL     1      12.371  -2.547   3.378  1.00  0.00     0.010 A 
ATOM     47  C   UNL     1      12.661  -2.909   4.702  1.00  0.00    -0.014 A 
BRANCH  47  48
ATOM     48  C   UNL     1      13.624  -4.004   4.959  1.00  0.00     0.031 A 
ATOM     49  C   UNL     1      15.072  -3.808   4.614  1.00  0.00     0.074 A 
ATOM     50  C   UNL     1      13.197  -5.175   5.469  1.00  0.00     0.049 A 
ATOM     51  N   UNL     1      16.066  -4.649   4.734  1.00  0.00    -0.248 NA
ATOM     52  C   UNL     1      15.452  -2.503   4.047  1.00  0.00     0.031 C 
ATOM     53  C   UNL     1      11.812  -5.487   5.831  1.00  0.00     0.029 A 
ATOM     54  N   UNL     1      13.887  -6.320   5.777  1.00  0.00    -0.354 N 
ATOM     55  C   UNL     1      17.185  -3.974   4.265  1.00  0.00     0.074 A 
ATOM     56  C   UNL     1      16.742  -2.678   3.804  1.00  0.00     0.031 C 
ATOM     57  C   UNL     1      11.762  -6.729   6.342  1.00  0.00     0.029 A 
ATOM     58  C   UNL     1      13.101  -7.312   6.313  1.00  0.00     0.049 A 
ATOM     59  H   UNL     1      14.855  -6.422   5.627  1.00  0.00     0.167 HD
ATOM     60  C   UNL     1      18.472  -4.388   4.244  1.00  0.00     0.031 A 
ATOM     61  C   UNL     1      13.422  -8.550   6.739  1.00  0.00     0.031 A 
ATOM     62  C   UNL     1      18.912  -5.675   4.707  1.00  0.00     0.049 A 
ATOM     63  C   UNL     1      14.853  -9.007   6.663  1.00  0.00     0.074 A 
ATOM     64  C   UNL     1      20.200  -6.175   4.749  1.00  0.00     0.029 A 
ATOM     65  N   UNL     1      18.078  -6.661   5.210  1.00  0.00    -0.354 N 
ATOM     66  N   UNL     1      15.902  -8.347   6.234  1.00  0.00    -0.248 NA
ATOM     67  C   UNL     1      15.145 -10.369   7.130  1.00  0.00     0.031 C 
ATOM     68  C   UNL     1      20.142  -7.482   5.238  1.00  0.00     0.029 A 
ATOM     69  C   UNL     1      18.823  -7.776   5.550  1.00  0.00     0.049 A 
ATOM     70  H   UNL     1      17.102  -6.580   5.311  1.00  0.00     0.167 HD
ATOM     71  C   UNL     1      16.983  -9.205   6.401  1.00  0.00     0.074 A 
ATOM     72  C   UNL     1      16.462 -10.431   6.971  1.00  0.00     0.031 C 
ATOM     73  C   UNL     1      18.290  -8.989   6.114  1.00  0.00     0.031 A 
BRANCH  60  74
ATOM     74  C   UNL     1      19.502  -3.432   3.714  1.00  0.00    -0.014 A 
ATOM     75  C   UNL     1      19.898  -2.316   4.472  1.00  0.00     0.010 A 
ATOM     76  C   UNL     1      20.123  -3.683   2.478  1.00  0.00     0.010 A 
ATOM     77  C   UNL     1      20.887  -1.454   3.993  1.00  0.00     0.020 A 
ATOM     78  C   UNL     1      21.130  -2.836   2.007  1.00  0.00     0.020 A 
ATOM     79  C   UNL     1      21.502  -1.724   2.767  1.00  0.00     0.054 A 
BRANCH  79  80
ATOM     80  S   UNL     1      22.802  -0.600   2.190  1.00  0.00     0.124 S 
ATOM     81  O   UNL     1      22.089   0.671   2.098  1.00  0.00    -0.237 OA
ATOM     82  O   UNL     1      23.791  -0.690   3.260  1.00  0.00    -0.237 OA
ATOM     83  O   UNL     1      23.214  -1.171   0.910  1.00  0.00    -0.744 OA
ENDBRANCH  79  80
ENDBRANCH  60  74
BRANCH  61  84
ATOM     84  C   UNL     1      12.363  -9.423   7.310  1.00  0.00    -0.014 A 
ATOM     85  C   UNL     1      12.281  -9.618   8.699  1.00  0.00     0.010 A 
ATOM     86  C   UNL     1      11.394 -10.010   6.476  1.00  0.00     0.010 A 
ATOM     87  C   UNL     1      11.242 -10.375   9.247  1.00  0.00     0.020 A 
ATOM     88  C   UNL     1      10.342 -10.752   7.022  1.00  0.00     0.020 A 
ATOM     89  C   UNL     1      10.270 -10.925   8.406  1.00  0.00     0.054 A 
BRANCH  89  90
ATOM     90  S   UNL     1       8.892 -11.838   9.154  1.00  0.00     0.124 S 
ATOM     91  O   UNL     1       9.580 -12.915   9.859  1.00  0.00    -0.237 OA
ATOM     92  O   UNL     1       8.275 -10.820  10.000  1.00  0.00    -0.237 OA
ATOM     93  O   UNL     1       8.092 -12.256   8.005  1.00  0.00    -0.744 OA
ENDBRANCH  89  90
ENDBRANCH  61  84
BRANCH  73  94
ATOM     94  C   UNL     1      19.272 -10.085   6.420  1.00  0.00    -0.014 A 
ATOM     95  C   UNL     1      19.392 -11.203   5.577  1.00  0.00     0.010 A 
ATOM     96  C   UNL     1      20.175  -9.926   7.488  1.00  0.00     0.010 A 
ATOM     97  C   UNL     1      20.401 -12.144   5.798  1.00  0.00     0.020 A 
ATOM     98  C   UNL     1      21.197 -10.853   7.698  1.00  0.00     0.020 A 
ATOM     99  C   UNL     1      21.305 -11.956   6.849  1.00  0.00     0.054 A 
BRANCH  99 100
ATOM    100  S   UNL     1      22.646 -13.158   7.063  1.00  0.00     0.124 S 
ATOM    101  O   UNL     1      21.913 -14.399   7.299  1.00  0.00    -0.237 OA
ATOM    102  O   UNL     1      23.347 -13.076   5.784  1.00  0.00    -0.237 OA
ATOM    103  O   UNL     1      23.390 -12.651   8.213  1.00  0.00    -0.744 OA
ENDBRANCH  99 100
ENDBRANCH  73  94
ENDBRANCH  47  48
ENDBRANCH  39  42
ENDBRANCH  37  38
ENDBRANCH  36  37
ENDBRANCH   1  36
TORSDOF 18
