REMARK SMILES Cc1ccc(C(=O)NCCCCNC(=O)c2ccc(-c3c4nc(c(-c5ccc(S(=O)(=O)[O-])cc5)c5ccc([nH]5)c(-c5ccc(S(=O)(=O)[O-])cc5)c5nc(c(-c6ccc(S(=O)(=O)[O-])cc6)c6ccc3[nH]6)C=C5)C=C4)cc2)c(Oc2cccc(F)c2C(N)=O)c1
REMARK SMILES IDX 10 1 9 2 8 3 6 4 7 5 5 7 1 8 2 9 3 10 88 11 4 12 76 13 77 14
REMARK SMILES IDX 78 15 79 16 84 17 80 18 82 19 81 20 83 21 85 22 86 23 87 24
REMARK SMILES IDX 11 27 12 28 13 29 14 30 15 32 16 33 17 34 75 35 18 36 74 37
REMARK SMILES IDX 19 38 20 39 21 40 68 41 22 42 73 43 67 44 69 45 23 46 72 47
REMARK SMILES IDX 66 48 65 49 24 51 54 52 35 53 53 54 36 55 39 56 52 57 70 58
REMARK SMILES IDX 37 59 38 60 51 62 71 63 40 64 25 65 26 66 34 67 27 68 33 69
REMARK SMILES IDX 28 70 29 71 30 72 31 73 32 74 55 75 56 76 64 77 57 78 63 79
REMARK SMILES IDX 58 80 59 81 60 82 61 83 62 84 41 85 42 86 50 87 43 88 49 89
REMARK SMILES IDX 44 90 45 91 46 92 47 93 48 94
REMARK H PARENT 8 6 86 25 86 26 13 31 69 50 39 61
REMARK Flexibility Score: inf
ROOT
ATOM      1  C   UNL     1      -3.857   3.184  -2.169  1.00  0.00     0.023 C 
ENDROOT
BRANCH   1   2
ATOM      2  C   UNL     1      -3.477   2.745  -0.753  1.00  0.00     0.116 C 
BRANCH   2   3
ATOM      3  N   UNL     1      -3.755   1.359  -0.437  1.00  0.00    -0.352 N 
ATOM      4  C   UNL     1      -2.989   0.287  -0.041  1.00  0.00     0.255 C 
ATOM      5  O   UNL     1      -3.620  -0.741   0.234  1.00  0.00    -0.269 OA
ATOM      6  H   UNL     1      -4.708   1.132  -0.527  1.00  0.00     0.163 HD
BRANCH   4   7
ATOM      7  C   UNL     1      -1.492   0.199  -0.003  1.00  0.00     0.082 A 
ATOM      8  C   UNL     1       2.773  -0.649   0.082  1.00  0.00     0.044 C 
ATOM      9  C   UNL     1       1.299  -0.378   0.068  1.00  0.00    -0.047 A 
ATOM     10  C   UNL     1       0.390  -1.355  -0.328  1.00  0.00     0.004 A 
ATOM     11  C   UNL     1       0.805   0.857   0.495  1.00  0.00     0.051 A 
ATOM     12  C   UNL     1      -0.981  -1.072  -0.352  1.00  0.00     0.018 A 
ATOM     13  C   UNL     1      -0.568   1.165   0.420  1.00  0.00     0.140 A 
BRANCH  13  14
ATOM     14  O   UNL     1      -0.987   2.378   0.884  1.00  0.00    -0.456 OA
BRANCH  14  15
ATOM     15  C   UNL     1      -0.388   3.554   0.459  1.00  0.00     0.143 A 
ATOM     16  C   UNL     1      -0.622   4.596   1.372  1.00  0.00     0.048 A 
ATOM     17  C   UNL     1       0.266   3.842  -0.757  1.00  0.00     0.117 A 
ATOM     18  C   UNL     1      -0.214   5.899   1.097  1.00  0.00     0.007 A 
ATOM     19  C   UNL     1       0.661   5.162  -1.016  1.00  0.00     0.139 A 
ATOM     20  C   UNL     1       0.421   6.186  -0.104  1.00  0.00     0.040 A 
ATOM     21  F   UNL     1       1.249   5.484  -2.179  1.00  0.00    -0.206 F 
BRANCH  17  22
ATOM     22  C   UNL     1       0.632   2.880  -1.817  1.00  0.00     0.255 C 
ATOM     23  N   UNL     1      -0.367   2.209  -2.461  1.00  0.00    -0.365 N 
ATOM     24  O   UNL     1       1.804   2.700  -2.129  1.00  0.00    -0.269 OA
ATOM     25  H   UNL     1      -1.306   2.359  -2.204  1.00  0.00     0.159 HD
ATOM     26  H   UNL     1      -0.150   1.575  -3.182  1.00  0.00     0.159 HD
ENDBRANCH  17  22
ENDBRANCH  14  15
ENDBRANCH  13  14
ENDBRANCH   4   7
ENDBRANCH   2   3
ENDBRANCH   1   2
BRANCH   1  27
ATOM     27  C   UNL     1      -5.345   3.296  -2.474  1.00  0.00     0.023 C 
BRANCH  27  28
ATOM     28  C   UNL     1      -6.119   4.215  -1.548  1.00  0.00     0.116 C 
BRANCH  28  29
ATOM     29  N   UNL     1      -6.018   5.640  -1.841  1.00  0.00    -0.352 N 
ATOM     30  C   UNL     1      -6.814   6.658  -1.348  1.00  0.00     0.251 C 
ATOM     31  H   UNL     1      -5.301   5.908  -2.460  1.00  0.00     0.163 HD
ATOM     32  O   UNL     1      -7.061   7.635  -1.983  1.00  0.00    -0.269 OA
BRANCH  30  33
ATOM     33  C   UNL     1      -7.192   6.567   0.099  1.00  0.00     0.039 A 
ATOM     34  C   UNL     1      -6.825   7.636   0.931  1.00  0.00     0.014 A 
ATOM     35  C   UNL     1      -7.678   5.387   0.652  1.00  0.00     0.014 A 
ATOM     36  C   UNL     1      -6.798   7.463   2.314  1.00  0.00     0.010 A 
ATOM     37  C   UNL     1      -7.537   5.179   2.006  1.00  0.00     0.010 A 
ATOM     38  C   UNL     1      -7.077   6.208   2.841  1.00  0.00    -0.014 A 
BRANCH  38  39
ATOM     39  C   UNL     1      -6.943   5.813   4.239  1.00  0.00     0.031 A 
ATOM     40  C   UNL     1      -8.168   5.545   5.035  1.00  0.00     0.074 A 
ATOM     41  C   UNL     1      -5.733   5.429   4.702  1.00  0.00     0.049 A 
ATOM     42  N   UNL     1      -8.183   5.290   6.300  1.00  0.00    -0.248 NA
ATOM     43  C   UNL     1      -9.513   5.608   4.454  1.00  0.00     0.031 C 
ATOM     44  C   UNL     1      -5.470   4.526   5.820  1.00  0.00     0.029 A 
ATOM     45  N   UNL     1      -4.478   5.967   4.404  1.00  0.00    -0.354 N 
ATOM     46  C   UNL     1      -9.439   4.814   6.600  1.00  0.00     0.074 A 
ATOM     47  C   UNL     1     -10.260   5.176   5.473  1.00  0.00     0.031 C 
ATOM     48  C   UNL     1      -4.244   4.784   6.301  1.00  0.00     0.029 A 
ATOM     49  C   UNL     1      -3.773   5.979   5.622  1.00  0.00     0.049 A 
ATOM     50  H   UNL     1      -4.155   6.274   3.526  1.00  0.00     0.167 HD
ATOM     51  C   UNL     1      -9.609   4.009   7.685  1.00  0.00     0.031 A 
ATOM     52  C   UNL     1      -3.357   7.116   6.257  1.00  0.00     0.031 A 
ATOM     53  C   UNL     1      -8.454   4.059   8.578  1.00  0.00     0.049 A 
ATOM     54  C   UNL     1      -3.879   7.242   7.672  1.00  0.00     0.074 A 
ATOM     55  C   UNL     1      -7.447   3.165   8.892  1.00  0.00     0.029 A 
ATOM     56  N   UNL     1      -8.076   5.286   9.116  1.00  0.00    -0.354 N 
ATOM     57  N   UNL     1      -4.877   6.551   8.147  1.00  0.00    -0.248 NA
ATOM     58  C   UNL     1      -3.349   8.196   8.643  1.00  0.00     0.031 C 
ATOM     59  C   UNL     1      -6.397   3.899   9.512  1.00  0.00     0.029 A 
ATOM     60  C   UNL     1      -6.793   5.222   9.618  1.00  0.00     0.049 A 
ATOM     61  H   UNL     1      -8.646   6.089   9.136  1.00  0.00     0.167 HD
ATOM     62  C   UNL     1      -5.140   6.948   9.430  1.00  0.00     0.074 A 
ATOM     63  C   UNL     1      -4.145   7.970   9.703  1.00  0.00     0.031 C 
ATOM     64  C   UNL     1      -6.163   6.418  10.161  1.00  0.00     0.031 A 
BRANCH  51  65
ATOM     65  C   UNL     1     -10.729   2.993   7.819  1.00  0.00    -0.014 A 
ATOM     66  C   UNL     1     -10.787   2.160   8.956  1.00  0.00     0.010 A 
ATOM     67  C   UNL     1     -11.668   2.710   6.803  1.00  0.00     0.010 A 
ATOM     68  C   UNL     1     -11.708   1.100   9.059  1.00  0.00     0.020 A 
ATOM     69  C   UNL     1     -12.613   1.680   6.906  1.00  0.00     0.020 A 
ATOM     70  C   UNL     1     -12.614   0.863   8.027  1.00  0.00     0.054 A 
BRANCH  70  71
ATOM     71  S   UNL     1     -13.769  -0.529   8.135  1.00  0.00     0.124 S 
ATOM     72  O   UNL     1     -12.879  -1.680   8.014  1.00  0.00    -0.237 OA
ATOM     73  O   UNL     1     -14.381  -0.337   9.446  1.00  0.00    -0.237 OA
ATOM     74  O   UNL     1     -14.668  -0.322   7.000  1.00  0.00    -0.744 OA
ENDBRANCH  70  71
ENDBRANCH  51  65
BRANCH  52  75
ATOM     75  C   UNL     1      -3.113   8.273   5.353  1.00  0.00    -0.014 A 
ATOM     76  C   UNL     1      -1.978   8.215   4.520  1.00  0.00     0.010 A 
ATOM     77  C   UNL     1      -4.183   9.117   5.001  1.00  0.00     0.010 A 
ATOM     78  C   UNL     1      -2.001   8.823   3.265  1.00  0.00     0.020 A 
ATOM     79  C   UNL     1      -4.207   9.722   3.739  1.00  0.00     0.020 A 
ATOM     80  C   UNL     1      -3.153   9.492   2.851  1.00  0.00     0.054 A 
BRANCH  80  81
ATOM     81  S   UNL     1      -3.348   9.813   1.072  1.00  0.00     0.124 S 
ATOM     82  O   UNL     1      -2.121  10.534   0.747  1.00  0.00    -0.237 OA
ATOM     83  O   UNL     1      -3.435   8.453   0.543  1.00  0.00    -0.237 OA
ATOM     84  O   UNL     1      -4.580  10.591   1.004  1.00  0.00    -0.744 OA
ENDBRANCH  80  81
ENDBRANCH  52  75
BRANCH  64  85
ATOM     85  C   UNL     1      -6.631   6.944  11.493  1.00  0.00    -0.014 A 
ATOM     86  C   UNL     1      -6.510   8.286  11.888  1.00  0.00     0.010 A 
ATOM     87  C   UNL     1      -7.349   6.081  12.354  1.00  0.00     0.010 A 
ATOM     88  C   UNL     1      -7.007   8.730  13.122  1.00  0.00     0.020 A 
ATOM     89  C   UNL     1      -7.885   6.522  13.566  1.00  0.00     0.020 A 
ATOM     90  C   UNL     1      -7.684   7.842  13.958  1.00  0.00     0.054 A 
BRANCH  90  91
ATOM     91  S   UNL     1      -8.364   8.429  15.530  1.00  0.00     0.124 S 
ATOM     92  O   UNL     1      -7.247   8.206  16.443  1.00  0.00    -0.237 OA
ATOM     93  O   UNL     1      -8.675   9.830  15.253  1.00  0.00    -0.237 OA
ATOM     94  O   UNL     1      -9.527   7.571  15.739  1.00  0.00    -0.744 OA
ENDBRANCH  90  91
ENDBRANCH  64  85
ENDBRANCH  38  39
ENDBRANCH  30  33
ENDBRANCH  28  29
ENDBRANCH  27  28
ENDBRANCH   1  27
TORSDOF 17
