REMARK SMILES O=C(NCCCCNC(=O)c1cc(N2CCN(c3ccc(F)cc3)CC2)ccc1NC(=O)C1CCCC1)c1ccc(-c2c3nc(c(-c4ccc(S(=O)(=O)[O-])cc4)c4ccc([nH]4)c(-c4ccc(S(=O)(=O)[O-])cc4)c4nc(c(-c5ccc(S(=O)(=O)[O-])cc5)c5ccc2[nH]5)C=C4)C=C3)cc1
REMARK SMILES IDX 5 1 4 2 3 3 1 4 2 5 38 7 39 8 97 9 40 10 96 11 41 12 42 13
REMARK SMILES IDX 43 14 90 15 44 16 95 17 89 18 91 19 45 20 94 21 88 22 87 23
REMARK SMILES IDX 46 25 76 26 57 27 75 28 58 29 61 30 74 31 92 32 59 33 60 34
REMARK SMILES IDX 73 36 93 37 62 38 47 39 48 40 56 41 49 42 55 43 50 44 51 45
REMARK SMILES IDX 52 46 53 47 54 48 77 49 78 50 86 51 79 52 85 53 80 54 81 55
REMARK SMILES IDX 82 56 83 57 84 58 63 59 64 60 72 61 65 62 71 63 66 64 67 65
REMARK SMILES IDX 68 66 69 67 70 68 6 69 7 70 8 71 9 72 10 74 11 75 12 76
REMARK SMILES IDX 29 77 13 78 28 79 27 80 30 81 31 82 32 84 33 85 34 86 37 87
REMARK SMILES IDX 35 88 36 89 14 90 15 91 26 92 16 93 25 94 17 95 18 96 19 97
REMARK SMILES IDX 24 98 20 99 23 100 21 101 22 102
REMARK H PARENT 3 6 91 24 61 35 8 73 30 83
REMARK Flexibility Score: inf
ROOT
ATOM      1  C   UNL     1       5.174  -2.156   1.095  1.00  0.00     0.023 C 
ENDROOT
BRANCH   1   2
ATOM      2  C   UNL     1       4.760  -1.173   0.007  1.00  0.00     0.116 C 
BRANCH   2   3
ATOM      3  N   UNL     1       3.318  -1.040  -0.141  1.00  0.00    -0.352 N 
ATOM      4  O   UNL     1       1.288  -0.064  -0.011  1.00  0.00    -0.269 OA
ATOM      5  C   UNL     1       2.507   0.056   0.059  1.00  0.00     0.251 C 
ATOM      6  H   UNL     1       2.850  -1.857  -0.429  1.00  0.00     0.163 HD
BRANCH   5   7
ATOM      7  C   UNL     1       3.106   1.365   0.401  1.00  0.00     0.039 A 
ATOM      8  C   UNL     1       4.212   1.850  -0.297  1.00  0.00     0.014 A 
ATOM      9  C   UNL     1       2.567   2.105   1.458  1.00  0.00     0.014 A 
ATOM     10  C   UNL     1       4.896   2.961   0.183  1.00  0.00     0.010 A 
ATOM     11  C   UNL     1       3.200   3.279   1.878  1.00  0.00     0.010 A 
ATOM     12  C   UNL     1       4.402   3.687   1.279  1.00  0.00    -0.014 A 
BRANCH  12  13
ATOM     13  C   UNL     1       5.153   4.875   1.764  1.00  0.00     0.031 A 
ATOM     14  C   UNL     1       5.764   4.902   3.141  1.00  0.00     0.074 A 
ATOM     15  C   UNL     1       5.325   5.921   0.932  1.00  0.00     0.049 A 
ATOM     16  N   UNL     1       6.489   5.838   3.700  1.00  0.00    -0.248 NA
ATOM     17  C   UNL     1       5.526   3.735   4.005  1.00  0.00     0.031 C 
ATOM     18  C   UNL     1       4.787   6.013  -0.427  1.00  0.00     0.029 A 
ATOM     19  N   UNL     1       6.025   7.089   1.093  1.00  0.00    -0.354 N 
ATOM     20  C   UNL     1       6.768   5.390   4.987  1.00  0.00     0.074 A 
ATOM     21  C   UNL     1       6.118   4.105   5.132  1.00  0.00     0.031 C 
ATOM     22  C   UNL     1       5.229   7.143  -0.998  1.00  0.00     0.029 A 
ATOM     23  C   UNL     1       6.027   7.884  -0.028  1.00  0.00     0.049 A 
ATOM     24  H   UNL     1       6.482   7.334   1.929  1.00  0.00     0.167 HD
ATOM     25  C   UNL     1       7.498   5.992   5.958  1.00  0.00     0.031 A 
ATOM     26  C   UNL     1       6.602   9.079  -0.256  1.00  0.00     0.031 A 
ATOM     27  C   UNL     1       8.153   7.266   5.809  1.00  0.00     0.049 A 
ATOM     28  C   UNL     1       7.397   9.730   0.836  1.00  0.00     0.074 A 
ATOM     29  C   UNL     1       8.941   7.943   6.724  1.00  0.00     0.029 A 
ATOM     30  N   UNL     1       8.094   8.058   4.671  1.00  0.00    -0.354 N 
ATOM     31  N   UNL     1       7.662   9.280   2.039  1.00  0.00    -0.248 NA
ATOM     32  C   UNL     1       7.969  11.049   0.541  1.00  0.00     0.031 C 
ATOM     33  C   UNL     1       9.324   9.164   6.155  1.00  0.00     0.029 A 
ATOM     34  C   UNL     1       8.814   9.225   4.868  1.00  0.00     0.049 A 
ATOM     35  H   UNL     1       7.612   7.824   3.845  1.00  0.00     0.167 HD
ATOM     36  C   UNL     1       8.446  10.255   2.641  1.00  0.00     0.074 A 
ATOM     37  C   UNL     1       8.624  11.312   1.664  1.00  0.00     0.031 C 
ATOM     38  C   UNL     1       8.973  10.272   3.890  1.00  0.00     0.031 A 
BRANCH  25  39
ATOM     39  C   UNL     1       7.593   5.290   7.288  1.00  0.00    -0.014 A 
ATOM     40  C   UNL     1       8.370   4.128   7.451  1.00  0.00     0.010 A 
ATOM     41  C   UNL     1       6.902   5.810   8.398  1.00  0.00     0.010 A 
ATOM     42  C   UNL     1       8.409   3.471   8.685  1.00  0.00     0.020 A 
ATOM     43  C   UNL     1       6.958   5.169   9.639  1.00  0.00     0.020 A 
ATOM     44  C   UNL     1       7.692   3.989   9.768  1.00  0.00     0.054 A 
BRANCH  44  45
ATOM     45  S   UNL     1       7.745   3.109  11.354  1.00  0.00     0.124 S 
ATOM     46  O   UNL     1       6.837   1.991  11.106  1.00  0.00    -0.237 OA
ATOM     47  O   UNL     1       9.156   2.755  11.482  1.00  0.00    -0.237 OA
ATOM     48  O   UNL     1       7.265   4.100  12.315  1.00  0.00    -0.744 OA
ENDBRANCH  44  45
ENDBRANCH  25  39
BRANCH  26  49
ATOM     49  C   UNL     1       6.446   9.720  -1.588  1.00  0.00    -0.014 A 
ATOM     50  C   UNL     1       7.525   9.762  -2.487  1.00  0.00     0.010 A 
ATOM     51  C   UNL     1       5.197  10.232  -1.987  1.00  0.00     0.010 A 
ATOM     52  C   UNL     1       7.357  10.303  -3.765  1.00  0.00     0.020 A 
ATOM     53  C   UNL     1       5.021  10.751  -3.272  1.00  0.00     0.020 A 
ATOM     54  C   UNL     1       6.104  10.788  -4.151  1.00  0.00     0.054 A 
BRANCH  54  55
ATOM     55  S   UNL     1       5.886  11.404  -5.844  1.00  0.00     0.124 S 
ATOM     56  O   UNL     1       6.514  12.719  -5.771  1.00  0.00    -0.237 OA
ATOM     57  O   UNL     1       6.596  10.405  -6.639  1.00  0.00    -0.237 OA
ATOM     58  O   UNL     1       4.435  11.409  -6.019  1.00  0.00    -0.744 OA
ENDBRANCH  54  55
ENDBRANCH  26  49
BRANCH  38  59
ATOM     59  C   UNL     1       9.814  11.462   4.261  1.00  0.00    -0.014 A 
ATOM     60  C   UNL     1       9.227  12.709   4.539  1.00  0.00     0.010 A 
ATOM     61  C   UNL     1      11.210  11.321   4.360  1.00  0.00     0.010 A 
ATOM     62  C   UNL     1      10.026  13.804   4.878  1.00  0.00     0.020 A 
ATOM     63  C   UNL     1      12.010  12.408   4.720  1.00  0.00     0.020 A 
ATOM     64  C   UNL     1      11.414  13.648   4.962  1.00  0.00     0.054 A 
BRANCH  64  65
ATOM     65  S   UNL     1      12.430  15.074   5.434  1.00  0.00     0.124 S 
ATOM     66  O   UNL     1      12.471  15.841   4.192  1.00  0.00    -0.237 OA
ATOM     67  O   UNL     1      11.660  15.675   6.520  1.00  0.00    -0.237 OA
ATOM     68  O   UNL     1      13.700  14.473   5.838  1.00  0.00    -0.744 OA
ENDBRANCH  64  65
ENDBRANCH  38  59
ENDBRANCH  12  13
ENDBRANCH   5   7
ENDBRANCH   2   3
ENDBRANCH   1   2
BRANCH   1  69
ATOM     69  C   UNL     1       4.747  -3.603   0.881  1.00  0.00     0.023 C 
BRANCH  69  70
ATOM     70  C   UNL     1       5.016  -4.181  -0.502  1.00  0.00     0.116 C 
BRANCH  70  71
ATOM     71  N   UNL     1       6.416  -4.180  -0.912  1.00  0.00    -0.352 N 
ATOM     72  C   UNL     1       7.135  -5.167  -1.562  1.00  0.00     0.253 C 
ATOM     73  H   UNL     1       6.920  -3.362  -0.696  1.00  0.00     0.163 HD
ATOM     74  O   UNL     1       8.315  -5.003  -1.830  1.00  0.00    -0.269 OA
BRANCH  72  75
ATOM     75  C   UNL     1       6.473  -6.457  -1.873  1.00  0.00     0.065 A 
ATOM     76  C   UNL     1       7.127  -7.623  -1.453  1.00  0.00     0.042 A 
ATOM     77  C   UNL     1       5.230  -6.540  -2.518  1.00  0.00     0.054 A 
ATOM     78  C   UNL     1       6.482  -8.852  -1.549  1.00  0.00     0.038 A 
ATOM     79  C   UNL     1       4.495  -7.690  -2.309  1.00  0.00     0.029 A 
ATOM     80  C   UNL     1       5.126  -8.854  -1.873  1.00  0.00     0.028 A 
BRANCH  77  81
ATOM     81  N   UNL     1       4.777  -5.473  -3.308  1.00  0.00    -0.325 N 
ATOM     82  C   UNL     1       3.877  -5.313  -4.306  1.00  0.00     0.227 C 
ATOM     83  H   UNL     1       5.227  -4.628  -3.078  1.00  0.00     0.169 HD
ATOM     84  O   UNL     1       3.708  -4.131  -4.648  1.00  0.00    -0.274 OA
BRANCH  82  85
ATOM     85  C   UNL     1       3.081  -6.395  -5.051  1.00  0.00     0.079 C 
ATOM     86  C   UNL     1       3.188  -6.080  -6.558  1.00  0.00     0.013 C 
ATOM     87  C   UNL     1       3.449  -7.873  -5.062  1.00  0.00     0.013 C 
ATOM     88  C   UNL     1       2.625  -7.295  -7.274  1.00  0.00     0.001 C 
ATOM     89  C   UNL     1       2.841  -8.461  -6.329  1.00  0.00     0.001 C 
ENDBRANCH  82  85
ENDBRANCH  77  81
BRANCH  78  90
ATOM     90  N   UNL     1       7.148 -10.030  -1.359  1.00  0.00    -0.368 N 
ATOM     91  C   UNL     1       7.463 -10.558  -0.033  1.00  0.00     0.138 C 
ATOM     92  C   UNL     1       7.550 -10.836  -2.518  1.00  0.00     0.138 C 
ATOM     93  C   UNL     1       6.915 -12.001   0.101  1.00  0.00     0.138 C 
ATOM     94  C   UNL     1       7.053 -12.289  -2.374  1.00  0.00     0.138 C 
ATOM     95  N   UNL     1       7.343 -12.840  -1.039  1.00  0.00    -0.368 N 
BRANCH  95  96
ATOM     96  C   UNL     1       8.261 -13.848  -0.837  1.00  0.00     0.037 A 
ATOM     97  C   UNL     1       8.010 -14.842   0.123  1.00  0.00     0.029 A 
ATOM     98  C   UNL     1       9.458 -13.932  -1.562  1.00  0.00     0.029 A 
ATOM     99  C   UNL     1       8.913 -15.882   0.353  1.00  0.00     0.041 A 
ATOM    100  C   UNL     1      10.376 -14.962  -1.328  1.00  0.00     0.041 A 
ATOM    101  C   UNL     1      10.093 -15.928  -0.374  1.00  0.00     0.123 A 
ATOM    102  F   UNL     1      10.967 -16.919  -0.153  1.00  0.00    -0.207 F 
ENDBRANCH  95  96
ENDBRANCH  78  90
ENDBRANCH  72  75
ENDBRANCH  70  71
ENDBRANCH  69  70
ENDBRANCH   1  69
TORSDOF 18
