REMARK SMILES C[C@@H]1CN(C(=O)Nc2ccc(O)c(C(=O)NCCCCNC(=O)c3ccc(-c4c5nc(c(-c6ccc(S(=O)(=O)[O-])cc6)c6ccc([nH]6)c(-c6ccc(S(=O)(=O)[O-])cc6)c6nc(c(-c7ccc(S(=O)(=O)[O-])cc7)c7ccc4[nH]7)C=C6)C=C5)cc3)c2)C[C@H]1C
REMARK SMILES IDX 19 1 18 2 17 3 16 4 14 5 15 6 13 8 8 9 9 10 84 11 10 12
REMARK SMILES IDX 11 13 7 14 1 15 2 16 3 17 86 18 4 19 85 20 87 21 5 22 6 23
REMARK SMILES IDX 12 25 20 27 21 28 22 29 23 31 24 32 25 33 83 34 26 35 82 36
REMARK SMILES IDX 27 37 28 38 29 39 76 40 30 41 81 42 75 43 77 44 31 45 80 46
REMARK SMILES IDX 74 47 73 48 32 50 62 51 43 52 61 53 44 54 47 55 60 56 78 57
REMARK SMILES IDX 45 58 46 59 59 61 79 62 48 63 33 64 34 65 42 66 35 67 41 68
REMARK SMILES IDX 36 69 37 70 38 71 39 72 40 73 63 74 64 75 72 76 65 77 71 78
REMARK SMILES IDX 66 79 67 80 68 81 69 82 70 83 49 84 50 85 58 86 51 87 57 88
REMARK SMILES IDX 52 89 53 90 54 91 55 92 56 93
REMARK H PARENT 16 7 7 24 12 26 21 30 77 49 47 60
REMARK Flexibility Score: inf
ROOT
ATOM      1  C   UNL     1       2.149   9.231   0.112  1.00  0.00     0.023 C 
ENDROOT
BRANCH   1   2
ATOM      2  C   UNL     1       1.573   7.867   0.474  1.00  0.00     0.023 C 
BRANCH   2   3
ATOM      3  C   UNL     1       2.495   6.670   0.227  1.00  0.00     0.116 C 
BRANCH   3   4
ATOM      4  N   UNL     1       3.415   6.497   1.328  1.00  0.00    -0.352 N 
ATOM      5  C   UNL     1       3.353   5.750   2.473  1.00  0.00     0.255 C 
ATOM      6  O   UNL     1       4.332   5.829   3.223  1.00  0.00    -0.269 OA
ATOM      7  H   UNL     1       4.247   7.016   1.236  1.00  0.00     0.163 HD
BRANCH   5   8
ATOM      8  C   UNL     1       2.259   4.802   2.857  1.00  0.00     0.083 A 
ATOM      9  C   UNL     1       1.826   2.718   4.066  1.00  0.00     0.043 A 
ATOM     10  C   UNL     1       0.457   2.884   3.891  1.00  0.00     0.030 A 
ATOM     11  C   UNL     1       2.707   3.705   3.624  1.00  0.00     0.044 A 
ATOM     12  C   UNL     1      -0.013   3.954   3.144  1.00  0.00     0.049 A 
ATOM     13  C   UNL     1       0.883   4.886   2.602  1.00  0.00     0.128 A 
BRANCH   9  14
ATOM     14  N   UNL     1       2.353   1.578   4.678  1.00  0.00    -0.308 N 
ATOM     15  C   UNL     1       1.046  -0.533  -0.144  1.00  0.00     0.010 C 
ATOM     16  C   UNL     1       0.617  -0.675   1.306  1.00  0.00     0.010 C 
ATOM     17  C   UNL     1       1.256   0.385   2.200  1.00  0.00     0.125 C 
ATOM     18  C   UNL     1       1.051  -1.974   1.991  1.00  0.00     0.010 C 
ATOM     19  N   UNL     1       1.284  -0.201   3.539  1.00  0.00    -0.324 N 
ATOM     20  C   UNL     1       0.924  -1.611   3.474  1.00  0.00     0.125 C 
ATOM     21  C   UNL     1       0.211  -3.178   1.603  1.00  0.00     0.010 C 
ATOM     22  C   UNL     1       1.891   0.296   4.672  1.00  0.00     0.321 C 
ATOM     23  O   UNL     1       2.146  -0.421   5.641  1.00  0.00    -0.248 OA
ATOM     24  H   UNL     1       3.182   1.722   5.189  1.00  0.00     0.171 HD
ENDBRANCH   9  14
BRANCH  13  25
ATOM     25  O   UNL     1       0.322   5.871   1.853  1.00  0.00    -0.507 OA
ATOM     26  H   UNL     1      -0.605   5.882   1.712  1.00  0.00     0.293 HD
ENDBRANCH  13  25
ENDBRANCH   5   8
ENDBRANCH   3   4
ENDBRANCH   2   3
ENDBRANCH   1   2
BRANCH   1  27
ATOM     27  C   UNL     1       2.427   9.437  -1.367  1.00  0.00     0.116 C 
BRANCH  27  28
ATOM     28  N   UNL     1       1.263   9.227  -2.217  1.00  0.00    -0.352 N 
ATOM     29  C   UNL     1       0.962   9.844  -3.409  1.00  0.00     0.251 C 
ATOM     30  H   UNL     1       0.611   8.562  -1.898  1.00  0.00     0.163 HD
ATOM     31  O   UNL     1      -0.099   9.623  -3.977  1.00  0.00    -0.269 OA
BRANCH  29  32
ATOM     32  C   UNL     1       1.927  10.817  -3.961  1.00  0.00     0.039 A 
ATOM     33  C   UNL     1       1.479  12.099  -4.287  1.00  0.00     0.014 A 
ATOM     34  C   UNL     1       3.279  10.484  -4.077  1.00  0.00     0.014 A 
ATOM     35  C   UNL     1       2.406  13.074  -4.659  1.00  0.00     0.010 A 
ATOM     36  C   UNL     1       4.206  11.475  -4.376  1.00  0.00     0.010 A 
ATOM     37  C   UNL     1       3.779  12.779  -4.667  1.00  0.00    -0.014 A 
BRANCH  37  38
ATOM     38  C   UNL     1       4.791  13.815  -4.989  1.00  0.00     0.031 A 
ATOM     39  C   UNL     1       5.647  13.661  -6.216  1.00  0.00     0.074 A 
ATOM     40  C   UNL     1       4.987  14.848  -4.145  1.00  0.00     0.049 A 
ATOM     41  N   UNL     1       6.653  14.393  -6.615  1.00  0.00    -0.248 NA
ATOM     42  C   UNL     1       5.348  12.517  -7.096  1.00  0.00     0.031 C 
ATOM     43  C   UNL     1       4.248  15.085  -2.902  1.00  0.00     0.029 A 
ATOM     44  N   UNL     1       5.880  15.889  -4.202  1.00  0.00    -0.354 N 
ATOM     45  C   UNL     1       7.116  13.794  -7.780  1.00  0.00     0.074 A 
ATOM     46  C   UNL     1       6.314  12.610  -7.998  1.00  0.00     0.031 C 
ATOM     47  C   UNL     1       4.706  16.209  -2.325  1.00  0.00     0.029 A 
ATOM     48  C   UNL     1       5.793  16.752  -3.134  1.00  0.00     0.049 A 
ATOM     49  H   UNL     1       6.522  16.008  -4.938  1.00  0.00     0.167 HD
ATOM     50  C   UNL     1       8.103  14.206  -8.610  1.00  0.00     0.031 A 
ATOM     51  C   UNL     1       6.513  17.850  -2.837  1.00  0.00     0.031 A 
ATOM     52  C   UNL     1       8.884  15.394  -8.405  1.00  0.00     0.049 A 
ATOM     53  C   UNL     1       7.604  18.287  -3.779  1.00  0.00     0.074 A 
ATOM     54  C   UNL     1       9.889  15.912  -9.204  1.00  0.00     0.029 A 
ATOM     55  N   UNL     1       8.738  16.259  -7.332  1.00  0.00    -0.354 N 
ATOM     56  N   UNL     1       8.000  17.726  -4.897  1.00  0.00    -0.248 NA
ATOM     57  C   UNL     1       8.336  19.512  -3.426  1.00  0.00     0.031 C 
ATOM     58  C   UNL     1      10.370  17.077  -8.598  1.00  0.00     0.029 A 
ATOM     59  C   UNL     1       9.634  17.307  -7.447  1.00  0.00     0.049 A 
ATOM     60  H   UNL     1       8.093  16.145  -6.597  1.00  0.00     0.167 HD
ATOM     61  C   UNL     1       9.004  18.548  -5.396  1.00  0.00     0.074 A 
ATOM     62  C   UNL     1       9.146  19.650  -4.466  1.00  0.00     0.031 C 
ATOM     63  C   UNL     1       9.743  18.405  -6.522  1.00  0.00     0.031 A 
BRANCH  50  64
ATOM     64  C   UNL     1       8.377  13.372  -9.831  1.00  0.00    -0.014 A 
ATOM     65  C   UNL     1       7.476  13.364 -10.910  1.00  0.00     0.010 A 
ATOM     66  C   UNL     1       9.570  12.633  -9.927  1.00  0.00     0.010 A 
ATOM     67  C   UNL     1       7.747  12.608 -12.053  1.00  0.00     0.020 A 
ATOM     68  C   UNL     1       9.857  11.895 -11.079  1.00  0.00     0.020 A 
ATOM     69  C   UNL     1       8.937  11.878 -12.130  1.00  0.00     0.054 A 
BRANCH  69  70
ATOM     70  S   UNL     1       9.283  10.942 -13.644  1.00  0.00     0.124 S 
ATOM     71  O   UNL     1       8.368   9.810 -13.513  1.00  0.00    -0.237 OA
ATOM     72  O   UNL     1       8.951  11.899 -14.697  1.00  0.00    -0.237 OA
ATOM     73  O   UNL     1      10.702  10.612 -13.531  1.00  0.00    -0.744 OA
ENDBRANCH  69  70
ENDBRANCH  50  64
BRANCH  51  74
ATOM     74  C   UNL     1       6.233  18.625  -1.597  1.00  0.00    -0.014 A 
ATOM     75  C   UNL     1       5.657  19.906  -1.672  1.00  0.00     0.010 A 
ATOM     76  C   UNL     1       6.569  18.099  -0.337  1.00  0.00     0.010 A 
ATOM     77  C   UNL     1       5.463  20.664  -0.514  1.00  0.00     0.020 A 
ATOM     78  C   UNL     1       6.351  18.843   0.826  1.00  0.00     0.020 A 
ATOM     79  C   UNL     1       5.818  20.131   0.728  1.00  0.00     0.054 A 
BRANCH  79  80
ATOM     80  S   UNL     1       5.552  21.125   2.221  1.00  0.00     0.124 S 
ATOM     81  O   UNL     1       6.674  22.057   2.167  1.00  0.00    -0.237 OA
ATOM     82  O   UNL     1       4.233  21.708   1.986  1.00  0.00    -0.237 OA
ATOM     83  O   UNL     1       5.605  20.140   3.299  1.00  0.00    -0.744 OA
ENDBRANCH  79  80
ENDBRANCH  51  74
BRANCH  63  84
ATOM     84  C   UNL     1      10.734  19.489  -6.845  1.00  0.00    -0.014 A 
ATOM     85  C   UNL     1      11.942  19.606  -6.137  1.00  0.00     0.010 A 
ATOM     86  C   UNL     1      10.475  20.363  -7.917  1.00  0.00     0.010 A 
ATOM     87  C   UNL     1      12.866  20.596  -6.480  1.00  0.00     0.020 A 
ATOM     88  C   UNL     1      11.406  21.339  -8.277  1.00  0.00     0.020 A 
ATOM     89  C   UNL     1      12.591  21.457  -7.548  1.00  0.00     0.054 A 
BRANCH  89  90
ATOM     90  S   UNL     1      13.829  22.700  -8.010  1.00  0.00     0.124 S 
ATOM     91  O   UNL     1      13.655  23.704  -6.965  1.00  0.00    -0.237 OA
ATOM     92  O   UNL     1      15.079  21.946  -7.956  1.00  0.00    -0.237 OA
ATOM     93  O   UNL     1      13.418  23.116  -9.349  1.00  0.00    -0.744 OA
ENDBRANCH  89  90
ENDBRANCH  63  84
ENDBRANCH  37  38
ENDBRANCH  29  32
ENDBRANCH  27  28
ENDBRANCH   1  27
TORSDOF 16
