REMARK SMILES O=C(NCCCCNC(=O)[C@H]1CC=CC[C@H]1C(=O)N[C@@H]1CCN(c2cccc(Cl)c2)C1)c1ccc(-c2c3nc(c(-c4ccc(S(=O)(=O)[O-])cc4)c4ccc([nH]4)c(-c4ccc(S(=O)(=O)[O-])cc4)c4nc(c(-c5ccc(S(=O)(=O)[O-])cc5)c5ccc2[nH]5)C=C4)C=C3)cc1
REMARK SMILES IDX 5 1 4 2 3 3 1 4 2 5 32 7 33 8 91 9 34 10 90 11 35 12 36 13
REMARK SMILES IDX 37 14 84 15 38 16 89 17 83 18 85 19 39 20 88 21 82 22 81 23
REMARK SMILES IDX 40 25 70 26 51 27 69 28 52 29 55 30 68 31 86 32 53 33 54 34
REMARK SMILES IDX 67 36 87 37 56 38 41 39 42 40 50 41 43 42 49 43 44 44 45 45
REMARK SMILES IDX 46 46 47 47 48 48 71 49 72 50 80 51 73 52 79 53 74 54 75 55
REMARK SMILES IDX 76 56 77 57 78 58 57 59 58 60 66 61 59 62 65 63 60 64 61 65
REMARK SMILES IDX 62 66 63 67 64 68 6 69 7 70 8 71 9 72 10 74 11 75 12 76
REMARK SMILES IDX 16 77 13 78 15 79 14 80 17 81 18 82 19 83 20 85 21 86 31 87
REMARK SMILES IDX 22 88 23 89 24 90 25 91 30 92 26 93 28 94 27 95 29 96
REMARK H PARENT 3 6 85 24 55 35 8 73 19 84
REMARK Flexibility Score: inf
ROOT
ATOM      1  C   UNL     1       4.772  -0.009  -2.779  1.00  0.00     0.023 C 
ENDROOT
BRANCH   1   2
ATOM      2  C   UNL     1       4.473   0.476  -1.369  1.00  0.00     0.116 C 
BRANCH   2   3
ATOM      3  N   UNL     1       3.058   0.491  -1.046  1.00  0.00    -0.352 N 
ATOM      4  O   UNL     1       1.172  -0.069   0.054  1.00  0.00    -0.269 OA
ATOM      5  C   UNL     1       2.392  -0.121  -0.006  1.00  0.00     0.251 C 
ATOM      6  H   UNL     1       2.492   1.014  -1.658  1.00  0.00     0.163 HD
BRANCH   5   7
ATOM      7  C   UNL     1       3.162  -0.873   1.010  1.00  0.00     0.039 A 
ATOM      8  C   UNL     1       4.326  -0.338   1.562  1.00  0.00     0.014 A 
ATOM      9  C   UNL     1       2.725  -2.145   1.394  1.00  0.00     0.014 A 
ATOM     10  C   UNL     1       5.143  -1.137   2.349  1.00  0.00     0.010 A 
ATOM     11  C   UNL     1       3.497  -2.908   2.277  1.00  0.00     0.010 A 
ATOM     12  C   UNL     1       4.732  -2.426   2.734  1.00  0.00    -0.014 A 
BRANCH  12  13
ATOM     13  C   UNL     1       5.591  -3.196   3.670  1.00  0.00     0.031 A 
ATOM     14  C   UNL     1       6.237  -4.494   3.268  1.00  0.00     0.074 A 
ATOM     15  C   UNL     1       5.841  -2.663   4.883  1.00  0.00     0.049 A 
ATOM     16  N   UNL     1       7.080  -5.233   3.946  1.00  0.00    -0.248 NA
ATOM     17  C   UNL     1       5.894  -5.041   1.946  1.00  0.00     0.031 C 
ATOM     18  C   UNL     1       5.252  -1.419   5.393  1.00  0.00     0.029 A 
ATOM     19  N   UNL     1       6.678  -3.067   5.890  1.00  0.00    -0.354 N 
ATOM     20  C   UNL     1       7.361  -6.333   3.144  1.00  0.00     0.074 A 
ATOM     21  C   UNL     1       6.575  -6.181   1.937  1.00  0.00     0.031 C 
ATOM     22  C   UNL     1       5.798  -1.127   6.580  1.00  0.00     0.029 A 
ATOM     23  C   UNL     1       6.721  -2.192   6.950  1.00  0.00     0.049 A 
ATOM     24  H   UNL     1       7.197  -3.902   5.858  1.00  0.00     0.167 HD
ATOM     25  C   UNL     1       8.201  -7.368   3.387  1.00  0.00     0.031 A 
ATOM     26  C   UNL     1       7.417  -2.240   8.101  1.00  0.00     0.031 A 
ATOM     27  C   UNL     1       8.976  -7.517   4.594  1.00  0.00     0.049 A 
ATOM     28  C   UNL     1       8.338  -3.397   8.342  1.00  0.00     0.074 A 
ATOM     29  C   UNL     1       9.856  -8.530   4.934  1.00  0.00     0.029 A 
ATOM     30  N   UNL     1       8.968  -6.626   5.657  1.00  0.00    -0.354 N 
ATOM     31  N   UNL     1       8.597  -4.418   7.561  1.00  0.00    -0.248 NA
ATOM     32  C   UNL     1       9.063  -3.408   9.618  1.00  0.00     0.031 C 
ATOM     33  C   UNL     1      10.349  -8.273   6.218  1.00  0.00     0.029 A 
ATOM     34  C   UNL     1       9.817  -7.072   6.657  1.00  0.00     0.049 A 
ATOM     35  H   UNL     1       8.437  -5.797   5.695  1.00  0.00     0.167 HD
ATOM     36  C   UNL     1       9.515  -5.197   8.252  1.00  0.00     0.074 A 
ATOM     37  C   UNL     1       9.796  -4.506   9.496  1.00  0.00     0.031 C 
ATOM     38  C   UNL     1      10.069  -6.382   7.896  1.00  0.00     0.031 A 
BRANCH  25  39
ATOM     39  C   UNL     1       8.322  -8.437   2.332  1.00  0.00    -0.014 A 
ATOM     40  C   UNL     1       9.016  -8.195   1.132  1.00  0.00     0.010 A 
ATOM     41  C   UNL     1       7.797  -9.721   2.568  1.00  0.00     0.010 A 
ATOM     42  C   UNL     1       9.157  -9.207   0.178  1.00  0.00     0.020 A 
ATOM     43  C   UNL     1       7.956 -10.743   1.626  1.00  0.00     0.020 A 
ATOM     44  C   UNL     1       8.625 -10.475   0.430  1.00  0.00     0.054 A 
BRANCH  44  45
ATOM     45  S   UNL     1       8.855 -11.779  -0.811  1.00  0.00     0.124 S 
ATOM     46  O   UNL     1       7.928 -11.361  -1.860  1.00  0.00    -0.237 OA
ATOM     47  O   UNL     1      10.272 -11.659  -1.143  1.00  0.00    -0.237 OA
ATOM     48  O   UNL     1       8.485 -13.002  -0.103  1.00  0.00    -0.744 OA
ENDBRANCH  44  45
ENDBRANCH  25  39
BRANCH  26  49
ATOM     49  C   UNL     1       7.237  -1.167   9.115  1.00  0.00    -0.014 A 
ATOM     50  C   UNL     1       8.268  -0.255   9.396  1.00  0.00     0.010 A 
ATOM     51  C   UNL     1       6.007  -1.041   9.789  1.00  0.00     0.010 A 
ATOM     52  C   UNL     1       8.079   0.751  10.348  1.00  0.00     0.020 A 
ATOM     53  C   UNL     1       5.805  -0.018  10.717  1.00  0.00     0.020 A 
ATOM     54  C   UNL     1       6.848   0.863  11.002  1.00  0.00     0.054 A 
BRANCH  54  55
ATOM     55  S   UNL     1       6.604   2.203  12.200  1.00  0.00     0.124 S 
ATOM     56  O   UNL     1       7.306   1.692  13.372  1.00  0.00    -0.237 OA
ATOM     57  O   UNL     1       7.228   3.343  11.534  1.00  0.00    -0.237 OA
ATOM     58  O   UNL     1       5.150   2.285  12.324  1.00  0.00    -0.744 OA
ENDBRANCH  54  55
ENDBRANCH  26  49
BRANCH  38  59
ATOM     59  C   UNL     1      11.038  -6.994   8.870  1.00  0.00    -0.014 A 
ATOM     60  C   UNL     1      10.591  -7.555  10.080  1.00  0.00     0.010 A 
ATOM     61  C   UNL     1      12.412  -7.010   8.571  1.00  0.00     0.010 A 
ATOM     62  C   UNL     1      11.507  -8.076  10.997  1.00  0.00     0.020 A 
ATOM     63  C   UNL     1      13.328  -7.555   9.474  1.00  0.00     0.020 A 
ATOM     64  C   UNL     1      12.871  -8.065  10.691  1.00  0.00     0.054 A 
BRANCH  64  65
ATOM     65  S   UNL     1      14.042  -8.750  11.894  1.00  0.00     0.124 S 
ATOM     66  O   UNL     1      14.106  -7.688  12.894  1.00  0.00    -0.237 OA
ATOM     67  O   UNL     1      13.381  -9.980  12.324  1.00  0.00    -0.237 OA
ATOM     68  O   UNL     1      15.262  -8.947  11.114  1.00  0.00    -0.744 OA
ENDBRANCH  64  65
ENDBRANCH  38  59
ENDBRANCH  12  13
ENDBRANCH   5   7
ENDBRANCH   2   3
ENDBRANCH   1   2
BRANCH   1  69
ATOM     69  C   UNL     1       4.140   0.793  -3.910  1.00  0.00     0.023 C 
BRANCH  69  70
ATOM     70  C   UNL     1       4.308   2.307  -3.842  1.00  0.00     0.116 C 
BRANCH  70  71
ATOM     71  N   UNL     1       5.657   2.739  -3.531  1.00  0.00    -0.356 N 
ATOM     72  C   UNL     1       6.300   3.860  -3.950  1.00  0.00     0.224 C 
ATOM     73  H   UNL     1       6.173   2.143  -2.941  1.00  0.00     0.163 HD
ATOM     74  O   UNL     1       7.186   4.297  -3.215  1.00  0.00    -0.275 OA
BRANCH  72  75
ATOM     75  C   UNL     1       5.918   4.517  -5.275  1.00  0.00     0.095 C 
ATOM     76  C   UNL     1       6.342   6.005  -5.306  1.00  0.00     0.041 C 
ATOM     77  C   UNL     1       6.262   3.711  -6.556  1.00  0.00     0.095 C 
ATOM     78  C   UNL     1       7.490   6.362  -6.193  1.00  0.00    -0.030 C 
ATOM     79  C   UNL     1       7.226   4.323  -7.593  1.00  0.00     0.041 C 
ATOM     80  C   UNL     1       7.875   5.614  -7.229  1.00  0.00    -0.030 C 
BRANCH  77  81
ATOM     81  C   UNL     1       6.520   2.204  -6.470  1.00  0.00     0.224 C 
ATOM     82  O   UNL     1       5.615   1.442  -6.846  1.00  0.00    -0.275 OA
ATOM     83  N   UNL     1       7.691   1.596  -6.162  1.00  0.00    -0.351 N 
ATOM     84  H   UNL     1       7.798   0.752  -6.658  1.00  0.00     0.163 HD
BRANCH  83  85
ATOM     85  C   UNL     1       8.850   1.855  -5.286  1.00  0.00     0.103 C 
ATOM     86  C   UNL     1       9.247   3.291  -5.004  1.00  0.00     0.048 C 
ATOM     87  C   UNL     1      10.180   1.208  -5.823  1.00  0.00     0.141 C 
ATOM     88  C   UNL     1      10.405   3.582  -5.918  1.00  0.00     0.119 C 
ATOM     89  N   UNL     1      11.123   2.324  -5.913  1.00  0.00    -0.369 N 
BRANCH  89  90
ATOM     90  C   UNL     1      12.410   2.330  -6.387  1.00  0.00     0.038 A 
ATOM     91  C   UNL     1      13.326   3.266  -5.868  1.00  0.00     0.026 A 
ATOM     92  C   UNL     1      12.851   1.500  -7.416  1.00  0.00     0.046 A 
ATOM     93  C   UNL     1      14.605   3.430  -6.396  1.00  0.00     0.004 A 
ATOM     94  C   UNL     1      14.131   1.670  -7.960  1.00  0.00     0.043 A 
ATOM     95  C   UNL     1      15.003   2.638  -7.463  1.00  0.00     0.020 A 
ATOM     96  Cl  UNL     1      14.626   0.702  -9.296  1.00  0.00    -0.084 Cl
ENDBRANCH  89  90
ENDBRANCH  83  85
ENDBRANCH  77  81
ENDBRANCH  72  75
ENDBRANCH  70  71
ENDBRANCH  69  70
ENDBRANCH   1  69
TORSDOF 17
