REMARK SMILES COc1cc2ccccc2cc1C(=O)Nc1cc(C(=O)NCCCCNC(=O)c2ccc(-c3c4nc(c(-c5ccc(S(=O)(=O)[O-])cc5)c5ccc([nH]5)c(-c5ccc(S(=O)(=O)[O-])cc5)c5nc(c(-c6ccc(S(=O)(=O)[O-])cc6)c6ccc3[nH]6)C=C5)C=C4)cc2)ccc1C
REMARK SMILES IDX 23 1 22 2 21 3 19 4 20 5 18 7 16 8 17 9 91 10 90 11 92 12
REMARK SMILES IDX 89 13 15 14 13 15 14 16 12 18 3 19 4 20 5 21 11 22 6 23
REMARK SMILES IDX 10 24 7 25 9 26 8 27 2 28 1 29 24 30 25 31 26 32 27 33 28 35
REMARK SMILES IDX 29 36 30 37 88 38 31 39 87 40 32 41 33 42 34 43 81 44 35 45
REMARK SMILES IDX 86 46 80 47 82 48 36 49 85 50 79 51 78 52 37 54 67 55 48 56
REMARK SMILES IDX 66 57 49 58 52 59 65 60 83 61 50 62 51 63 64 65 84 66 53 67
REMARK SMILES IDX 38 68 39 69 47 70 40 71 46 72 41 73 42 74 43 75 44 76 45 77
REMARK SMILES IDX 68 78 69 79 77 80 70 81 76 82 71 83 72 84 73 85 74 86 75 87
REMARK SMILES IDX 54 88 55 89 63 90 56 91 62 92 57 93 58 94 59 95 60 96 61 97
REMARK H PARENT 21 6 15 17 26 34 82 53 52 64
REMARK Flexibility Score: inf
ROOT
ATOM      1  C   UNL     1       1.638  -0.731   5.501  1.00  0.00     0.023 C 
ENDROOT
BRANCH   1   2
ATOM      2  C   UNL     1       0.531  -1.283   4.588  1.00  0.00     0.116 C 
BRANCH   2   3
ATOM      3  N   UNL     1      -0.626  -0.403   4.503  1.00  0.00    -0.352 N 
ATOM      4  C   UNL     1      -0.979   0.654   3.700  1.00  0.00     0.251 C 
ATOM      5  O   UNL     1      -2.086   1.160   3.909  1.00  0.00    -0.269 OA
ATOM      6  H   UNL     1      -1.314  -0.614   5.176  1.00  0.00     0.163 HD
BRANCH   4   7
ATOM      7  C   UNL     1      -0.154   1.202   2.578  1.00  0.00     0.041 A 
ATOM      8  C   UNL     1       1.719   1.122   1.034  1.00  0.00     0.045 A 
ATOM      9  C   UNL     1       1.124   0.773   2.253  1.00  0.00     0.040 A 
ATOM     10  C   UNL     1       1.184   2.143   0.240  1.00  0.00    -0.027 A 
ATOM     11  C   UNL     1      -0.074   2.645   0.602  1.00  0.00     0.006 A 
ATOM     12  C   UNL     1       1.771   2.560  -1.077  1.00  0.00     0.046 C 
ATOM     13  C   UNL     1      -0.750   2.148   1.727  1.00  0.00     0.014 A 
BRANCH   8  14
ATOM     14  N   UNL     1       2.738   0.290   0.537  1.00  0.00    -0.322 N 
ATOM     15  C   UNL     1       2.695  -1.099   0.453  1.00  0.00     0.259 C 
ATOM     16  O   UNL     1       3.698  -1.716   0.097  1.00  0.00    -0.269 OA
ATOM     17  H   UNL     1       3.559   0.731   0.220  1.00  0.00     0.170 HD
BRANCH  15  18
ATOM     18  C   UNL     1       1.426  -1.858   0.697  1.00  0.00     0.082 A 
ATOM     19  C   UNL     1       0.178  -1.474   0.179  1.00  0.00     0.132 A 
ATOM     20  C   UNL     1      -1.000  -2.109   0.577  1.00  0.00     0.056 A 
ATOM     21  C   UNL     1      -0.953  -3.230   1.396  1.00  0.00    -0.015 A 
ATOM     22  C   UNL     1       1.487  -3.014   1.482  1.00  0.00     0.026 A 
ATOM     23  C   UNL     1      -2.134  -3.897   1.757  1.00  0.00     0.009 A 
ATOM     24  C   UNL     1       0.304  -3.700   1.836  1.00  0.00    -0.017 A 
ATOM     25  C   UNL     1      -2.084  -5.045   2.533  1.00  0.00     0.001 A 
ATOM     26  C   UNL     1       0.328  -4.837   2.642  1.00  0.00     0.009 A 
ATOM     27  C   UNL     1      -0.856  -5.503   2.976  1.00  0.00     0.001 A 
BRANCH  19  28
ATOM     28  O   UNL     1      -0.000  -0.454  -0.716  1.00  0.00    -0.496 OA
ATOM     29  C   UNL     1       0.420  -0.858  -2.013  1.00  0.00     0.278 C 
ENDBRANCH  19  28
ENDBRANCH  15  18
ENDBRANCH   8  14
ENDBRANCH   4   7
ENDBRANCH   2   3
ENDBRANCH   1   2
BRANCH   1  30
ATOM     30  C   UNL     1       1.307  -0.751   6.999  1.00  0.00     0.023 C 
BRANCH  30  31
ATOM     31  C   UNL     1       1.157  -2.146   7.576  1.00  0.00     0.116 C 
BRANCH  31  32
ATOM     32  N   UNL     1       2.378  -2.882   7.855  1.00  0.00    -0.352 N 
ATOM     33  C   UNL     1       2.281  -3.934   8.774  1.00  0.00     0.251 C 
ATOM     34  H   UNL     1       3.231  -2.653   7.420  1.00  0.00     0.163 HD
ATOM     35  O   UNL     1       2.155  -3.817   9.975  1.00  0.00    -0.269 OA
BRANCH  33  36
ATOM     36  C   UNL     1       1.958  -5.213   8.103  1.00  0.00     0.039 A 
ATOM     37  C   UNL     1       2.842  -6.284   7.983  1.00  0.00     0.014 A 
ATOM     38  C   UNL     1       0.725  -5.223   7.455  1.00  0.00     0.014 A 
ATOM     39  C   UNL     1       2.531  -7.317   7.093  1.00  0.00     0.010 A 
ATOM     40  C   UNL     1       0.486  -6.155   6.489  1.00  0.00     0.010 A 
ATOM     41  C   UNL     1       1.388  -7.204   6.303  1.00  0.00    -0.014 A 
BRANCH  41  42
ATOM     42  C   UNL     1       0.954  -8.124   5.266  1.00  0.00     0.031 A 
ATOM     43  C   UNL     1      -0.239  -8.956   5.534  1.00  0.00     0.074 A 
ATOM     44  C   UNL     1       1.385  -7.888   4.009  1.00  0.00     0.049 A 
ATOM     45  N   UNL     1      -0.730  -9.802   4.705  1.00  0.00    -0.248 NA
ATOM     46  C   UNL     1      -1.012  -8.863   6.772  1.00  0.00     0.031 C 
ATOM     47  C   UNL     1       0.764  -8.287   2.745  1.00  0.00     0.029 A 
ATOM     48  N   UNL     1       2.556  -7.260   3.602  1.00  0.00    -0.354 N 
ATOM     49  C   UNL     1      -1.992 -10.137   5.137  1.00  0.00     0.074 A 
ATOM     50  C   UNL     1      -2.103  -9.569   6.458  1.00  0.00     0.031 C 
ATOM     51  C   UNL     1       1.656  -8.144   1.751  1.00  0.00     0.029 A 
ATOM     52  C   UNL     1       2.927  -7.849   2.388  1.00  0.00     0.049 A 
ATOM     53  H   UNL     1       3.033  -6.541   4.076  1.00  0.00     0.167 HD
ATOM     54  C   UNL     1      -2.836 -10.754   4.262  1.00  0.00     0.031 A 
ATOM     55  C   UNL     1       4.034  -8.645   2.296  1.00  0.00     0.031 A 
ATOM     56  C   UNL     1      -2.153 -11.020   2.990  1.00  0.00     0.049 A 
ATOM     57  C   UNL     1       3.584 -10.064   1.988  1.00  0.00     0.074 A 
ATOM     58  C   UNL     1      -2.206 -10.426   1.740  1.00  0.00     0.029 A 
ATOM     59  N   UNL     1      -0.995 -11.803   3.001  1.00  0.00    -0.354 N 
ATOM     60  N   UNL     1       2.450 -10.584   2.398  1.00  0.00    -0.248 NA
ATOM     61  C   UNL     1       4.277 -10.918   1.030  1.00  0.00     0.031 C 
ATOM     62  C   UNL     1      -1.011 -10.773   1.044  1.00  0.00     0.029 A 
ATOM     63  C   UNL     1      -0.243 -11.592   1.860  1.00  0.00     0.049 A 
ATOM     64  H   UNL     1      -0.748 -12.423   3.724  1.00  0.00     0.167 HD
ATOM     65  C   UNL     1       2.181 -11.710   1.659  1.00  0.00     0.074 A 
ATOM     66  C   UNL     1       3.387 -11.913   0.868  1.00  0.00     0.031 C 
ATOM     67  C   UNL     1       0.976 -12.359   1.614  1.00  0.00     0.031 A 
BRANCH  54  68
ATOM     68  C   UNL     1      -4.327 -10.907   4.483  1.00  0.00    -0.014 A 
ATOM     69  C   UNL     1      -5.189 -11.062   3.377  1.00  0.00     0.010 A 
ATOM     70  C   UNL     1      -4.948 -10.892   5.748  1.00  0.00     0.010 A 
ATOM     71  C   UNL     1      -6.586 -11.142   3.522  1.00  0.00     0.020 A 
ATOM     72  C   UNL     1      -6.343 -10.938   5.908  1.00  0.00     0.020 A 
ATOM     73  C   UNL     1      -7.157 -11.064   4.789  1.00  0.00     0.054 A 
BRANCH  73  74
ATOM     74  S   UNL     1      -8.960 -11.156   4.959  1.00  0.00     0.124 S 
ATOM     75  O   UNL     1      -9.411 -10.022   4.156  1.00  0.00    -0.237 OA
ATOM     76  O   UNL     1      -9.260 -12.476   4.410  1.00  0.00    -0.237 OA
ATOM     77  O   UNL     1      -9.182 -11.018   6.397  1.00  0.00    -0.744 OA
ENDBRANCH  73  74
ENDBRANCH  54  68
BRANCH  55  78
ATOM     78  C   UNL     1       5.160  -8.147   3.157  1.00  0.00    -0.014 A 
ATOM     79  C   UNL     1       5.686  -6.887   2.767  1.00  0.00     0.010 A 
ATOM     80  C   UNL     1       5.260  -8.514   4.513  1.00  0.00     0.010 A 
ATOM     81  C   UNL     1       6.033  -5.924   3.723  1.00  0.00     0.020 A 
ATOM     82  C   UNL     1       5.642  -7.553   5.473  1.00  0.00     0.020 A 
ATOM     83  C   UNL     1       5.924  -6.240   5.075  1.00  0.00     0.054 A 
BRANCH  83  84
ATOM     84  S   UNL     1       5.955  -4.871   6.284  1.00  0.00     0.124 S 
ATOM     85  O   UNL     1       7.156  -4.135   5.902  1.00  0.00    -0.237 OA
ATOM     86  O   UNL     1       4.686  -4.188   6.017  1.00  0.00    -0.237 OA
ATOM     87  O   UNL     1       6.025  -5.560   7.568  1.00  0.00    -0.744 OA
ENDBRANCH  83  84
ENDBRANCH  55  78
BRANCH  67  88
ATOM     88  C   UNL     1       0.806 -13.810   1.217  1.00  0.00    -0.014 A 
ATOM     89  C   UNL     1       1.874 -14.714   1.120  1.00  0.00     0.010 A 
ATOM     90  C   UNL     1      -0.501 -14.354   1.126  1.00  0.00     0.010 A 
ATOM     91  C   UNL     1       1.655 -16.079   0.903  1.00  0.00     0.020 A 
ATOM     92  C   UNL     1      -0.732 -15.721   0.970  1.00  0.00     0.020 A 
ATOM     93  C   UNL     1       0.354 -16.575   0.841  1.00  0.00     0.054 A 
BRANCH  93  94
ATOM     94  S   UNL     1       0.100 -18.357   0.685  1.00  0.00     0.124 S 
ATOM     95  O   UNL     1       0.248 -18.554  -0.754  1.00  0.00    -0.237 OA
ATOM     96  O   UNL     1       1.175 -18.909   1.508  1.00  0.00    -0.237 OA
ATOM     97  O   UNL     1      -1.246 -18.561   1.214  1.00  0.00    -0.744 OA
ENDBRANCH  93  94
ENDBRANCH  67  88
ENDBRANCH  41  42
ENDBRANCH  33  36
ENDBRANCH  31  32
ENDBRANCH  30  31
ENDBRANCH   1  30
TORSDOF 17
