REMARK SMILES COCCC(=O)N1CCc2cc(C(=O)NCCCCNC(=O)c3ccc(-c4c5nc(c(-c6ccc(S(=O)(=O)[O-])cc6)c6ccc([nH]6)c(-c6ccc(S(=O)(=O)[O-])cc6)c6nc(c(-c7ccc(S(=O)(=O)[O-])cc7)c7ccc4[nH]7)C=C6)C=C5)cc3)ccc21
REMARK SMILES IDX 17 1 16 2 15 3 13 4 14 5 12 7 7 8 8 9 85 10 9 11 10 12 84 13
REMARK SMILES IDX 11 14 83 15 5 16 6 17 4 18 3 19 2 20 1 21 18 22 19 23 20 24
REMARK SMILES IDX 21 25 22 27 23 28 24 29 82 30 25 31 81 32 26 33 27 34 28 35
REMARK SMILES IDX 75 36 29 37 80 38 74 39 76 40 30 41 79 42 73 43 72 44 31 46
REMARK SMILES IDX 61 47 42 48 60 49 43 50 46 51 59 52 77 53 44 54 45 55 58 57
REMARK SMILES IDX 78 58 47 59 32 60 33 61 41 62 34 63 40 64 35 65 36 66 37 67
REMARK SMILES IDX 38 68 39 69 62 70 63 71 71 72 64 73 70 74 65 75 66 76 67 77
REMARK SMILES IDX 68 78 69 79 48 80 49 81 57 82 50 83 56 84 51 85 52 86 53 87
REMARK SMILES IDX 54 88 55 89
REMARK H PARENT 15 6 20 26 76 45 46 56
REMARK Flexibility Score: inf
ROOT
ATOM      1  C   UNL     1       2.645  -3.164   3.977  1.00  0.00     0.023 C 
ENDROOT
BRANCH   1   2
ATOM      2  C   UNL     1       1.204  -2.714   3.724  1.00  0.00     0.116 C 
BRANCH   2   3
ATOM      3  N   UNL     1       0.865  -1.557   4.534  1.00  0.00    -0.352 N 
ATOM      4  C   UNL     1       0.817  -0.216   4.239  1.00  0.00     0.251 C 
ATOM      5  O   UNL     1       0.406   0.560   5.100  1.00  0.00    -0.269 OA
ATOM      6  H   UNL     1       0.626  -1.772   5.465  1.00  0.00     0.163 HD
BRANCH   4   7
ATOM      7  C   UNL     1       1.154   0.319   2.890  1.00  0.00     0.040 A 
ATOM      8  N   UNL     1       1.218   1.574  -1.047  1.00  0.00    -0.312 N 
ATOM      9  C   UNL     1       0.297   2.714  -1.040  1.00  0.00     0.130 C 
ATOM     10  C   UNL     1       1.425   1.146   0.263  1.00  0.00     0.047 A 
ATOM     11  C   UNL     1      -0.043   3.007   0.430  1.00  0.00     0.059 C 
ATOM     12  C   UNL     1       0.585   1.842   1.126  1.00  0.00    -0.022 A 
ATOM     13  C   UNL     1       2.288   0.180   0.733  1.00  0.00     0.027 A 
ATOM     14  C   UNL     1       0.424   1.430   2.440  1.00  0.00     0.019 A 
ATOM     15  C   UNL     1       2.151  -0.226   2.062  1.00  0.00     0.016 A 
BRANCH   8  16
ATOM     16  C   UNL     1       1.596   0.953  -2.212  1.00  0.00     0.229 C 
ATOM     17  O   UNL     1       2.318   1.525  -3.033  1.00  0.00    -0.274 OA
BRANCH  16  18
ATOM     18  C   UNL     1       0.787  -0.276  -2.636  1.00  0.00     0.129 C 
BRANCH  18  19
ATOM     19  C   UNL     1       0.979  -1.571  -1.860  1.00  0.00     0.169 C 
BRANCH  19  20
ATOM     20  O   UNL     1      -0.247  -2.139  -1.389  1.00  0.00    -0.384 OA
ATOM     21  C   UNL     1      -0.869  -1.417  -0.336  1.00  0.00     0.194 C 
ENDBRANCH  19  20
ENDBRANCH  18  19
ENDBRANCH  16  18
ENDBRANCH   8  16
ENDBRANCH   4   7
ENDBRANCH   2   3
ENDBRANCH   1   2
BRANCH   1  22
ATOM     22  C   UNL     1       2.872  -3.858   5.319  1.00  0.00     0.023 C 
BRANCH  22  23
ATOM     23  C   UNL     1       2.117  -5.167   5.510  1.00  0.00     0.116 C 
BRANCH  23  24
ATOM     24  N   UNL     1       2.424  -6.158   4.492  1.00  0.00    -0.352 N 
ATOM     25  C   UNL     1       2.648  -7.508   4.635  1.00  0.00     0.251 C 
ATOM     26  H   UNL     1       2.480  -5.816   3.571  1.00  0.00     0.163 HD
ATOM     27  O   UNL     1       3.019  -8.169   3.674  1.00  0.00    -0.269 OA
BRANCH  25  28
ATOM     28  C   UNL     1       2.472  -8.145   5.960  1.00  0.00     0.039 A 
ATOM     29  C   UNL     1       3.443  -9.043   6.407  1.00  0.00     0.014 A 
ATOM     30  C   UNL     1       1.367  -7.849   6.763  1.00  0.00     0.014 A 
ATOM     31  C   UNL     1       3.335  -9.597   7.684  1.00  0.00     0.010 A 
ATOM     32  C   UNL     1       1.306  -8.334   8.066  1.00  0.00     0.010 A 
ATOM     33  C   UNL     1       2.285  -9.221   8.539  1.00  0.00    -0.014 A 
BRANCH  33  34
ATOM     34  C   UNL     1       2.200  -9.751   9.924  1.00  0.00     0.031 A 
ATOM     35  C   UNL     1       1.031 -10.603  10.342  1.00  0.00     0.074 A 
ATOM     36  C   UNL     1       3.155  -9.429  10.820  1.00  0.00     0.049 A 
ATOM     37  N   UNL     1       0.787 -11.153  11.505  1.00  0.00    -0.248 NA
ATOM     38  C   UNL     1      -0.012 -10.851   9.333  1.00  0.00     0.031 C 
ATOM     39  C   UNL     1       4.310  -8.567  10.554  1.00  0.00     0.029 A 
ATOM     40  N   UNL     1       3.310  -9.792  12.134  1.00  0.00    -0.354 N 
ATOM     41  C   UNL     1      -0.437 -11.799  11.370  1.00  0.00     0.074 A 
ATOM     42  C   UNL     1      -0.914 -11.523  10.033  1.00  0.00     0.031 C 
ATOM     43  C   UNL     1       5.072  -8.500  11.658  1.00  0.00     0.029 A 
ATOM     44  C   UNL     1       4.444  -9.279  12.720  1.00  0.00     0.049 A 
ATOM     45  H   UNL     1       2.670 -10.366  12.613  1.00  0.00     0.167 HD
ATOM     46  C   UNL     1      -1.094 -12.571  12.268  1.00  0.00     0.031 A 
ATOM     47  C   UNL     1       4.926  -9.418  13.970  1.00  0.00     0.031 A 
ATOM     48  C   UNL     1      -0.612 -12.850  13.595  1.00  0.00     0.049 A 
ATOM     49  C   UNL     1       4.176 -10.280  14.951  1.00  0.00     0.074 A 
ATOM     50  C   UNL     1      -1.173 -13.670  14.558  1.00  0.00     0.029 A 
ATOM     51  N   UNL     1       0.542 -12.315  14.148  1.00  0.00    -0.354 N 
ATOM     52  N   UNL     1       3.062 -10.949  14.776  1.00  0.00    -0.248 NA
ATOM     53  C   UNL     1       4.759 -10.416  16.292  1.00  0.00     0.031 C 
ATOM     54  C   UNL     1      -0.391 -13.582  15.715  1.00  0.00     0.029 A 
ATOM     55  C   UNL     1       0.694 -12.762  15.450  1.00  0.00     0.049 A 
ATOM     56  H   UNL     1       1.161 -11.706  13.684  1.00  0.00     0.167 HD
ATOM     57  C   UNL     1       2.823 -11.606  15.978  1.00  0.00     0.074 A 
ATOM     58  C   UNL     1       3.922 -11.272  16.862  1.00  0.00     0.031 C 
ATOM     59  C   UNL     1       1.788 -12.413  16.321  1.00  0.00     0.031 A 
BRANCH  46  60
ATOM     60  C   UNL     1      -2.412 -13.166  11.843  1.00  0.00    -0.014 A 
ATOM     61  C   UNL     1      -2.475 -14.170  10.859  1.00  0.00     0.010 A 
ATOM     62  C   UNL     1      -3.602 -12.748  12.467  1.00  0.00     0.010 A 
ATOM     63  C   UNL     1      -3.705 -14.713  10.476  1.00  0.00     0.020 A 
ATOM     64  C   UNL     1      -4.831 -13.310  12.109  1.00  0.00     0.020 A 
ATOM     65  C   UNL     1      -4.876 -14.278  11.104  1.00  0.00     0.054 A 
BRANCH  65  66
ATOM     66  S   UNL     1      -6.454 -15.018  10.604  1.00  0.00     0.124 S 
ATOM     67  O   UNL     1      -6.651 -14.441   9.277  1.00  0.00    -0.237 OA
ATOM     68  O   UNL     1      -6.158 -16.448  10.629  1.00  0.00    -0.237 OA
ATOM     69  O   UNL     1      -7.392 -14.561  11.626  1.00  0.00    -0.744 OA
ENDBRANCH  65  66
ENDBRANCH  46  60
BRANCH  47  70
ATOM     70  C   UNL     1       6.193  -8.740  14.361  1.00  0.00    -0.014 A 
ATOM     71  C   UNL     1       7.357  -9.486  14.617  1.00  0.00     0.010 A 
ATOM     72  C   UNL     1       6.244  -7.338  14.473  1.00  0.00     0.010 A 
ATOM     73  C   UNL     1       8.540  -8.847  15.000  1.00  0.00     0.020 A 
ATOM     74  C   UNL     1       7.432  -6.693  14.824  1.00  0.00     0.020 A 
ATOM     75  C   UNL     1       8.571  -7.453  15.098  1.00  0.00     0.054 A 
BRANCH  75  76
ATOM     76  S   UNL     1      10.130  -6.642  15.550  1.00  0.00     0.124 S 
ATOM     77  O   UNL     1      10.245  -6.973  16.966  1.00  0.00    -0.237 OA
ATOM     78  O   UNL     1      11.092  -7.295  14.665  1.00  0.00    -0.237 OA
ATOM     79  O   UNL     1       9.880  -5.233  15.253  1.00  0.00    -0.744 OA
ENDBRANCH  75  76
ENDBRANCH  47  70
BRANCH  59  80
ATOM     80  C   UNL     1       1.807 -13.013  17.703  1.00  0.00    -0.014 A 
ATOM     81  C   UNL     1       1.603 -12.220  18.847  1.00  0.00     0.010 A 
ATOM     82  C   UNL     1       1.998 -14.399  17.856  1.00  0.00     0.010 A 
ATOM     83  C   UNL     1       1.632 -12.796  20.120  1.00  0.00     0.020 A 
ATOM     84  C   UNL     1       1.995 -14.983  19.125  1.00  0.00     0.020 A 
ATOM     85  C   UNL     1       1.831 -14.174  20.250  1.00  0.00     0.054 A 
BRANCH  85  86
ATOM     86  S   UNL     1       1.840 -14.900  21.912  1.00  0.00     0.124 S 
ATOM     87  O   UNL     1       3.124 -14.442  22.436  1.00  0.00    -0.237 OA
ATOM     88  O   UNL     1       0.659 -14.302  22.530  1.00  0.00    -0.237 OA
ATOM     89  O   UNL     1       1.746 -16.337  21.664  1.00  0.00    -0.744 OA
ENDBRANCH  85  86
ENDBRANCH  59  80
ENDBRANCH  33  34
ENDBRANCH  25  28
ENDBRANCH  23  24
ENDBRANCH  22  23
ENDBRANCH   1  22
TORSDOF 18
