REMARK SMILES C[C@@]1(C(=O)NCCCCNC(=O)c2ccc(-c3c4nc(c(-c5ccc(S(=O)(=O)[O-])cc5)c5ccc([nH]5)c(-c5ccc(S(=O)(=O)[O-])cc5)c5nc(c(-c6ccc(S(=O)(=O)[O-])cc6)c6ccc3[nH]6)C=C5)C=C4)cc2)CCCN1c1ncnc2c1CCCCC2
REMARK SMILES IDX 7 1 6 2 5 3 3 4 4 5 2 7 1 8 73 9 76 10 74 11 75 12 77 13
REMARK SMILES IDX 78 14 82 15 79 16 81 17 80 18 83 19 84 20 85 21 87 23 86 24
REMARK SMILES IDX 8 26 9 27 10 28 11 29 12 31 13 32 14 33 72 34 15 35 71 36
REMARK SMILES IDX 16 37 17 38 18 39 65 40 19 41 70 42 64 43 66 44 20 45 69 46
REMARK SMILES IDX 63 47 62 48 21 50 51 51 32 52 50 53 33 54 36 55 49 56 67 57
REMARK SMILES IDX 34 58 35 59 48 61 68 62 37 63 22 64 23 65 31 66 24 67 30 68
REMARK SMILES IDX 25 69 26 70 27 71 28 72 29 73 52 74 53 75 61 76 54 77 60 78
REMARK SMILES IDX 55 79 56 80 57 81 58 82 59 83 38 84 39 85 47 86 40 87 46 88
REMARK SMILES IDX 41 89 42 90 43 91 44 92 45 93
REMARK H PARENT 5 6 10 30 66 49 36 60
REMARK Flexibility Score: 90.00
ROOT
ATOM      1  C   UNL     1      -1.657   4.468  -1.524  1.00  0.00     0.023 C 
ENDROOT
BRANCH   1   2
ATOM      2  C   UNL     1      -1.877   3.727  -0.210  1.00  0.00     0.116 C 
BRANCH   2   3
ATOM      3  N   UNL     1      -1.998   2.292  -0.335  1.00  0.00    -0.354 N 
ATOM      4  C   UNL     1      -1.072   1.291  -0.264  1.00  0.00     0.245 C 
ATOM      5  O   UNL     1      -1.534   0.142  -0.334  1.00  0.00    -0.272 OA
ATOM      6  H   UNL     1      -2.916   1.979  -0.501  1.00  0.00     0.163 HD
BRANCH   4   7
ATOM      7  C   UNL     1       0.461   1.518  -0.059  1.00  0.00     0.117 C 
ATOM      8  C   UNL     1       1.213   0.198  -0.337  1.00  0.00     0.045 C 
ATOM      9  C   UNL     1       0.707   1.875   1.434  1.00  0.00     0.040 C 
ATOM     10  N   UNL     1       1.049   2.653  -0.835  1.00  0.00    -0.342 N 
ATOM     11  C   UNL     1       1.161   3.319   1.482  1.00  0.00     0.024 C 
ATOM     12  C   UNL     1       1.699   3.605   0.093  1.00  0.00     0.119 C 
BRANCH  10  13
ATOM     13  C   UNL     1       1.699   2.529  -2.069  1.00  0.00     0.136 A 
ATOM     14  N   UNL     1       2.958   3.025  -2.088  1.00  0.00    -0.219 NA
ATOM     15  C   UNL     1       1.171   1.970  -3.247  1.00  0.00     0.016 A 
ATOM     16  C   UNL     1       3.690   2.925  -3.198  1.00  0.00     0.224 A 
ATOM     17  C   UNL     1       2.040   1.898  -4.351  1.00  0.00     0.049 A 
ATOM     18  N   UNL     1       3.301   2.368  -4.335  1.00  0.00    -0.241 NA
BRANCH  15  19
ATOM     19  C   UNL     1      -0.239   1.478  -3.433  1.00  0.00     0.041 C 
BRANCH  19  20
ATOM     20  C   UNL     1      -1.062   2.247  -4.473  1.00  0.00     0.005 C 
BRANCH  20  21
ATOM     21  C   UNL     1      -0.827   1.843  -5.921  1.00  0.00     0.001 CG0
ATOM     22  G   UNL     1       0.588   2.115  -6.413  1.00  0.00     0.000 G0
ENDBRANCH  20  21
ENDBRANCH  19  20
ENDBRANCH  15  19
BRANCH  17  23
ATOM     23  C   UNL     1       1.633   1.289  -5.672  1.00  0.00     0.057 C 
BRANCH  23  24
ATOM     24  C   UNL     1       0.588   2.115  -6.413  1.00  0.00     0.006 CG0
ATOM     25  G   UNL     1      -0.827   1.843  -5.921  1.00  0.00     0.000 G0
ENDBRANCH  23  24
ENDBRANCH  17  23
ENDBRANCH  10  13
ENDBRANCH   4   7
ENDBRANCH   2   3
ENDBRANCH   1   2
BRANCH   1  26
ATOM     26  C   UNL     1      -2.866   4.506  -2.453  1.00  0.00     0.023 C 
BRANCH  26  27
ATOM     27  C   UNL     1      -4.139   5.075  -1.848  1.00  0.00     0.116 C 
BRANCH  27  28
ATOM     28  N   UNL     1      -3.973   6.388  -1.246  1.00  0.00    -0.352 N 
ATOM     29  C   UNL     1      -4.895   7.405  -1.169  1.00  0.00     0.251 C 
ATOM     30  H   UNL     1      -3.092   6.572  -0.846  1.00  0.00     0.163 HD
ATOM     31  O   UNL     1      -4.589   8.490  -0.686  1.00  0.00    -0.269 OA
BRANCH  29  32
ATOM     32  C   UNL     1      -6.245   7.181  -1.726  1.00  0.00     0.039 A 
ATOM     33  C   UNL     1      -6.747   8.092  -2.657  1.00  0.00     0.014 A 
ATOM     34  C   UNL     1      -6.968   6.033  -1.392  1.00  0.00     0.014 A 
ATOM     35  C   UNL     1      -7.947   7.811  -3.313  1.00  0.00     0.010 A 
ATOM     36  C   UNL     1      -8.120   5.718  -2.102  1.00  0.00     0.010 A 
ATOM     37  C   UNL     1      -8.620   6.602  -3.070  1.00  0.00    -0.014 A 
BRANCH  37  38
ATOM     38  C   UNL     1      -9.853   6.240  -3.811  1.00  0.00     0.031 A 
ATOM     39  C   UNL     1     -11.149   6.075  -3.067  1.00  0.00     0.074 A 
ATOM     40  C   UNL     1      -9.790   5.984  -5.133  1.00  0.00     0.049 A 
ATOM     41  N   UNL     1     -12.311   5.677  -3.515  1.00  0.00    -0.248 NA
ATOM     42  C   UNL     1     -11.127   6.363  -1.623  1.00  0.00     0.031 C 
ATOM     43  C   UNL     1      -8.581   6.060  -5.958  1.00  0.00     0.029 A 
ATOM     44  N   UNL     1     -10.767   5.596  -6.015  1.00  0.00    -0.354 N 
ATOM     45  C   UNL     1     -13.149   5.641  -2.406  1.00  0.00     0.074 A 
ATOM     46  C   UNL     1     -12.351   6.011  -1.259  1.00  0.00     0.031 C 
ATOM     47  C   UNL     1      -8.895   5.755  -7.228  1.00  0.00     0.029 A 
ATOM     48  C   UNL     1     -10.315   5.428  -7.302  1.00  0.00     0.049 A 
ATOM     49  H   UNL     1     -11.705   5.452  -5.750  1.00  0.00     0.167 HD
ATOM     50  C   UNL     1     -14.469   5.346  -2.351  1.00  0.00     0.031 A 
ATOM     51  C   UNL     1     -10.970   5.049  -8.417  1.00  0.00     0.031 A 
ATOM     52  C   UNL     1     -15.266   5.007  -3.497  1.00  0.00     0.049 A 
ATOM     53  C   UNL     1     -12.442   4.753  -8.336  1.00  0.00     0.074 A 
ATOM     54  C   UNL     1     -16.625   4.753  -3.557  1.00  0.00     0.029 A 
ATOM     55  N   UNL     1     -14.777   4.883  -4.789  1.00  0.00    -0.354 N 
ATOM     56  N   UNL     1     -13.230   4.781  -7.287  1.00  0.00    -0.248 NA
ATOM     57  C   UNL     1     -13.115   4.385  -9.589  1.00  0.00     0.031 C 
ATOM     58  C   UNL     1     -16.952   4.441  -4.881  1.00  0.00     0.029 A 
ATOM     59  C   UNL     1     -15.805   4.544  -5.652  1.00  0.00     0.049 A 
ATOM     60  H   UNL     1     -13.838   5.016  -5.053  1.00  0.00     0.167 HD
ATOM     61  C   UNL     1     -14.497   4.459  -7.759  1.00  0.00     0.074 A 
ATOM     62  C   UNL     1     -14.373   4.251  -9.188  1.00  0.00     0.031 C 
ATOM     63  C   UNL     1     -15.660   4.347  -7.071  1.00  0.00     0.031 A 
BRANCH  50  64
ATOM     64  C   UNL     1     -15.127   5.381  -0.998  1.00  0.00    -0.014 A 
ATOM     65  C   UNL     1     -15.350   6.601  -0.333  1.00  0.00     0.010 A 
ATOM     66  C   UNL     1     -15.543   4.184  -0.390  1.00  0.00     0.010 A 
ATOM     67  C   UNL     1     -15.930   6.619   0.937  1.00  0.00     0.020 A 
ATOM     68  C   UNL     1     -16.149   4.199   0.870  1.00  0.00     0.020 A 
ATOM     69  C   UNL     1     -16.320   5.416   1.534  1.00  0.00     0.054 A 
BRANCH  69  70
ATOM     70  S   UNL     1     -17.079   5.467   3.180  1.00  0.00     0.124 S 
ATOM     71  O   UNL     1     -15.919   5.697   4.038  1.00  0.00    -0.237 OA
ATOM     72  O   UNL     1     -18.011   6.587   3.072  1.00  0.00    -0.237 OA
ATOM     73  O   UNL     1     -17.702   4.153   3.314  1.00  0.00    -0.744 OA
ENDBRANCH  69  70
ENDBRANCH  50  64
BRANCH  51  74
ATOM     74  C   UNL     1     -10.242   4.957  -9.711  1.00  0.00    -0.014 A 
ATOM     75  C   UNL     1     -10.444   5.926 -10.709  1.00  0.00     0.010 A 
ATOM     76  C   UNL     1      -9.332   3.911  -9.946  1.00  0.00     0.010 A 
ATOM     77  C   UNL     1      -9.761   5.843 -11.926  1.00  0.00     0.020 A 
ATOM     78  C   UNL     1      -8.629   3.838 -11.152  1.00  0.00     0.020 A 
ATOM     79  C   UNL     1      -8.857   4.800 -12.139  1.00  0.00     0.054 A 
BRANCH  79  80
ATOM     80  S   UNL     1      -7.938   4.742 -13.704  1.00  0.00     0.124 S 
ATOM     81  O   UNL     1      -8.947   4.239 -14.630  1.00  0.00    -0.237 OA
ATOM     82  O   UNL     1      -7.544   6.136 -13.892  1.00  0.00    -0.237 OA
ATOM     83  O   UNL     1      -6.836   3.826 -13.416  1.00  0.00    -0.744 OA
ENDBRANCH  79  80
ENDBRANCH  51  74
BRANCH  63  84
ATOM     84  C   UNL     1     -16.899   4.016  -7.857  1.00  0.00    -0.014 A 
ATOM     85  C   UNL     1     -17.129   2.714  -8.334  1.00  0.00     0.010 A 
ATOM     86  C   UNL     1     -17.874   5.008  -8.063  1.00  0.00     0.010 A 
ATOM     87  C   UNL     1     -18.306   2.416  -9.025  1.00  0.00     0.020 A 
ATOM     88  C   UNL     1     -19.061   4.708  -8.733  1.00  0.00     0.020 A 
ATOM     89  C   UNL     1     -19.265   3.416  -9.221  1.00  0.00     0.054 A 
BRANCH  89  90
ATOM     90  S   UNL     1     -20.809   2.992 -10.073  1.00  0.00     0.124 S 
ATOM     91  O   UNL     1     -20.381   2.939 -11.468  1.00  0.00    -0.237 OA
ATOM     92  O   UNL     1     -21.166   1.708  -9.475  1.00  0.00    -0.237 OA
ATOM     93  O   UNL     1     -21.703   4.098  -9.737  1.00  0.00    -0.744 OA
ENDBRANCH  89  90
ENDBRANCH  63  84
ENDBRANCH  37  38
ENDBRANCH  29  32
ENDBRANCH  27  28
ENDBRANCH  26  27
ENDBRANCH   1  26
TORSDOF 15
