REMARK SMILES CNC(=O)CCn1c(SCC(=O)NCCCCNC(=O)c2ccc(-c3c4nc(c(-c5ccc(S(=O)(=O)[O-])cc5)c5ccc([nH]5)c(-c5ccc(S(=O)(=O)[O-])cc5)c5nc(c(-c6ccc(S(=O)(=O)[O-])cc6)c6ccc3[nH]6)C=C5)C=C4)cc2)nc2ccc(C)cc21
REMARK SMILES IDX 14 1 13 2 11 3 12 4 10 6 9 7 8 8 7 9 88 10 81 11 82 12 87 13
REMARK SMILES IDX 83 14 85 15 84 16 86 17 6 18 5 19 3 20 1 21 2 22 4 24 15 25
REMARK SMILES IDX 16 26 17 27 18 28 19 29 20 31 21 32 22 33 80 34 23 35 79 36
REMARK SMILES IDX 24 37 25 38 26 39 73 40 27 41 78 42 72 43 74 44 28 45 77 46
REMARK SMILES IDX 71 47 70 48 29 50 59 51 40 52 58 53 41 54 44 55 57 56 75 57
REMARK SMILES IDX 42 58 43 59 56 61 76 62 45 63 30 64 31 65 39 66 32 67 38 68
REMARK SMILES IDX 33 69 34 70 35 71 36 72 37 73 60 74 61 75 69 76 62 77 68 78
REMARK SMILES IDX 63 79 64 80 65 81 66 82 67 83 46 84 47 85 55 86 48 87 54 88
REMARK SMILES IDX 49 89 50 90 51 91 52 92 53 93
REMARK H PARENT 13 5 2 23 18 30 74 49 44 60
REMARK Flexibility Score: inf
ROOT
ATOM      1  C   UNL     1       5.731  -3.795  -0.414  1.00  0.00     0.116 C 
ENDROOT
BRANCH   1   2
ATOM      2  N   UNL     1       6.050  -2.436  -0.020  1.00  0.00    -0.355 N 
ATOM      3  C   UNL     1       5.821  -1.780   1.155  1.00  0.00     0.230 C 
ATOM      4  O   UNL     1       6.286  -0.641   1.258  1.00  0.00    -0.274 OA
ATOM      5  H   UNL     1       6.504  -1.901  -0.711  1.00  0.00     0.163 HD
BRANCH   3   6
ATOM      6  C   UNL     1       5.174  -2.482   2.335  1.00  0.00     0.178 C 
BRANCH   6   7
ATOM      7  S   UNL     1       3.476  -3.037   2.050  1.00  0.00    -0.078 SA
BRANCH   7   8
ATOM      8  C   UNL     1       2.608  -1.552   1.874  1.00  0.00     0.169 A 
ATOM      9  N   UNL     1       1.297  -1.498   1.445  1.00  0.00    -0.318 N 
ATOM     10  C   UNL     1       0.875  -0.196   1.643  1.00  0.00     0.069 A 
ATOM     11  N   UNL     1       3.098  -0.361   2.116  1.00  0.00    -0.222 NA
ATOM     12  C   UNL     1       2.061   0.500   1.877  1.00  0.00     0.090 A 
ATOM     13  C   UNL     1      -0.353   0.461   1.488  1.00  0.00     0.032 A 
ATOM     14  C   UNL     1       2.062   1.901   1.807  1.00  0.00     0.031 A 
ATOM     15  C   UNL     1      -0.314   1.847   1.269  1.00  0.00    -0.049 A 
ATOM     16  C   UNL     1       0.882   2.556   1.433  1.00  0.00     0.006 A 
ATOM     17  C   UNL     1      -1.528   2.510   0.678  1.00  0.00     0.044 C 
BRANCH   9  18
ATOM     18  C   UNL     1       0.589  -2.583   0.776  1.00  0.00     0.135 C 
BRANCH  18  19
ATOM     19  C   UNL     1      -0.483  -2.262  -0.266  1.00  0.00     0.122 C 
BRANCH  19  20
ATOM     20  C   UNL     1      -0.037  -2.384  -1.706  1.00  0.00     0.221 C 
ATOM     21  C   UNL     1       1.153  -0.138  -1.840  1.00  0.00     0.142 C 
ATOM     22  N   UNL     1       0.561  -1.348  -2.348  1.00  0.00    -0.359 N 
ATOM     23  H   UNL     1       0.596  -1.440  -3.328  1.00  0.00     0.163 HD
ATOM     24  O   UNL     1      -0.233  -3.437  -2.316  1.00  0.00    -0.275 OA
ENDBRANCH  19  20
ENDBRANCH  18  19
ENDBRANCH   9  18
ENDBRANCH   7   8
ENDBRANCH   6   7
ENDBRANCH   3   6
ENDBRANCH   1   2
BRANCH   1  25
ATOM     25  C   UNL     1       4.811  -3.827  -1.633  1.00  0.00     0.023 C 
BRANCH  25  26
ATOM     26  C   UNL     1       5.423  -3.248  -2.916  1.00  0.00     0.023 C 
BRANCH  26  27
ATOM     27  C   UNL     1       6.775  -3.845  -3.318  1.00  0.00     0.116 C 
BRANCH  27  28
ATOM     28  N   UNL     1       6.751  -5.277  -3.539  1.00  0.00    -0.352 N 
ATOM     29  C   UNL     1       6.512  -6.071  -4.629  1.00  0.00     0.251 C 
ATOM     30  H   UNL     1       6.950  -5.794  -2.725  1.00  0.00     0.163 HD
ATOM     31  O   UNL     1       6.777  -7.269  -4.492  1.00  0.00    -0.269 OA
BRANCH  29  32
ATOM     32  C   UNL     1       5.906  -5.609  -5.909  1.00  0.00     0.039 A 
ATOM     33  C   UNL     1       5.601  -4.286  -6.226  1.00  0.00     0.014 A 
ATOM     34  C   UNL     1       5.540  -6.616  -6.823  1.00  0.00     0.014 A 
ATOM     35  C   UNL     1       4.842  -3.987  -7.351  1.00  0.00     0.010 A 
ATOM     36  C   UNL     1       4.801  -6.320  -7.965  1.00  0.00     0.010 A 
ATOM     37  C   UNL     1       4.401  -5.008  -8.194  1.00  0.00    -0.014 A 
BRANCH  37  38
ATOM     38  C   UNL     1       3.544  -4.623  -9.310  1.00  0.00     0.031 A 
ATOM     39  C   UNL     1       4.126  -3.651 -10.278  1.00  0.00     0.074 A 
ATOM     40  C   UNL     1       2.306  -5.120  -9.499  1.00  0.00     0.049 A 
ATOM     41  N   UNL     1       3.698  -2.466 -10.570  1.00  0.00    -0.248 NA
ATOM     42  C   UNL     1       5.393  -4.009 -10.929  1.00  0.00     0.031 C 
ATOM     43  C   UNL     1       1.658  -6.240  -8.815  1.00  0.00     0.029 A 
ATOM     44  N   UNL     1       1.396  -4.769 -10.450  1.00  0.00    -0.354 N 
ATOM     45  C   UNL     1       4.560  -1.964 -11.543  1.00  0.00     0.074 A 
ATOM     46  C   UNL     1       5.638  -2.916 -11.655  1.00  0.00     0.031 C 
ATOM     47  C   UNL     1       0.582  -6.633  -9.535  1.00  0.00     0.029 A 
ATOM     48  C   UNL     1       0.388  -5.703 -10.635  1.00  0.00     0.049 A 
ATOM     49  H   UNL     1       1.449  -3.928 -10.959  1.00  0.00     0.167 HD
ATOM     50  C   UNL     1       4.271  -0.858 -12.286  1.00  0.00     0.031 A 
ATOM     51  C   UNL     1      -0.477  -5.754 -11.678  1.00  0.00     0.031 A 
ATOM     52  C   UNL     1       3.199  -0.089 -11.717  1.00  0.00     0.049 A 
ATOM     53  C   UNL     1      -0.544  -4.394 -12.266  1.00  0.00     0.074 A 
ATOM     54  C   UNL     1       3.037   0.609 -10.537  1.00  0.00     0.029 A 
ATOM     55  N   UNL     1       1.937  -0.253 -12.236  1.00  0.00    -0.354 N 
ATOM     56  N   UNL     1      -1.067  -3.370 -11.651  1.00  0.00    -0.248 NA
ATOM     57  C   UNL     1       0.344  -4.068 -13.372  1.00  0.00     0.031 C 
ATOM     58  C   UNL     1       1.680   0.395 -10.168  1.00  0.00     0.029 A 
ATOM     59  C   UNL     1       1.079  -0.371 -11.170  1.00  0.00     0.049 A 
ATOM     60  H   UNL     1       1.694  -0.281 -13.190  1.00  0.00     0.167 HD
ATOM     61  C   UNL     1      -0.252  -2.301 -11.988  1.00  0.00     0.074 A 
ATOM     62  C   UNL     1       0.528  -2.766 -13.134  1.00  0.00     0.031 C 
ATOM     63  C   UNL     1      -0.081  -1.240 -11.143  1.00  0.00     0.031 A 
BRANCH  50  64
ATOM     64  C   UNL     1       4.806  -0.593 -13.668  1.00  0.00    -0.014 A 
ATOM     65  C   UNL     1       5.356  -1.608 -14.476  1.00  0.00     0.010 A 
ATOM     66  C   UNL     1       4.550   0.648 -14.287  1.00  0.00     0.010 A 
ATOM     67  C   UNL     1       5.655  -1.401 -15.824  1.00  0.00     0.020 A 
ATOM     68  C   UNL     1       4.806   0.854 -15.652  1.00  0.00     0.020 A 
ATOM     69  C   UNL     1       5.361  -0.174 -16.410  1.00  0.00     0.054 A 
BRANCH  69  70
ATOM     70  S   UNL     1       5.634   0.006 -18.190  1.00  0.00     0.124 S 
ATOM     71  O   UNL     1       7.092  -0.011 -18.275  1.00  0.00    -0.237 OA
ATOM     72  O   UNL     1       4.957  -1.169 -18.731  1.00  0.00    -0.237 OA
ATOM     73  O   UNL     1       5.004   1.286 -18.506  1.00  0.00    -0.744 OA
ENDBRANCH  69  70
ENDBRANCH  50  64
BRANCH  51  74
ATOM     74  C   UNL     1      -0.853  -6.973 -12.441  1.00  0.00    -0.014 A 
ATOM     75  C   UNL     1      -0.033  -8.120 -12.390  1.00  0.00     0.010 A 
ATOM     76  C   UNL     1      -1.828  -6.907 -13.454  1.00  0.00     0.010 A 
ATOM     77  C   UNL     1      -0.111  -9.113 -13.368  1.00  0.00     0.020 A 
ATOM     78  C   UNL     1      -1.906  -7.899 -14.445  1.00  0.00     0.020 A 
ATOM     79  C   UNL     1      -1.013  -8.972 -14.418  1.00  0.00     0.054 A 
BRANCH  79  80
ATOM     80  S   UNL     1      -0.917 -10.148 -15.796  1.00  0.00     0.124 S 
ATOM     81  O   UNL     1       0.379  -9.808 -16.388  1.00  0.00    -0.237 OA
ATOM     82  O   UNL     1      -0.963 -11.442 -15.108  1.00  0.00    -0.237 OA
ATOM     83  O   UNL     1      -2.078  -9.835 -16.607  1.00  0.00    -0.744 OA
ENDBRANCH  79  80
ENDBRANCH  51  74
BRANCH  63  84
ATOM     84  C   UNL     1      -0.970  -1.123  -9.919  1.00  0.00    -0.014 A 
ATOM     85  C   UNL     1      -1.558   0.127  -9.650  1.00  0.00     0.010 A 
ATOM     86  C   UNL     1      -1.069  -2.128  -8.935  1.00  0.00     0.010 A 
ATOM     87  C   UNL     1      -2.190   0.380  -8.429  1.00  0.00     0.020 A 
ATOM     88  C   UNL     1      -1.727  -1.891  -7.718  1.00  0.00     0.020 A 
ATOM     89  C   UNL     1      -2.257  -0.625  -7.462  1.00  0.00     0.054 A 
BRANCH  89  90
ATOM     90  S   UNL     1      -3.030  -0.242  -5.866  1.00  0.00     0.124 S 
ATOM     91  O   UNL     1      -1.960   0.469  -5.166  1.00  0.00    -0.237 OA
ATOM     92  O   UNL     1      -4.178   0.580  -6.244  1.00  0.00    -0.237 OA
ATOM     93  O   UNL     1      -3.369  -1.551  -5.314  1.00  0.00    -0.744 OA
ENDBRANCH  89  90
ENDBRANCH  63  84
ENDBRANCH  37  38
ENDBRANCH  29  32
ENDBRANCH  27  28
ENDBRANCH  26  27
ENDBRANCH  25  26
ENDBRANCH   1  25
TORSDOF 19
