REMARK SMILES C[C@H]1C[C@@H]1C(=O)NC[C@@H]1CC[C@H](C(=O)NCCCCNC(=O)c2ccc(-c3c4nc(c(-c5ccc(S(=O)(=O)[O-])cc5)c5ccc([nH]5)c(-c5ccc(S(=O)(=O)[O-])cc5)c5nc(c(-c6ccc(S(=O)(=O)[O-])cc6)c6ccc3[nH]6)C=C5)C=C4)cc2)O1
REMARK SMILES IDX 17 1 16 2 15 3 13 4 14 5 12 7 9 8 10 9 83 10 11 11 8 12 7 13
REMARK SMILES IDX 5 14 6 15 4 17 1 18 2 19 3 20 18 21 19 22 20 23 21 24 22 26
REMARK SMILES IDX 23 27 24 28 82 29 25 30 81 31 26 32 27 33 28 34 75 35 29 36
REMARK SMILES IDX 80 37 74 38 76 39 30 40 79 41 73 42 72 43 31 45 61 46 42 47
REMARK SMILES IDX 60 48 43 49 46 50 59 51 77 52 44 53 45 54 58 56 78 57 47 58
REMARK SMILES IDX 32 59 33 60 41 61 34 62 40 63 35 64 36 65 37 66 38 67 39 68
REMARK SMILES IDX 62 69 63 70 71 71 64 72 70 73 65 74 66 75 67 76 68 77 69 78
REMARK SMILES IDX 48 79 49 80 57 81 50 82 56 83 51 84 52 85 53 86 54 87 55 88
REMARK H PARENT 15 6 7 16 20 25 76 44 46 55
REMARK Flexibility Score: inf
ROOT
ATOM      1  C   UNL     1       3.749  -2.348  -3.631  1.00  0.00     0.023 C 
ENDROOT
BRANCH   1   2
ATOM      2  C   UNL     1       2.349  -2.942  -3.518  1.00  0.00     0.116 C 
BRANCH   2   3
ATOM      3  N   UNL     1       1.819  -3.415  -4.777  1.00  0.00    -0.354 N 
ATOM      4  C   UNL     1       1.590  -4.702  -5.175  1.00  0.00     0.249 C 
ATOM      5  O   UNL     1       1.021  -4.884  -6.256  1.00  0.00    -0.272 OA
ATOM      6  H   UNL     1       1.595  -2.718  -5.434  1.00  0.00     0.163 HD
BRANCH   4   7
ATOM      7  C   UNL     1       2.062  -5.899  -4.324  1.00  0.00     0.207 C 
ATOM      8  C   UNL     1       2.624  -6.386  -2.120  1.00  0.00     0.138 C 
ATOM      9  C   UNL     1       3.934  -6.030  -2.808  1.00  0.00     0.037 C 
ATOM     10  O   UNL     1       1.584  -5.884  -2.975  1.00  0.00    -0.363 OA
ATOM     11  C   UNL     1       3.578  -6.062  -4.281  1.00  0.00     0.045 C 
BRANCH   8  12
ATOM     12  C   UNL     1       2.412  -5.884  -0.676  1.00  0.00     0.147 C 
BRANCH  12  13
ATOM     13  N   UNL     1       3.051  -4.618  -0.357  1.00  0.00    -0.353 N 
ATOM     14  C   UNL     1       2.520  -3.382  -0.141  1.00  0.00     0.223 C 
ATOM     15  O   UNL     1       3.288  -2.470   0.162  1.00  0.00    -0.275 OA
ATOM     16  H   UNL     1       4.032  -4.661  -0.284  1.00  0.00     0.163 HD
BRANCH  14  17
ATOM     17  C   UNL     1       1.062  -3.133  -0.315  1.00  0.00     0.081 C 
ATOM     18  C   UNL     1      -0.502  -1.106  -0.934  1.00  0.00     0.008 C 
ATOM     19  C   UNL     1       0.530  -1.726  -0.054  1.00  0.00    -0.001 C 
ATOM     20  C   UNL     1       0.174  -2.850   0.875  1.00  0.00     0.018 C 
ENDBRANCH  14  17
ENDBRANCH  12  13
ENDBRANCH   8  12
ENDBRANCH   4   7
ENDBRANCH   2   3
ENDBRANCH   1   2
BRANCH   1  21
ATOM     21  C   UNL     1       3.758  -0.830  -3.793  1.00  0.00     0.023 C 
BRANCH  21  22
ATOM     22  C   UNL     1       3.197  -0.052  -2.604  1.00  0.00     0.116 C 
BRANCH  22  23
ATOM     23  N   UNL     1       3.959  -0.189  -1.373  1.00  0.00    -0.352 N 
ATOM     24  C   UNL     1       4.141   0.750  -0.380  1.00  0.00     0.251 C 
ATOM     25  H   UNL     1       4.398  -1.059  -1.231  1.00  0.00     0.163 HD
ATOM     26  O   UNL     1       4.903   0.550   0.560  1.00  0.00    -0.269 OA
BRANCH  24  27
ATOM     27  C   UNL     1       3.416   2.033  -0.478  1.00  0.00     0.039 A 
ATOM     28  C   UNL     1       4.124   3.226  -0.334  1.00  0.00     0.014 A 
ATOM     29  C   UNL     1       2.049   2.052  -0.768  1.00  0.00     0.014 A 
ATOM     30  C   UNL     1       3.478   4.437  -0.580  1.00  0.00     0.010 A 
ATOM     31  C   UNL     1       1.427   3.249  -1.091  1.00  0.00     0.010 A 
ATOM     32  C   UNL     1       2.140   4.452  -1.012  1.00  0.00    -0.014 A 
BRANCH  32  33
ATOM     33  C   UNL     1       1.493   5.713  -1.444  1.00  0.00     0.031 A 
ATOM     34  C   UNL     1       0.312   6.260  -0.698  1.00  0.00     0.074 A 
ATOM     35  C   UNL     1       1.937   6.320  -2.563  1.00  0.00     0.049 A 
ATOM     36  N   UNL     1      -0.375   7.348  -0.931  1.00  0.00    -0.248 NA
ATOM     37  C   UNL     1      -0.180   5.469   0.443  1.00  0.00     0.031 C 
ATOM     38  C   UNL     1       3.032   5.836  -3.409  1.00  0.00     0.029 A 
ATOM     39  N   UNL     1       1.524   7.471  -3.183  1.00  0.00    -0.354 N 
ATOM     40  C   UNL     1      -1.380   7.372   0.029  1.00  0.00     0.074 A 
ATOM     41  C   UNL     1      -1.252   6.158   0.805  1.00  0.00     0.031 C 
ATOM     42  C   UNL     1       3.227   6.703  -4.414  1.00  0.00     0.029 A 
ATOM     43  C   UNL     1       2.250   7.781  -4.308  1.00  0.00     0.049 A 
ATOM     44  H   UNL     1       0.778   8.023  -2.853  1.00  0.00     0.167 HD
ATOM     45  C   UNL     1      -2.310   8.331   0.255  1.00  0.00     0.031 A 
ATOM     46  C   UNL     1       2.143   8.818  -5.160  1.00  0.00     0.031 A 
ATOM     47  C   UNL     1      -2.434   9.526  -0.538  1.00  0.00     0.049 A 
ATOM     48  C   UNL     1       1.103   9.870  -4.894  1.00  0.00     0.074 A 
ATOM     49  C   UNL     1      -3.304  10.588  -0.365  1.00  0.00     0.029 A 
ATOM     50  N   UNL     1      -1.674   9.811  -1.664  1.00  0.00    -0.354 N 
ATOM     51  N   UNL     1       0.220   9.925  -3.925  1.00  0.00    -0.248 NA
ATOM     52  C   UNL     1       1.056  11.006  -5.822  1.00  0.00     0.031 C 
ATOM     53  C   UNL     1      -3.112  11.484  -1.422  1.00  0.00     0.029 A 
ATOM     54  C   UNL     1      -2.074  11.018  -2.213  1.00  0.00     0.049 A 
ATOM     55  H   UNL     1      -0.956   9.240  -2.020  1.00  0.00     0.167 HD
ATOM     56  C   UNL     1      -0.473  11.115  -4.112  1.00  0.00     0.074 A 
ATOM     57  C   UNL     1       0.106  11.754  -5.277  1.00  0.00     0.031 C 
ATOM     58  C   UNL     1      -1.494  11.633  -3.383  1.00  0.00     0.031 A 
BRANCH  45  59
ATOM     59  C   UNL     1      -3.268   8.110   1.398  1.00  0.00    -0.014 A 
ATOM     60  C   UNL     1      -2.821   8.100   2.733  1.00  0.00     0.010 A 
ATOM     61  C   UNL     1      -4.637   7.918   1.139  1.00  0.00     0.010 A 
ATOM     62  C   UNL     1      -3.712   7.844   3.779  1.00  0.00     0.020 A 
ATOM     63  C   UNL     1      -5.538   7.696   2.185  1.00  0.00     0.020 A 
ATOM     64  C   UNL     1      -5.065   7.636   3.497  1.00  0.00     0.054 A 
BRANCH  64  65
ATOM     65  S   UNL     1      -6.197   7.300   4.874  1.00  0.00     0.124 S 
ATOM     66  O   UNL     1      -5.811   5.944   5.256  1.00  0.00    -0.237 OA
ATOM     67  O   UNL     1      -5.852   8.345   5.834  1.00  0.00    -0.237 OA
ATOM     68  O   UNL     1      -7.522   7.423   4.272  1.00  0.00    -0.744 OA
ENDBRANCH  64  65
ENDBRANCH  45  59
BRANCH  46  69
ATOM     69  C   UNL     1       3.071   8.916  -6.320  1.00  0.00    -0.014 A 
ATOM     70  C   UNL     1       4.087   9.888  -6.346  1.00  0.00     0.010 A 
ATOM     71  C   UNL     1       2.977   7.999  -7.384  1.00  0.00     0.010 A 
ATOM     72  C   UNL     1       4.986   9.945  -7.415  1.00  0.00     0.020 A 
ATOM     73  C   UNL     1       3.892   8.035  -8.440  1.00  0.00     0.020 A 
ATOM     74  C   UNL     1       4.888   9.013  -8.451  1.00  0.00     0.054 A 
BRANCH  74  75
ATOM     75  S   UNL     1       6.114   9.060  -9.788  1.00  0.00     0.124 S 
ATOM     76  O   UNL     1       5.733  10.270 -10.509  1.00  0.00    -0.237 OA
ATOM     77  O   UNL     1       7.376   9.130  -9.055  1.00  0.00    -0.237 OA
ATOM     78  O   UNL     1       5.888   7.806 -10.505  1.00  0.00    -0.744 OA
ENDBRANCH  74  75
ENDBRANCH  46  69
BRANCH  58  79
ATOM     79  C   UNL     1      -2.034  12.973  -3.808  1.00  0.00    -0.014 A 
ATOM     80  C   UNL     1      -2.789  13.119  -4.985  1.00  0.00     0.010 A 
ATOM     81  C   UNL     1      -1.830  14.095  -2.982  1.00  0.00     0.010 A 
ATOM     82  C   UNL     1      -3.300  14.369  -5.346  1.00  0.00     0.020 A 
ATOM     83  C   UNL     1      -2.366  15.338  -3.322  1.00  0.00     0.020 A 
ATOM     84  C   UNL     1      -3.087  15.470  -4.511  1.00  0.00     0.054 A 
BRANCH  84  85
ATOM     85  S   UNL     1      -3.799  17.070  -4.979  1.00  0.00     0.124 S 
ATOM     86  O   UNL     1      -2.955  17.462  -6.104  1.00  0.00    -0.237 OA
ATOM     87  O   UNL     1      -5.176  16.720  -5.318  1.00  0.00    -0.237 OA
ATOM     88  O   UNL     1      -3.648  17.884  -3.775  1.00  0.00    -0.744 OA
ENDBRANCH  84  85
ENDBRANCH  58  79
ENDBRANCH  32  33
ENDBRANCH  24  27
ENDBRANCH  22  23
ENDBRANCH  21  22
ENDBRANCH   1  21
TORSDOF 17
