REMARK SMILES COc1cc(/C=C2\SC(=S)N(CC(=O)NCCCCNC(=O)c3ccc(-c4c5nc(c(-c6ccc(S(=O)(=O)[O-])cc6)c6ccc([nH]6)c(-c6ccc(S(=O)(=O)[O-])cc6)c6nc(c(-c7ccc(S(=O)(=O)[O-])cc7)c7ccc4[nH]7)C=C6)C=C5)cc3)C2=O)cc2c1OCO2
REMARK SMILES IDX 17 1 16 2 15 3 13 4 14 5 12 7 11 8 6 9 7 10 8 11 83 12 9 13
REMARK SMILES IDX 84 14 10 15 5 16 3 17 4 18 87 19 86 20 88 21 85 22 90 23
REMARK SMILES IDX 89 24 2 25 1 26 18 27 19 28 20 29 21 30 22 32 23 33 24 34
REMARK SMILES IDX 82 35 25 36 81 37 26 38 27 39 28 40 75 41 29 42 80 43 74 44
REMARK SMILES IDX 76 45 30 46 79 47 73 48 72 49 31 51 61 52 42 53 60 54 43 55
REMARK SMILES IDX 46 56 59 57 77 58 44 59 45 60 58 62 78 63 47 64 32 65 33 66
REMARK SMILES IDX 41 67 34 68 40 69 35 70 36 71 37 72 38 73 39 74 62 75 63 76
REMARK SMILES IDX 71 77 64 78 70 79 65 80 66 81 67 82 68 83 69 84 48 85 49 86
REMARK SMILES IDX 57 87 50 88 56 89 51 90 52 91 53 92 54 93 55 94
REMARK H PARENT 15 6 20 31 76 50 46 61
REMARK Flexibility Score: inf
ROOT
ATOM      1  C   UNL     1      -2.236   5.647   6.349  1.00  0.00     0.023 C 
ENDROOT
BRANCH   1   2
ATOM      2  C   UNL     1      -2.421   5.877   7.846  1.00  0.00     0.116 C 
BRANCH   2   3
ATOM      3  N   UNL     1      -3.472   5.054   8.403  1.00  0.00    -0.355 N 
ATOM      4  C   UNL     1      -3.400   3.994   9.257  1.00  0.00     0.240 C 
ATOM      5  O   UNL     1      -4.448   3.638   9.803  1.00  0.00    -0.273 OA
ATOM      6  H   UNL     1      -4.383   5.299   8.121  1.00  0.00     0.163 HD
BRANCH   4   7
ATOM      7  C   UNL     1      -2.059   3.384   9.683  1.00  0.00     0.227 C 
BRANCH   7   8
ATOM      8  N   UNL     1      -1.150   3.063   8.584  1.00  0.00    -0.283 N 
ATOM      9  C   UNL     1      -0.644   0.961   5.681  1.00  0.00     0.029 C 
ATOM     10  C   UNL     1      -0.497   1.857   6.667  1.00  0.00     0.081 C 
ATOM     11  S   UNL     1       0.836   2.900   6.960  1.00  0.00    -0.054 SA
ATOM     12  C   UNL     1      -1.546   2.073   7.697  1.00  0.00     0.266 C 
ATOM     13  C   UNL     1       0.137   3.532   8.442  1.00  0.00     0.148 C 
ATOM     14  O   UNL     1      -2.581   1.432   7.754  1.00  0.00    -0.268 OA
ATOM     15  S   UNL     1       1.009   4.521   9.466  1.00  0.00    -0.052 S 
BRANCH   9  16
ATOM     16  C   UNL     1       0.345   0.684   4.632  1.00  0.00    -0.017 A 
ATOM     17  C   UNL     1       0.906   0.623   2.249  1.00  0.00     0.165 A 
ATOM     18  C   UNL     1      -0.016   0.850   3.280  1.00  0.00     0.058 A 
ATOM     19  C   UNL     1       2.195   0.268   2.605  1.00  0.00     0.207 A 
ATOM     20  C   UNL     1       2.541   0.090   3.927  1.00  0.00     0.170 A 
ATOM     21  O   UNL     1       3.265   0.081   1.784  1.00  0.00    -0.450 OA
ATOM     22  C   UNL     1       1.640   0.263   4.956  1.00  0.00     0.059 A 
ATOM     23  O   UNL     1       3.852  -0.237   4.093  1.00  0.00    -0.453 OA
ATOM     24  C   UNL     1       4.321  -0.141   2.736  1.00  0.00     0.468 C 
BRANCH  17  25
ATOM     25  O   UNL     1       0.442   0.847   0.986  1.00  0.00    -0.493 OA
ATOM     26  C   UNL     1       0.970  -0.018  -0.014  1.00  0.00     0.278 C 
ENDBRANCH  17  25
ENDBRANCH   9  16
ENDBRANCH   7   8
ENDBRANCH   4   7
ENDBRANCH   2   3
ENDBRANCH   1   2
BRANCH   1  27
ATOM     27  C   UNL     1      -3.385   6.169   5.484  1.00  0.00     0.023 C 
BRANCH  27  28
ATOM     28  C   UNL     1      -3.696   7.654   5.640  1.00  0.00     0.116 C 
BRANCH  28  29
ATOM     29  N   UNL     1      -2.563   8.512   5.327  1.00  0.00    -0.352 N 
ATOM     30  C   UNL     1      -2.543   9.677   4.597  1.00  0.00     0.251 C 
ATOM     31  H   UNL     1      -1.694   8.219   5.686  1.00  0.00     0.163 HD
ATOM     32  O   UNL     1      -1.473  10.208   4.316  1.00  0.00    -0.269 OA
BRANCH  30  33
ATOM     33  C   UNL     1      -3.815  10.263   4.124  1.00  0.00     0.039 A 
ATOM     34  C   UNL     1      -3.922  10.660   2.789  1.00  0.00     0.014 A 
ATOM     35  C   UNL     1      -4.908  10.387   4.986  1.00  0.00     0.014 A 
ATOM     36  C   UNL     1      -5.148  11.118   2.302  1.00  0.00     0.010 A 
ATOM     37  C   UNL     1      -6.147  10.766   4.479  1.00  0.00     0.010 A 
ATOM     38  C   UNL     1      -6.281  11.137   3.132  1.00  0.00    -0.014 A 
BRANCH  38  39
ATOM     39  C   UNL     1      -7.615  11.525   2.605  1.00  0.00     0.031 A 
ATOM     40  C   UNL     1      -8.331  12.727   3.156  1.00  0.00     0.074 A 
ATOM     41  C   UNL     1      -8.216  10.751   1.680  1.00  0.00     0.049 A 
ATOM     42  N   UNL     1      -9.514  13.194   2.850  1.00  0.00    -0.248 NA
ATOM     43  C   UNL     1      -7.639  13.486   4.209  1.00  0.00     0.031 C 
ATOM     44  C   UNL     1      -7.653   9.526   1.107  1.00  0.00     0.029 A 
ATOM     45  N   UNL     1      -9.438  10.873   1.067  1.00  0.00    -0.354 N 
ATOM     46  C   UNL     1      -9.716  14.289   3.683  1.00  0.00     0.074 A 
ATOM     47  C   UNL     1      -8.559  14.377   4.547  1.00  0.00     0.031 C 
ATOM     48  C   UNL     1      -8.517   9.022   0.213  1.00  0.00     0.029 A 
ATOM     49  C   UNL     1      -9.712   9.860   0.178  1.00  0.00     0.049 A 
ATOM     50  H   UNL     1     -10.059  11.615   1.247  1.00  0.00     0.167 HD
ATOM     51  C   UNL     1     -10.759  15.153   3.715  1.00  0.00     0.031 A 
ATOM     52  C   UNL     1     -10.804   9.621  -0.574  1.00  0.00     0.031 A 
ATOM     53  C   UNL     1     -11.914  15.052   2.860  1.00  0.00     0.049 A 
ATOM     54  C   UNL     1     -11.954  10.586  -0.525  1.00  0.00     0.074 A 
ATOM     55  C   UNL     1     -12.996  15.910   2.770  1.00  0.00     0.029 A 
ATOM     56  N   UNL     1     -12.145  14.022   1.959  1.00  0.00    -0.354 N 
ATOM     57  N   UNL     1     -12.089  11.668   0.205  1.00  0.00    -0.248 NA
ATOM     58  C   UNL     1     -13.091  10.309  -1.412  1.00  0.00     0.031 C 
ATOM     59  C   UNL     1     -13.912  15.364   1.864  1.00  0.00     0.029 A 
ATOM     60  C   UNL     1     -13.368  14.204   1.334  1.00  0.00     0.049 A 
ATOM     61  H   UNL     1     -11.530  13.273   1.789  1.00  0.00     0.167 HD
ATOM     62  C   UNL     1     -13.320  12.212  -0.146  1.00  0.00     0.074 A 
ATOM     63  C   UNL     1     -13.879  11.349  -1.168  1.00  0.00     0.031 C 
ATOM     64  C   UNL     1     -13.926  13.328   0.331  1.00  0.00     0.031 A 
BRANCH  51  65
ATOM     65  C   UNL     1     -10.701  16.264   4.734  1.00  0.00    -0.014 A 
ATOM     66  C   UNL     1      -9.731  17.282   4.654  1.00  0.00     0.010 A 
ATOM     67  C   UNL     1     -11.623  16.286   5.796  1.00  0.00     0.010 A 
ATOM     68  C   UNL     1      -9.635  18.251   5.656  1.00  0.00     0.020 A 
ATOM     69  C   UNL     1     -11.554  17.276   6.781  1.00  0.00     0.020 A 
ATOM     70  C   UNL     1     -10.541  18.235   6.720  1.00  0.00     0.054 A 
BRANCH  70  71
ATOM     71  S   UNL     1     -10.374  19.485   8.024  1.00  0.00     0.124 S 
ATOM     72  O   UNL     1      -9.178  19.026   8.727  1.00  0.00    -0.237 OA
ATOM     73  O   UNL     1     -10.218  20.722   7.263  1.00  0.00    -0.237 OA
ATOM     74  O   UNL     1     -11.621  19.371   8.776  1.00  0.00    -0.744 OA
ENDBRANCH  70  71
ENDBRANCH  51  65
BRANCH  52  75
ATOM     75  C   UNL     1     -10.835   8.413  -1.444  1.00  0.00    -0.014 A 
ATOM     76  C   UNL     1     -10.705   8.527  -2.838  1.00  0.00     0.010 A 
ATOM     77  C   UNL     1     -10.919   7.132  -0.867  1.00  0.00     0.010 A 
ATOM     78  C   UNL     1     -10.646   7.383  -3.639  1.00  0.00     0.020 A 
ATOM     79  C   UNL     1     -10.833   5.985  -1.661  1.00  0.00     0.020 A 
ATOM     80  C   UNL     1     -10.697   6.118  -3.044  1.00  0.00     0.054 A 
BRANCH  80  81
ATOM     81  S   UNL     1     -10.509   4.650  -4.093  1.00  0.00     0.124 S 
ATOM     82  O   UNL     1     -11.779   4.623  -4.811  1.00  0.00    -0.237 OA
ATOM     83  O   UNL     1      -9.335   4.985  -4.894  1.00  0.00    -0.237 OA
ATOM     84  O   UNL     1     -10.309   3.566  -3.133  1.00  0.00    -0.744 OA
ENDBRANCH  80  81
ENDBRANCH  52  75
BRANCH  64  85
ATOM     85  C   UNL     1     -15.264  13.698  -0.258  1.00  0.00    -0.014 A 
ATOM     86  C   UNL     1     -16.418  12.942   0.014  1.00  0.00     0.010 A 
ATOM     87  C   UNL     1     -15.375  14.855  -1.051  1.00  0.00     0.010 A 
ATOM     88  C   UNL     1     -17.653  13.320  -0.522  1.00  0.00     0.020 A 
ATOM     89  C   UNL     1     -16.613  15.254  -1.562  1.00  0.00     0.020 A 
ATOM     90  C   UNL     1     -17.742  14.475  -1.306  1.00  0.00     0.054 A 
BRANCH  90  91
ATOM     91  S   UNL     1     -19.364  14.967  -1.953  1.00  0.00     0.124 S 
ATOM     92  O   UNL     1     -19.599  13.960  -2.984  1.00  0.00    -0.237 OA
ATOM     93  O   UNL     1     -20.221  14.871  -0.774  1.00  0.00    -0.237 OA
ATOM     94  O   UNL     1     -19.143  16.325  -2.447  1.00  0.00    -0.744 OA
ENDBRANCH  90  91
ENDBRANCH  64  85
ENDBRANCH  38  39
ENDBRANCH  30  33
ENDBRANCH  28  29
ENDBRANCH  27  28
ENDBRANCH   1  27
TORSDOF 17
