REMARK SMILES C[C@@H](C(=O)NCCCCNC(=O)c1ccc(-c2c3nc(c(-c4ccc(S(=O)(=O)[O-])cc4)c4ccc([nH]4)c(-c4ccc(S(=O)(=O)[O-])cc4)c4nc(c(-c5ccc(S(=O)(=O)[O-])cc5)c5ccc2[nH]5)C=C4)C=C3)cc1)S(=O)(=O)N[C@@]12C[C@@H]3C[C@@](C)(C[C@@](C)(C3)C1)C2
REMARK SMILES IDX 7 1 6 2 5 3 3 4 4 5 2 7 1 8 73 9 74 10 75 11 76 12 77 14
REMARK SMILES IDX 78 15 87 16 88 17 79 18 84 19 81 20 86 21 80 22 83 23 85 24
REMARK SMILES IDX 82 25 8 26 9 27 10 28 11 29 12 31 13 32 14 33 72 34 15 35
REMARK SMILES IDX 71 36 16 37 17 38 18 39 65 40 19 41 70 42 64 43 66 44 20 45
REMARK SMILES IDX 69 46 63 47 62 48 21 50 51 51 32 52 50 53 33 54 36 55 49 56
REMARK SMILES IDX 67 57 34 58 35 59 48 61 68 62 37 63 22 64 23 65 31 66 24 67
REMARK SMILES IDX 30 68 25 69 26 70 27 71 28 72 29 73 52 74 53 75 61 76 54 77
REMARK SMILES IDX 60 78 55 79 56 80 57 81 58 82 59 83 38 84 39 85 47 86 40 87
REMARK SMILES IDX 46 88 41 89 42 90 43 91 44 92 45 93
REMARK H PARENT 5 6 76 13 10 30 66 49 36 60
REMARK Flexibility Score: inf
ROOT
ATOM      1  C   UNL     1       4.103  -1.456   0.471  1.00  0.00     0.023 C 
ENDROOT
BRANCH   1   2
ATOM      2  C   UNL     1       3.383  -2.404  -0.496  1.00  0.00     0.116 C 
BRANCH   2   3
ATOM      3  N   UNL     1       2.211  -2.971   0.148  1.00  0.00    -0.355 N 
ATOM      4  C   UNL     1       0.909  -2.541   0.165  1.00  0.00     0.239 C 
ATOM      5  O   UNL     1       0.174  -3.066   1.002  1.00  0.00    -0.274 OA
ATOM      6  H   UNL     1       2.379  -3.799   0.653  1.00  0.00     0.163 HD
BRANCH   4   7
ATOM      7  C   UNL     1       0.435  -1.506  -0.837  1.00  0.00     0.209 C 
ATOM      8  C   UNL     1       1.153  -0.163  -0.817  1.00  0.00     0.037 C 
BRANCH   7   9
ATOM      9  S   UNL     1      -1.384  -1.321  -0.771  1.00  0.00     0.223 S 
ATOM     10  O   UNL     1      -1.752  -0.222  -1.640  1.00  0.00    -0.212 OA
ATOM     11  O   UNL     1      -1.968  -2.624  -1.035  1.00  0.00    -0.212 OA
BRANCH   9  12
ATOM     12  N   UNL     1      -1.891  -0.925   0.774  1.00  0.00    -0.208 NA
ATOM     13  H   UNL     1      -1.607  -1.716   1.353  1.00  0.00     0.141 HD
BRANCH  12  14
ATOM     14  C   UNL     1      -1.527   0.273   1.566  1.00  0.00     0.034 C 
ATOM     15  C   UNL     1      -1.260   1.521   0.709  1.00  0.00     0.027 C 
ATOM     16  C   UNL     1      -2.698   0.683   2.511  1.00  0.00     0.030 C 
ATOM     17  C   UNL     1      -0.356  -0.121   2.490  1.00  0.00     0.030 C 
ATOM     18  C   UNL     1      -0.741   2.676   1.565  1.00  0.00    -0.008 C 
ATOM     19  C   UNL     1      -2.282   1.905   3.399  1.00  0.00    -0.030 C 
ATOM     20  C   UNL     1       0.119   1.072   3.332  1.00  0.00    -0.030 C 
ATOM     21  C   UNL     1      -1.869   3.097   2.506  1.00  0.00     0.010 C 
ATOM     22  C   UNL     1       0.485   2.232   2.381  1.00  0.00     0.010 C 
ATOM     23  C   UNL     1      -1.047   1.510   4.246  1.00  0.00     0.013 C 
ATOM     24  C   UNL     1      -3.434   2.341   4.309  1.00  0.00     0.011 C 
ATOM     25  C   UNL     1       1.335   0.659   4.170  1.00  0.00     0.011 C 
ENDBRANCH  12  14
ENDBRANCH   9  12
ENDBRANCH   7   9
ENDBRANCH   4   7
ENDBRANCH   2   3
ENDBRANCH   1   2
BRANCH   1  26
ATOM     26  C   UNL     1       4.953  -2.178   1.524  1.00  0.00     0.023 C 
BRANCH  26  27
ATOM     27  C   UNL     1       6.073  -3.044   0.954  1.00  0.00     0.116 C 
BRANCH  27  28
ATOM     28  N   UNL     1       6.985  -2.296   0.104  1.00  0.00    -0.352 N 
ATOM     29  C   UNL     1       8.328  -2.495  -0.099  1.00  0.00     0.251 C 
ATOM     30  H   UNL     1       6.586  -1.547  -0.394  1.00  0.00     0.163 HD
ATOM     31  O   UNL     1       8.972  -1.675  -0.746  1.00  0.00    -0.269 OA
BRANCH  29  32
ATOM     32  C   UNL     1       8.995  -3.672   0.496  1.00  0.00     0.039 A 
ATOM     33  C   UNL     1      10.222  -3.488   1.136  1.00  0.00     0.014 A 
ATOM     34  C   UNL     1       8.418  -4.944   0.435  1.00  0.00     0.014 A 
ATOM     35  C   UNL     1      10.840  -4.569   1.764  1.00  0.00     0.010 A 
ATOM     36  C   UNL     1       8.998  -6.004   1.127  1.00  0.00     0.010 A 
ATOM     37  C   UNL     1      10.216  -5.829   1.797  1.00  0.00    -0.014 A 
BRANCH  37  38
ATOM     38  C   UNL     1      10.829  -6.950   2.553  1.00  0.00     0.031 A 
ATOM     39  C   UNL     1      11.300  -8.191   1.845  1.00  0.00     0.074 A 
ATOM     40  C   UNL     1      10.945  -6.849   3.893  1.00  0.00     0.049 A 
ATOM     41  N   UNL     1      11.893  -9.246   2.344  1.00  0.00    -0.248 NA
ATOM     42  C   UNL     1      11.060  -8.270   0.394  1.00  0.00     0.031 C 
ATOM     43  C   UNL     1      10.469  -5.723   4.701  1.00  0.00     0.029 A 
ATOM     44  N   UNL     1      11.506  -7.700   4.811  1.00  0.00    -0.354 N 
ATOM     45  C   UNL     1      12.102 -10.106   1.272  1.00  0.00     0.074 A 
ATOM     46  C   UNL     1      11.515  -9.481   0.108  1.00  0.00     0.031 C 
ATOM     47  C   UNL     1      10.794  -5.934   5.986  1.00  0.00     0.029 A 
ATOM     48  C   UNL     1      11.466  -7.223   6.101  1.00  0.00     0.049 A 
ATOM     49  H   UNL     1      11.900  -8.569   4.570  1.00  0.00     0.167 HD
ATOM     50  C   UNL     1      12.750 -11.296   1.254  1.00  0.00     0.031 A 
ATOM     51  C   UNL     1      11.921  -7.762   7.249  1.00  0.00     0.031 A 
ATOM     52  C   UNL     1      13.330 -11.918   2.416  1.00  0.00     0.049 A 
ATOM     53  C   UNL     1      12.630  -9.087   7.200  1.00  0.00     0.074 A 
ATOM     54  C   UNL     1      14.038 -13.105   2.494  1.00  0.00     0.029 A 
ATOM     55  N   UNL     1      13.270 -11.405   3.703  1.00  0.00    -0.354 N 
ATOM     56  N   UNL     1      12.881  -9.851   6.162  1.00  0.00    -0.248 NA
ATOM     57  C   UNL     1      13.135  -9.614   8.474  1.00  0.00     0.031 C 
ATOM     58  C   UNL     1      14.359 -13.336   3.836  1.00  0.00     0.029 A 
ATOM     59  C   UNL     1      13.909 -12.261   4.585  1.00  0.00     0.049 A 
ATOM     60  H   UNL     1      12.836 -10.557   3.953  1.00  0.00     0.167 HD
ATOM     61  C   UNL     1      13.589 -10.940   6.658  1.00  0.00     0.074 A 
ATOM     62  C   UNL     1      13.757 -10.716   8.080  1.00  0.00     0.031 C 
ATOM     63  C   UNL     1      14.053 -12.031   6.000  1.00  0.00     0.031 A 
BRANCH  50  64
ATOM     64  C   UNL     1      12.880 -12.001  -0.072  1.00  0.00    -0.014 A 
ATOM     65  C   UNL     1      13.717 -11.489  -1.081  1.00  0.00     0.010 A 
ATOM     66  C   UNL     1      12.216 -13.222  -0.291  1.00  0.00     0.010 A 
ATOM     67  C   UNL     1      13.866 -12.169  -2.292  1.00  0.00     0.020 A 
ATOM     68  C   UNL     1      12.386 -13.921  -1.490  1.00  0.00     0.020 A 
ATOM     69  C   UNL     1      13.203 -13.384  -2.488  1.00  0.00     0.054 A 
BRANCH  69  70
ATOM     70  S   UNL     1      13.459 -14.269  -4.050  1.00  0.00     0.124 S 
ATOM     71  O   UNL     1      12.746 -13.417  -4.999  1.00  0.00    -0.237 OA
ATOM     72  O   UNL     1      14.914 -14.272  -4.180  1.00  0.00    -0.237 OA
ATOM     73  O   UNL     1      12.854 -15.577  -3.813  1.00  0.00    -0.744 OA
ENDBRANCH  69  70
ENDBRANCH  50  64
BRANCH  51  74
ATOM     74  C   UNL     1      11.718  -7.049   8.541  1.00  0.00    -0.014 A 
ATOM     75  C   UNL     1      12.809  -6.525   9.258  1.00  0.00     0.010 A 
ATOM     76  C   UNL     1      10.422  -6.903   9.069  1.00  0.00     0.010 A 
ATOM     77  C   UNL     1      12.611  -5.902  10.494  1.00  0.00     0.020 A 
ATOM     78  C   UNL     1      10.216  -6.250  10.287  1.00  0.00     0.020 A 
ATOM     79  C   UNL     1      11.315  -5.769  11.001  1.00  0.00     0.054 A 
BRANCH  79  80
ATOM     80  S   UNL     1      11.076  -4.934  12.593  1.00  0.00     0.124 S 
ATOM     81  O   UNL     1      11.567  -5.934  13.536  1.00  0.00    -0.237 OA
ATOM     82  O   UNL     1      11.902  -3.738  12.449  1.00  0.00    -0.237 OA
ATOM     83  O   UNL     1       9.636  -4.686  12.636  1.00  0.00    -0.744 OA
ENDBRANCH  79  80
ENDBRANCH  51  74
BRANCH  63  84
ATOM     84  C   UNL     1      14.804 -13.052   6.815  1.00  0.00    -0.014 A 
ATOM     85  C   UNL     1      14.148 -13.844   7.776  1.00  0.00     0.010 A 
ATOM     86  C   UNL     1      16.185 -13.227   6.611  1.00  0.00     0.010 A 
ATOM     87  C   UNL     1      14.871 -14.746   8.560  1.00  0.00     0.020 A 
ATOM     88  C   UNL     1      16.904 -14.155   7.369  1.00  0.00     0.020 A 
ATOM     89  C   UNL     1      16.246 -14.890   8.356  1.00  0.00     0.054 A 
BRANCH  89  90
ATOM     90  S   UNL     1      17.162 -16.067   9.389  1.00  0.00     0.124 S 
ATOM     91  O   UNL     1      17.210 -15.371  10.671  1.00  0.00    -0.237 OA
ATOM     92  O   UNL     1      16.314 -17.256   9.350  1.00  0.00    -0.237 OA
ATOM     93  O   UNL     1      18.446 -16.202   8.705  1.00  0.00    -0.744 OA
ENDBRANCH  89  90
ENDBRANCH  63  84
ENDBRANCH  37  38
ENDBRANCH  29  32
ENDBRANCH  27  28
ENDBRANCH  26  27
ENDBRANCH   1  26
TORSDOF 17
