REMARK SMILES CC(C)[NH2+][C@@]1(C(=O)NCCCCNC(=O)c2ccc(-c3c4nc(c(-c5ccc(S(=O)(=O)[O-])cc5)c5ccc([nH]5)c(-c5ccc(S(=O)(=O)[O-])cc5)c5nc(c(-c6ccc(S(=O)(=O)[O-])cc6)c6ccc3[nH]6)C=C5)C=C4)cc2)CC[C@@H](Sc2ccncc2)C1
REMARK SMILES IDX 11 1 10 2 9 3 8 4 6 5 7 6 5 8 76 9 86 10 77 11 78 12 4 13
REMARK SMILES IDX 2 16 1 17 3 18 79 19 80 20 81 21 85 22 82 23 84 24 83 25
REMARK SMILES IDX 12 26 13 27 14 28 15 30 16 31 17 32 75 33 18 34 74 35 19 36
REMARK SMILES IDX 20 37 21 38 68 39 22 40 73 41 67 42 69 43 23 44 72 45 66 46
REMARK SMILES IDX 65 47 24 49 54 50 35 51 53 52 36 53 39 54 52 55 70 56 37 57
REMARK SMILES IDX 38 58 51 60 71 61 40 62 25 63 26 64 34 65 27 66 33 67 28 68
REMARK SMILES IDX 29 69 30 70 31 71 32 72 55 73 56 74 64 75 57 76 63 77 58 78
REMARK SMILES IDX 59 79 60 80 61 81 62 82 41 83 42 84 50 85 43 86 49 87 44 88
REMARK SMILES IDX 45 89 46 90 47 91 48 92
REMARK H PARENT 8 7 4 14 4 15 13 29 69 48 39 59
REMARK Flexibility Score: inf
ROOT
ATOM      1  C   UNL     1      -3.787   4.034   6.054  1.00  0.00     0.023 C 
ENDROOT
BRANCH   1   2
ATOM      2  C   UNL     1      -3.511   4.110   4.553  1.00  0.00     0.023 C 
BRANCH   2   3
ATOM      3  C   UNL     1      -2.030   4.082   4.178  1.00  0.00     0.116 C 
BRANCH   3   4
ATOM      4  N   UNL     1      -1.564   2.735   3.951  1.00  0.00    -0.351 N 
ATOM      5  C   UNL     1      -1.340   1.998   2.831  1.00  0.00     0.281 C 
ATOM      6  O   UNL     1      -1.072   0.810   3.061  1.00  0.00    -0.268 OA
ATOM      7  H   UNL     1      -1.367   2.247   4.783  1.00  0.00     0.163 HD
BRANCH   5   8
ATOM      8  C   UNL     1      -1.470   2.553   1.354  1.00  0.00     0.176 C 
ATOM      9  C   UNL     1      -0.896   3.951   1.078  1.00  0.00     0.080 C 
ATOM     10  C   UNL     1      -2.970   2.643   0.985  1.00  0.00     0.094 C 
ATOM     11  C   UNL     1      -2.047   4.914   0.791  1.00  0.00     0.022 C 
ATOM     12  C   UNL     1      -3.339   4.124   0.947  1.00  0.00     0.058 C 
BRANCH   8  13
ATOM     13  N   UNL     1      -0.869   1.570   0.400  1.00  0.00    -0.332 N 
ATOM     14  H   UNL     1      -1.413   0.710   0.468  1.00  0.00     0.347 HD
ATOM     15  H   UNL     1      -0.898   2.042  -0.504  1.00  0.00     0.347 HD
BRANCH  13  16
ATOM     16  C   UNL     1       0.545   1.208   0.581  1.00  0.00     0.176 C 
ATOM     17  C   UNL     1       0.695  -0.235   0.087  1.00  0.00     0.075 C 
ATOM     18  C   UNL     1       1.504   2.103  -0.210  1.00  0.00     0.075 C 
ENDBRANCH  13  16
ENDBRANCH   8  13
BRANCH  12  19
ATOM     19  S   UNL     1      -4.676   4.540  -0.248  1.00  0.00    -0.122 SA
BRANCH  19  20
ATOM     20  C   UNL     1      -3.805   4.541  -1.803  1.00  0.00     0.011 A 
ATOM     21  C   UNL     1      -3.519   3.356  -2.473  1.00  0.00     0.035 A 
ATOM     22  C   UNL     1      -3.408   5.753  -2.367  1.00  0.00     0.035 A 
ATOM     23  C   UNL     1      -2.797   3.428  -3.651  1.00  0.00     0.112 A 
ATOM     24  C   UNL     1      -2.688   5.721  -3.548  1.00  0.00     0.112 A 
ATOM     25  N   UNL     1      -2.365   4.583  -4.198  1.00  0.00    -0.265 NA
ENDBRANCH  19  20
ENDBRANCH  12  19
ENDBRANCH   5   8
ENDBRANCH   3   4
ENDBRANCH   2   3
ENDBRANCH   1   2
BRANCH   1  26
ATOM     26  C   UNL     1      -3.149   5.144   6.884  1.00  0.00     0.116 C 
BRANCH  26  27
ATOM     27  N   UNL     1      -3.447   6.487   6.408  1.00  0.00    -0.352 N 
ATOM     28  C   UNL     1      -3.487   7.653   7.141  1.00  0.00     0.251 C 
ATOM     29  H   UNL     1      -3.643   6.572   5.447  1.00  0.00     0.163 HD
ATOM     30  O   UNL     1      -3.830   8.703   6.622  1.00  0.00    -0.269 OA
BRANCH  28  31
ATOM     31  C   UNL     1      -3.155   7.590   8.579  1.00  0.00     0.039 A 
ATOM     32  C   UNL     1      -4.074   8.087   9.504  1.00  0.00     0.014 A 
ATOM     33  C   UNL     1      -1.979   6.970   9.006  1.00  0.00     0.014 A 
ATOM     34  C   UNL     1      -3.845   7.895  10.867  1.00  0.00     0.010 A 
ATOM     35  C   UNL     1      -1.792   6.711  10.358  1.00  0.00     0.010 A 
ATOM     36  C   UNL     1      -2.722   7.171  11.302  1.00  0.00    -0.014 A 
BRANCH  36  37
ATOM     37  C   UNL     1      -2.505   6.885  12.742  1.00  0.00     0.031 A 
ATOM     38  C   UNL     1      -1.304   7.453  13.448  1.00  0.00     0.074 A 
ATOM     39  C   UNL     1      -3.353   6.066  13.395  1.00  0.00     0.049 A 
ATOM     40  N   UNL     1      -0.925   7.288  14.689  1.00  0.00    -0.248 NA
ATOM     41  C   UNL     1      -0.394   8.289  12.648  1.00  0.00     0.031 C 
ATOM     42  C   UNL     1      -4.521   5.406  12.805  1.00  0.00     0.029 A 
ATOM     43  N   UNL     1      -3.362   5.647  14.701  1.00  0.00    -0.354 N 
ATOM     44  C   UNL     1       0.272   7.984  14.813  1.00  0.00     0.074 A 
ATOM     45  C   UNL     1       0.585   8.524  13.509  1.00  0.00     0.031 C 
ATOM     46  C   UNL     1      -5.151   4.694  13.753  1.00  0.00     0.029 A 
ATOM     47  C   UNL     1      -4.417   4.820  15.009  1.00  0.00     0.049 A 
ATOM     48  H   UNL     1      -2.678   5.913  15.357  1.00  0.00     0.167 HD
ATOM     49  C   UNL     1       1.031   8.177  15.918  1.00  0.00     0.031 A 
ATOM     50  C   UNL     1      -4.759   4.234  16.172  1.00  0.00     0.031 A 
ATOM     51  C   UNL     1       0.705   7.656  17.218  1.00  0.00     0.049 A 
ATOM     52  C   UNL     1      -3.915   4.483  17.392  1.00  0.00     0.074 A 
ATOM     53  C   UNL     1       1.375   7.845  18.413  1.00  0.00     0.029 A 
ATOM     54  N   UNL     1      -0.386   6.846  17.493  1.00  0.00    -0.354 N 
ATOM     55  N   UNL     1      -2.823   5.202  17.504  1.00  0.00    -0.248 NA
ATOM     56  C   UNL     1      -4.358   3.856  18.644  1.00  0.00     0.031 C 
ATOM     57  C   UNL     1       0.710   7.116  19.406  1.00  0.00     0.029 A 
ATOM     58  C   UNL     1      -0.402   6.515  18.837  1.00  0.00     0.049 A 
ATOM     59  H   UNL     1      -1.052   6.551  16.831  1.00  0.00     0.167 HD
ATOM     60  C   UNL     1      -2.464   5.135  18.846  1.00  0.00     0.074 A 
ATOM     61  C   UNL     1      -3.462   4.319  19.506  1.00  0.00     0.031 C 
ATOM     62  C   UNL     1      -1.404   5.700  19.475  1.00  0.00     0.031 A 
BRANCH  49  63
ATOM     63  C   UNL     1       2.286   8.993  15.760  1.00  0.00    -0.014 A 
ATOM     64  C   UNL     1       2.223  10.378  15.516  1.00  0.00     0.010 A 
ATOM     65  C   UNL     1       3.544   8.376  15.876  1.00  0.00     0.010 A 
ATOM     66  C   UNL     1       3.393  11.120  15.343  1.00  0.00     0.020 A 
ATOM     67  C   UNL     1       4.718   9.121  15.731  1.00  0.00     0.020 A 
ATOM     68  C   UNL     1       4.634  10.485  15.446  1.00  0.00     0.054 A 
BRANCH  68  69
ATOM     69  S   UNL     1       6.138  11.475  15.229  1.00  0.00     0.124 S 
ATOM     70  O   UNL     1       6.156  11.679  13.783  1.00  0.00    -0.237 OA
ATOM     71  O   UNL     1       5.857  12.666  16.027  1.00  0.00    -0.237 OA
ATOM     72  O   UNL     1       7.197  10.615  15.751  1.00  0.00    -0.744 OA
ENDBRANCH  68  69
ENDBRANCH  49  63
BRANCH  50  73
ATOM     73  C   UNL     1      -5.978   3.384  16.248  1.00  0.00    -0.014 A 
ATOM     74  C   UNL     1      -7.125   3.845  16.918  1.00  0.00     0.010 A 
ATOM     75  C   UNL     1      -6.005   2.117  15.637  1.00  0.00     0.010 A 
ATOM     76  C   UNL     1      -8.271   3.047  16.993  1.00  0.00     0.020 A 
ATOM     77  C   UNL     1      -7.157   1.327  15.689  1.00  0.00     0.020 A 
ATOM     78  C   UNL     1      -8.280   1.793  16.377  1.00  0.00     0.054 A 
BRANCH  78  79
ATOM     79  S   UNL     1      -9.795   0.796  16.441  1.00  0.00     0.124 S 
ATOM     80  O   UNL     1      -9.774   0.300  17.813  1.00  0.00    -0.237 OA
ATOM     81  O   UNL     1     -10.833   1.778  16.137  1.00  0.00    -0.237 OA
ATOM     82  O   UNL     1      -9.582  -0.213  15.406  1.00  0.00    -0.744 OA
ENDBRANCH  78  79
ENDBRANCH  50  73
BRANCH  62  83
ATOM     83  C   UNL     1      -1.287   5.481  20.959  1.00  0.00    -0.014 A 
ATOM     84  C   UNL     1      -0.901   4.236  21.483  1.00  0.00     0.010 A 
ATOM     85  C   UNL     1      -1.524   6.554  21.838  1.00  0.00     0.010 A 
ATOM     86  C   UNL     1      -0.788   4.057  22.864  1.00  0.00     0.020 A 
ATOM     87  C   UNL     1      -1.386   6.386  23.217  1.00  0.00     0.020 A 
ATOM     88  C   UNL     1      -1.034   5.133  23.723  1.00  0.00     0.054 A 
BRANCH  88  89
ATOM     89  S   UNL     1      -0.847   4.888  25.510  1.00  0.00     0.124 S 
ATOM     90  O   UNL     1      -2.060   4.146  25.843  1.00  0.00    -0.237 OA
ATOM     91  O   UNL     1       0.399   4.130  25.602  1.00  0.00    -0.237 OA
ATOM     92  O   UNL     1      -0.781   6.248  26.041  1.00  0.00    -0.744 OA
ENDBRANCH  88  89
ENDBRANCH  62  83
ENDBRANCH  36  37
ENDBRANCH  28  31
ENDBRANCH  26  27
ENDBRANCH   1  26
TORSDOF 18
