REMARK SMILES Cc1ccc(F)c(-c2ncccc2C(=O)NCCCCNC(=O)c2ccc(-c3c4nc(c(-c5ccc(S(=O)(=O)[O-])cc5)c5ccc([nH]5)c(-c5ccc(S(=O)(=O)[O-])cc5)c5nc(c(-c6ccc(S(=O)(=O)[O-])cc6)c6ccc3[nH]6)C=C5)C=C4)cc2)c1
REMARK SMILES IDX 19 1 18 2 17 3 16 4 14 5 15 6 13 8 8 9 9 10 10 11 12 12
REMARK SMILES IDX 11 13 7 14 1 15 2 16 3 17 84 18 4 19 5 20 6 21 20 22 21 23
REMARK SMILES IDX 22 24 23 26 24 27 25 28 83 29 26 30 82 31 27 32 28 33 29 34
REMARK SMILES IDX 76 35 30 36 81 37 75 38 77 39 31 40 80 41 74 42 73 43 32 45
REMARK SMILES IDX 62 46 43 47 61 48 44 49 47 50 60 51 78 52 45 53 46 54 59 56
REMARK SMILES IDX 79 57 48 58 33 59 34 60 42 61 35 62 41 63 36 64 37 65 38 66
REMARK SMILES IDX 39 67 40 68 63 69 64 70 72 71 65 72 71 73 66 74 67 75 68 76
REMARK SMILES IDX 69 77 70 78 49 79 50 80 58 81 51 82 57 83 52 84 53 85 54 86
REMARK SMILES IDX 55 87 56 88
REMARK H PARENT 16 7 21 25 77 44 47 55
REMARK Flexibility Score: inf
ROOT
ATOM      1  C   UNL     1       1.206  -6.456   4.271  1.00  0.00     0.023 C 
ENDROOT
BRANCH   1   2
ATOM      2  C   UNL     1       0.039  -6.370   3.275  1.00  0.00     0.023 C 
BRANCH   2   3
ATOM      3  C   UNL     1      -0.964  -5.257   3.578  1.00  0.00     0.116 C 
BRANCH   3   4
ATOM      4  N   UNL     1      -0.414  -3.961   3.242  1.00  0.00    -0.352 N 
ATOM      5  C   UNL     1      -0.448  -3.128   2.155  1.00  0.00     0.253 C 
ATOM      6  O   UNL     1       0.162  -2.074   2.333  1.00  0.00    -0.269 OA
ATOM      7  H   UNL     1       0.118  -3.584   3.979  1.00  0.00     0.163 HD
BRANCH   5   8
ATOM      8  C   UNL     1      -1.168  -3.391   0.861  1.00  0.00     0.066 A 
ATOM      9  C   UNL     1      -1.285  -2.380  -0.121  1.00  0.00     0.086 A 
ATOM     10  N   UNL     1      -2.032  -2.533  -1.260  1.00  0.00    -0.255 NA
ATOM     11  C   UNL     1      -2.665  -3.701  -1.460  1.00  0.00     0.112 A 
ATOM     12  C   UNL     1      -1.771  -4.616   0.548  1.00  0.00     0.018 A 
ATOM     13  C   UNL     1      -2.544  -4.772  -0.604  1.00  0.00     0.021 A 
BRANCH   9  14
ATOM     14  C   UNL     1      -0.556  -1.103  -0.121  1.00  0.00     0.037 A 
ATOM     15  C   UNL     1       3.068   0.119  -0.210  1.00  0.00     0.044 C 
ATOM     16  C   UNL     1       1.568   0.125  -0.194  1.00  0.00    -0.050 A 
ATOM     17  C   UNL     1       0.868   1.331  -0.093  1.00  0.00     0.006 A 
ATOM     18  C   UNL     1       0.849  -1.078  -0.240  1.00  0.00     0.016 A 
ATOM     19  C   UNL     1      -0.525   1.329  -0.017  1.00  0.00     0.040 A 
ATOM     20  C   UNL     1      -1.222   0.122  -0.024  1.00  0.00     0.132 A 
ATOM     21  F   UNL     1      -2.560   0.162   0.083  1.00  0.00    -0.206 F 
ENDBRANCH   9  14
ENDBRANCH   5   8
ENDBRANCH   3   4
ENDBRANCH   2   3
ENDBRANCH   1   2
BRANCH   1  22
ATOM     22  C   UNL     1       0.808  -6.633   5.736  1.00  0.00     0.116 C 
BRANCH  22  23
ATOM     23  N   UNL     1      -0.091  -7.755   5.954  1.00  0.00    -0.352 N 
ATOM     24  C   UNL     1      -0.227  -8.546   7.070  1.00  0.00     0.251 C 
ATOM     25  H   UNL     1      -0.683  -7.978   5.200  1.00  0.00     0.163 HD
ATOM     26  O   UNL     1      -0.969  -9.519   7.042  1.00  0.00    -0.269 OA
BRANCH  24  27
ATOM     27  C   UNL     1       0.558  -8.236   8.284  1.00  0.00     0.039 A 
ATOM     28  C   UNL     1       1.265  -9.268   8.905  1.00  0.00     0.014 A 
ATOM     29  C   UNL     1       0.606  -6.938   8.799  1.00  0.00     0.014 A 
ATOM     30  C   UNL     1       2.070  -8.987  10.010  1.00  0.00     0.010 A 
ATOM     31  C   UNL     1       1.456  -6.648   9.863  1.00  0.00     0.010 A 
ATOM     32  C   UNL     1       2.196  -7.669  10.479  1.00  0.00    -0.014 A 
BRANCH  32  33
ATOM     33  C   UNL     1       3.100  -7.343  11.609  1.00  0.00     0.031 A 
ATOM     34  C   UNL     1       2.535  -6.840  12.909  1.00  0.00     0.074 A 
ATOM     35  C   UNL     1       4.433  -7.444  11.444  1.00  0.00     0.049 A 
ATOM     36  N   UNL     1       3.167  -6.466  13.992  1.00  0.00    -0.248 NA
ATOM     37  C   UNL     1       1.071  -6.718  12.995  1.00  0.00     0.031 C 
ATOM     38  C   UNL     1       5.105  -7.876  10.216  1.00  0.00     0.029 A 
ATOM     39  N   UNL     1       5.464  -7.185  12.312  1.00  0.00    -0.354 N 
ATOM     40  C   UNL     1       2.182  -6.049  14.880  1.00  0.00     0.074 A 
ATOM     41  C   UNL     1       0.915  -6.172  14.192  1.00  0.00     0.031 C 
ATOM     42  C   UNL     1       6.433  -7.879  10.419  1.00  0.00     0.029 A 
ATOM     43  C   UNL     1       6.708  -7.418  11.776  1.00  0.00     0.049 A 
ATOM     44  H   UNL     1       5.325  -6.863  13.232  1.00  0.00     0.167 HD
ATOM     45  C   UNL     1       2.317  -5.622  16.158  1.00  0.00     0.031 A 
ATOM     46  C   UNL     1       7.934  -7.279  12.316  1.00  0.00     0.031 A 
ATOM     47  C   UNL     1       3.577  -5.513  16.843  1.00  0.00     0.049 A 
ATOM     48  C   UNL     1       8.059  -6.813  13.740  1.00  0.00     0.074 A 
ATOM     49  C   UNL     1       3.816  -5.140  18.155  1.00  0.00     0.029 A 
ATOM     50  N   UNL     1       4.813  -5.777  16.271  1.00  0.00    -0.354 N 
ATOM     51  N   UNL     1       7.111  -6.483  14.584  1.00  0.00    -0.248 NA
ATOM     52  C   UNL     1       9.419  -6.716  14.289  1.00  0.00     0.031 C 
ATOM     53  C   UNL     1       5.199  -5.142  18.364  1.00  0.00     0.029 A 
ATOM     54  C   UNL     1       5.819  -5.562  17.198  1.00  0.00     0.049 A 
ATOM     55  H   UNL     1       4.954  -6.074  15.343  1.00  0.00     0.167 HD
ATOM     56  C   UNL     1       7.758  -6.164  15.773  1.00  0.00     0.074 A 
ATOM     57  C   UNL     1       9.176  -6.353  15.541  1.00  0.00     0.031 C 
ATOM     58  C   UNL     1       7.225  -5.754  16.951  1.00  0.00     0.031 A 
BRANCH  45  59
ATOM     59  C   UNL     1       1.061  -5.237  16.894  1.00  0.00    -0.014 A 
ATOM     60  C   UNL     1       0.125  -6.211  17.287  1.00  0.00     0.010 A 
ATOM     61  C   UNL     1       0.820  -3.889  17.213  1.00  0.00     0.010 A 
ATOM     62  C   UNL     1      -1.053  -5.839  17.941  1.00  0.00     0.020 A 
ATOM     63  C   UNL     1      -0.344  -3.515  17.892  1.00  0.00     0.020 A 
ATOM     64  C   UNL     1      -1.283  -4.491  18.232  1.00  0.00     0.054 A 
BRANCH  64  65
ATOM     65  S   UNL     1      -2.817  -4.035  19.086  1.00  0.00     0.124 S 
ATOM     66  O   UNL     1      -3.803  -4.154  18.014  1.00  0.00    -0.237 OA
ATOM     67  O   UNL     1      -2.912  -5.043  20.139  1.00  0.00    -0.237 OA
ATOM     68  O   UNL     1      -2.563  -2.674  19.551  1.00  0.00    -0.744 OA
ENDBRANCH  64  65
ENDBRANCH  45  59
BRANCH  46  69
ATOM     69  C   UNL     1       9.140  -7.617  11.513  1.00  0.00    -0.014 A 
ATOM     70  C   UNL     1       9.875  -8.782  11.792  1.00  0.00     0.010 A 
ATOM     71  C   UNL     1       9.547  -6.788  10.452  1.00  0.00     0.010 A 
ATOM     72  C   UNL     1      11.004  -9.106  11.034  1.00  0.00     0.020 A 
ATOM     73  C   UNL     1      10.661  -7.122   9.676  1.00  0.00     0.020 A 
ATOM     74  C   UNL     1      11.388  -8.274   9.979  1.00  0.00     0.054 A 
BRANCH  74  75
ATOM     75  S   UNL     1      12.821  -8.746   8.969  1.00  0.00     0.124 S 
ATOM     76  O   UNL     1      13.935  -8.412   9.850  1.00  0.00    -0.237 OA
ATOM     77  O   UNL     1      12.595 -10.172   8.746  1.00  0.00    -0.237 OA
ATOM     78  O   UNL     1      12.688  -7.909   7.779  1.00  0.00    -0.744 OA
ENDBRANCH  74  75
ENDBRANCH  46  69
BRANCH  58  79
ATOM     79  C   UNL     1       8.177  -5.514  18.091  1.00  0.00    -0.014 A 
ATOM     80  C   UNL     1       9.015  -4.386  18.116  1.00  0.00     0.010 A 
ATOM     81  C   UNL     1       8.196  -6.409  19.177  1.00  0.00     0.010 A 
ATOM     82  C   UNL     1       9.880  -4.174  19.193  1.00  0.00     0.020 A 
ATOM     83  C   UNL     1       9.042  -6.187  20.266  1.00  0.00     0.020 A 
ATOM     84  C   UNL     1       9.889  -5.077  20.260  1.00  0.00     0.054 A 
BRANCH  84  85
ATOM     85  S   UNL     1      10.992  -4.761  21.665  1.00  0.00     0.124 S 
ATOM     86  O   UNL     1      12.291  -5.152  21.125  1.00  0.00    -0.237 OA
ATOM     87  O   UNL     1      10.814  -3.330  21.899  1.00  0.00    -0.237 OA
ATOM     88  O   UNL     1      10.468  -5.628  22.718  1.00  0.00    -0.744 OA
ENDBRANCH  84  85
ENDBRANCH  58  79
ENDBRANCH  32  33
ENDBRANCH  24  27
ENDBRANCH  22  23
ENDBRANCH   1  22
TORSDOF 15
