REMARK SMILES CC(C)(C)c1cc2c(cc1Cl)C=C(C(=O)NCCCCNC(=O)c1ccc(-c3c4nc(c(-c5ccc(S(=O)(=O)[O-])cc5)c5ccc([nH]5)c(-c5ccc(S(=O)(=O)[O-])cc5)c5nc(c(-c6ccc(S(=O)(=O)[O-])cc6)c6ccc3[nH]6)C=C5)C=C4)cc1)[C@@H](C(F)(F)F)O2
REMARK SMILES IDX 19 1 18 2 17 3 16 4 14 5 15 6 13 8 5 9 6 10 10 11 7 12 9 13
REMARK SMILES IDX 11 14 8 15 89 16 12 17 84 18 2 19 1 20 3 21 4 22 85 23 86 24
REMARK SMILES IDX 87 25 88 26 20 27 21 28 22 29 23 31 24 32 25 33 83 34 26 35
REMARK SMILES IDX 82 36 27 37 28 38 29 39 76 40 30 41 81 42 75 43 77 44 31 45
REMARK SMILES IDX 80 46 74 47 73 48 32 50 62 51 43 52 61 53 44 54 47 55 60 56
REMARK SMILES IDX 78 57 45 58 46 59 59 61 79 62 48 63 33 64 34 65 42 66 35 67
REMARK SMILES IDX 41 68 36 69 37 70 38 71 39 72 40 73 63 74 64 75 72 76 65 77
REMARK SMILES IDX 71 78 66 79 67 80 68 81 69 82 70 83 49 84 50 85 58 86 51 87
REMARK SMILES IDX 57 88 52 89 53 90 54 91 55 92 56 93
REMARK H PARENT 16 7 21 30 77 49 47 60
REMARK Flexibility Score: inf
ROOT
ATOM      1  C   UNL     1      -1.419  11.742   0.185  1.00  0.00     0.023 C 
ENDROOT
BRANCH   1   2
ATOM      2  C   UNL     1      -1.298  10.303  -0.323  1.00  0.00     0.023 C 
BRANCH   2   3
ATOM      3  C   UNL     1      -0.126  10.062  -1.272  1.00  0.00     0.116 C 
BRANCH   3   4
ATOM      4  N   UNL     1       1.105   9.758  -0.562  1.00  0.00    -0.352 N 
ATOM      5  C   UNL     1       1.796   8.646  -0.217  1.00  0.00     0.251 C 
ATOM      6  O   UNL     1       2.848   8.846   0.398  1.00  0.00    -0.270 OA
ATOM      7  H   UNL     1       1.555  10.576  -0.249  1.00  0.00     0.163 HD
BRANCH   5   8
ATOM      8  C   UNL     1       1.381   7.244  -0.518  1.00  0.00     0.067 C 
ATOM      9  C   UNL     1       1.033   2.166  -0.716  1.00  0.00    -0.020 A 
ATOM     10  C   UNL     1       0.178   3.258  -0.993  1.00  0.00     0.053 A 
ATOM     11  C   UNL     1       2.322   2.501  -0.236  1.00  0.00     0.045 A 
ATOM     12  C   UNL     1       0.568   4.583  -0.786  1.00  0.00     0.128 A 
ATOM     13  C   UNL     1       2.692   3.838   0.012  1.00  0.00     0.032 A 
ATOM     14  Cl  UNL     1       3.582   1.350   0.048  1.00  0.00    -0.084 Cl
ATOM     15  C   UNL     1       1.815   4.884  -0.260  1.00  0.00     0.019 A 
ATOM     16  O   UNL     1      -0.346   5.549  -1.099  1.00  0.00    -0.475 OA
ATOM     17  C   UNL     1       2.156   6.275   0.009  1.00  0.00     0.025 C 
ATOM     18  C   UNL     1       0.209   6.867  -1.381  1.00  0.00     0.314 C 
BRANCH   9  19
ATOM     19  C   UNL     1       0.530   0.727  -1.001  1.00  0.00    -0.012 C 
ATOM     20  C   UNL     1       0.873  -0.281   0.121  1.00  0.00     0.016 C 
ATOM     21  C   UNL     1       1.133   0.246  -2.336  1.00  0.00     0.016 C 
ATOM     22  C   UNL     1      -1.017   0.643  -1.148  1.00  0.00     0.016 C 
ENDBRANCH   9  19
BRANCH  18  23
ATOM     23  C   UNL     1       0.526   6.983  -2.885  1.00  0.00     0.429 C 
ATOM     24  F   UNL     1      -0.617   6.924  -3.615  1.00  0.00    -0.167 F 
ATOM     25  F   UNL     1       1.126   8.154  -3.201  1.00  0.00    -0.167 F 
ATOM     26  F   UNL     1       1.336   5.994  -3.327  1.00  0.00    -0.167 F 
ENDBRANCH  18  23
ENDBRANCH   5   8
ENDBRANCH   3   4
ENDBRANCH   2   3
ENDBRANCH   1   2
BRANCH   1  27
ATOM     27  C   UNL     1      -1.509  12.819  -0.895  1.00  0.00     0.116 C 
BRANCH  27  28
ATOM     28  N   UNL     1      -2.548  12.591  -1.893  1.00  0.00    -0.352 N 
ATOM     29  C   UNL     1      -3.137  13.528  -2.715  1.00  0.00     0.251 C 
ATOM     30  H   UNL     1      -2.865  11.664  -1.990  1.00  0.00     0.163 HD
ATOM     31  O   UNL     1      -4.050  13.218  -3.473  1.00  0.00    -0.269 OA
BRANCH  29  32
ATOM     32  C   UNL     1      -2.685  14.930  -2.609  1.00  0.00     0.039 A 
ATOM     33  C   UNL     1      -1.328  15.234  -2.730  1.00  0.00     0.014 A 
ATOM     34  C   UNL     1      -3.607  15.912  -2.238  1.00  0.00     0.014 A 
ATOM     35  C   UNL     1      -0.869  16.469  -2.289  1.00  0.00     0.010 A 
ATOM     36  C   UNL     1      -3.148  17.178  -1.868  1.00  0.00     0.010 A 
ATOM     37  C   UNL     1      -1.770  17.440  -1.820  1.00  0.00    -0.014 A 
BRANCH  37  38
ATOM     38  C   UNL     1      -1.237  18.690  -1.219  1.00  0.00     0.031 A 
ATOM     39  C   UNL     1      -1.395  18.956   0.256  1.00  0.00     0.074 A 
ATOM     40  C   UNL     1      -0.521  19.537  -1.983  1.00  0.00     0.049 A 
ATOM     41  N   UNL     1      -0.929  19.954   0.964  1.00  0.00    -0.248 NA
ATOM     42  C   UNL     1      -2.173  17.982   1.040  1.00  0.00     0.031 C 
ATOM     43  C   UNL     1      -0.272  19.367  -3.415  1.00  0.00     0.029 A 
ATOM     44  N   UNL     1       0.165  20.679  -1.656  1.00  0.00    -0.354 N 
ATOM     45  C   UNL     1      -1.373  19.740   2.264  1.00  0.00     0.074 A 
ATOM     46  C   UNL     1      -2.163  18.529   2.248  1.00  0.00     0.031 C 
ATOM     47  C   UNL     1       0.571  20.325  -3.828  1.00  0.00     0.029 A 
ATOM     48  C   UNL     1       0.878  21.208  -2.705  1.00  0.00     0.049 A 
ATOM     49  H   UNL     1       0.149  21.080  -0.757  1.00  0.00     0.167 HD
ATOM     50  C   UNL     1      -1.135  20.479   3.373  1.00  0.00     0.031 A 
ATOM     51  C   UNL     1       1.696  22.277  -2.764  1.00  0.00     0.031 A 
ATOM     52  C   UNL     1      -0.333  21.674   3.392  1.00  0.00     0.049 A 
ATOM     53  C   UNL     1       1.942  23.086  -1.524  1.00  0.00     0.074 A 
ATOM     54  C   UNL     1      -0.049  22.498   4.467  1.00  0.00     0.029 A 
ATOM     55  N   UNL     1       0.325  22.205   2.294  1.00  0.00    -0.354 N 
ATOM     56  N   UNL     1       1.484  22.884  -0.312  1.00  0.00    -0.248 NA
ATOM     57  C   UNL     1       2.810  24.263  -1.656  1.00  0.00     0.031 C 
ATOM     58  C   UNL     1       0.752  23.549   4.011  1.00  0.00     0.029 A 
ATOM     59  C   UNL     1       1.010  23.349   2.664  1.00  0.00     0.049 A 
ATOM     60  H   UNL     1       0.308  21.824   1.387  1.00  0.00     0.167 HD
ATOM     61  C   UNL     1       2.014  23.906   0.466  1.00  0.00     0.074 A 
ATOM     62  C   UNL     1       2.839  24.715  -0.407  1.00  0.00     0.031 C 
ATOM     63  C   UNL     1       1.826  24.149   1.786  1.00  0.00     0.031 A 
BRANCH  50  64
ATOM     64  C   UNL     1      -1.760  20.033   4.668  1.00  0.00    -0.014 A 
ATOM     65  C   UNL     1      -2.822  20.772   5.221  1.00  0.00     0.010 A 
ATOM     66  C   UNL     1      -1.248  18.933   5.379  1.00  0.00     0.010 A 
ATOM     67  C   UNL     1      -3.354  20.429   6.466  1.00  0.00     0.020 A 
ATOM     68  C   UNL     1      -1.793  18.573   6.615  1.00  0.00     0.020 A 
ATOM     69  C   UNL     1      -2.832  19.334   7.159  1.00  0.00     0.054 A 
BRANCH  69  70
ATOM     70  S   UNL     1      -3.544  18.883   8.766  1.00  0.00     0.124 S 
ATOM     71  O   UNL     1      -2.859  19.797   9.674  1.00  0.00    -0.237 OA
ATOM     72  O   UNL     1      -4.970  19.135   8.571  1.00  0.00    -0.237 OA
ATOM     73  O   UNL     1      -3.188  17.472   8.907  1.00  0.00    -0.744 OA
ENDBRANCH  69  70
ENDBRANCH  50  64
BRANCH  51  74
ATOM     74  C   UNL     1       2.362  22.594  -4.054  1.00  0.00    -0.014 A 
ATOM     75  C   UNL     1       1.611  23.081  -5.139  1.00  0.00     0.010 A 
ATOM     76  C   UNL     1       3.722  22.292  -4.240  1.00  0.00     0.010 A 
ATOM     77  C   UNL     1       2.190  23.199  -6.404  1.00  0.00     0.020 A 
ATOM     78  C   UNL     1       4.311  22.432  -5.500  1.00  0.00     0.020 A 
ATOM     79  C   UNL     1       3.531  22.852  -6.580  1.00  0.00     0.054 A 
BRANCH  79  80
ATOM     80  S   UNL     1       4.247  22.934  -8.245  1.00  0.00     0.124 S 
ATOM     81  O   UNL     1       3.783  21.679  -8.830  1.00  0.00    -0.237 OA
ATOM     82  O   UNL     1       3.646  24.145  -8.797  1.00  0.00    -0.237 OA
ATOM     83  O   UNL     1       5.683  23.015  -7.993  1.00  0.00    -0.744 OA
ENDBRANCH  79  80
ENDBRANCH  51  74
BRANCH  63  84
ATOM     84  C   UNL     1       2.523  25.335   2.393  1.00  0.00    -0.014 A 
ATOM     85  C   UNL     1       3.598  25.132   3.277  1.00  0.00     0.010 A 
ATOM     86  C   UNL     1       2.034  26.637   2.190  1.00  0.00     0.010 A 
ATOM     87  C   UNL     1       4.157  26.208   3.970  1.00  0.00     0.020 A 
ATOM     88  C   UNL     1       2.604  27.718   2.866  1.00  0.00     0.020 A 
ATOM     89  C   UNL     1       3.647  27.494   3.769  1.00  0.00     0.054 A 
BRANCH  89  90
ATOM     90  S   UNL     1       4.364  28.880   4.695  1.00  0.00     0.124 S 
ATOM     91  O   UNL     1       3.686  28.772   5.983  1.00  0.00    -0.237 OA
ATOM     92  O   UNL     1       5.790  28.561   4.706  1.00  0.00    -0.237 OA
ATOM     93  O   UNL     1       4.003  30.046   3.892  1.00  0.00    -0.744 OA
ENDBRANCH  89  90
ENDBRANCH  63  84
ENDBRANCH  37  38
ENDBRANCH  29  32
ENDBRANCH  27  28
ENDBRANCH   1  27
TORSDOF 16
