REMARK SMILES CC[C@@H]1CCc2c(sc(NC(=O)COCC(=O)NCCCCNC(=O)c3ccc(-c4c5nc(c(-c6ccc(S(=O)(=O)[O-])cc6)c6ccc([nH]6)c(-c6ccc(S(=O)(=O)[O-])cc6)c6nc(c(-c7ccc(S(=O)(=O)[O-])cc7)c7ccc4[nH]7)C=C6)C=C5)cc3)c2C(N)=O)C1
REMARK SMILES IDX 19 1 18 2 16 3 17 4 15 6 14 7 13 8 11 9 10 10 12 12 9 13
REMARK SMILES IDX 3 14 4 15 90 16 5 17 7 18 6 19 8 20 86 21 2 22 1 23 87 24
REMARK SMILES IDX 88 25 89 26 20 29 21 30 22 31 23 32 24 33 25 35 26 36 27 37
REMARK SMILES IDX 85 38 28 39 84 40 29 41 30 42 31 43 78 44 32 45 83 46 77 47
REMARK SMILES IDX 79 48 33 49 82 50 76 51 75 52 34 54 64 55 45 56 63 57 46 58
REMARK SMILES IDX 49 59 62 60 80 61 47 62 48 63 61 65 81 66 50 67 35 68 36 69
REMARK SMILES IDX 44 70 37 71 43 72 38 73 39 74 40 75 41 76 42 77 65 78 66 79
REMARK SMILES IDX 74 80 67 81 73 82 68 83 69 84 70 85 71 86 72 87 51 88 52 89
REMARK SMILES IDX 60 90 53 91 59 92 54 93 55 94 56 95 57 96 58 97
REMARK H PARENT 18 5 10 11 88 27 88 28 23 34 79 53 49 64
REMARK Flexibility Score: inf
ROOT
ATOM      1  C   UNL     1       3.421   5.601   0.417  1.00  0.00     0.116 C 
ENDROOT
BRANCH   1   2
ATOM      2  N   UNL     1       4.714   6.108  -0.013  1.00  0.00    -0.354 N 
ATOM      3  C   UNL     1       5.769   5.411  -0.530  1.00  0.00     0.246 C 
ATOM      4  O   UNL     1       6.792   6.018  -0.849  1.00  0.00    -0.272 OA
ATOM      5  H   UNL     1       4.846   7.079   0.079  1.00  0.00     0.163 HD
BRANCH   3   6
ATOM      6  C   UNL     1       5.655   3.897  -0.697  1.00  0.00     0.260 C 
BRANCH   6   7
ATOM      7  O   UNL     1       5.565   3.226   0.549  1.00  0.00    -0.362 OA
BRANCH   7   8
ATOM      8  C   UNL     1       6.823   3.003   1.155  1.00  0.00     0.261 C 
BRANCH   8   9
ATOM      9  C   UNL     1       7.335   1.587   0.976  1.00  0.00     0.251 C 
ATOM     10  N   UNL     1       6.566   0.474   1.069  1.00  0.00    -0.315 N 
ATOM     11  H   UNL     1       7.078  -0.340   0.858  1.00  0.00     0.170 HD
ATOM     12  O   UNL     1       8.535   1.403   0.724  1.00  0.00    -0.272 OA
BRANCH  10  13
ATOM     13  C   UNL     1       5.258   0.187   1.381  1.00  0.00     0.108 A 
ATOM     14  C   UNL     1       0.938  -2.122   1.205  1.00  0.00    -0.006 C 
ATOM     15  C   UNL     1       0.736  -1.198   2.424  1.00  0.00     0.009 C 
ATOM     16  C   UNL     1       2.421  -2.520   1.037  1.00  0.00     0.050 C 
ATOM     17  C   UNL     1       1.630   0.053   2.462  1.00  0.00     0.038 C 
ATOM     18  C   UNL     1       3.342  -1.372   1.291  1.00  0.00     0.011 A 
ATOM     19  C   UNL     1       3.011  -0.193   1.916  1.00  0.00    -0.019 A 
ATOM     20  S   UNL     1       4.976  -1.436   0.875  1.00  0.00    -0.122 S 
ATOM     21  C   UNL     1       4.124   0.752   1.946  1.00  0.00     0.077 A 
BRANCH  14  22
ATOM     22  C   UNL     1       0.276  -1.634  -0.103  1.00  0.00     0.000 C 
ATOM     23  C   UNL     1       0.647  -0.257  -0.626  1.00  0.00     0.004 C 
ENDBRANCH  14  22
BRANCH  21  24
ATOM     24  C   UNL     1       3.938   2.070   2.535  1.00  0.00     0.251 C 
ATOM     25  N   UNL     1       4.842   2.427   3.493  1.00  0.00    -0.365 N 
ATOM     26  O   UNL     1       2.964   2.767   2.306  1.00  0.00    -0.269 OA
ATOM     27  H   UNL     1       5.624   1.856   3.669  1.00  0.00     0.159 HD
ATOM     28  H   UNL     1       4.712   3.256   4.008  1.00  0.00     0.159 HD
ENDBRANCH  21  24
ENDBRANCH  10  13
ENDBRANCH   8   9
ENDBRANCH   7   8
ENDBRANCH   6   7
ENDBRANCH   3   6
ENDBRANCH   1   2
BRANCH   1  29
ATOM     29  C   UNL     1       3.189   5.781   1.917  1.00  0.00     0.023 C 
BRANCH  29  30
ATOM     30  C   UNL     1       3.293   7.211   2.442  1.00  0.00     0.023 C 
BRANCH  30  31
ATOM     31  C   UNL     1       2.452   8.246   1.708  1.00  0.00     0.116 C 
BRANCH  31  32
ATOM     32  N   UNL     1       1.022   8.015   1.826  1.00  0.00    -0.352 N 
ATOM     33  C   UNL     1       0.025   8.908   2.148  1.00  0.00     0.251 C 
ATOM     34  H   UNL     1       0.725   7.093   1.652  1.00  0.00     0.163 HD
ATOM     35  O   UNL     1      -1.125   8.511   2.314  1.00  0.00    -0.269 OA
BRANCH  33  36
ATOM     36  C   UNL     1       0.348  10.342   2.336  1.00  0.00     0.039 A 
ATOM     37  C   UNL     1      -0.179  11.014   3.443  1.00  0.00     0.014 A 
ATOM     38  C   UNL     1       1.179  11.020   1.440  1.00  0.00     0.014 A 
ATOM     39  C   UNL     1       0.185  12.341   3.689  1.00  0.00     0.010 A 
ATOM     40  C   UNL     1       1.603  12.315   1.729  1.00  0.00     0.010 A 
ATOM     41  C   UNL     1       1.109  12.992   2.855  1.00  0.00    -0.014 A 
BRANCH  41  42
ATOM     42  C   UNL     1       1.559  14.383   3.128  1.00  0.00     0.031 A 
ATOM     43  C   UNL     1       1.265  15.477   2.135  1.00  0.00     0.074 A 
ATOM     44  C   UNL     1       2.286  14.653   4.231  1.00  0.00     0.049 A 
ATOM     45  N   UNL     1       1.649  16.728   2.147  1.00  0.00    -0.248 NA
ATOM     46  C   UNL     1       0.455  15.110   0.961  1.00  0.00     0.031 C 
ATOM     47  C   UNL     1       2.674  13.679   5.255  1.00  0.00     0.029 A 
ATOM     48  N   UNL     1       2.839  15.831   4.672  1.00  0.00    -0.354 N 
ATOM     49  C   UNL     1       1.148  17.289   0.977  1.00  0.00     0.074 A 
ATOM     50  C   UNL     1       0.473  16.232   0.257  1.00  0.00     0.031 C 
ATOM     51  C   UNL     1       3.378  14.303   6.214  1.00  0.00     0.029 A 
ATOM     52  C   UNL     1       3.529  15.710   5.856  1.00  0.00     0.049 A 
ATOM     53  H   UNL     1       2.750  16.682   4.185  1.00  0.00     0.167 HD
ATOM     54  C   UNL     1       1.222  18.572   0.550  1.00  0.00     0.031 A 
ATOM     55  C   UNL     1       4.211  16.627   6.571  1.00  0.00     0.031 A 
ATOM     56  C   UNL     1       1.869  19.630   1.278  1.00  0.00     0.049 A 
ATOM     57  C   UNL     1       4.276  18.047   6.076  1.00  0.00     0.074 A 
ATOM     58  C   UNL     1       1.956  20.972   0.950  1.00  0.00     0.029 A 
ATOM     59  N   UNL     1       2.533  19.469   2.484  1.00  0.00    -0.354 N 
ATOM     60  N   UNL     1       3.754  18.565   4.990  1.00  0.00    -0.248 NA
ATOM     61  C   UNL     1       5.013  19.008   6.910  1.00  0.00     0.031 C 
ATOM     62  C   UNL     1       2.704  21.616   1.940  1.00  0.00     0.029 A 
ATOM     63  C   UNL     1       3.040  20.685   2.909  1.00  0.00     0.049 A 
ATOM     64  H   UNL     1       2.629  18.616   2.967  1.00  0.00     0.167 HD
ATOM     65  C   UNL     1       4.074  19.919   5.027  1.00  0.00     0.074 A 
ATOM     66  C   UNL     1       4.822  20.140   6.247  1.00  0.00     0.031 C 
ATOM     67  C   UNL     1       3.773  20.891   4.132  1.00  0.00     0.031 A 
BRANCH  54  68
ATOM     68  C   UNL     1       0.574  18.905  -0.767  1.00  0.00    -0.014 A 
ATOM     69  C   UNL     1      -0.827  18.933  -0.897  1.00  0.00     0.010 A 
ATOM     70  C   UNL     1       1.371  19.241  -1.876  1.00  0.00     0.010 A 
ATOM     71  C   UNL     1      -1.418  19.254  -2.120  1.00  0.00     0.020 A 
ATOM     72  C   UNL     1       0.782  19.590  -3.096  1.00  0.00     0.020 A 
ATOM     73  C   UNL     1      -0.609  19.580  -3.213  1.00  0.00     0.054 A 
BRANCH  73  74
ATOM     74  S   UNL     1      -1.405  20.026  -4.781  1.00  0.00     0.124 S 
ATOM     75  O   UNL     1      -1.871  18.727  -5.261  1.00  0.00    -0.237 OA
ATOM     76  O   UNL     1      -2.453  20.951  -4.357  1.00  0.00    -0.237 OA
ATOM     77  O   UNL     1      -0.325  20.627  -5.560  1.00  0.00    -0.744 OA
ENDBRANCH  73  74
ENDBRANCH  54  68
BRANCH  55  78
ATOM     78  C   UNL     1       4.882  16.238   7.842  1.00  0.00    -0.014 A 
ATOM     79  C   UNL     1       4.382  16.688   9.077  1.00  0.00     0.010 A 
ATOM     80  C   UNL     1       6.032  15.429   7.824  1.00  0.00     0.010 A 
ATOM     81  C   UNL     1       5.037  16.361  10.269  1.00  0.00     0.020 A 
ATOM     82  C   UNL     1       6.674  15.078   9.015  1.00  0.00     0.020 A 
ATOM     83  C   UNL     1       6.181  15.560  10.229  1.00  0.00     0.054 A 
BRANCH  83  84
ATOM     84  S   UNL     1       6.999  15.122  11.789  1.00  0.00     0.124 S 
ATOM     85  O   UNL     1       7.696  16.360  12.124  1.00  0.00    -0.237 OA
ATOM     86  O   UNL     1       5.873  14.775  12.652  1.00  0.00    -0.237 OA
ATOM     87  O   UNL     1       7.857  13.998  11.419  1.00  0.00    -0.744 OA
ENDBRANCH  83  84
ENDBRANCH  55  78
BRANCH  67  88
ATOM     88  C   UNL     1       4.211  22.293   4.457  1.00  0.00    -0.014 A 
ATOM     89  C   UNL     1       5.560  22.677   4.359  1.00  0.00     0.010 A 
ATOM     90  C   UNL     1       3.246  23.254   4.811  1.00  0.00     0.010 A 
ATOM     91  C   UNL     1       5.940  23.992   4.640  1.00  0.00     0.020 A 
ATOM     92  C   UNL     1       3.619  24.575   5.067  1.00  0.00     0.020 A 
ATOM     93  C   UNL     1       4.967  24.933   4.994  1.00  0.00     0.054 A 
BRANCH  93  94
ATOM     94  S   UNL     1       5.479  26.644   5.309  1.00  0.00     0.124 S 
ATOM     95  O   UNL     1       6.088  26.540   6.632  1.00  0.00    -0.237 OA
ATOM     96  O   UNL     1       6.404  26.912   4.211  1.00  0.00    -0.237 OA
ATOM     97  O   UNL     1       4.226  27.395   5.256  1.00  0.00    -0.744 OA
ENDBRANCH  93  94
ENDBRANCH  67  88
ENDBRANCH  41  42
ENDBRANCH  33  36
ENDBRANCH  31  32
ENDBRANCH  30  31
ENDBRANCH  29  30
ENDBRANCH   1  29
TORSDOF 20
