REMARK SMILES COC(=O)C[C@@H](NC(=O)c1ccccc1C(=O)NCCCCNC(=O)c1ccc(-c2c3nc(c(-c4ccc(S(=O)(=O)[O-])cc4)c4ccc([nH]4)c(-c4ccc(S(=O)(=O)[O-])cc4)c4nc(c(-c5ccc(S(=O)(=O)[O-])cc5)c5ccc2[nH]5)C=C4)C=C3)cc1)c1cccc(C)c1C
REMARK SMILES IDX 19 1 18 2 16 3 17 4 15 6 10 7 11 8 12 9 14 10 13 11 8 12
REMARK SMILES IDX 7 13 9 15 6 16 5 17 3 18 4 19 2 20 1 21 86 22 87 23 92 24
REMARK SMILES IDX 88 25 90 26 93 27 89 28 91 29 20 30 21 31 22 32 23 33 24 34
REMARK SMILES IDX 25 36 26 37 27 38 85 39 28 40 84 41 29 42 30 43 31 44 78 45
REMARK SMILES IDX 32 46 83 47 77 48 79 49 33 50 82 51 76 52 75 53 34 55 64 56
REMARK SMILES IDX 45 57 63 58 46 59 49 60 62 61 80 62 47 63 48 64 61 66 81 67
REMARK SMILES IDX 50 68 35 69 36 70 44 71 37 72 43 73 38 74 39 75 40 76 41 77
REMARK SMILES IDX 42 78 65 79 66 80 74 81 67 82 73 83 68 84 69 85 70 86 71 87
REMARK SMILES IDX 72 88 51 89 52 90 60 91 53 92 59 93 54 94 55 95 56 96 57 97
REMARK SMILES IDX 58 98
REMARK H PARENT 18 5 7 14 23 35 79 54 49 65
REMARK Flexibility Score: inf
ROOT
ATOM      1  C   UNL     1       1.399   3.654  -3.693  1.00  0.00     0.116 C 
ENDROOT
BRANCH   1   2
ATOM      2  N   UNL     1       2.111   4.793  -3.170  1.00  0.00    -0.352 N 
ATOM      3  C   UNL     1       1.626   6.019  -2.782  1.00  0.00     0.252 C 
ATOM      4  O   UNL     1       2.443   6.834  -2.345  1.00  0.00    -0.269 OA
ATOM      5  H   UNL     1       3.084   4.676  -3.077  1.00  0.00     0.163 HD
BRANCH   3   6
ATOM      6  C   UNL     1       0.202   6.444  -2.935  1.00  0.00     0.052 A 
ATOM      7  C   UNL     1      -0.957   5.676  -2.764  1.00  0.00     0.052 A 
ATOM      8  C   UNL     1      -2.217   6.242  -3.070  1.00  0.00     0.014 A 
ATOM      9  C   UNL     1      -2.350   7.581  -3.427  1.00  0.00     0.001 A 
ATOM     10  C   UNL     1       0.040   7.812  -3.269  1.00  0.00     0.014 A 
ATOM     11  C   UNL     1      -1.219   8.378  -3.497  1.00  0.00     0.001 A 
BRANCH   7  12
ATOM     12  C   UNL     1      -1.063   4.278  -2.295  1.00  0.00     0.252 C 
ATOM     13  N   UNL     1      -0.652   3.842  -1.062  1.00  0.00    -0.345 N 
ATOM     14  H   UNL     1      -0.937   2.924  -0.853  1.00  0.00     0.164 HD
ATOM     15  O   UNL     1      -1.631   3.469  -3.032  1.00  0.00    -0.269 OA
BRANCH  13  16
ATOM     16  C   UNL     1       0.129   4.472   0.009  1.00  0.00     0.124 C 
BRANCH  16  17
ATOM     17  C   UNL     1       0.131   3.664   1.311  1.00  0.00     0.152 C 
BRANCH  17  18
ATOM     18  C   UNL     1       0.713   2.288   1.128  1.00  0.00     0.307 C 
ATOM     19  O   UNL     1       1.871   1.994   1.363  1.00  0.00    -0.252 OA
BRANCH  18  20
ATOM     20  O   UNL     1      -0.257   1.440   0.679  1.00  0.00    -0.469 OA
ATOM     21  C   UNL     1       0.095   0.053   0.633  1.00  0.00     0.282 C 
ENDBRANCH  18  20
ENDBRANCH  17  18
ENDBRANCH  16  17
BRANCH  16  22
ATOM     22  C   UNL     1      -0.324   5.896   0.302  1.00  0.00    -0.022 A 
ATOM     23  C   UNL     1       0.693   6.868   0.385  1.00  0.00     0.006 A 
ATOM     24  C   UNL     1      -1.682   6.297   0.399  1.00  0.00    -0.043 A 
ATOM     25  C   UNL     1       0.389   8.221   0.442  1.00  0.00     0.001 A 
ATOM     26  C   UNL     1      -1.980   7.680   0.396  1.00  0.00    -0.048 A 
ATOM     27  C   UNL     1      -2.818   5.301   0.425  1.00  0.00     0.045 C 
ATOM     28  C   UNL     1      -0.939   8.624   0.420  1.00  0.00     0.004 A 
ATOM     29  C   UNL     1      -3.384   8.217   0.296  1.00  0.00     0.044 C 
ENDBRANCH  16  22
ENDBRANCH  13  16
ENDBRANCH   7  12
ENDBRANCH   3   6
ENDBRANCH   1   2
BRANCH   1  30
ATOM     30  C   UNL     1       2.211   2.682  -4.529  1.00  0.00     0.023 C 
BRANCH  30  31
ATOM     31  C   UNL     1       3.260   1.870  -3.773  1.00  0.00     0.023 C 
BRANCH  31  32
ATOM     32  C   UNL     1       2.805   1.177  -2.490  1.00  0.00     0.116 C 
BRANCH  32  33
ATOM     33  N   UNL     1       1.706   0.235  -2.672  1.00  0.00    -0.352 N 
ATOM     34  C   UNL     1       1.652  -1.119  -2.424  1.00  0.00     0.251 C 
ATOM     35  H   UNL     1       0.875   0.628  -3.026  1.00  0.00     0.163 HD
ATOM     36  O   UNL     1       0.635  -1.753  -2.693  1.00  0.00    -0.269 OA
BRANCH  34  37
ATOM     37  C   UNL     1       2.824  -1.821  -1.855  1.00  0.00     0.039 A 
ATOM     38  C   UNL     1       3.255  -3.009  -2.453  1.00  0.00     0.014 A 
ATOM     39  C   UNL     1       3.517  -1.295  -0.763  1.00  0.00     0.014 A 
ATOM     40  C   UNL     1       4.443  -3.605  -2.025  1.00  0.00     0.010 A 
ATOM     41  C   UNL     1       4.734  -1.845  -0.387  1.00  0.00     0.010 A 
ATOM     42  C   UNL     1       5.217  -2.994  -1.026  1.00  0.00    -0.014 A 
BRANCH  42  43
ATOM     43  C   UNL     1       6.571  -3.484  -0.680  1.00  0.00     0.031 A 
ATOM     44  C   UNL     1       6.862  -4.006   0.697  1.00  0.00     0.074 A 
ATOM     45  C   UNL     1       7.561  -3.337  -1.582  1.00  0.00     0.049 A 
ATOM     46  N   UNL     1       7.994  -4.434   1.192  1.00  0.00    -0.248 NA
ATOM     47  C   UNL     1       5.743  -4.017   1.653  1.00  0.00     0.031 C 
ATOM     48  C   UNL     1       7.406  -2.760  -2.921  1.00  0.00     0.029 A 
ATOM     49  N   UNL     1       8.896  -3.642  -1.507  1.00  0.00    -0.354 N 
ATOM     50  C   UNL     1       7.727  -4.758   2.517  1.00  0.00     0.074 A 
ATOM     51  C   UNL     1       6.343  -4.420   2.764  1.00  0.00     0.031 C 
ATOM     52  C   UNL     1       8.592  -2.776  -3.548  1.00  0.00     0.029 A 
ATOM     53  C   UNL     1       9.597  -3.329  -2.647  1.00  0.00     0.049 A 
ATOM     54  H   UNL     1       9.312  -4.046  -0.712  1.00  0.00     0.167 HD
ATOM     55  C   UNL     1       8.559  -5.304   3.436  1.00  0.00     0.031 A 
ATOM     56  C   UNL     1      10.905  -3.470  -2.935  1.00  0.00     0.031 A 
ATOM     57  C   UNL     1       9.940  -5.614   3.177  1.00  0.00     0.049 A 
ATOM     58  C   UNL     1      11.809  -4.085  -1.904  1.00  0.00     0.074 A 
ATOM     59  C   UNL     1      10.856  -6.232   4.009  1.00  0.00     0.029 A 
ATOM     60  N   UNL     1      10.610  -5.312   1.999  1.00  0.00    -0.354 N 
ATOM     61  N   UNL     1      11.516  -4.492  -0.691  1.00  0.00    -0.248 NA
ATOM     62  C   UNL     1      13.213  -4.280  -2.286  1.00  0.00     0.031 C 
ATOM     63  C   UNL     1      12.095  -6.246   3.359  1.00  0.00     0.029 A 
ATOM     64  C   UNL     1      11.936  -5.702   2.093  1.00  0.00     0.049 A 
ATOM     65  H   UNL     1      10.203  -4.884   1.211  1.00  0.00     0.167 HD
ATOM     66  C   UNL     1      12.694  -5.014  -0.172  1.00  0.00     0.074 A 
ATOM     67  C   UNL     1      13.698  -4.887  -1.210  1.00  0.00     0.031 C 
ATOM     68  C   UNL     1      12.924  -5.553   1.052  1.00  0.00     0.031 A 
BRANCH  55  69
ATOM     69  C   UNL     1       7.992  -5.585   4.806  1.00  0.00    -0.014 A 
ATOM     70  C   UNL     1       6.991  -6.558   4.995  1.00  0.00     0.010 A 
ATOM     71  C   UNL     1       8.475  -4.881   5.924  1.00  0.00     0.010 A 
ATOM     72  C   UNL     1       6.445  -6.779   6.262  1.00  0.00     0.020 A 
ATOM     73  C   UNL     1       7.955  -5.124   7.200  1.00  0.00     0.020 A 
ATOM     74  C   UNL     1       6.928  -6.056   7.356  1.00  0.00     0.054 A 
BRANCH  74  75
ATOM     75  S   UNL     1       6.201  -6.367   8.989  1.00  0.00     0.124 S 
ATOM     76  O   UNL     1       4.878  -5.763   8.850  1.00  0.00    -0.237 OA
ATOM     77  O   UNL     1       6.218  -7.825   9.075  1.00  0.00    -0.237 OA
ATOM     78  O   UNL     1       7.105  -5.680   9.909  1.00  0.00    -0.744 OA
ENDBRANCH  74  75
ENDBRANCH  55  69
BRANCH  56  79
ATOM     79  C   UNL     1      11.413  -3.055  -4.271  1.00  0.00    -0.014 A 
ATOM     80  C   UNL     1      11.786  -4.021  -5.223  1.00  0.00     0.010 A 
ATOM     81  C   UNL     1      11.472  -1.693  -4.621  1.00  0.00     0.010 A 
ATOM     82  C   UNL     1      12.213  -3.633  -6.497  1.00  0.00     0.020 A 
ATOM     83  C   UNL     1      11.871  -1.303  -5.903  1.00  0.00     0.020 A 
ATOM     84  C   UNL     1      12.245  -2.276  -6.831  1.00  0.00     0.054 A 
BRANCH  84  85
ATOM     85  S   UNL     1      12.728  -1.804  -8.515  1.00  0.00     0.124 S 
ATOM     86  O   UNL     1      14.158  -2.093  -8.515  1.00  0.00    -0.237 OA
ATOM     87  O   UNL     1      11.903  -2.686  -9.337  1.00  0.00    -0.237 OA
ATOM     88  O   UNL     1      12.375  -0.388  -8.589  1.00  0.00    -0.744 OA
ENDBRANCH  84  85
ENDBRANCH  56  79
BRANCH  68  89
ATOM     89  C   UNL     1      14.311  -6.070   1.327  1.00  0.00    -0.014 A 
ATOM     90  C   UNL     1      15.398  -5.194   1.493  1.00  0.00     0.010 A 
ATOM     91  C   UNL     1      14.518  -7.454   1.472  1.00  0.00     0.010 A 
ATOM     92  C   UNL     1      16.674  -5.696   1.765  1.00  0.00     0.020 A 
ATOM     93  C   UNL     1      15.784  -7.957   1.777  1.00  0.00     0.020 A 
ATOM     94  C   UNL     1      16.858  -7.075   1.907  1.00  0.00     0.054 A 
BRANCH  94  95
ATOM     95  S   UNL     1      18.514  -7.697   2.302  1.00  0.00     0.124 S 
ATOM     96  O   UNL     1      19.224  -7.494   1.042  1.00  0.00    -0.237 OA
ATOM     97  O   UNL     1      18.927  -6.830   3.403  1.00  0.00    -0.237 OA
ATOM     98  O   UNL     1      18.283  -9.092   2.668  1.00  0.00    -0.744 OA
ENDBRANCH  94  95
ENDBRANCH  68  89
ENDBRANCH  42  43
ENDBRANCH  34  37
ENDBRANCH  32  33
ENDBRANCH  31  32
ENDBRANCH  30  31
ENDBRANCH   1  30
TORSDOF 20
