REMARK SMILES CC1(C)[C@@H](C(=O)NCCCCNC(=O)c2ccc(-c3c4nc(c(-c5ccc(S(=O)(=O)[O-])cc5)c5ccc([nH]5)c(-c5ccc(S(=O)(=O)[O-])cc5)c5nc(c(-c6ccc(S(=O)(=O)[O-])cc6)c6ccc3[nH]6)C=C5)C=C4)cc2)CC[C@@]1(C)C(N)=O
REMARK SMILES IDX 10 1 9 2 8 3 7 4 5 5 6 6 4 8 1 9 2 10 3 11 77 12 75 13 76 14
REMARK SMILES IDX 78 15 79 16 80 17 81 18 11 21 12 22 13 23 14 25 15 26 16 27
REMARK SMILES IDX 74 28 17 29 73 30 18 31 19 32 20 33 67 34 21 35 72 36 66 37
REMARK SMILES IDX 68 38 22 39 71 40 65 41 64 42 23 44 53 45 34 46 52 47 35 48
REMARK SMILES IDX 38 49 51 50 69 51 36 52 37 53 50 55 70 56 39 57 24 58 25 59
REMARK SMILES IDX 33 60 26 61 32 62 27 63 28 64 29 65 30 66 31 67 54 68 55 69
REMARK SMILES IDX 63 70 56 71 62 72 57 73 58 74 59 75 60 76 61 77 40 78 41 79
REMARK SMILES IDX 49 80 42 81 48 82 43 83 44 84 45 85 46 86 47 87
REMARK H PARENT 7 7 80 19 80 20 12 24 68 43 38 54
REMARK Flexibility Score: inf
ROOT
ATOM      1  C   UNL     1      -4.820  -1.213   1.387  1.00  0.00     0.023 C 
ENDROOT
BRANCH   1   2
ATOM      2  C   UNL     1      -4.168  -0.979   0.020  1.00  0.00     0.023 C 
BRANCH   2   3
ATOM      3  C   UNL     1      -3.870   0.484  -0.306  1.00  0.00     0.116 C 
BRANCH   3   4
ATOM      4  N   UNL     1      -2.920   1.066   0.624  1.00  0.00    -0.356 N 
ATOM      5  C   UNL     1      -1.604   1.389   0.457  1.00  0.00     0.223 C 
ATOM      6  O   UNL     1      -1.021   1.932   1.393  1.00  0.00    -0.275 OA
ATOM      7  H   UNL     1      -3.282   1.259   1.519  1.00  0.00     0.163 HD
BRANCH   5   8
ATOM      8  C   UNL     1      -0.953   1.181  -0.909  1.00  0.00     0.085 C 
ATOM      9  C   UNL     1       0.912  -0.266   0.090  1.00  0.00     0.013 C 
ATOM     10  C   UNL     1       0.563   0.821  -0.942  1.00  0.00    -0.010 C 
ATOM     11  C   UNL     1       0.829   0.142  -2.322  1.00  0.00     0.013 C 
ATOM     12  C   UNL     1       1.315   2.220  -0.810  1.00  0.00     0.052 C 
ATOM     13  C   UNL     1      -1.015   2.507  -1.662  1.00  0.00     0.015 C 
ATOM     14  C   UNL     1       0.229   3.268  -1.209  1.00  0.00     0.018 C 
ATOM     15  C   UNL     1       2.541   2.367  -1.746  1.00  0.00     0.022 C 
BRANCH  12  16
ATOM     16  C   UNL     1       1.892   2.554   0.595  1.00  0.00     0.223 C 
ATOM     17  N   UNL     1       2.264   3.856   0.797  1.00  0.00    -0.369 N 
ATOM     18  O   UNL     1       2.192   1.736   1.457  1.00  0.00    -0.275 OA
ATOM     19  H   UNL     1       2.041   4.541   0.127  1.00  0.00     0.159 HD
ATOM     20  H   UNL     1       2.755   4.106   1.613  1.00  0.00     0.159 HD
ENDBRANCH  12  16
ENDBRANCH   5   8
ENDBRANCH   3   4
ENDBRANCH   2   3
ENDBRANCH   1   2
BRANCH   1  21
ATOM     21  C   UNL     1      -6.091  -0.412   1.658  1.00  0.00     0.116 C 
BRANCH  21  22
ATOM     22  N   UNL     1      -7.162  -0.700   0.717  1.00  0.00    -0.352 N 
ATOM     23  C   UNL     1      -8.504  -0.867   0.970  1.00  0.00     0.251 C 
ATOM     24  H   UNL     1      -6.891  -0.786  -0.226  1.00  0.00     0.163 HD
ATOM     25  O   UNL     1      -9.259  -1.224   0.071  1.00  0.00    -0.269 OA
BRANCH  23  26
ATOM     26  C   UNL     1      -9.022  -0.649   2.339  1.00  0.00     0.039 A 
ATOM     27  C   UNL     1      -9.842  -1.623   2.917  1.00  0.00     0.014 A 
ATOM     28  C   UNL     1      -8.677   0.498   3.059  1.00  0.00     0.014 A 
ATOM     29  C   UNL     1     -10.258  -1.479   4.243  1.00  0.00     0.010 A 
ATOM     30  C   UNL     1      -9.040   0.607   4.399  1.00  0.00     0.010 A 
ATOM     31  C   UNL     1      -9.831  -0.381   5.006  1.00  0.00    -0.014 A 
BRANCH  31  32
ATOM     32  C   UNL     1     -10.202  -0.232   6.438  1.00  0.00     0.031 A 
ATOM     33  C   UNL     1     -11.055   0.930   6.872  1.00  0.00     0.074 A 
ATOM     34  C   UNL     1      -9.717  -1.093   7.355  1.00  0.00     0.049 A 
ATOM     35  N   UNL     1     -11.383   1.308   8.081  1.00  0.00    -0.248 NA
ATOM     36  C   UNL     1     -11.591   1.793   5.806  1.00  0.00     0.031 C 
ATOM     37  C   UNL     1      -8.867  -2.252   7.070  1.00  0.00     0.029 A 
ATOM     38  N   UNL     1      -9.863  -1.120   8.721  1.00  0.00    -0.354 N 
ATOM     39  C   UNL     1     -12.149   2.457   7.923  1.00  0.00     0.074 A 
ATOM     40  C   UNL     1     -12.197   2.742   6.505  1.00  0.00     0.031 C 
ATOM     41  C   UNL     1      -8.585  -2.886   8.220  1.00  0.00     0.029 A 
ATOM     42  C   UNL     1      -9.193  -2.156   9.329  1.00  0.00     0.049 A 
ATOM     43  H   UNL     1     -10.397  -0.459   9.218  1.00  0.00     0.167 HD
ATOM     44  C   UNL     1     -12.776   3.196   8.868  1.00  0.00     0.031 A 
ATOM     45  C   UNL     1      -9.070  -2.475  10.632  1.00  0.00     0.031 A 
ATOM     46  C   UNL     1     -12.739   2.907  10.276  1.00  0.00     0.049 A 
ATOM     47  C   UNL     1      -9.747  -1.615  11.667  1.00  0.00     0.074 A 
ATOM     48  C   UNL     1     -13.356   3.588  11.312  1.00  0.00     0.029 A 
ATOM     49  N   UNL     1     -12.057   1.843  10.847  1.00  0.00    -0.354 N 
ATOM     50  N   UNL     1     -10.486  -0.545  11.494  1.00  0.00    -0.248 NA
ATOM     51  C   UNL     1      -9.580  -2.011  13.073  1.00  0.00     0.031 C 
ATOM     52  C   UNL     1     -13.019   2.955  12.513  1.00  0.00     0.029 A 
ATOM     53  C   UNL     1     -12.235   1.851  12.220  1.00  0.00     0.049 A 
ATOM     54  H   UNL     1     -11.525   1.181  10.350  1.00  0.00     0.167 HD
ATOM     55  C   UNL     1     -10.904  -0.167  12.766  1.00  0.00     0.074 A 
ATOM     56  C   UNL     1     -10.341  -1.122  13.696  1.00  0.00     0.031 C 
ATOM     57  C   UNL     1     -11.688   0.878  13.129  1.00  0.00     0.031 A 
BRANCH  44  58
ATOM     58  C   UNL     1     -13.567   4.391   8.404  1.00  0.00    -0.014 A 
ATOM     59  C   UNL     1     -14.777   4.224   7.707  1.00  0.00     0.010 A 
ATOM     60  C   UNL     1     -13.122   5.691   8.704  1.00  0.00     0.010 A 
ATOM     61  C   UNL     1     -15.509   5.336   7.285  1.00  0.00     0.020 A 
ATOM     62  C   UNL     1     -13.866   6.806   8.307  1.00  0.00     0.020 A 
ATOM     63  C   UNL     1     -15.047   6.621   7.586  1.00  0.00     0.054 A 
BRANCH  63  64
ATOM     64  S   UNL     1     -16.033   8.046   7.048  1.00  0.00     0.124 S 
ATOM     65  O   UNL     1     -15.776   8.062   5.610  1.00  0.00    -0.237 OA
ATOM     66  O   UNL     1     -17.388   7.665   7.439  1.00  0.00    -0.237 OA
ATOM     67  O   UNL     1     -15.463   9.164   7.795  1.00  0.00    -0.744 OA
ENDBRANCH  63  64
ENDBRANCH  44  58
BRANCH  45  68
ATOM     68  C   UNL     1      -8.283  -3.670  11.046  1.00  0.00    -0.014 A 
ATOM     69  C   UNL     1      -8.932  -4.795  11.586  1.00  0.00     0.010 A 
ATOM     70  C   UNL     1      -6.881  -3.681  10.929  1.00  0.00     0.010 A 
ATOM     71  C   UNL     1      -8.193  -5.893  12.036  1.00  0.00     0.020 A 
ATOM     72  C   UNL     1      -6.141  -4.790  11.351  1.00  0.00     0.020 A 
ATOM     73  C   UNL     1      -6.801  -5.881  11.920  1.00  0.00     0.054 A 
BRANCH  73  74
ATOM     74  S   UNL     1      -5.862  -7.323  12.496  1.00  0.00     0.124 S 
ATOM     75  O   UNL     1      -5.909  -7.155  13.945  1.00  0.00    -0.237 OA
ATOM     76  O   UNL     1      -6.636  -8.440  11.962  1.00  0.00    -0.237 OA
ATOM     77  O   UNL     1      -4.547  -7.139  11.885  1.00  0.00    -0.744 OA
ENDBRANCH  73  74
ENDBRANCH  45  68
BRANCH  57  78
ATOM     78  C   UNL     1     -12.043   1.010  14.586  1.00  0.00    -0.014 A 
ATOM     79  C   UNL     1     -11.104   1.457  15.531  1.00  0.00     0.010 A 
ATOM     80  C   UNL     1     -13.363   0.749  14.998  1.00  0.00     0.010 A 
ATOM     81  C   UNL     1     -11.474   1.618  16.869  1.00  0.00     0.020 A 
ATOM     82  C   UNL     1     -13.742   0.933  16.329  1.00  0.00     0.020 A 
ATOM     83  C   UNL     1     -12.792   1.357  17.259  1.00  0.00     0.054 A 
BRANCH  83  84
ATOM     84  S   UNL     1     -13.263   1.634  18.989  1.00  0.00     0.124 S 
ATOM     85  O   UNL     1     -12.652   0.489  19.658  1.00  0.00    -0.237 OA
ATOM     86  O   UNL     1     -12.658   2.931  19.284  1.00  0.00    -0.237 OA
ATOM     87  O   UNL     1     -14.724   1.629  18.955  1.00  0.00    -0.744 OA
ENDBRANCH  83  84
ENDBRANCH  57  78
ENDBRANCH  31  32
ENDBRANCH  23  26
ENDBRANCH  21  22
ENDBRANCH   1  21
TORSDOF 15
