REMARK SMILES Cc1ccc(C)c(N2C(=O)S[C@H](CC(=O)Nc3ccc(C(=O)NCCCCNC(=O)c4ccc(-c5c6nc(c(-c7ccc(S(=O)(=O)[O-])cc7)c7ccc([nH]7)c(-c7ccc(S(=O)(=O)[O-])cc7)c7nc(c(-c8ccc(S(=O)(=O)[O-])cc8)c8ccc5[nH]8)C=C7)C=C6)cc4)c(O)c3)C2=O)c1
REMARK SMILES IDX 25 1 24 2 23 3 21 4 22 5 20 7 17 8 18 9 93 10 19 11 91 12
REMARK SMILES IDX 16 13 14 14 15 15 13 17 12 18 8 19 9 20 94 21 10 22 11 23
REMARK SMILES IDX 95 24 7 25 1 26 2 27 3 28 96 29 4 30 5 31 6 32 92 33 26 35
REMARK SMILES IDX 27 36 28 37 29 38 30 40 31 41 32 42 90 43 33 44 89 45 34 46
REMARK SMILES IDX 35 47 36 48 83 49 37 50 88 51 82 52 84 53 38 54 87 55 81 56
REMARK SMILES IDX 80 57 39 59 69 60 50 61 68 62 51 63 54 64 67 65 85 66 52 67
REMARK SMILES IDX 53 68 66 70 86 71 55 72 40 73 41 74 49 75 42 76 48 77 43 78
REMARK SMILES IDX 44 79 45 80 46 81 47 82 70 83 71 84 79 85 72 86 78 87 73 88
REMARK SMILES IDX 74 89 75 90 76 91 77 92 56 93 57 94 65 95 58 96 64 97 59 98
REMARK SMILES IDX 60 99 61 100 62 101 63 102
REMARK H PARENT 23 6 16 16 92 34 28 39 84 58 54 69
REMARK Flexibility Score: inf
ROOT
ATOM      1  C   UNL     1       4.319   7.260  -2.116  1.00  0.00     0.023 C 
ENDROOT
BRANCH   1   2
ATOM      2  C   UNL     1       2.883   7.451  -2.600  1.00  0.00     0.116 C 
BRANCH   2   3
ATOM      3  N   UNL     1       2.259   6.366  -3.325  1.00  0.00    -0.352 N 
ATOM      4  C   UNL     1       0.922   6.031  -3.450  1.00  0.00     0.255 C 
ATOM      5  O   UNL     1       0.649   5.143  -4.258  1.00  0.00    -0.269 OA
ATOM      6  H   UNL     1       2.882   5.773  -3.804  1.00  0.00     0.163 HD
BRANCH   4   7
ATOM      7  C   UNL     1      -0.171   6.588  -2.587  1.00  0.00     0.081 A 
ATOM      8  C   UNL     1      -2.022   7.112  -0.520  1.00  0.00     0.044 A 
ATOM      9  C   UNL     1      -2.203   6.051  -1.393  1.00  0.00     0.027 A 
ATOM     10  C   UNL     1      -1.093   8.078  -0.873  1.00  0.00     0.073 A 
ATOM     11  C   UNL     1      -1.261   5.743  -2.370  1.00  0.00     0.020 A 
ATOM     12  C   UNL     1      -0.222   7.834  -1.950  1.00  0.00     0.130 A 
BRANCH   8  13
ATOM     13  N   UNL     1      -2.821   7.230   0.630  1.00  0.00    -0.326 N 
ATOM     14  C   UNL     1      -3.307   6.202   1.417  1.00  0.00     0.226 C 
ATOM     15  O   UNL     1      -4.267   6.393   2.166  1.00  0.00    -0.275 OA
ATOM     16  H   UNL     1      -3.061   8.144   0.905  1.00  0.00     0.169 HD
BRANCH  14  17
ATOM     17  C   UNL     1      -2.487   4.917   1.524  1.00  0.00     0.125 C 
BRANCH  17  18
ATOM     18  C   UNL     1      -3.243   3.600   1.346  1.00  0.00     0.156 C 
ATOM     19  N   UNL     1      -1.702   2.003   0.437  1.00  0.00    -0.240 N 
ATOM     20  C   UNL     1      -2.261   2.460  -0.722  1.00  0.00     0.293 C 
ATOM     21  C   UNL     1      -2.279   2.448   1.617  1.00  0.00     0.248 C 
ATOM     22  O   UNL     1      -1.840   2.350  -1.871  1.00  0.00    -0.261 OA
ATOM     23  S   UNL     1      -3.776   3.265  -0.355  1.00  0.00    -0.050 SA
ATOM     24  O   UNL     1      -2.058   2.024   2.746  1.00  0.00    -0.273 OA
BRANCH  19  25
ATOM     25  C   UNL     1      -0.858   0.869   0.391  1.00  0.00     0.056 A 
ATOM     26  C   UNL     1       2.867   0.053   0.079  1.00  0.00     0.044 C 
ATOM     27  C   UNL     1       1.375  -0.083   0.183  1.00  0.00    -0.049 A 
ATOM     28  C   UNL     1       0.806  -1.357   0.089  1.00  0.00     0.004 A 
ATOM     29  C   UNL     1       0.537   1.032   0.347  1.00  0.00     0.030 A 
ATOM     30  C   UNL     1      -0.577  -1.520   0.129  1.00  0.00     0.006 A 
ATOM     31  C   UNL     1      -1.427  -0.414   0.263  1.00  0.00    -0.027 A 
ATOM     32  C   UNL     1      -2.909  -0.669   0.225  1.00  0.00     0.046 C 
ENDBRANCH  19  25
ENDBRANCH  17  18
ENDBRANCH  14  17
ENDBRANCH   8  13
BRANCH  12  33
ATOM     33  O   UNL     1       0.489   8.918  -2.385  1.00  0.00    -0.507 OA
ATOM     34  H   UNL     1       1.089   8.829  -3.099  1.00  0.00     0.293 HD
ENDBRANCH  12  33
ENDBRANCH   4   7
ENDBRANCH   2   3
ENDBRANCH   1   2
BRANCH   1  35
ATOM     35  C   UNL     1       5.467   7.003  -3.096  1.00  0.00     0.023 C 
BRANCH  35  36
ATOM     36  C   UNL     1       5.480   7.759  -4.416  1.00  0.00     0.116 C 
BRANCH  36  37
ATOM     37  N   UNL     1       5.395   9.223  -4.313  1.00  0.00    -0.352 N 
ATOM     38  C   UNL     1       5.050  10.172  -5.276  1.00  0.00     0.251 C 
ATOM     39  H   UNL     1       5.617   9.591  -3.427  1.00  0.00     0.163 HD
ATOM     40  O   UNL     1       5.441  11.329  -5.153  1.00  0.00    -0.269 OA
BRANCH  38  41
ATOM     41  C   UNL     1       4.220   9.787  -6.444  1.00  0.00     0.039 A 
ATOM     42  C   UNL     1       4.142  10.502  -7.641  1.00  0.00     0.014 A 
ATOM     43  C   UNL     1       3.473   8.634  -6.324  1.00  0.00     0.014 A 
ATOM     44  C   UNL     1       3.323   9.994  -8.658  1.00  0.00     0.010 A 
ATOM     45  C   UNL     1       3.111   7.941  -7.431  1.00  0.00     0.010 A 
ATOM     46  C   UNL     1       2.802   8.693  -8.529  1.00  0.00    -0.014 A 
BRANCH  46  47
ATOM     47  C   UNL     1       2.009   8.011  -9.537  1.00  0.00     0.031 A 
ATOM     48  C   UNL     1       2.702   7.936 -10.827  1.00  0.00     0.074 A 
ATOM     49  C   UNL     1       0.879   7.300  -9.307  1.00  0.00     0.049 A 
ATOM     50  N   UNL     1       2.572   8.763 -11.805  1.00  0.00    -0.248 NA
ATOM     51  C   UNL     1       3.828   7.001 -10.959  1.00  0.00     0.031 C 
ATOM     52  C   UNL     1       0.234   6.969  -8.027  1.00  0.00     0.029 A 
ATOM     53  N   UNL     1       0.100   6.636 -10.207  1.00  0.00    -0.354 N 
ATOM     54  C   UNL     1       3.394   8.265 -12.799  1.00  0.00     0.074 A 
ATOM     55  C   UNL     1       4.320   7.376 -12.142  1.00  0.00     0.031 C 
ATOM     56  C   UNL     1      -0.715   6.022  -8.221  1.00  0.00     0.029 A 
ATOM     57  C   UNL     1      -0.867   5.803  -9.648  1.00  0.00     0.049 A 
ATOM     58  H   UNL     1       0.211   6.737 -11.180  1.00  0.00     0.167 HD
ATOM     59  C   UNL     1       3.029   8.366 -14.105  1.00  0.00     0.031 A 
ATOM     60  C   UNL     1      -1.733   5.003 -10.322  1.00  0.00     0.031 A 
ATOM     61  C   UNL     1       1.874   9.222 -14.263  1.00  0.00     0.049 A 
ATOM     62  C   UNL     1      -1.858   5.571 -11.685  1.00  0.00     0.074 A 
ATOM     63  C   UNL     1       1.584  10.541 -13.978  1.00  0.00     0.029 A 
ATOM     64  N   UNL     1       0.666   8.573 -14.387  1.00  0.00    -0.354 N 
ATOM     65  N   UNL     1      -2.395   6.733 -11.929  1.00  0.00    -0.248 NA
ATOM     66  C   UNL     1      -1.031   5.034 -12.753  1.00  0.00     0.031 C 
ATOM     67  C   UNL     1       0.220  10.547 -13.559  1.00  0.00     0.029 A 
ATOM     68  C   UNL     1      -0.286   9.249 -13.667  1.00  0.00     0.049 A 
ATOM     69  H   UNL     1       0.510   7.753 -14.909  1.00  0.00     0.167 HD
ATOM     70  C   UNL     1      -1.629   7.267 -12.953  1.00  0.00     0.074 A 
ATOM     71  C   UNL     1      -0.910   6.127 -13.513  1.00  0.00     0.031 C 
ATOM     72  C   UNL     1      -1.441   8.617 -13.053  1.00  0.00     0.031 A 
BRANCH  59  73
ATOM     73  C   UNL     1       3.404   7.345 -15.148  1.00  0.00    -0.014 A 
ATOM     74  C   UNL     1       3.043   7.594 -16.485  1.00  0.00     0.010 A 
ATOM     75  C   UNL     1       3.856   6.046 -14.836  1.00  0.00     0.010 A 
ATOM     76  C   UNL     1       3.079   6.577 -17.446  1.00  0.00     0.020 A 
ATOM     77  C   UNL     1       3.940   5.038 -15.794  1.00  0.00     0.020 A 
ATOM     78  C   UNL     1       3.520   5.303 -17.089  1.00  0.00     0.054 A 
BRANCH  78  79
ATOM     79  S   UNL     1       3.483   3.976 -18.315  1.00  0.00     0.124 S 
ATOM     80  O   UNL     1       2.050   3.810 -18.531  1.00  0.00    -0.237 OA
ATOM     81  O   UNL     1       4.230   4.563 -19.424  1.00  0.00    -0.237 OA
ATOM     82  O   UNL     1       4.151   2.867 -17.638  1.00  0.00    -0.744 OA
ENDBRANCH  78  79
ENDBRANCH  59  73
BRANCH  60  83
ATOM     83  C   UNL     1      -2.284   3.670  -9.972  1.00  0.00    -0.014 A 
ATOM     84  C   UNL     1      -3.338   3.109 -10.724  1.00  0.00     0.010 A 
ATOM     85  C   UNL     1      -1.564   2.812  -9.118  1.00  0.00     0.010 A 
ATOM     86  C   UNL     1      -3.593   1.727 -10.700  1.00  0.00     0.020 A 
ATOM     87  C   UNL     1      -1.818   1.433  -9.084  1.00  0.00     0.020 A 
ATOM     88  C   UNL     1      -2.809   0.892  -9.901  1.00  0.00     0.054 A 
BRANCH  88  89
ATOM     89  S   UNL     1      -2.994  -0.913 -10.050  1.00  0.00     0.124 S 
ATOM     90  O   UNL     1      -4.276  -1.152  -9.394  1.00  0.00    -0.237 OA
ATOM     91  O   UNL     1      -2.979  -1.117 -11.496  1.00  0.00    -0.237 OA
ATOM     92  O   UNL     1      -1.827  -1.439  -9.345  1.00  0.00    -0.744 OA
ENDBRANCH  88  89
ENDBRANCH  60  83
BRANCH  72  93
ATOM     93  C   UNL     1      -2.401   9.519 -12.306  1.00  0.00    -0.014 A 
ATOM     94  C   UNL     1      -2.569   9.521 -10.907  1.00  0.00     0.010 A 
ATOM     95  C   UNL     1      -3.098  10.479 -13.062  1.00  0.00     0.010 A 
ATOM     96  C   UNL     1      -3.436  10.438 -10.289  1.00  0.00     0.020 A 
ATOM     97  C   UNL     1      -3.945  11.407 -12.452  1.00  0.00     0.020 A 
ATOM     98  C   UNL     1      -4.120  11.376 -11.068  1.00  0.00     0.054 A 
BRANCH  98  99
ATOM     99  S   UNL     1      -5.213  12.583 -10.266  1.00  0.00     0.124 S 
ATOM    100  O   UNL     1      -6.319  11.751  -9.799  1.00  0.00    -0.237 OA
ATOM    101  O   UNL     1      -4.364  13.146  -9.219  1.00  0.00    -0.237 OA
ATOM    102  O   UNL     1      -5.553  13.514 -11.341  1.00  0.00    -0.744 OA
ENDBRANCH  98  99
ENDBRANCH  72  93
ENDBRANCH  46  47
ENDBRANCH  38  41
ENDBRANCH  36  37
ENDBRANCH  35  36
ENDBRANCH   1  35
TORSDOF 19
