REMARK SMILES O=C(NCCCCNC(=O)c1ccc(-c2c3nc(c(-c4ccc(S(=O)(=O)[O-])cc4)c4ccc([nH]4)c(-c4ccc(S(=O)(=O)[O-])cc4)c4nc(c(-c5ccc(S(=O)(=O)[O-])cc5)c5ccc2[nH]5)C=C4)C=C3)cc1)c1ccc(N[C@H]2OC[C@@H](O)[C@@H](O)[C@H]2O)cc1
REMARK SMILES IDX 5 1 4 2 3 3 1 4 2 5 71 7 72 8 86 9 73 10 85 11 74 12 75 13
REMARK SMILES IDX 76 15 77 16 83 17 78 18 81 19 79 20 84 21 82 23 80 25 6 27
REMARK SMILES IDX 7 28 8 29 9 30 10 32 11 33 12 34 70 35 13 36 69 37 14 38
REMARK SMILES IDX 15 39 16 40 63 41 17 42 68 43 62 44 64 45 18 46 67 47 61 48
REMARK SMILES IDX 60 49 19 51 49 52 30 53 48 54 31 55 34 56 47 57 65 58 32 59
REMARK SMILES IDX 33 60 46 62 66 63 35 64 20 65 21 66 29 67 22 68 28 69 23 70
REMARK SMILES IDX 24 71 25 72 26 73 27 74 50 75 51 76 59 77 52 78 58 79 53 80
REMARK SMILES IDX 54 81 55 82 56 83 57 84 36 85 37 86 45 87 38 88 44 89 39 90
REMARK SMILES IDX 40 91 41 92 42 93 43 94
REMARK H PARENT 3 6 75 14 84 22 82 24 80 26 8 31 64 50 34 61
REMARK Flexibility Score: inf
ROOT
ATOM      1  C   UNL     1       1.719  -9.152   4.569  1.00  0.00     0.023 C 
ENDROOT
BRANCH   1   2
ATOM      2  C   UNL     1       2.476  -8.158   5.442  1.00  0.00     0.116 C 
BRANCH   2   3
ATOM      3  N   UNL     1       3.239  -8.799   6.503  1.00  0.00    -0.352 N 
ATOM      4  O   UNL     1       5.112  -9.368   7.649  1.00  0.00    -0.269 OA
ATOM      5  C   UNL     1       4.578  -8.675   6.789  1.00  0.00     0.251 C 
ATOM      6  H   UNL     1       2.729  -9.399   7.094  1.00  0.00     0.163 HD
BRANCH   5   7
ATOM      7  C   UNL     1       5.385  -7.710   6.019  1.00  0.00     0.039 A 
ATOM      8  C   UNL     1       5.012  -6.369   5.964  1.00  0.00     0.016 A 
ATOM      9  C   UNL     1       6.498  -8.157   5.312  1.00  0.00     0.016 A 
ATOM     10  C   UNL     1       5.681  -5.504   5.099  1.00  0.00     0.026 A 
ATOM     11  C   UNL     1       7.176  -7.272   4.468  1.00  0.00     0.026 A 
ATOM     12  C   UNL     1       6.745  -5.945   4.301  1.00  0.00     0.036 A 
BRANCH  12  13
ATOM     13  N   UNL     1       7.412  -5.129   3.396  1.00  0.00    -0.358 N 
ATOM     14  H   UNL     1       8.317  -5.386   3.103  1.00  0.00     0.163 HD
BRANCH  13  15
ATOM     15  C   UNL     1       6.824  -3.906   2.863  1.00  0.00     0.244 C 
ATOM     16  O   UNL     1       6.674  -2.957   3.921  1.00  0.00    -0.353 OA
ATOM     17  C   UNL     1       7.790  -3.299   1.818  1.00  0.00     0.195 C 
ATOM     18  C   UNL     1       6.016  -1.758   3.497  1.00  0.00     0.197 C 
ATOM     19  C   UNL     1       7.191  -1.986   1.293  1.00  0.00     0.178 C 
ATOM     20  C   UNL     1       6.850  -1.027   2.445  1.00  0.00     0.171 C 
BRANCH  17  21
ATOM     21  O   UNL     1       9.069  -3.029   2.445  1.00  0.00    -0.386 OA
ATOM     22  H   UNL     1       8.945  -2.408   3.179  1.00  0.00     0.211 HD
ENDBRANCH  17  21
BRANCH  19  23
ATOM     23  O   UNL     1       8.103  -1.357   0.389  1.00  0.00    -0.387 OA
ATOM     24  H   UNL     1       8.926  -1.143   0.856  1.00  0.00     0.211 HD
ENDBRANCH  19  23
BRANCH  20  25
ATOM     25  O   UNL     1       8.059  -0.536   3.044  1.00  0.00    -0.388 OA
ATOM     26  H   UNL     1       8.572  -1.281   3.396  1.00  0.00     0.211 HD
ENDBRANCH  20  25
ENDBRANCH  13  15
ENDBRANCH  12  13
ENDBRANCH   5   7
ENDBRANCH   2   3
ENDBRANCH   1   2
BRANCH   1  27
ATOM     27  C   UNL     1       0.615  -9.936   5.275  1.00  0.00     0.023 C 
BRANCH  27  28
ATOM     28  C   UNL     1      -0.415  -9.098   6.026  1.00  0.00     0.116 C 
BRANCH  28  29
ATOM     29  N   UNL     1      -1.100  -8.130   5.179  1.00  0.00    -0.352 N 
ATOM     30  C   UNL     1      -2.448  -7.924   4.996  1.00  0.00     0.251 C 
ATOM     31  H   UNL     1      -0.511  -7.535   4.661  1.00  0.00     0.163 HD
ATOM     32  O   UNL     1      -2.835  -7.120   4.153  1.00  0.00    -0.269 OA
BRANCH  30  33
ATOM     33  C   UNL     1      -3.428  -8.703   5.785  1.00  0.00     0.039 A 
ATOM     34  C   UNL     1      -4.474  -9.343   5.114  1.00  0.00     0.014 A 
ATOM     35  C   UNL     1      -3.293  -8.838   7.169  1.00  0.00     0.014 A 
ATOM     36  C   UNL     1      -5.322 -10.203   5.817  1.00  0.00     0.010 A 
ATOM     37  C   UNL     1      -4.096  -9.745   7.855  1.00  0.00     0.010 A 
ATOM     38  C   UNL     1      -5.103 -10.453   7.181  1.00  0.00    -0.014 A 
BRANCH  38  39
ATOM     39  C   UNL     1      -5.865 -11.502   7.905  1.00  0.00     0.031 A 
ATOM     40  C   UNL     1      -6.767 -11.144   9.051  1.00  0.00     0.074 A 
ATOM     41  C   UNL     1      -5.661 -12.797   7.592  1.00  0.00     0.049 A 
ATOM     42  N   UNL     1      -7.434 -11.935   9.852  1.00  0.00    -0.248 NA
ATOM     43  C   UNL     1      -6.917  -9.712   9.351  1.00  0.00     0.031 C 
ATOM     44  C   UNL     1      -4.766 -13.283   6.538  1.00  0.00     0.029 A 
ATOM     45  N   UNL     1      -6.175 -13.944   8.145  1.00  0.00    -0.354 N 
ATOM     46  C   UNL     1      -8.070 -11.101  10.762  1.00  0.00     0.074 A 
ATOM     47  C   UNL     1      -7.676  -9.745  10.437  1.00  0.00     0.031 C 
ATOM     48  C   UNL     1      -4.800 -14.625   6.517  1.00  0.00     0.029 A 
ATOM     49  C   UNL     1      -5.687 -15.096   7.575  1.00  0.00     0.049 A 
ATOM     50  H   UNL     1      -6.831 -13.941   8.879  1.00  0.00     0.167 HD
ATOM     51  C   UNL     1      -8.916 -11.430  11.768  1.00  0.00     0.031 A 
ATOM     52  C   UNL     1      -5.910 -16.389   7.878  1.00  0.00     0.031 A 
ATOM     53  C   UNL     1      -9.307 -12.776  12.093  1.00  0.00     0.049 A 
ATOM     54  C   UNL     1      -6.845 -16.735   8.999  1.00  0.00     0.074 A 
ATOM     55  C   UNL     1     -10.213 -13.204  13.047  1.00  0.00     0.029 A 
ATOM     56  N   UNL     1      -8.804 -13.915  11.480  1.00  0.00    -0.354 N 
ATOM     57  N   UNL     1      -7.501 -15.928   9.798  1.00  0.00    -0.248 NA
ATOM     58  C   UNL     1      -7.073 -18.163   9.258  1.00  0.00     0.031 C 
ATOM     59  C   UNL     1     -10.224 -14.604  13.042  1.00  0.00     0.029 A 
ATOM     60  C   UNL     1      -9.357 -15.047  12.056  1.00  0.00     0.049 A 
ATOM     61  H   UNL     1      -8.150 -13.918  10.744  1.00  0.00     0.167 HD
ATOM     62  C   UNL     1      -8.224 -16.750  10.654  1.00  0.00     0.074 A 
ATOM     63  C   UNL     1      -7.940 -18.116  10.262  1.00  0.00     0.031 C 
ATOM     64  C   UNL     1      -9.047 -16.402  11.674  1.00  0.00     0.031 A 
BRANCH  51  65
ATOM     65  C   UNL     1      -9.460 -10.298  12.599  1.00  0.00    -0.014 A 
ATOM     66  C   UNL     1     -10.406  -9.402  12.069  1.00  0.00     0.010 A 
ATOM     67  C   UNL     1      -9.014 -10.123  13.921  1.00  0.00     0.010 A 
ATOM     68  C   UNL     1     -10.847  -8.312  12.823  1.00  0.00     0.020 A 
ATOM     69  C   UNL     1      -9.473  -9.048  14.688  1.00  0.00     0.020 A 
ATOM     70  C   UNL     1     -10.366  -8.134  14.124  1.00  0.00     0.054 A 
BRANCH  70  71
ATOM     71  S   UNL     1     -10.932  -6.698  15.076  1.00  0.00     0.124 S 
ATOM     72  O   UNL     1     -10.125  -5.623  14.503  1.00  0.00    -0.237 OA
ATOM     73  O   UNL     1     -12.359  -6.644  14.765  1.00  0.00    -0.237 OA
ATOM     74  O   UNL     1     -10.613  -7.051  16.456  1.00  0.00    -0.744 OA
ENDBRANCH  70  71
ENDBRANCH  51  65
BRANCH  52  75
ATOM     75  C   UNL     1      -5.223 -17.446   7.091  1.00  0.00    -0.014 A 
ATOM     76  C   UNL     1      -5.919 -18.163   6.103  1.00  0.00     0.010 A 
ATOM     77  C   UNL     1      -3.849 -17.686   7.276  1.00  0.00     0.010 A 
ATOM     78  C   UNL     1      -5.250 -19.095   5.305  1.00  0.00     0.020 A 
ATOM     79  C   UNL     1      -3.173 -18.603   6.466  1.00  0.00     0.020 A 
ATOM     80  C   UNL     1      -3.879 -19.303   5.486  1.00  0.00     0.054 A 
BRANCH  80  81
ATOM     81  S   UNL     1      -3.008 -20.435   4.366  1.00  0.00     0.124 S 
ATOM     82  O   UNL     1      -3.385 -21.740   4.900  1.00  0.00    -0.237 OA
ATOM     83  O   UNL     1      -3.577 -20.095   3.064  1.00  0.00    -0.237 OA
ATOM     84  O   UNL     1      -1.604 -20.067   4.536  1.00  0.00    -0.744 OA
ENDBRANCH  80  81
ENDBRANCH  52  75
BRANCH  64  85
ATOM     85  C   UNL     1      -9.695 -17.517  12.446  1.00  0.00    -0.014 A 
ATOM     86  C   UNL     1      -8.958 -18.268  13.380  1.00  0.00     0.010 A 
ATOM     87  C   UNL     1     -11.065 -17.784  12.277  1.00  0.00     0.010 A 
ATOM     88  C   UNL     1      -9.576 -19.281  14.116  1.00  0.00     0.020 A 
ATOM     89  C   UNL     1     -11.691 -18.784  13.027  1.00  0.00     0.020 A 
ATOM     90  C   UNL     1     -10.940 -19.534  13.934  1.00  0.00     0.054 A 
BRANCH  90  91
ATOM     91  S   UNL     1     -11.733 -20.820  14.938  1.00  0.00     0.124 S 
ATOM     92  O   UNL     1     -11.282 -22.041  14.278  1.00  0.00    -0.237 OA
ATOM     93  O   UNL     1     -11.177 -20.581  16.268  1.00  0.00    -0.237 OA
ATOM     94  O   UNL     1     -13.159 -20.529  14.806  1.00  0.00    -0.744 OA
ENDBRANCH  90  91
ENDBRANCH  64  85
ENDBRANCH  38  39
ENDBRANCH  30  33
ENDBRANCH  28  29
ENDBRANCH  27  28
ENDBRANCH   1  27
TORSDOF 19
