REMARK SMILES CC[C@@](C)(C(=O)NCCCCNC(=O)c1ccc(-c2c3nc(c(-c4ccc(S(=O)(=O)[O-])cc4)c4ccc([nH]4)c(-c4ccc(S(=O)(=O)[O-])cc4)c4nc(c(-c5ccc(S(=O)(=O)[O-])cc5)c5ccc2[nH]5)C=C4)C=C3)cc1)n1nnnc1Cc1cccs1
REMARK SMILES IDX 9 1 8 2 7 3 5 4 6 5 3 7 4 8 2 9 1 10 75 11 76 12 79 13 77 14
REMARK SMILES IDX 78 15 80 16 81 17 82 18 85 19 83 20 84 21 10 22 11 23 12 24
REMARK SMILES IDX 13 25 14 27 15 28 16 29 74 30 17 31 73 32 18 33 19 34 20 35
REMARK SMILES IDX 67 36 21 37 72 38 66 39 68 40 22 41 71 42 65 43 64 44 23 46
REMARK SMILES IDX 53 47 34 48 52 49 35 50 38 51 51 52 69 53 36 54 37 55 50 57
REMARK SMILES IDX 70 58 39 59 24 60 25 61 33 62 26 63 32 64 27 65 28 66 29 67
REMARK SMILES IDX 30 68 31 69 54 70 55 71 63 72 56 73 62 74 57 75 58 76 59 77
REMARK SMILES IDX 60 78 61 79 40 80 41 81 49 82 42 83 48 84 43 85 44 86 45 87
REMARK SMILES IDX 46 88 47 89
REMARK H PARENT 7 6 12 26 68 45 38 56
REMARK Flexibility Score: inf
ROOT
ATOM      1  C   UNL     1      -2.791   2.003  -2.054  1.00  0.00     0.023 C 
ENDROOT
BRANCH   1   2
ATOM      2  C   UNL     1      -1.948   0.896  -2.675  1.00  0.00     0.116 C 
BRANCH   2   3
ATOM      3  N   UNL     1      -0.787   1.397  -3.394  1.00  0.00    -0.354 N 
ATOM      4  C   UNL     1       0.538   1.043  -3.372  1.00  0.00     0.247 C 
ATOM      5  O   UNL     1       1.192   1.427  -4.346  1.00  0.00    -0.272 OA
ATOM      6  H   UNL     1      -0.991   2.132  -4.016  1.00  0.00     0.163 HD
BRANCH   4   7
ATOM      7  C   UNL     1       1.155   0.140  -2.258  1.00  0.00     0.142 C 
ATOM      8  C   UNL     1       0.544  -1.253  -2.486  1.00  0.00     0.048 C 
BRANCH   7   9
ATOM      9  C   UNL     1       0.821   0.728  -0.848  1.00  0.00     0.037 C 
ATOM     10  C   UNL     1       1.314  -0.093   0.339  1.00  0.00     0.007 C 
ENDBRANCH   7   9
BRANCH   7  11
ATOM     11  N   UNL     1       2.635   0.152  -2.394  1.00  0.00    -0.214 N 
ATOM     12  N   UNL     1       3.256   1.358  -2.290  1.00  0.00    -0.044 NA
ATOM     13  C   UNL     1       3.618  -0.827  -2.384  1.00  0.00     0.157 A 
ATOM     14  N   UNL     1       4.552   1.117  -2.294  1.00  0.00    -0.024 NA
ATOM     15  N   UNL     1       4.793  -0.219  -2.333  1.00  0.00    -0.113 NA
BRANCH  13  16
ATOM     16  C   UNL     1       3.496  -2.312  -2.349  1.00  0.00     0.125 C 
BRANCH  16  17
ATOM     17  C   UNL     1       3.801  -2.960  -3.672  1.00  0.00     0.012 A 
ATOM     18  C   UNL     1       5.032  -3.078  -4.292  1.00  0.00     0.016 A 
ATOM     19  S   UNL     1       2.570  -3.716  -4.593  1.00  0.00    -0.148 S 
ATOM     20  C   UNL     1       4.950  -3.752  -5.543  1.00  0.00     0.012 A 
ATOM     21  C   UNL     1       3.661  -4.134  -5.838  1.00  0.00     0.065 A 
ENDBRANCH  16  17
ENDBRANCH  13  16
ENDBRANCH   7  11
ENDBRANCH   4   7
ENDBRANCH   2   3
ENDBRANCH   1   2
BRANCH   1  22
ATOM     22  C   UNL     1      -3.576   2.854  -3.052  1.00  0.00     0.023 C 
BRANCH  22  23
ATOM     23  C   UNL     1      -4.463   2.081  -4.026  1.00  0.00     0.116 C 
BRANCH  23  24
ATOM     24  N   UNL     1      -5.414   1.195  -3.367  1.00  0.00    -0.352 N 
ATOM     25  C   UNL     1      -6.772   1.085  -3.558  1.00  0.00     0.251 C 
ATOM     26  H   UNL     1      -5.032   0.590  -2.690  1.00  0.00     0.163 HD
ATOM     27  O   UNL     1      -7.441   0.345  -2.842  1.00  0.00    -0.269 OA
BRANCH  25  28
ATOM     28  C   UNL     1      -7.420   1.900  -4.605  1.00  0.00     0.039 A 
ATOM     29  C   UNL     1      -8.480   2.737  -4.249  1.00  0.00     0.014 A 
ATOM     30  C   UNL     1      -6.924   1.897  -5.911  1.00  0.00     0.014 A 
ATOM     31  C   UNL     1      -8.973   3.655  -5.179  1.00  0.00     0.010 A 
ATOM     32  C   UNL     1      -7.375   2.853  -6.816  1.00  0.00     0.010 A 
ATOM     33  C   UNL     1      -8.382   3.760  -6.449  1.00  0.00    -0.014 A 
BRANCH  33  34
ATOM     34  C   UNL     1      -8.737   4.859  -7.383  1.00  0.00     0.031 A 
ATOM     35  C   UNL     1      -9.360   4.551  -8.715  1.00  0.00     0.074 A 
ATOM     36  C   UNL     1      -8.383   6.124  -7.075  1.00  0.00     0.049 A 
ATOM     37  N   UNL     1      -9.610   5.362  -9.710  1.00  0.00    -0.248 NA
ATOM     38  C   UNL     1      -9.725   3.149  -8.974  1.00  0.00     0.031 C 
ATOM     39  C   UNL     1      -7.722   6.545  -5.835  1.00  0.00     0.029 A 
ATOM     40  N   UNL     1      -8.501   7.288  -7.795  1.00  0.00    -0.354 N 
ATOM     41  C   UNL     1     -10.133   4.567 -10.723  1.00  0.00     0.074 A 
ATOM     42  C   UNL     1     -10.145   3.207 -10.231  1.00  0.00     0.031 C 
ATOM     43  C   UNL     1      -7.494   7.867  -5.883  1.00  0.00     0.029 A 
ATOM     44  C   UNL     1      -7.950   8.383  -7.169  1.00  0.00     0.049 A 
ATOM     45  H   UNL     1      -8.939   7.335  -8.675  1.00  0.00     0.167 HD
ATOM     46  C   UNL     1     -10.570   4.941 -11.948  1.00  0.00     0.031 A 
ATOM     47  C   UNL     1      -7.801   9.654  -7.590  1.00  0.00     0.031 A 
ATOM     48  C   UNL     1     -10.585   6.299 -12.423  1.00  0.00     0.049 A 
ATOM     49  C   UNL     1      -8.296  10.038  -8.957  1.00  0.00     0.074 A 
ATOM     50  C   UNL     1     -11.108   6.786 -13.609  1.00  0.00     0.029 A 
ATOM     51  N   UNL     1     -10.048   7.382 -11.747  1.00  0.00    -0.354 N 
ATOM     52  N   UNL     1      -8.881   9.289  -9.860  1.00  0.00    -0.248 NA
ATOM     53  C   UNL     1      -8.110  11.439  -9.363  1.00  0.00     0.031 C 
ATOM     54  C   UNL     1     -10.841   8.157 -13.673  1.00  0.00     0.029 A 
ATOM     55  C   UNL     1     -10.192   8.530 -12.507  1.00  0.00     0.049 A 
ATOM     56  H   UNL     1      -9.627   7.342 -10.858  1.00  0.00     0.167 HD
ATOM     57  C   UNL     1      -9.145  10.130 -10.934  1.00  0.00     0.074 A 
ATOM     58  C   UNL     1      -8.675  11.448 -10.562  1.00  0.00     0.031 C 
ATOM     59  C   UNL     1      -9.719   9.835 -12.125  1.00  0.00     0.031 A 
BRANCH  46  60
ATOM     60  C   UNL     1     -11.072   3.870 -12.876  1.00  0.00    -0.014 A 
ATOM     61  C   UNL     1     -12.328   3.272 -12.679  1.00  0.00     0.010 A 
ATOM     62  C   UNL     1     -10.316   3.525 -14.011  1.00  0.00     0.010 A 
ATOM     63  C   UNL     1     -12.813   2.333 -13.593  1.00  0.00     0.020 A 
ATOM     64  C   UNL     1     -10.806   2.601 -14.938  1.00  0.00     0.020 A 
ATOM     65  C   UNL     1     -12.049   2.005 -14.718  1.00  0.00     0.054 A 
BRANCH  65  66
ATOM     66  S   UNL     1     -12.731   0.829 -15.919  1.00  0.00     0.124 S 
ATOM     67  O   UNL     1     -12.584  -0.441 -15.212  1.00  0.00    -0.237 OA
ATOM     68  O   UNL     1     -14.104   1.299 -16.085  1.00  0.00    -0.237 OA
ATOM     69  O   UNL     1     -11.874   0.992 -17.090  1.00  0.00    -0.744 OA
ENDBRANCH  65  66
ENDBRANCH  46  60
BRANCH  47  70
ATOM     70  C   UNL     1      -7.124  10.656  -6.724  1.00  0.00    -0.014 A 
ATOM     71  C   UNL     1      -7.857  11.694  -6.124  1.00  0.00     0.010 A 
ATOM     72  C   UNL     1      -5.735  10.586  -6.513  1.00  0.00     0.010 A 
ATOM     73  C   UNL     1      -7.209  12.663  -5.352  1.00  0.00     0.020 A 
ATOM     74  C   UNL     1      -5.087  11.538  -5.720  1.00  0.00     0.020 A 
ATOM     75  C   UNL     1      -5.827  12.581  -5.159  1.00  0.00     0.054 A 
BRANCH  75  76
ATOM     76  S   UNL     1      -5.006  13.830  -4.130  1.00  0.00     0.124 S 
ATOM     77  O   UNL     1      -4.909  14.960  -5.049  1.00  0.00    -0.237 OA
ATOM     78  O   UNL     1      -5.941  13.994  -3.020  1.00  0.00    -0.237 OA
ATOM     79  O   UNL     1      -3.737  13.197  -3.776  1.00  0.00    -0.744 OA
ENDBRANCH  75  76
ENDBRANCH  47  70
BRANCH  59  80
ATOM     80  C   UNL     1      -9.887  10.957 -13.111  1.00  0.00    -0.014 A 
ATOM     81  C   UNL     1      -8.787  11.447 -13.836  1.00  0.00     0.010 A 
ATOM     82  C   UNL     1     -11.168  11.477 -13.366  1.00  0.00     0.010 A 
ATOM     83  C   UNL     1      -8.964  12.454 -14.789  1.00  0.00     0.020 A 
ATOM     84  C   UNL     1     -11.352  12.468 -14.333  1.00  0.00     0.020 A 
ATOM     85  C   UNL     1     -10.246  12.957 -15.033  1.00  0.00     0.054 A 
BRANCH  85  86
ATOM     86  S   UNL     1     -10.461  14.218 -16.318  1.00  0.00     0.124 S 
ATOM     87  O   UNL     1      -9.955  15.416 -15.655  1.00  0.00    -0.237 OA
ATOM     88  O   UNL     1      -9.636  13.708 -17.411  1.00  0.00    -0.237 OA
ATOM     89  O   UNL     1     -11.899  14.208 -16.576  1.00  0.00    -0.744 OA
ENDBRANCH  85  86
ENDBRANCH  59  80
ENDBRANCH  33  34
ENDBRANCH  25  28
ENDBRANCH  23  24
ENDBRANCH  22  23
ENDBRANCH   1  22
TORSDOF 18
