REMARK SMILES C/C(C(=O)NCCCCNC(=O)c1ccc(-c2c3nc(c(-c4ccc(S(=O)(=O)[O-])cc4)c4ccc([nH]4)c(-c4ccc(S(=O)(=O)[O-])cc4)c4nc(c(-c5ccc(S(=O)(=O)[O-])cc5)c5ccc2[nH]5)C=C4)C=C3)cc1)=C(\C)C(=O)N[C@H]1CCCC1(C)C
REMARK SMILES IDX 8 1 7 2 6 3 5 4 3 5 4 6 2 8 1 9 73 10 74 11 75 12 76 13
REMARK SMILES IDX 77 14 78 16 79 17 82 18 80 19 81 20 83 21 84 22 9 23 10 24
REMARK SMILES IDX 11 25 12 27 13 28 14 29 72 30 15 31 71 32 16 33 17 34 18 35
REMARK SMILES IDX 65 36 19 37 70 38 64 39 66 40 20 41 69 42 63 43 62 44 21 46
REMARK SMILES IDX 51 47 32 48 50 49 33 50 36 51 49 52 67 53 34 54 35 55 48 57
REMARK SMILES IDX 68 58 37 59 22 60 23 61 31 62 24 63 30 64 25 65 26 66 27 67
REMARK SMILES IDX 28 68 29 69 52 70 53 71 61 72 54 73 60 74 55 75 56 76 57 77
REMARK SMILES IDX 58 78 59 79 38 80 39 81 47 82 40 83 46 84 41 85 42 86 43 87
REMARK SMILES IDX 44 88 45 89
REMARK H PARENT 5 7 77 15 10 26 66 45 36 56
REMARK Flexibility Score: inf
ROOT
ATOM      1  C   UNL     1      -2.334   2.417  -2.553  1.00  0.00     0.023 C 
ENDROOT
BRANCH   1   2
ATOM      2  C   UNL     1      -1.166   1.543  -2.086  1.00  0.00     0.023 C 
BRANCH   2   3
ATOM      3  C   UNL     1      -0.210   2.254  -1.120  1.00  0.00     0.116 C 
BRANCH   3   4
ATOM      4  N   UNL     1      -0.752   2.201   0.231  1.00  0.00    -0.352 N 
ATOM      5  C   UNL     1      -0.582   1.299   1.250  1.00  0.00     0.247 C 
ATOM      6  O   UNL     1      -1.437   1.240   2.127  1.00  0.00    -0.270 OA
ATOM      7  H   UNL     1      -1.350   2.950   0.453  1.00  0.00     0.163 HD
BRANCH   5   8
ATOM      8  C   UNL     1       0.645   0.442   1.273  1.00  0.00     0.022 C 
ATOM      9  C   UNL     1       0.985  -0.334   0.031  1.00  0.00     0.051 C 
ATOM     10  C   UNL     1       1.384   0.244   2.393  1.00  0.00     0.022 C 
ATOM     11  C   UNL     1       2.812  -0.187   2.281  1.00  0.00     0.051 C 
BRANCH  10  12
ATOM     12  C   UNL     1       0.883   0.523   3.771  1.00  0.00     0.247 C 
ATOM     13  O   UNL     1       0.467   1.623   4.114  1.00  0.00    -0.270 OA
ATOM     14  N   UNL     1       0.823  -0.545   4.646  1.00  0.00    -0.349 N 
ATOM     15  H   UNL     1      -0.066  -0.760   5.012  1.00  0.00     0.164 HD
BRANCH  14  16
ATOM     16  C   UNL     1       1.937  -1.399   5.093  1.00  0.00     0.088 C 
ATOM     17  C   UNL     1       1.949  -1.481   6.644  1.00  0.00     0.025 C 
ATOM     18  C   UNL     1       1.964  -2.887   4.608  1.00  0.00    -0.015 C 
ATOM     19  C   UNL     1       2.148  -2.942   7.017  1.00  0.00     0.003 C 
ATOM     20  C   UNL     1       1.545  -3.698   5.850  1.00  0.00     0.008 C 
ATOM     21  C   UNL     1       1.031  -3.235   3.445  1.00  0.00     0.013 C 
ATOM     22  C   UNL     1       3.415  -3.287   4.231  1.00  0.00     0.013 C 
ENDBRANCH  14  16
ENDBRANCH  10  12
ENDBRANCH   5   8
ENDBRANCH   3   4
ENDBRANCH   2   3
ENDBRANCH   1   2
BRANCH   1  23
ATOM     23  C   UNL     1      -1.929   3.618  -3.400  1.00  0.00     0.116 C 
BRANCH  23  24
ATOM     24  N   UNL     1      -1.182   3.252  -4.595  1.00  0.00    -0.352 N 
ATOM     25  C   UNL     1      -1.159   3.900  -5.806  1.00  0.00     0.251 C 
ATOM     26  H   UNL     1      -0.625   2.443  -4.527  1.00  0.00     0.163 HD
ATOM     27  O   UNL     1      -0.565   3.414  -6.763  1.00  0.00    -0.269 OA
BRANCH  25  28
ATOM     28  C   UNL     1      -1.898   5.169  -5.943  1.00  0.00     0.039 A 
ATOM     29  C   UNL     1      -2.839   5.296  -6.966  1.00  0.00     0.014 A 
ATOM     30  C   UNL     1      -1.707   6.196  -5.016  1.00  0.00     0.014 A 
ATOM     31  C   UNL     1      -3.639   6.438  -7.021  1.00  0.00     0.010 A 
ATOM     32  C   UNL     1      -2.553   7.299  -5.031  1.00  0.00     0.010 A 
ATOM     33  C   UNL     1      -3.526   7.430  -6.033  1.00  0.00    -0.014 A 
BRANCH  33  34
ATOM     34  C   UNL     1      -4.418   8.615  -6.029  1.00  0.00     0.031 A 
ATOM     35  C   UNL     1      -3.841   9.990  -6.225  1.00  0.00     0.074 A 
ATOM     36  C   UNL     1      -5.734   8.458  -5.784  1.00  0.00     0.049 A 
ATOM     37  N   UNL     1      -4.446  11.149  -6.200  1.00  0.00    -0.248 NA
ATOM     38  C   UNL     1      -2.388  10.076  -6.450  1.00  0.00     0.031 C 
ATOM     39  C   UNL     1      -6.404   7.179  -5.531  1.00  0.00     0.029 A 
ATOM     40  N   UNL     1      -6.745   9.382  -5.699  1.00  0.00    -0.354 N 
ATOM     41  C   UNL     1      -3.450  12.099  -6.387  1.00  0.00     0.074 A 
ATOM     42  C   UNL     1      -2.195  11.386  -6.473  1.00  0.00     0.031 C 
ATOM     43  C   UNL     1      -7.716   7.398  -5.346  1.00  0.00     0.029 A 
ATOM     44  C   UNL     1      -7.976   8.831  -5.429  1.00  0.00     0.049 A 
ATOM     45  H   UNL     1      -6.603  10.348  -5.820  1.00  0.00     0.167 HD
ATOM     46  C   UNL     1      -3.571  13.443  -6.500  1.00  0.00     0.031 A 
ATOM     47  C   UNL     1      -9.179   9.415  -5.263  1.00  0.00     0.031 A 
ATOM     48  C   UNL     1      -4.824  14.145  -6.427  1.00  0.00     0.049 A 
ATOM     49  C   UNL     1      -9.289  10.910  -5.394  1.00  0.00     0.074 A 
ATOM     50  C   UNL     1      -5.063  15.498  -6.588  1.00  0.00     0.029 A 
ATOM     51  N   UNL     1      -6.051  13.549  -6.172  1.00  0.00    -0.354 N 
ATOM     52  N   UNL     1      -8.345  11.786  -5.644  1.00  0.00    -0.248 NA
ATOM     53  C   UNL     1     -10.627  11.493  -5.235  1.00  0.00     0.031 C 
ATOM     54  C   UNL     1      -6.426  15.728  -6.381  1.00  0.00     0.029 A 
ATOM     55  C   UNL     1      -7.047  14.510  -6.150  1.00  0.00     0.049 A 
ATOM     56  H   UNL     1      -6.192  12.586  -6.028  1.00  0.00     0.167 HD
ATOM     57  C   UNL     1      -8.980  13.021  -5.700  1.00  0.00     0.074 A 
ATOM     58  C   UNL     1     -10.390  12.777  -5.473  1.00  0.00     0.031 C 
ATOM     59  C   UNL     1      -8.446  14.248  -5.923  1.00  0.00     0.031 A 
BRANCH  46  60
ATOM     60  C   UNL     1      -2.311  14.240  -6.709  1.00  0.00    -0.014 A 
ATOM     61  C   UNL     1      -1.596  14.164  -7.919  1.00  0.00     0.010 A 
ATOM     62  C   UNL     1      -1.851  15.102  -5.697  1.00  0.00     0.010 A 
ATOM     63  C   UNL     1      -0.422  14.901  -8.096  1.00  0.00     0.020 A 
ATOM     64  C   UNL     1      -0.693  15.864  -5.882  1.00  0.00     0.020 A 
ATOM     65  C   UNL     1       0.023  15.744  -7.074  1.00  0.00     0.054 A 
BRANCH  65  66
ATOM     66  S   UNL     1       1.538  16.705  -7.340  1.00  0.00     0.124 S 
ATOM     67  O   UNL     1       2.569  15.675  -7.240  1.00  0.00    -0.237 OA
ATOM     68  O   UNL     1       1.335  17.260  -8.676  1.00  0.00    -0.237 OA
ATOM     69  O   UNL     1       1.526  17.681  -6.254  1.00  0.00    -0.744 OA
ENDBRANCH  65  66
ENDBRANCH  46  60
BRANCH  47  70
ATOM     70  C   UNL     1     -10.378   8.581  -4.976  1.00  0.00    -0.014 A 
ATOM     71  C   UNL     1     -11.378   8.412  -5.949  1.00  0.00     0.010 A 
ATOM     72  C   UNL     1     -10.519   7.939  -3.732  1.00  0.00     0.010 A 
ATOM     73  C   UNL     1     -12.507   7.632  -5.678  1.00  0.00     0.020 A 
ATOM     74  C   UNL     1     -11.633   7.137  -3.466  1.00  0.00     0.020 A 
ATOM     75  C   UNL     1     -12.626   6.998  -4.438  1.00  0.00     0.054 A 
BRANCH  75  76
ATOM     76  S   UNL     1     -14.075   5.951  -4.127  1.00  0.00     0.124 S 
ATOM     77  O   UNL     1     -15.132   6.942  -3.946  1.00  0.00    -0.237 OA
ATOM     78  O   UNL     1     -14.157   5.154  -5.348  1.00  0.00    -0.237 OA
ATOM     79  O   UNL     1     -13.705   5.204  -2.927  1.00  0.00    -0.744 OA
ENDBRANCH  75  76
ENDBRANCH  47  70
BRANCH  59  80
ATOM     80  C   UNL     1      -9.391  15.418  -5.970  1.00  0.00    -0.014 A 
ATOM     81  C   UNL     1      -9.994  15.917  -4.803  1.00  0.00     0.010 A 
ATOM     82  C   UNL     1      -9.629  16.065  -7.197  1.00  0.00     0.010 A 
ATOM     83  C   UNL     1     -10.842  17.026  -4.866  1.00  0.00     0.020 A 
ATOM     84  C   UNL     1     -10.454  17.190  -7.260  1.00  0.00     0.020 A 
ATOM     85  C   UNL     1     -11.066  17.655  -6.095  1.00  0.00     0.054 A 
BRANCH  85  86
ATOM     86  S   UNL     1     -12.133  19.122  -6.143  1.00  0.00     0.124 S 
ATOM     87  O   UNL     1     -13.461  18.537  -5.980  1.00  0.00    -0.237 OA
ATOM     88  O   UNL     1     -11.649  19.908  -5.011  1.00  0.00    -0.237 OA
ATOM     89  O   UNL     1     -11.865  19.702  -7.457  1.00  0.00    -0.744 OA
ENDBRANCH  85  86
ENDBRANCH  59  80
ENDBRANCH  33  34
ENDBRANCH  25  28
ENDBRANCH  23  24
ENDBRANCH   1  23
TORSDOF 16
