REMARK SMILES COc1ccc([C@@H]2Nc3c(C(=O)NCCCCNC(=O)c4ccc(-c5c6nc(c(-c7ccc(S(=O)(=O)[O-])cc7)c7ccc([nH]7)c(-c7ccc(S(=O)(=O)[O-])cc7)c7nc(c(-c8ccc(S(=O)(=O)[O-])cc8)c8ccc5[nH]8)C=C7)C=C6)cc4)cccc3[C@@H]3[C@H]4CC[C@H](C4)[C@H]32)cc1[N+](=O)[O-]
REMARK SMILES IDX 16 1 15 2 14 3 13 4 11 5 12 6 10 8 7 9 8 10 91 11 9 12 85 14
REMARK SMILES IDX 89 15 84 16 86 17 88 18 90 19 81 20 83 21 87 22 82 23 6 24
REMARK SMILES IDX 3 25 4 26 93 27 5 28 92 29 2 30 1 31 94 32 95 33 96 34 17 35
REMARK SMILES IDX 18 36 19 37 20 39 21 40 22 41 80 42 23 43 79 44 24 45 25 46
REMARK SMILES IDX 26 47 73 48 27 49 78 50 72 51 74 52 28 53 77 54 71 55 70 56
REMARK SMILES IDX 29 58 59 59 40 60 58 61 41 62 44 63 57 64 75 65 42 66 43 67
REMARK SMILES IDX 56 69 76 70 45 71 30 72 31 73 39 74 32 75 38 76 33 77 34 78
REMARK SMILES IDX 35 79 36 80 37 81 60 82 61 83 69 84 62 85 68 86 63 87 64 88
REMARK SMILES IDX 65 89 66 90 67 91 46 92 47 93 55 94 48 95 54 96 49 97 50 98
REMARK SMILES IDX 51 99 52 100 53 101
REMARK H PARENT 13 7 8 13 18 38 74 57 44 68
REMARK Flexibility Score: inf
ROOT
ATOM      1  C   UNL     1       0.200 -11.467   0.380  1.00  0.00     0.023 C 
ENDROOT
BRANCH   1   2
ATOM      2  C   UNL     1      -0.396 -10.124  -0.027  1.00  0.00     0.023 C 
BRANCH   2   3
ATOM      3  C   UNL     1      -0.214  -9.693  -1.476  1.00  0.00     0.116 C 
BRANCH   3   4
ATOM      4  N   UNL     1      -0.640 -10.650  -2.477  1.00  0.00    -0.352 N 
ATOM      5  C   UNL     1      -1.122 -10.424  -3.747  1.00  0.00     0.253 C 
ATOM      6  O   UNL     1      -1.298 -11.387  -4.492  1.00  0.00    -0.269 OA
ATOM      7  H   UNL     1      -0.575 -11.596  -2.212  1.00  0.00     0.163 HD
BRANCH   5   8
ATOM      8  C   UNL     1      -1.559  -9.074  -4.191  1.00  0.00     0.063 A 
ATOM      9  C   UNL     1       1.226  -6.565  -3.415  1.00  0.00     0.114 C 
ATOM     10  N   UNL     1       0.525  -7.840  -3.656  1.00  0.00    -0.377 N 
ATOM     11  C   UNL     1       0.609  -5.555  -4.373  1.00  0.00     0.027 C 
ATOM     12  C   UNL     1      -0.829  -7.880  -4.051  1.00  0.00     0.051 A 
ATOM     13  H   UNL     1       1.016  -8.685  -3.538  1.00  0.00     0.161 HD
ATOM     14  C   UNL     1      -0.838  -5.394  -3.881  1.00  0.00     0.030 C 
ATOM     15  C   UNL     1       1.047  -4.109  -4.614  1.00  0.00    -0.005 C 
ATOM     16  C   UNL     1      -1.531  -6.655  -4.303  1.00  0.00    -0.020 A 
ATOM     17  C   UNL     1      -1.170  -3.944  -4.293  1.00  0.00    -0.003 C 
ATOM     18  C   UNL     1       0.947  -3.235  -3.359  1.00  0.00     0.004 C 
ATOM     19  C   UNL     1      -0.183  -3.643  -5.423  1.00  0.00     0.008 C 
ATOM     20  C   UNL     1      -2.846  -9.045  -4.769  1.00  0.00     0.016 A 
ATOM     21  C   UNL     1      -2.821  -6.642  -4.839  1.00  0.00     0.006 A 
ATOM     22  C   UNL     1      -0.572  -3.036  -3.187  1.00  0.00     0.004 C 
ATOM     23  C   UNL     1      -3.461  -7.842  -5.114  1.00  0.00     0.001 A 
BRANCH   9  24
ATOM     24  C   UNL     1       2.728  -6.675  -3.567  1.00  0.00    -0.018 A 
ATOM     25  C   UNL     1       5.538  -6.556  -3.880  1.00  0.00     0.196 A 
ATOM     26  C   UNL     1       4.718  -6.987  -4.929  1.00  0.00     0.054 A 
ATOM     27  C   UNL     1       4.953  -6.184  -2.669  1.00  0.00     0.311 A 
ATOM     28  C   UNL     1       3.329  -7.054  -4.774  1.00  0.00     0.010 A 
ATOM     29  C   UNL     1       3.557  -6.264  -2.505  1.00  0.00     0.095 A 
BRANCH  25  30
ATOM     30  O   UNL     1       6.868  -6.431  -4.171  1.00  0.00    -0.490 OA
ATOM     31  C   UNL     1       7.627  -7.530  -3.664  1.00  0.00     0.278 C 
ENDBRANCH  25  30
BRANCH  27  32
ATOM     32  N   UNL     1       5.737  -5.630  -1.565  1.00  0.00     0.066 N 
ATOM     33  O   UNL     1       5.304  -5.815  -0.418  1.00  0.00    -0.258 OA
ATOM     34  O   UNL     1       6.747  -4.965  -1.831  1.00  0.00    -0.258 OA
ENDBRANCH  27  32
ENDBRANCH   9  24
ENDBRANCH   5   8
ENDBRANCH   3   4
ENDBRANCH   2   3
ENDBRANCH   1   2
BRANCH   1  35
ATOM     35  C   UNL     1       1.583 -11.803  -0.162  1.00  0.00     0.116 C 
BRANCH  35  36
ATOM     36  N   UNL     1       2.612 -10.832   0.176  1.00  0.00    -0.352 N 
ATOM     37  C   UNL     1       3.816 -11.010   0.816  1.00  0.00     0.251 C 
ATOM     38  H   UNL     1       2.416  -9.905  -0.094  1.00  0.00     0.163 HD
ATOM     39  O   UNL     1       4.538 -10.041   1.038  1.00  0.00    -0.269 OA
BRANCH  37  40
ATOM     40  C   UNL     1       4.218 -12.355   1.278  1.00  0.00     0.039 A 
ATOM     41  C   UNL     1       4.658 -12.511   2.595  1.00  0.00     0.014 A 
ATOM     42  C   UNL     1       4.117 -13.466   0.438  1.00  0.00     0.014 A 
ATOM     43  C   UNL     1       4.905 -13.792   3.094  1.00  0.00     0.010 A 
ATOM     44  C   UNL     1       4.269 -14.745   0.964  1.00  0.00     0.010 A 
ATOM     45  C   UNL     1       4.662 -14.925   2.299  1.00  0.00    -0.014 A 
BRANCH  45  46
ATOM     46  C   UNL     1       4.802 -16.298   2.851  1.00  0.00     0.031 A 
ATOM     47  C   UNL     1       5.798 -17.259   2.258  1.00  0.00     0.074 A 
ATOM     48  C   UNL     1       3.988 -16.704   3.848  1.00  0.00     0.049 A 
ATOM     49  N   UNL     1       6.039 -18.503   2.584  1.00  0.00    -0.248 NA
ATOM     50  C   UNL     1       6.610 -16.769   1.131  1.00  0.00     0.031 C 
ATOM     51  C   UNL     1       2.937 -15.893   4.470  1.00  0.00     0.029 A 
ATOM     52  N   UNL     1       3.914 -17.902   4.514  1.00  0.00    -0.354 N 
ATOM     53  C   UNL     1       7.012 -18.947   1.695  1.00  0.00     0.074 A 
ATOM     54  C   UNL     1       7.275 -17.859   0.780  1.00  0.00     0.031 C 
ATOM     55  C   UNL     1       2.354 -16.602   5.450  1.00  0.00     0.029 A 
ATOM     56  C   UNL     1       2.959 -17.928   5.504  1.00  0.00     0.049 A 
ATOM     57  H   UNL     1       4.492 -18.671   4.303  1.00  0.00     0.167 HD
ATOM     58  C   UNL     1       7.650 -20.141   1.659  1.00  0.00     0.031 A 
ATOM     59  C   UNL     1       2.611 -18.907   6.362  1.00  0.00     0.031 A 
ATOM     60  C   UNL     1       7.401 -21.217   2.582  1.00  0.00     0.049 A 
ATOM     61  C   UNL     1       3.348 -20.217   6.316  1.00  0.00     0.074 A 
ATOM     62  C   UNL     1       8.035 -22.444   2.664  1.00  0.00     0.029 A 
ATOM     63  N   UNL     1       6.444 -21.192   3.585  1.00  0.00    -0.354 N 
ATOM     64  N   UNL     1       4.314 -20.591   5.511  1.00  0.00    -0.248 NA
ATOM     65  C   UNL     1       2.961 -21.230   7.307  1.00  0.00     0.031 C 
ATOM     66  C   UNL     1       7.431 -23.180   3.689  1.00  0.00     0.029 A 
ATOM     67  C   UNL     1       6.461 -22.388   4.283  1.00  0.00     0.049 A 
ATOM     68  H   UNL     1       5.843 -20.436   3.774  1.00  0.00     0.167 HD
ATOM     69  C   UNL     1       4.672 -21.871   5.920  1.00  0.00     0.074 A 
ATOM     70  C   UNL     1       3.830 -22.199   7.053  1.00  0.00     0.031 C 
ATOM     71  C   UNL     1       5.616 -22.699   5.408  1.00  0.00     0.031 A 
BRANCH  58  72
ATOM     72  C   UNL     1       8.687 -20.342   0.584  1.00  0.00    -0.014 A 
ATOM     73  C   UNL     1       9.906 -19.640   0.612  1.00  0.00     0.010 A 
ATOM     74  C   UNL     1       8.458 -21.270  -0.448  1.00  0.00     0.010 A 
ATOM     75  C   UNL     1      10.856 -19.828  -0.394  1.00  0.00     0.020 A 
ATOM     76  C   UNL     1       9.419 -21.484  -1.440  1.00  0.00     0.020 A 
ATOM     77  C   UNL     1      10.605 -20.747  -1.416  1.00  0.00     0.054 A 
BRANCH  77  78
ATOM     78  S   UNL     1      11.868 -20.989  -2.696  1.00  0.00     0.124 S 
ATOM     79  O   UNL     1      11.745 -19.759  -3.475  1.00  0.00    -0.237 OA
ATOM     80  O   UNL     1      13.095 -21.117  -1.915  1.00  0.00    -0.237 OA
ATOM     81  O   UNL     1      11.439 -22.205  -3.382  1.00  0.00    -0.744 OA
ENDBRANCH  77  78
ENDBRANCH  58  72
BRANCH  59  82
ATOM     82  C   UNL     1       1.533 -18.673   7.364  1.00  0.00    -0.014 A 
ATOM     83  C   UNL     1       1.844 -18.552   8.731  1.00  0.00     0.010 A 
ATOM     84  C   UNL     1       0.191 -18.566   6.958  1.00  0.00     0.010 A 
ATOM     85  C   UNL     1       0.831 -18.354   9.674  1.00  0.00     0.020 A 
ATOM     86  C   UNL     1      -0.821 -18.339   7.895  1.00  0.00     0.020 A 
ATOM     87  C   UNL     1      -0.496 -18.248   9.250  1.00  0.00     0.054 A 
BRANCH  87  88
ATOM     88  S   UNL     1      -1.789 -17.945  10.486  1.00  0.00     0.124 S 
ATOM     89  O   UNL     1      -1.901 -19.249  11.133  1.00  0.00    -0.237 OA
ATOM     90  O   UNL     1      -1.206 -16.882  11.300  1.00  0.00    -0.237 OA
ATOM     91  O   UNL     1      -2.942 -17.543   9.682  1.00  0.00    -0.744 OA
ENDBRANCH  87  88
ENDBRANCH  59  82
BRANCH  71  92
ATOM     92  C   UNL     1       5.820 -24.023   6.096  1.00  0.00    -0.014 A 
ATOM     93  C   UNL     1       4.864 -25.050   6.009  1.00  0.00     0.010 A 
ATOM     94  C   UNL     1       7.006 -24.250   6.818  1.00  0.00     0.010 A 
ATOM     95  C   UNL     1       5.070 -26.264   6.670  1.00  0.00     0.020 A 
ATOM     96  C   UNL     1       7.230 -25.473   7.455  1.00  0.00     0.020 A 
ATOM     97  C   UNL     1       6.250 -26.466   7.393  1.00  0.00     0.054 A 
BRANCH  97  98
ATOM     98  S   UNL     1       6.505 -28.056   8.227  1.00  0.00     0.124 S 
ATOM     99  O   UNL     1       5.609 -27.942   9.375  1.00  0.00    -0.237 OA
ATOM    100  O   UNL     1       6.101 -29.022   7.208  1.00  0.00    -0.237 OA
ATOM    101  O   UNL     1       7.931 -28.055   8.546  1.00  0.00    -0.744 OA
ENDBRANCH  97  98
ENDBRANCH  71  92
ENDBRANCH  45  46
ENDBRANCH  37  40
ENDBRANCH  35  36
ENDBRANCH   1  35
TORSDOF 17
