REMARK SMILES COC[C@H]1CC[N@@H+]([C@H]2CCC[C@]([NH2+]C(C)C)(C(=O)NCCCCNC(=O)c3ccc(-c4c5nc(c(-c6ccc(S(=O)(=O)[O-])cc6)c6ccc([nH]6)c(-c6ccc(S(=O)(=O)[O-])cc6)c6nc(c(-c7ccc(S(=O)(=O)[O-])cc7)c7ccc4[nH]7)C=C6)C=C5)cc3)C2)C1
REMARK SMILES IDX 21 1 20 2 19 3 17 4 18 5 12 7 8 8 9 9 87 10 10 11 11 12 7 13
REMARK SMILES IDX 4 14 5 15 88 16 6 17 3 19 2 20 1 21 13 22 14 25 15 26 16 27
REMARK SMILES IDX 22 28 23 29 24 30 25 31 26 33 27 34 28 35 86 36 29 37 85 38
REMARK SMILES IDX 30 39 31 40 32 41 79 42 33 43 84 44 78 45 80 46 34 47 83 48
REMARK SMILES IDX 77 49 76 50 35 52 65 53 46 54 64 55 47 56 50 57 63 58 81 59
REMARK SMILES IDX 48 60 49 61 62 63 82 64 51 65 36 66 37 67 45 68 38 69 44 70
REMARK SMILES IDX 39 71 40 72 41 73 42 74 43 75 66 76 67 77 75 78 68 79 74 80
REMARK SMILES IDX 69 81 70 82 71 83 72 84 73 85 52 86 53 87 61 88 54 89 60 90
REMARK SMILES IDX 55 91 56 92 57 93 58 94 59 95
REMARK H PARENT 19 6 7 18 13 23 13 24 24 32 80 51 50 62
REMARK Flexibility Score: inf
ROOT
ATOM      1  C   UNL     1       0.323   6.694  -8.522  1.00  0.00     0.023 C 
ENDROOT
BRANCH   1   2
ATOM      2  C   UNL     1       0.961   5.303  -8.457  1.00  0.00     0.116 C 
BRANCH   2   3
ATOM      3  N   UNL     1       2.204   5.146  -7.674  1.00  0.00    -0.351 N 
ATOM      4  C   UNL     1       2.446   4.389  -6.502  1.00  0.00     0.281 C 
ATOM      5  O   UNL     1       3.604   4.181  -6.144  1.00  0.00    -0.268 OA
ATOM      6  H   UNL     1       2.981   5.643  -8.019  1.00  0.00     0.163 HD
BRANCH   4   7
ATOM      7  C   UNL     1       1.145   3.904  -5.679  1.00  0.00     0.181 C 
ATOM      8  C   UNL     1       0.370   2.132  -3.709  1.00  0.00     0.190 C 
ATOM      9  C   UNL     1       0.239   1.071  -4.805  1.00  0.00     0.065 C 
ATOM     10  C   UNL     1       1.347   3.296  -4.237  1.00  0.00     0.144 C 
ATOM     11  C   UNL     1      -0.251   1.664  -6.100  1.00  0.00     0.013 C 
ATOM     12  C   UNL     1       0.716   2.711  -6.609  1.00  0.00     0.079 C 
BRANCH   8  13
ATOM     13  N   UNL     1      -0.864   2.320  -2.886  1.00  0.00    -0.332 N 
ATOM     14  C   UNL     1      -3.292   2.312  -3.304  1.00  0.00     0.076 C 
ATOM     15  C   UNL     1      -2.801   0.906  -2.980  1.00  0.00     0.073 C 
ATOM     16  C   UNL     1      -2.009   3.147  -3.242  1.00  0.00     0.268 C 
ATOM     17  C   UNL     1      -1.448   1.108  -2.297  1.00  0.00     0.263 C 
ATOM     18  H   UNL     1      -0.307   2.917  -2.274  1.00  0.00     0.348 HD
BRANCH  14  19
ATOM     19  C   UNL     1      -4.083   2.357  -4.631  1.00  0.00     0.169 C 
BRANCH  19  20
ATOM     20  O   UNL     1      -4.121   3.610  -5.300  1.00  0.00    -0.384 OA
ATOM     21  C   UNL     1      -5.018   4.579  -4.785  1.00  0.00     0.194 C 
ENDBRANCH  19  20
ENDBRANCH  14  19
ENDBRANCH   8  13
BRANCH   7  22
ATOM     22  N   UNL     1       0.581   5.246  -5.484  1.00  0.00    -0.331 N 
ATOM     23  H   UNL     1       0.573   5.663  -6.415  1.00  0.00     0.347 HD
ATOM     24  H   UNL     1       1.180   5.564  -4.723  1.00  0.00     0.347 HD
BRANCH  22  25
ATOM     25  C   UNL     1      -0.681   5.575  -4.928  1.00  0.00     0.176 C 
ATOM     26  C   UNL     1      -0.796   7.066  -4.607  1.00  0.00     0.075 C 
ATOM     27  C   UNL     1      -1.753   5.209  -5.931  1.00  0.00     0.075 C 
ENDBRANCH  22  25
ENDBRANCH   7  22
ENDBRANCH   4   7
ENDBRANCH   2   3
ENDBRANCH   1   2
BRANCH   1  28
ATOM     28  C   UNL     1       0.894   7.670  -9.528  1.00  0.00     0.023 C 
BRANCH  28  29
ATOM     29  C   UNL     1       0.998   7.146 -10.949  1.00  0.00     0.116 C 
BRANCH  29  30
ATOM     30  N   UNL     1      -0.264   6.694 -11.526  1.00  0.00    -0.352 N 
ATOM     31  C   UNL     1      -0.705   6.854 -12.822  1.00  0.00     0.251 C 
ATOM     32  H   UNL     1      -0.873   6.218 -10.917  1.00  0.00     0.163 HD
ATOM     33  O   UNL     1      -1.825   6.473 -13.153  1.00  0.00    -0.269 OA
BRANCH  31  34
ATOM     34  C   UNL     1       0.172   7.541 -13.795  1.00  0.00     0.039 A 
ATOM     35  C   UNL     1      -0.340   8.611 -14.530  1.00  0.00     0.014 A 
ATOM     36  C   UNL     1       1.522   7.194 -13.897  1.00  0.00     0.014 A 
ATOM     37  C   UNL     1       0.526   9.393 -15.297  1.00  0.00     0.010 A 
ATOM     38  C   UNL     1       2.396   8.030 -14.581  1.00  0.00     0.010 A 
ATOM     39  C   UNL     1       1.909   9.141 -15.286  1.00  0.00    -0.014 A 
BRANCH  39  40
ATOM     40  C   UNL     1       2.862  10.038 -15.988  1.00  0.00     0.031 A 
ATOM     41  C   UNL     1       3.714   9.507 -17.108  1.00  0.00     0.074 A 
ATOM     42  C   UNL     1       3.009  11.312 -15.572  1.00  0.00     0.049 A 
ATOM     43  N   UNL     1       4.624  10.127 -17.815  1.00  0.00    -0.248 NA
ATOM     44  C   UNL     1       3.542   8.088 -17.463  1.00  0.00     0.031 C 
ATOM     45  C   UNL     1       2.286  11.931 -14.457  1.00  0.00     0.029 A 
ATOM     46  N   UNL     1       3.819  12.318 -16.037  1.00  0.00    -0.354 N 
ATOM     47  C   UNL     1       5.141   9.174 -18.684  1.00  0.00     0.074 A 
ATOM     48  C   UNL     1       4.485   7.921 -18.378  1.00  0.00     0.031 C 
ATOM     49  C   UNL     1       2.658  13.218 -14.350  1.00  0.00     0.029 A 
ATOM     50  C   UNL     1       3.671  13.506 -15.360  1.00  0.00     0.049 A 
ATOM     51  H   UNL     1       4.448  12.200 -16.785  1.00  0.00     0.167 HD
ATOM     52  C   UNL     1       6.059   9.330 -19.667  1.00  0.00     0.031 A 
ATOM     53  C   UNL     1       4.280  14.696 -15.532  1.00  0.00     0.031 A 
ATOM     54  C   UNL     1       6.701  10.579 -19.979  1.00  0.00     0.049 A 
ATOM     55  C   UNL     1       5.295  14.846 -16.632  1.00  0.00     0.074 A 
ATOM     56  C   UNL     1       7.599  10.854 -20.994  1.00  0.00     0.029 A 
ATOM     57  N   UNL     1       6.514  11.761 -19.277  1.00  0.00    -0.354 N 
ATOM     58  N   UNL     1       5.713  13.950 -17.494  1.00  0.00    -0.248 NA
ATOM     59  C   UNL     1       5.910  16.171 -16.789  1.00  0.00     0.031 C 
ATOM     60  C   UNL     1       7.994  12.191 -20.877  1.00  0.00     0.029 A 
ATOM     61  C   UNL     1       7.298  12.763 -19.823  1.00  0.00     0.049 A 
ATOM     62  H   UNL     1       5.913  11.871 -18.506  1.00  0.00     0.167 HD
ATOM     63  C   UNL     1       6.624  14.610 -18.312  1.00  0.00     0.074 A 
ATOM     64  C   UNL     1       6.681  15.983 -17.852  1.00  0.00     0.031 C 
ATOM     65  C   UNL     1       7.349  14.123 -19.349  1.00  0.00     0.031 A 
BRANCH  52  66
ATOM     66  C   UNL     1       6.421   8.113 -20.477  1.00  0.00    -0.014 A 
ATOM     67  C   UNL     1       5.501   7.539 -21.374  1.00  0.00     0.010 A 
ATOM     68  C   UNL     1       7.707   7.554 -20.366  1.00  0.00     0.010 A 
ATOM     69  C   UNL     1       5.845   6.404 -22.111  1.00  0.00     0.020 A 
ATOM     70  C   UNL     1       8.065   6.435 -21.125  1.00  0.00     0.020 A 
ATOM     71  C   UNL     1       7.124   5.856 -21.979  1.00  0.00     0.054 A 
BRANCH  71  72
ATOM     72  S   UNL     1       7.549   4.394 -22.965  1.00  0.00     0.124 S 
ATOM     73  O   UNL     1       6.796   3.344 -22.284  1.00  0.00    -0.237 OA
ATOM     74  O   UNL     1       7.064   4.752 -24.295  1.00  0.00    -0.237 OA
ATOM     75  O   UNL     1       9.001   4.301 -22.839  1.00  0.00    -0.744 OA
ENDBRANCH  71  72
ENDBRANCH  52  66
BRANCH  53  76
ATOM     76  C   UNL     1       3.927  15.847 -14.656  1.00  0.00    -0.014 A 
ATOM     77  C   UNL     1       3.196  16.933 -15.167  1.00  0.00     0.010 A 
ATOM     78  C   UNL     1       4.308  15.857 -13.302  1.00  0.00     0.010 A 
ATOM     79  C   UNL     1       2.868  18.017 -14.347  1.00  0.00     0.020 A 
ATOM     80  C   UNL     1       3.958  16.925 -12.471  1.00  0.00     0.020 A 
ATOM     81  C   UNL     1       3.249  18.004 -13.002  1.00  0.00     0.054 A 
BRANCH  81  82
ATOM     82  S   UNL     1       2.765  19.395 -11.942  1.00  0.00     0.124 S 
ATOM     83  O   UNL     1       3.676  20.446 -12.385  1.00  0.00    -0.237 OA
ATOM     84  O   UNL     1       1.360  19.586 -12.293  1.00  0.00    -0.237 OA
ATOM     85  O   UNL     1       2.998  18.891 -10.590  1.00  0.00    -0.744 OA
ENDBRANCH  81  82
ENDBRANCH  53  76
BRANCH  65  86
ATOM     86  C   UNL     1       8.247  15.087 -20.076  1.00  0.00    -0.014 A 
ATOM     87  C   UNL     1       9.430  15.566 -19.486  1.00  0.00     0.010 A 
ATOM     88  C   UNL     1       7.924  15.484 -21.387  1.00  0.00     0.010 A 
ATOM     89  C   UNL     1      10.256  16.454 -20.180  1.00  0.00     0.020 A 
ATOM     90  C   UNL     1       8.762  16.349 -22.095  1.00  0.00     0.020 A 
ATOM     91  C   UNL     1       9.915  16.842 -21.480  1.00  0.00     0.054 A 
BRANCH  91  92
ATOM     92  S   UNL     1      11.020  17.968 -22.374  1.00  0.00     0.124 S 
ATOM     93  O   UNL     1      10.743  19.245 -21.722  1.00  0.00    -0.237 OA
ATOM     94  O   UNL     1      12.340  17.401 -22.109  1.00  0.00    -0.237 OA
ATOM     95  O   UNL     1      10.572  17.866 -23.761  1.00  0.00    -0.744 OA
ENDBRANCH  91  92
ENDBRANCH  65  86
ENDBRANCH  39  40
ENDBRANCH  31  34
ENDBRANCH  29  30
ENDBRANCH  28  29
ENDBRANCH   1  28
TORSDOF 19
