REMARK SMILES COCCS(=O)(=O)CCn1cc(C(=O)NCCCCNC(=O)c2ccc(-c3c4nc(c(-c5ccc(S(=O)(=O)[O-])cc5)c5ccc([nH]5)c(-c5ccc(S(=O)(=O)[O-])cc5)c5nc(c(-c6ccc(S(=O)(=O)[O-])cc6)c6ccc3[nH]6)C=C5)C=C4)cc2)nn1
REMARK SMILES IDX 16 1 15 2 13 3 14 4 12 6 10 7 11 8 84 9 83 10 9 11 8 12 5 13
REMARK SMILES IDX 6 14 7 15 4 16 3 17 2 18 1 19 17 20 18 21 19 22 20 23 21 24
REMARK SMILES IDX 22 26 23 27 24 28 82 29 25 30 81 31 26 32 27 33 28 34 75 35
REMARK SMILES IDX 29 36 80 37 74 38 76 39 30 40 79 41 73 42 72 43 31 45 61 46
REMARK SMILES IDX 42 47 60 48 43 49 46 50 59 51 77 52 44 53 45 54 58 56 78 57
REMARK SMILES IDX 47 58 32 59 33 60 41 61 34 62 40 63 35 64 36 65 37 66 38 67
REMARK SMILES IDX 39 68 62 69 63 70 71 71 64 72 70 73 65 74 66 75 67 76 68 77
REMARK SMILES IDX 69 78 48 79 49 80 57 81 50 82 56 83 51 84 52 85 53 86 54 87
REMARK SMILES IDX 55 88
REMARK H PARENT 15 5 20 25 76 44 46 55
REMARK Flexibility Score: inf
ROOT
ATOM      1  C   UNL     1      -0.202  -4.580  -2.335  1.00  0.00     0.116 C 
ENDROOT
BRANCH   1   2
ATOM      2  N   UNL     1      -1.042  -4.872  -1.181  1.00  0.00    -0.351 N 
ATOM      3  C   UNL     1      -1.763  -4.080  -0.304  1.00  0.00     0.273 C 
ATOM      4  O   UNL     1      -2.271  -4.656   0.659  1.00  0.00    -0.267 OA
ATOM      5  H   UNL     1      -1.112  -5.833  -0.984  1.00  0.00     0.163 HD
BRANCH   3   6
ATOM      6  C   UNL     1      -1.850  -2.629  -0.454  1.00  0.00     0.170 A 
ATOM      7  N   UNL     1      -1.690  -0.566  -1.091  1.00  0.00    -0.251 N 
ATOM      8  C   UNL     1      -1.891  -1.824  -1.579  1.00  0.00     0.145 A 
ATOM      9  N   UNL     1      -1.760  -0.538   0.243  1.00  0.00    -0.067 NA
ATOM     10  N   UNL     1      -1.861  -1.796   0.652  1.00  0.00    -0.125 NA
BRANCH   7  11
ATOM     11  C   UNL     1      -1.286   0.613  -1.814  1.00  0.00     0.162 C 
BRANCH  11  12
ATOM     12  C   UNL     1       0.164   1.033  -1.627  1.00  0.00     0.160 C 
BRANCH  12  13
ATOM     13  S   UNL     1       1.419  -0.118  -2.131  1.00  0.00     0.154 S 
ATOM     14  O   UNL     1       2.696   0.560  -1.993  1.00  0.00    -0.229 OA
ATOM     15  O   UNL     1       1.003  -0.595  -3.441  1.00  0.00    -0.229 OA
BRANCH  13  16
ATOM     16  C   UNL     1       1.496  -1.547  -1.105  1.00  0.00     0.165 C 
BRANCH  16  17
ATOM     17  C   UNL     1       2.148  -1.512   0.253  1.00  0.00     0.176 C 
BRANCH  17  18
ATOM     18  O   UNL     1       1.295  -1.074   1.294  1.00  0.00    -0.384 OA
ATOM     19  C   UNL     1       1.376   0.306   1.584  1.00  0.00     0.194 C 
ENDBRANCH  17  18
ENDBRANCH  16  17
ENDBRANCH  13  16
ENDBRANCH  12  13
ENDBRANCH  11  12
ENDBRANCH   7  11
ENDBRANCH   3   6
ENDBRANCH   1   2
BRANCH   1  20
ATOM     20  C   UNL     1       1.302  -4.624  -2.022  1.00  0.00     0.023 C 
BRANCH  20  21
ATOM     21  C   UNL     1       2.038  -5.965  -2.047  1.00  0.00     0.023 C 
BRANCH  21  22
ATOM     22  C   UNL     1       2.162  -6.601  -3.423  1.00  0.00     0.116 C 
BRANCH  22  23
ATOM     23  N   UNL     1       2.941  -5.818  -4.395  1.00  0.00    -0.352 N 
ATOM     24  C   UNL     1       3.040  -6.052  -5.769  1.00  0.00     0.251 C 
ATOM     25  H   UNL     1       3.445  -5.051  -4.041  1.00  0.00     0.163 HD
ATOM     26  O   UNL     1       3.954  -5.625  -6.439  1.00  0.00    -0.269 OA
BRANCH  24  27
ATOM     27  C   UNL     1       1.932  -6.812  -6.374  1.00  0.00     0.039 A 
ATOM     28  C   UNL     1       2.116  -7.987  -7.109  1.00  0.00     0.014 A 
ATOM     29  C   UNL     1       0.674  -6.396  -5.965  1.00  0.00     0.014 A 
ATOM     30  C   UNL     1       1.007  -8.806  -7.332  1.00  0.00     0.010 A 
ATOM     31  C   UNL     1      -0.330  -7.317  -5.963  1.00  0.00     0.010 A 
ATOM     32  C   UNL     1      -0.212  -8.477  -6.719  1.00  0.00    -0.014 A 
BRANCH  32  33
ATOM     33  C   UNL     1      -1.378  -9.353  -6.739  1.00  0.00     0.031 A 
ATOM     34  C   UNL     1      -1.130 -10.752  -6.295  1.00  0.00     0.074 A 
ATOM     35  C   UNL     1      -2.630  -8.856  -6.885  1.00  0.00     0.049 A 
ATOM     36  N   UNL     1      -1.101 -11.816  -7.027  1.00  0.00    -0.248 NA
ATOM     37  C   UNL     1      -0.719 -10.985  -4.900  1.00  0.00     0.031 C 
ATOM     38  C   UNL     1      -3.057  -7.450  -7.008  1.00  0.00     0.029 A 
ATOM     39  N   UNL     1      -3.818  -9.505  -6.824  1.00  0.00    -0.354 N 
ATOM     40  C   UNL     1      -0.930 -12.881  -6.147  1.00  0.00     0.074 A 
ATOM     41  C   UNL     1      -0.486 -12.300  -4.906  1.00  0.00     0.031 C 
ATOM     42  C   UNL     1      -4.378  -7.343  -6.748  1.00  0.00     0.029 A 
ATOM     43  C   UNL     1      -4.928  -8.680  -6.671  1.00  0.00     0.049 A 
ATOM     44  H   UNL     1      -3.891 -10.485  -6.883  1.00  0.00     0.167 HD
ATOM     45  C   UNL     1      -1.439 -14.117  -6.423  1.00  0.00     0.031 A 
ATOM     46  C   UNL     1      -6.218  -9.065  -6.512  1.00  0.00     0.031 A 
ATOM     47  C   UNL     1      -1.866 -14.213  -7.798  1.00  0.00     0.049 A 
ATOM     48  C   UNL     1      -6.302 -10.447  -7.042  1.00  0.00     0.074 A 
ATOM     49  C   UNL     1      -1.247 -14.089  -9.026  1.00  0.00     0.029 A 
ATOM     50  N   UNL     1      -3.211 -14.046  -8.035  1.00  0.00    -0.354 N 
ATOM     51  N   UNL     1      -6.073 -10.745  -8.291  1.00  0.00    -0.248 NA
ATOM     52  C   UNL     1      -6.156 -11.544  -6.101  1.00  0.00     0.031 C 
ATOM     53  C   UNL     1      -2.183 -13.374  -9.834  1.00  0.00     0.029 A 
ATOM     54  C   UNL     1      -3.349 -13.180  -9.090  1.00  0.00     0.049 A 
ATOM     55  H   UNL     1      -3.945 -14.472  -7.536  1.00  0.00     0.167 HD
ATOM     56  C   UNL     1      -5.339 -11.922  -8.248  1.00  0.00     0.074 A 
ATOM     57  C   UNL     1      -5.507 -12.416  -6.880  1.00  0.00     0.031 C 
ATOM     58  C   UNL     1      -4.443 -12.237  -9.233  1.00  0.00     0.031 A 
BRANCH  45  59
ATOM     59  C   UNL     1      -1.957 -15.072  -5.369  1.00  0.00    -0.014 A 
ATOM     60  C   UNL     1      -2.446 -16.331  -5.778  1.00  0.00     0.010 A 
ATOM     61  C   UNL     1      -2.245 -14.679  -4.046  1.00  0.00     0.010 A 
ATOM     62  C   UNL     1      -3.251 -17.111  -4.936  1.00  0.00     0.020 A 
ATOM     63  C   UNL     1      -3.010 -15.468  -3.183  1.00  0.00     0.020 A 
ATOM     64  C   UNL     1      -3.540 -16.663  -3.647  1.00  0.00     0.054 A 
BRANCH  64  65
ATOM     65  S   UNL     1      -4.675 -17.616  -2.609  1.00  0.00     0.124 S 
ATOM     66  O   UNL     1      -5.928 -17.496  -3.348  1.00  0.00    -0.237 OA
ATOM     67  O   UNL     1      -4.059 -18.940  -2.615  1.00  0.00    -0.237 OA
ATOM     68  O   UNL     1      -4.632 -16.919  -1.327  1.00  0.00    -0.744 OA
ENDBRANCH  64  65
ENDBRANCH  45  59
BRANCH  46  69
ATOM     69  C   UNL     1      -7.239  -8.474  -5.611  1.00  0.00    -0.014 A 
ATOM     70  C   UNL     1      -8.602  -8.793  -5.748  1.00  0.00     0.010 A 
ATOM     71  C   UNL     1      -6.833  -7.827  -4.424  1.00  0.00     0.010 A 
ATOM     72  C   UNL     1      -9.515  -8.534  -4.709  1.00  0.00     0.020 A 
ATOM     73  C   UNL     1      -7.737  -7.566  -3.385  1.00  0.00     0.020 A 
ATOM     74  C   UNL     1      -9.071  -7.941  -3.524  1.00  0.00     0.054 A 
BRANCH  74  75
ATOM     75  S   UNL     1     -10.221  -7.772  -2.123  1.00  0.00     0.124 S 
ATOM     76  O   UNL     1     -11.136  -6.737  -2.596  1.00  0.00    -0.237 OA
ATOM     77  O   UNL     1     -10.787  -9.113  -2.012  1.00  0.00    -0.237 OA
ATOM     78  O   UNL     1      -9.355  -7.374  -1.014  1.00  0.00    -0.744 OA
ENDBRANCH  74  75
ENDBRANCH  46  69
BRANCH  58  79
ATOM     79  C   UNL     1      -4.453 -11.411 -10.504  1.00  0.00    -0.014 A 
ATOM     80  C   UNL     1      -4.126 -10.040 -10.563  1.00  0.00     0.010 A 
ATOM     81  C   UNL     1      -4.657 -12.096 -11.714  1.00  0.00     0.010 A 
ATOM     82  C   UNL     1      -4.029  -9.374 -11.798  1.00  0.00     0.020 A 
ATOM     83  C   UNL     1      -4.548 -11.444 -12.945  1.00  0.00     0.020 A 
ATOM     84  C   UNL     1      -4.242 -10.084 -12.983  1.00  0.00     0.054 A 
BRANCH  84  85
ATOM     85  S   UNL     1      -4.084  -9.236 -14.582  1.00  0.00     0.124 S 
ATOM     86  O   UNL     1      -5.219  -8.317 -14.570  1.00  0.00    -0.237 OA
ATOM     87  O   UNL     1      -2.767  -8.609 -14.490  1.00  0.00    -0.237 OA
ATOM     88  O   UNL     1      -4.177 -10.318 -15.562  1.00  0.00    -0.744 OA
ENDBRANCH  84  85
ENDBRANCH  58  79
ENDBRANCH  32  33
ENDBRANCH  24  27
ENDBRANCH  22  23
ENDBRANCH  21  22
ENDBRANCH  20  21
ENDBRANCH   1  20
TORSDOF 20
