REMARK SMILES O=C(NCCCCNC(=O)c1cc(Br)n(Cc2ccn(C3CCCC3)n2)c1)c1ccc(-c2c3nc(c(-c4ccc(S(=O)(=O)[O-])cc4)c4ccc([nH]4)c(-c4ccc(S(=O)(=O)[O-])cc4)c4nc(c(-c5ccc(S(=O)(=O)[O-])cc5)c5ccc2[nH]5)C=C4)C=C3)cc1
REMARK SMILES IDX 5 1 4 2 3 3 1 4 2 5 28 7 29 8 87 9 30 10 86 11 31 12 32 13
REMARK SMILES IDX 33 14 80 15 34 16 85 17 79 18 81 19 35 20 84 21 78 22 77 23
REMARK SMILES IDX 36 25 66 26 47 27 65 28 48 29 51 30 64 31 82 32 49 33 50 34
REMARK SMILES IDX 63 36 83 37 52 38 37 39 38 40 46 41 39 42 45 43 40 44 41 45
REMARK SMILES IDX 42 46 43 47 44 48 67 49 68 50 76 51 69 52 75 53 70 54 71 55
REMARK SMILES IDX 72 56 73 57 74 58 53 59 54 60 62 61 55 62 61 63 56 64 57 65
REMARK SMILES IDX 58 66 59 67 60 68 6 69 7 70 8 71 9 72 10 74 11 75 12 76
REMARK SMILES IDX 27 77 13 78 15 79 14 80 16 81 17 82 18 83 26 84 19 85 20 86
REMARK SMILES IDX 21 87 22 88 25 89 23 90 24 91
REMARK H PARENT 3 6 81 24 51 35 8 73
REMARK Flexibility Score: inf
ROOT
ATOM      1  C   UNL     1       4.876  -0.398   2.157  1.00  0.00     0.023 C 
ENDROOT
BRANCH   1   2
ATOM      2  C   UNL     1       4.677  -0.750   0.684  1.00  0.00     0.116 C 
BRANCH   2   3
ATOM      3  N   UNL     1       3.303  -0.994   0.296  1.00  0.00    -0.352 N 
ATOM      4  O   UNL     1       1.221  -0.766  -0.405  1.00  0.00    -0.269 OA
ATOM      5  C   UNL     1       2.229  -0.193   0.017  1.00  0.00     0.251 C 
ATOM      6  H   UNL     1       3.094  -1.953   0.216  1.00  0.00     0.163 HD
BRANCH   5   7
ATOM      7  C   UNL     1       2.179   1.278   0.239  1.00  0.00     0.039 A 
ATOM      8  C   UNL     1       3.284   2.118   0.387  1.00  0.00     0.014 A 
ATOM      9  C   UNL     1       0.892   1.847   0.295  1.00  0.00     0.014 A 
ATOM     10  C   UNL     1       3.111   3.474   0.662  1.00  0.00     0.010 A 
ATOM     11  C   UNL     1       0.715   3.204   0.548  1.00  0.00     0.010 A 
ATOM     12  C   UNL     1       1.828   4.014   0.759  1.00  0.00    -0.014 A 
BRANCH  12  13
ATOM     13  C   UNL     1       1.695   5.456   0.963  1.00  0.00     0.031 A 
ATOM     14  C   UNL     1       2.131   6.319  -0.174  1.00  0.00     0.074 A 
ATOM     15  C   UNL     1       1.061   6.005   2.017  1.00  0.00     0.049 A 
ATOM     16  N   UNL     1       3.041   7.240  -0.186  1.00  0.00    -0.248 NA
ATOM     17  C   UNL     1       1.508   6.079  -1.485  1.00  0.00     0.031 C 
ATOM     18  C   UNL     1       0.283   5.318   3.050  1.00  0.00     0.029 A 
ATOM     19  N   UNL     1       0.872   7.325   2.308  1.00  0.00    -0.354 N 
ATOM     20  C   UNL     1       2.998   7.813  -1.457  1.00  0.00     0.074 A 
ATOM     21  C   UNL     1       2.120   6.985  -2.247  1.00  0.00     0.031 C 
ATOM     22  C   UNL     1      -0.480   6.224   3.702  1.00  0.00     0.029 A 
ATOM     23  C   UNL     1      -0.146   7.556   3.223  1.00  0.00     0.049 A 
ATOM     24  H   UNL     1       1.407   8.046   1.906  1.00  0.00     0.167 HD
ATOM     25  C   UNL     1       3.545   9.029  -1.740  1.00  0.00     0.031 A 
ATOM     26  C   UNL     1      -0.730   8.747   3.507  1.00  0.00     0.031 A 
ATOM     27  C   UNL     1       4.430   9.488  -0.707  1.00  0.00     0.049 A 
ATOM     28  C   UNL     1       0.184   9.823   3.055  1.00  0.00     0.074 A 
ATOM     29  C   UNL     1       5.610   9.034  -0.154  1.00  0.00     0.029 A 
ATOM     30  N   UNL     1       3.953  10.449   0.151  1.00  0.00    -0.354 N 
ATOM     31  N   UNL     1       1.339  10.072   3.603  1.00  0.00    -0.248 NA
ATOM     32  C   UNL     1      -0.011  10.393   1.731  1.00  0.00     0.031 C 
ATOM     33  C   UNL     1       5.534   9.396   1.222  1.00  0.00     0.029 A 
ATOM     34  C   UNL     1       4.330  10.077   1.415  1.00  0.00     0.049 A 
ATOM     35  H   UNL     1       3.439  11.251  -0.095  1.00  0.00     0.167 HD
ATOM     36  C   UNL     1       2.157  10.462   2.553  1.00  0.00     0.074 A 
ATOM     37  C   UNL     1       1.245  10.750   1.451  1.00  0.00     0.031 C 
ATOM     38  C   UNL     1       3.506  10.253   2.593  1.00  0.00     0.031 A 
BRANCH  25  39
ATOM     39  C   UNL     1       3.021   9.970  -2.798  1.00  0.00    -0.014 A 
ATOM     40  C   UNL     1       3.749  11.140  -3.100  1.00  0.00     0.010 A 
ATOM     41  C   UNL     1       1.704   9.889  -3.295  1.00  0.00     0.010 A 
ATOM     42  C   UNL     1       3.163  12.204  -3.800  1.00  0.00     0.020 A 
ATOM     43  C   UNL     1       1.125  10.925  -4.032  1.00  0.00     0.020 A 
ATOM     44  C   UNL     1       1.846  12.094  -4.245  1.00  0.00     0.054 A 
BRANCH  44  45
ATOM     45  S   UNL     1       1.053  13.521  -5.029  1.00  0.00     0.124 S 
ATOM     46  O   UNL     1       0.955  14.458  -3.914  1.00  0.00    -0.237 OA
ATOM     47  O   UNL     1       2.010  13.875  -6.073  1.00  0.00    -0.237 OA
ATOM     48  O   UNL     1      -0.218  12.983  -5.511  1.00  0.00    -0.744 OA
ENDBRANCH  44  45
ENDBRANCH  25  39
BRANCH  26  49
ATOM     49  C   UNL     1      -2.148   9.000   3.861  1.00  0.00    -0.014 A 
ATOM     50  C   UNL     1      -2.558  10.240   4.385  1.00  0.00     0.010 A 
ATOM     51  C   UNL     1      -3.151   8.108   3.426  1.00  0.00     0.010 A 
ATOM     52  C   UNL     1      -3.917  10.596   4.417  1.00  0.00     0.020 A 
ATOM     53  C   UNL     1      -4.506   8.451   3.466  1.00  0.00     0.020 A 
ATOM     54  C   UNL     1      -4.882   9.706   3.938  1.00  0.00     0.054 A 
BRANCH  54  55
ATOM     55  S   UNL     1      -6.613  10.242   3.811  1.00  0.00     0.124 S 
ATOM     56  O   UNL     1      -7.028  10.287   5.209  1.00  0.00    -0.237 OA
ATOM     57  O   UNL     1      -6.497  11.535   3.142  1.00  0.00    -0.237 OA
ATOM     58  O   UNL     1      -7.241   9.191   3.011  1.00  0.00    -0.744 OA
ENDBRANCH  54  55
ENDBRANCH  26  49
BRANCH  38  59
ATOM     59  C   UNL     1       4.145   9.898   3.914  1.00  0.00    -0.014 A 
ATOM     60  C   UNL     1       3.804   8.752   4.657  1.00  0.00     0.010 A 
ATOM     61  C   UNL     1       5.241  10.671   4.338  1.00  0.00     0.010 A 
ATOM     62  C   UNL     1       4.525   8.403   5.808  1.00  0.00     0.020 A 
ATOM     63  C   UNL     1       5.976  10.318   5.472  1.00  0.00     0.020 A 
ATOM     64  C   UNL     1       5.609   9.190   6.207  1.00  0.00     0.054 A 
BRANCH  64  65
ATOM     65  S   UNL     1       6.578   8.696   7.660  1.00  0.00     0.124 S 
ATOM     66  O   UNL     1       5.653   8.953   8.760  1.00  0.00    -0.237 OA
ATOM     67  O   UNL     1       6.865   7.288   7.395  1.00  0.00    -0.237 OA
ATOM     68  O   UNL     1       7.745   9.576   7.615  1.00  0.00    -0.744 OA
ENDBRANCH  64  65
ENDBRANCH  38  59
ENDBRANCH  12  13
ENDBRANCH   5   7
ENDBRANCH   2   3
ENDBRANCH   1   2
BRANCH   1  69
ATOM     69  C   UNL     1       4.363  -1.441   3.156  1.00  0.00     0.023 C 
BRANCH  69  70
ATOM     70  C   UNL     1       4.852  -2.872   2.933  1.00  0.00     0.116 C 
BRANCH  70  71
ATOM     71  N   UNL     1       6.296  -2.979   3.043  1.00  0.00    -0.352 N 
ATOM     72  C   UNL     1       7.036  -3.824   3.829  1.00  0.00     0.252 C 
ATOM     73  H   UNL     1       6.813  -2.361   2.477  1.00  0.00     0.163 HD
ATOM     74  O   UNL     1       8.245  -3.644   3.938  1.00  0.00    -0.269 OA
BRANCH  72  75
ATOM     75  C   UNL     1       6.359  -4.930   4.487  1.00  0.00     0.058 A 
ATOM     76  C   UNL     1       5.559  -5.952   3.901  1.00  0.00     0.049 A 
ATOM     77  C   UNL     1       6.463  -5.241   5.832  1.00  0.00     0.101 A 
ATOM     78  C   UNL     1       5.245  -6.855   4.891  1.00  0.00     0.086 A 
ATOM     79  N   UNL     1       5.721  -6.375   6.086  1.00  0.00    -0.335 N 
ATOM     80  Br  UNL     1       4.367  -8.471   4.551  1.00  0.00    -0.031 Br
BRANCH  79  81
ATOM     81  C   UNL     1       5.628  -7.014   7.397  1.00  0.00     0.180 C 
BRANCH  81  82
ATOM     82  C   UNL     1       4.334  -6.728   8.095  1.00  0.00     0.082 A 
ATOM     83  C   UNL     1       3.025  -7.108   7.707  1.00  0.00     0.047 A 
ATOM     84  N   UNL     1       4.317  -6.116   9.293  1.00  0.00    -0.176 NA
ATOM     85  C   UNL     1       2.202  -6.676   8.715  1.00  0.00     0.109 A 
ATOM     86  N   UNL     1       3.012  -6.082   9.637  1.00  0.00    -0.269 N 
BRANCH  86  87
ATOM     87  C   UNL     1       2.573  -5.532  10.900  1.00  0.00     0.107 C 
ATOM     88  C   UNL     1       3.224  -6.154  12.133  1.00  0.00     0.027 C 
ATOM     89  C   UNL     1       2.841  -4.042  11.094  1.00  0.00     0.027 C 
ATOM     90  C   UNL     1       2.813  -5.205  13.252  1.00  0.00     0.002 C 
ATOM     91  C   UNL     1       2.675  -3.827  12.599  1.00  0.00     0.002 C 
ENDBRANCH  86  87
ENDBRANCH  81  82
ENDBRANCH  79  81
ENDBRANCH  72  75
ENDBRANCH  70  71
ENDBRANCH  69  70
ENDBRANCH   1  69
TORSDOF 17
