REMARK SMILES C[C@H](NC(=O)N1CC[C@H](C(=O)NCCCCNC(=O)c2ccc(-c3c4nc(c(-c5ccc(S(=O)(=O)[O-])cc5)c5ccc([nH]5)c(-c5ccc(S(=O)(=O)[O-])cc5)c5nc(c(-c6ccc(S(=O)(=O)[O-])cc6)c6ccc3[nH]6)C=C5)C=C4)cc2)[C@H]1C)c1ccsc1
REMARK SMILES IDX 14 1 13 2 12 3 10 4 11 5 9 7 6 8 7 9 80 10 8 11 81 12 4 13
REMARK SMILES IDX 3 14 5 16 2 17 1 18 82 19 83 20 86 21 84 22 85 23 15 24
REMARK SMILES IDX 16 25 17 26 18 27 19 29 20 30 21 31 79 32 22 33 78 34 23 35
REMARK SMILES IDX 24 36 25 37 72 38 26 39 77 40 71 41 73 42 27 43 76 44 70 45
REMARK SMILES IDX 69 46 28 48 58 49 39 50 57 51 40 52 43 53 56 54 74 55 41 56
REMARK SMILES IDX 42 57 55 59 75 60 44 61 29 62 30 63 38 64 31 65 37 66 32 67
REMARK SMILES IDX 33 68 34 69 35 70 36 71 59 72 60 73 68 74 61 75 67 76 62 77
REMARK SMILES IDX 63 78 64 79 65 80 66 81 45 82 46 83 54 84 47 85 53 86 48 87
REMARK SMILES IDX 49 88 50 89 51 90 52 91
REMARK H PARENT 12 6 3 15 17 28 73 47 43 58
REMARK Flexibility Score: inf
ROOT
ATOM      1  C   UNL     1       5.237   6.648   1.416  1.00  0.00     0.023 C 
ENDROOT
BRANCH   1   2
ATOM      2  C   UNL     1       4.209   6.646   0.289  1.00  0.00     0.116 C 
BRANCH   2   3
ATOM      3  N   UNL     1       4.381   5.503  -0.591  1.00  0.00    -0.356 N 
ATOM      4  C   UNL     1       3.505   4.523  -0.960  1.00  0.00     0.225 C 
ATOM      5  O   UNL     1       3.912   3.633  -1.704  1.00  0.00    -0.275 OA
ATOM      6  H   UNL     1       5.278   5.421  -0.988  1.00  0.00     0.163 HD
BRANCH   4   7
ATOM      7  C   UNL     1       2.070   4.585  -0.476  1.00  0.00     0.102 C 
ATOM      8  N   UNL     1       0.940   2.492  -0.771  1.00  0.00    -0.321 N 
ATOM      9  C   UNL     1       0.764   3.284  -1.987  1.00  0.00     0.122 C 
ATOM     10  C   UNL     1       1.631   3.295   0.258  1.00  0.00     0.096 C 
ATOM     11  C   UNL     1       1.077   4.717  -1.625  1.00  0.00     0.037 C 
ATOM     12  C   UNL     1       0.739   3.777   1.411  1.00  0.00     0.032 C 
BRANCH   8  13
ATOM     13  C   UNL     1       0.999   1.147  -0.990  1.00  0.00     0.318 C 
ATOM     14  N   UNL     1       1.065   0.211  -0.039  1.00  0.00    -0.331 N 
ATOM     15  H   UNL     1       1.650  -0.534  -0.308  1.00  0.00     0.165 HD
ATOM     16  O   UNL     1       0.989   0.679  -2.137  1.00  0.00    -0.249 OA
BRANCH  14  17
ATOM     17  C   UNL     1       0.507  -0.002   1.281  1.00  0.00     0.112 C 
ATOM     18  C   UNL     1       1.334   0.497   2.451  1.00  0.00     0.036 C 
BRANCH  17  19
ATOM     19  C   UNL     1      -0.996   0.193   1.308  1.00  0.00    -0.015 A 
ATOM     20  C   UNL     1      -1.927  -0.895   1.503  1.00  0.00     0.017 A 
ATOM     21  C   UNL     1      -1.708   1.359   1.092  1.00  0.00     0.070 A 
ATOM     22  C   UNL     1      -3.247  -0.503   1.466  1.00  0.00     0.065 A 
ATOM     23  S   UNL     1      -3.405   1.173   1.207  1.00  0.00    -0.152 S 
ENDBRANCH  17  19
ENDBRANCH  14  17
ENDBRANCH   8  13
ENDBRANCH   4   7
ENDBRANCH   2   3
ENDBRANCH   1   2
BRANCH   1  24
ATOM     24  C   UNL     1       6.675   6.907   0.968  1.00  0.00     0.023 C 
BRANCH  24  25
ATOM     25  C   UNL     1       6.883   8.185   0.162  1.00  0.00     0.116 C 
BRANCH  25  26
ATOM     26  N   UNL     1       6.444   9.381   0.865  1.00  0.00    -0.352 N 
ATOM     27  C   UNL     1       7.079  10.596   0.977  1.00  0.00     0.251 C 
ATOM     28  H   UNL     1       5.575   9.310   1.323  1.00  0.00     0.163 HD
ATOM     29  O   UNL     1       6.626  11.460   1.716  1.00  0.00    -0.269 OA
BRANCH  27  30
ATOM     30  C   UNL     1       8.329  10.831   0.224  1.00  0.00     0.039 A 
ATOM     31  C   UNL     1       9.436  11.350   0.898  1.00  0.00     0.014 A 
ATOM     32  C   UNL     1       8.416  10.505  -1.132  1.00  0.00     0.014 A 
ATOM     33  C   UNL     1      10.655  11.476   0.227  1.00  0.00     0.010 A 
ATOM     34  C   UNL     1       9.648  10.563  -1.778  1.00  0.00     0.010 A 
ATOM     35  C   UNL     1      10.780  11.048  -1.105  1.00  0.00    -0.014 A 
BRANCH  35  36
ATOM     36  C   UNL     1      12.085  11.099  -1.813  1.00  0.00     0.031 A 
ATOM     37  C   UNL     1      12.252  11.983  -3.019  1.00  0.00     0.074 A 
ATOM     38  C   UNL     1      13.097  10.305  -1.409  1.00  0.00     0.049 A 
ATOM     39  N   UNL     1      13.287  12.110  -3.810  1.00  0.00    -0.248 NA
ATOM     40  C   UNL     1      11.099  12.815  -3.401  1.00  0.00     0.031 C 
ATOM     41  C   UNL     1      13.049   9.376  -0.276  1.00  0.00     0.029 A 
ATOM     42  N   UNL     1      14.365  10.147  -1.910  1.00  0.00    -0.354 N 
ATOM     43  C   UNL     1      12.907  13.022  -4.787  1.00  0.00     0.074 A 
ATOM     44  C   UNL     1      11.530  13.378  -4.521  1.00  0.00     0.031 C 
ATOM     45  C   UNL     1      14.240   8.767  -0.154  1.00  0.00     0.029 A 
ATOM     46  C   UNL     1      15.122   9.228  -1.222  1.00  0.00     0.049 A 
ATOM     47  H   UNL     1      14.701  10.645  -2.690  1.00  0.00     0.167 HD
ATOM     48  C   UNL     1      13.643  13.536  -5.801  1.00  0.00     0.031 A 
ATOM     49  C   UNL     1      16.383   8.799  -1.430  1.00  0.00     0.031 A 
ATOM     50  C   UNL     1      15.016  13.192  -6.056  1.00  0.00     0.049 A 
ATOM     51  C   UNL     1      17.173   9.374  -2.574  1.00  0.00     0.074 A 
ATOM     52  C   UNL     1      15.860  13.692  -7.032  1.00  0.00     0.029 A 
ATOM     53  N   UNL     1      15.748  12.266  -5.329  1.00  0.00    -0.354 N 
ATOM     54  N   UNL     1      16.812  10.277  -3.454  1.00  0.00    -0.248 NA
ATOM     55  C   UNL     1      18.546   8.879  -2.747  1.00  0.00     0.031 C 
ATOM     56  C   UNL     1      17.090  13.035  -6.924  1.00  0.00     0.029 A 
ATOM     57  C   UNL     1      17.029  12.168  -5.845  1.00  0.00     0.049 A 
ATOM     58  H   UNL     1      15.408  11.754  -4.560  1.00  0.00     0.167 HD
ATOM     59  C   UNL     1      17.924  10.482  -4.264  1.00  0.00     0.074 A 
ATOM     60  C   UNL     1      18.973   9.619  -3.761  1.00  0.00     0.031 C 
ATOM     61  C   UNL     1      18.064  11.310  -5.327  1.00  0.00     0.031 A 
BRANCH  48  62
ATOM     62  C   UNL     1      12.976  14.535  -6.709  1.00  0.00    -0.014 A 
ATOM     63  C   UNL     1      12.664  15.829  -6.254  1.00  0.00     0.010 A 
ATOM     64  C   UNL     1      12.707  14.197  -8.048  1.00  0.00     0.010 A 
ATOM     65  C   UNL     1      12.062  16.755  -7.110  1.00  0.00     0.020 A 
ATOM     66  C   UNL     1      12.131  15.129  -8.916  1.00  0.00     0.020 A 
ATOM     67  C   UNL     1      11.799  16.398  -8.436  1.00  0.00     0.054 A 
BRANCH  67  68
ATOM     68  S   UNL     1      11.051  17.634  -9.534  1.00  0.00     0.124 S 
ATOM     69  O   UNL     1       9.678  17.684  -9.037  1.00  0.00    -0.237 OA
ATOM     70  O   UNL     1      11.857  18.824  -9.273  1.00  0.00    -0.237 OA
ATOM     71  O   UNL     1      11.211  17.056 -10.866  1.00  0.00    -0.744 OA
ENDBRANCH  67  68
ENDBRANCH  48  62
BRANCH  49  72
ATOM     72  C   UNL     1      16.986   7.777  -0.530  1.00  0.00    -0.014 A 
ATOM     73  C   UNL     1      18.029   8.125   0.347  1.00  0.00     0.010 A 
ATOM     74  C   UNL     1      16.531   6.446  -0.556  1.00  0.00     0.010 A 
ATOM     75  C   UNL     1      18.627   7.156   1.157  1.00  0.00     0.020 A 
ATOM     76  C   UNL     1      17.108   5.480   0.275  1.00  0.00     0.020 A 
ATOM     77  C   UNL     1      18.164   5.839   1.114  1.00  0.00     0.054 A 
BRANCH  77  78
ATOM     78  S   UNL     1      18.937   4.603   2.195  1.00  0.00     0.124 S 
ATOM     79  O   UNL     1      20.211   4.368   1.524  1.00  0.00    -0.237 OA
ATOM     80  O   UNL     1      19.013   5.304   3.474  1.00  0.00    -0.237 OA
ATOM     81  O   UNL     1      17.995   3.485   2.162  1.00  0.00    -0.744 OA
ENDBRANCH  77  78
ENDBRANCH  49  72
BRANCH  61  82
ATOM     82  C   UNL     1      19.413  11.360  -5.995  1.00  0.00    -0.014 A 
ATOM     83  C   UNL     1      19.874  10.298  -6.791  1.00  0.00     0.010 A 
ATOM     84  C   UNL     1      20.205  12.516  -5.867  1.00  0.00     0.010 A 
ATOM     85  C   UNL     1      21.118  10.378  -7.422  1.00  0.00     0.020 A 
ATOM     86  C   UNL     1      21.436  12.611  -6.519  1.00  0.00     0.020 A 
ATOM     87  C   UNL     1      21.892  11.534  -7.282  1.00  0.00     0.054 A 
BRANCH  87  88
ATOM     88  S   UNL     1      23.482  11.633  -8.148  1.00  0.00     0.124 S 
ATOM     89  O   UNL     1      24.320  10.747  -7.345  1.00  0.00    -0.237 OA
ATOM     90  O   UNL     1      23.150  11.144  -9.484  1.00  0.00    -0.237 OA
ATOM     91  O   UNL     1      23.828  13.050  -8.078  1.00  0.00    -0.744 OA
ENDBRANCH  87  88
ENDBRANCH  61  82
ENDBRANCH  35  36
ENDBRANCH  27  30
ENDBRANCH  25  26
ENDBRANCH  24  25
ENDBRANCH   1  24
TORSDOF 17
