REMARK SMILES CC[C@]1(C(=O)NCCCCNC(=O)c2ccc(-c3c4nc(c(-c5ccc(S(=O)(=O)[O-])cc5)c5ccc([nH]5)c(-c5ccc(S(=O)(=O)[O-])cc5)c5nc(c(-c6ccc(S(=O)(=O)[O-])cc6)c6ccc3[nH]6)C=C5)C=C4)cc2)CCCN(C(=O)c2csc(C)c2-c2ccccc2)C1
REMARK SMILES IDX 8 1 7 2 6 3 4 4 5 5 3 7 74 8 92 9 75 10 77 11 76 12 2 13
REMARK SMILES IDX 1 14 78 15 79 16 80 17 81 18 85 19 82 20 83 21 84 22 86 23
REMARK SMILES IDX 87 24 91 25 88 26 90 27 89 28 9 29 10 30 11 31 12 32 13 34
REMARK SMILES IDX 14 35 15 36 73 37 16 38 72 39 17 40 18 41 19 42 66 43 20 44
REMARK SMILES IDX 71 45 65 46 67 47 21 48 70 49 64 50 63 51 22 53 52 54 33 55
REMARK SMILES IDX 51 56 34 57 37 58 50 59 68 60 35 61 36 62 49 64 69 65 38 66
REMARK SMILES IDX 23 67 24 68 32 69 25 70 31 71 26 72 27 73 28 74 29 75 30 76
REMARK SMILES IDX 53 77 54 78 62 79 55 80 61 81 56 82 57 83 58 84 59 85 60 86
REMARK SMILES IDX 39 87 40 88 48 89 41 90 47 91 42 92 43 93 44 94 45 95 46 96
REMARK H PARENT 6 6 11 33 67 52 37 63
REMARK Flexibility Score: inf
ROOT
ATOM      1  C   UNL     1       2.772  -3.689   5.005  1.00  0.00     0.023 C 
ENDROOT
BRANCH   1   2
ATOM      2  C   UNL     1       2.446  -2.252   4.597  1.00  0.00     0.116 C 
BRANCH   2   3
ATOM      3  N   UNL     1       3.003  -1.899   3.302  1.00  0.00    -0.356 N 
ATOM      4  C   UNL     1       2.462  -1.612   2.087  1.00  0.00     0.228 C 
ATOM      5  O   UNL     1       3.283  -1.395   1.190  1.00  0.00    -0.274 OA
ATOM      6  H   UNL     1       3.987  -1.859   3.304  1.00  0.00     0.163 HD
BRANCH   4   7
ATOM      7  C   UNL     1       0.938  -1.582   1.808  1.00  0.00     0.067 C 
ATOM      8  C   UNL     1       0.355  -2.997   2.071  1.00  0.00     0.020 C 
ATOM      9  C   UNL     1       0.250  -0.509   2.680  1.00  0.00     0.136 C 
ATOM     10  C   UNL     1      -1.171  -3.030   2.102  1.00  0.00     0.023 C 
ATOM     11  N   UNL     1      -1.210  -0.635   2.695  1.00  0.00    -0.338 N 
ATOM     12  C   UNL     1      -1.735  -1.960   3.025  1.00  0.00     0.120 C 
BRANCH   7  13
ATOM     13  C   UNL     1       0.704  -1.268   0.284  1.00  0.00     0.015 C 
ATOM     14  C   UNL     1       1.008   0.155  -0.181  1.00  0.00     0.005 C 
ENDBRANCH   7  13
BRANCH  11  15
ATOM     15  C   UNL     1      -1.983   0.521   2.544  1.00  0.00     0.255 C 
ATOM     16  O   UNL     1      -1.495   1.627   2.330  1.00  0.00    -0.269 OA
BRANCH  15  17
ATOM     17  C   UNL     1      -3.429   0.371   2.658  1.00  0.00     0.058 A 
ATOM     18  C   UNL     1      -4.075   0.256   3.874  1.00  0.00     0.079 A 
ATOM     19  C   UNL     1      -4.366   0.387   1.565  1.00  0.00     0.008 A 
ATOM     20  S   UNL     1      -5.763   0.081   3.702  1.00  0.00    -0.148 S 
ATOM     21  C   UNL     1      -5.671   0.198   1.993  1.00  0.00     0.010 A 
ATOM     22  C   UNL     1      -6.934   0.106   1.199  1.00  0.00     0.057 C 
BRANCH  19  23
ATOM     23  C   UNL     1      -4.031   0.559   0.158  1.00  0.00    -0.016 A 
ATOM     24  C   UNL     1      -4.317   1.768  -0.487  1.00  0.00     0.009 A 
ATOM     25  C   UNL     1      -3.393  -0.467  -0.546  1.00  0.00     0.009 A 
ATOM     26  C   UNL     1      -3.972   1.945  -1.828  1.00  0.00     0.001 A 
ATOM     27  C   UNL     1      -3.044  -0.285  -1.885  1.00  0.00     0.001 A 
ATOM     28  C   UNL     1      -3.335   0.919  -2.526  1.00  0.00     0.000 A 
ENDBRANCH  19  23
ENDBRANCH  15  17
ENDBRANCH  11  15
ENDBRANCH   4   7
ENDBRANCH   2   3
ENDBRANCH   1   2
BRANCH   1  29
ATOM     29  C   UNL     1       4.254  -4.002   5.233  1.00  0.00     0.023 C 
BRANCH  29  30
ATOM     30  C   UNL     1       5.001  -3.075   6.191  1.00  0.00     0.116 C 
BRANCH  30  31
ATOM     31  N   UNL     1       4.360  -2.951   7.488  1.00  0.00    -0.352 N 
ATOM     32  C   UNL     1       4.927  -2.787   8.729  1.00  0.00     0.251 C 
ATOM     33  H   UNL     1       3.377  -2.991   7.477  1.00  0.00     0.163 HD
ATOM     34  O   UNL     1       4.206  -2.784   9.723  1.00  0.00    -0.269 OA
BRANCH  32  35
ATOM     35  C   UNL     1       6.394  -2.660   8.879  1.00  0.00     0.039 A 
ATOM     36  C   UNL     1       7.026  -3.421   9.868  1.00  0.00     0.014 A 
ATOM     37  C   UNL     1       7.145  -1.794   8.077  1.00  0.00     0.014 A 
ATOM     38  C   UNL     1       8.415  -3.371  10.008  1.00  0.00     0.010 A 
ATOM     39  C   UNL     1       8.535  -1.766   8.198  1.00  0.00     0.010 A 
ATOM     40  C   UNL     1       9.180  -2.564   9.153  1.00  0.00    -0.014 A 
BRANCH  40  41
ATOM     41  C   UNL     1      10.660  -2.576   9.222  1.00  0.00     0.031 A 
ATOM     42  C   UNL     1      11.409  -1.415   9.803  1.00  0.00     0.074 A 
ATOM     43  C   UNL     1      11.335  -3.617   8.699  1.00  0.00     0.049 A 
ATOM     44  N   UNL     1      12.700  -1.212   9.851  1.00  0.00    -0.248 NA
ATOM     45  C   UNL     1      10.601  -0.337  10.393  1.00  0.00     0.031 C 
ATOM     46  C   UNL     1      10.727  -4.796   8.079  1.00  0.00     0.029 A 
ATOM     47  N   UNL     1      12.684  -3.842   8.597  1.00  0.00    -0.354 N 
ATOM     48  C   UNL     1      12.864   0.034  10.441  1.00  0.00     0.074 A 
ATOM     49  C   UNL     1      11.537   0.534  10.746  1.00  0.00     0.031 C 
ATOM     50  C   UNL     1      11.701  -5.625   7.668  1.00  0.00     0.029 A 
ATOM     51  C   UNL     1      12.996  -5.027   7.978  1.00  0.00     0.049 A 
ATOM     52  H   UNL     1      13.363  -3.215   8.935  1.00  0.00     0.167 HD
ATOM     53  C   UNL     1      14.011   0.707  10.698  1.00  0.00     0.031 A 
ATOM     54  C   UNL     1      14.192  -5.571   7.685  1.00  0.00     0.031 A 
ATOM     55  C   UNL     1      15.331   0.211  10.424  1.00  0.00     0.049 A 
ATOM     56  C   UNL     1      15.451  -4.842   8.045  1.00  0.00     0.074 A 
ATOM     57  C   UNL     1      16.551   0.821  10.663  1.00  0.00     0.029 A 
ATOM     58  N   UNL     1      15.606  -1.023   9.858  1.00  0.00    -0.354 N 
ATOM     59  N   UNL     1      15.583  -3.663   8.603  1.00  0.00    -0.248 NA
ATOM     60  C   UNL     1      16.719  -5.517   7.737  1.00  0.00     0.031 C 
ATOM     61  C   UNL     1      17.566  -0.050  10.242  1.00  0.00     0.029 A 
ATOM     62  C   UNL     1      16.974  -1.200   9.747  1.00  0.00     0.049 A 
ATOM     63  H   UNL     1      14.927  -1.679   9.577  1.00  0.00     0.167 HD
ATOM     64  C   UNL     1      16.951  -3.454   8.714  1.00  0.00     0.074 A 
ATOM     65  C   UNL     1      17.604  -4.630   8.173  1.00  0.00     0.031 C 
ATOM     66  C   UNL     1      17.607  -2.378   9.214  1.00  0.00     0.031 A 
BRANCH  53  67
ATOM     67  C   UNL     1      13.860   2.077  11.289  1.00  0.00    -0.014 A 
ATOM     68  C   UNL     1      13.705   2.248  12.675  1.00  0.00     0.010 A 
ATOM     69  C   UNL     1      13.837   3.201  10.445  1.00  0.00     0.010 A 
ATOM     70  C   UNL     1      13.483   3.521  13.206  1.00  0.00     0.020 A 
ATOM     71  C   UNL     1      13.622   4.475  10.973  1.00  0.00     0.020 A 
ATOM     72  C   UNL     1      13.422   4.624  12.349  1.00  0.00     0.054 A 
BRANCH  72  73
ATOM     73  S   UNL     1      13.098   6.275  13.027  1.00  0.00     0.124 S 
ATOM     74  O   UNL     1      11.646   6.369  12.901  1.00  0.00    -0.237 OA
ATOM     75  O   UNL     1      13.603   6.183  14.395  1.00  0.00    -0.237 OA
ATOM     76  O   UNL     1      13.863   7.154  12.145  1.00  0.00    -0.744 OA
ENDBRANCH  72  73
ENDBRANCH  53  67
BRANCH  54  77
ATOM     77  C   UNL     1      14.240  -6.893   7.015  1.00  0.00    -0.014 A 
ATOM     78  C   UNL     1      14.332  -8.066   7.782  1.00  0.00     0.010 A 
ATOM     79  C   UNL     1      14.129  -6.983   5.618  1.00  0.00     0.010 A 
ATOM     80  C   UNL     1      14.303  -9.317   7.161  1.00  0.00     0.020 A 
ATOM     81  C   UNL     1      14.094  -8.233   4.995  1.00  0.00     0.020 A 
ATOM     82  C   UNL     1      14.183  -9.393   5.771  1.00  0.00     0.054 A 
BRANCH  82  83
ATOM     83  S   UNL     1      14.045 -11.014   4.967  1.00  0.00     0.124 S 
ATOM     84  O   UNL     1      15.432 -11.294   4.610  1.00  0.00    -0.237 OA
ATOM     85  O   UNL     1      13.481 -11.858   6.018  1.00  0.00    -0.237 OA
ATOM     86  O   UNL     1      13.145 -10.748   3.847  1.00  0.00    -0.744 OA
ENDBRANCH  82  83
ENDBRANCH  54  77
BRANCH  66  87
ATOM     87  C   UNL     1      19.105  -2.436   9.208  1.00  0.00    -0.014 A 
ATOM     88  C   UNL     1      19.828  -2.019   8.077  1.00  0.00     0.010 A 
ATOM     89  C   UNL     1      19.796  -2.890  10.344  1.00  0.00     0.010 A 
ATOM     90  C   UNL     1      21.224  -2.073   8.075  1.00  0.00     0.020 A 
ATOM     91  C   UNL     1      21.192  -2.941  10.346  1.00  0.00     0.020 A 
ATOM     92  C   UNL     1      21.897  -2.543   9.207  1.00  0.00     0.054 A 
BRANCH  92  93
ATOM     93  S   UNL     1      23.711  -2.585   9.219  1.00  0.00     0.124 S 
ATOM     94  O   UNL     1      23.986  -3.931   8.726  1.00  0.00    -0.237 OA
ATOM     95  O   UNL     1      24.078  -1.498   8.313  1.00  0.00    -0.237 OA
ATOM     96  O   UNL     1      24.042  -2.351  10.623  1.00  0.00    -0.744 OA
ENDBRANCH  92  93
ENDBRANCH  66  87
ENDBRANCH  40  41
ENDBRANCH  32  35
ENDBRANCH  30  31
ENDBRANCH  29  30
ENDBRANCH   1  29
TORSDOF 18
