REMARK SMILES CCN(C(=O)N(CCOC)CC(=O)NCCCCNC(=O)c1ccc(-c2c3nc(c(-c4ccc(S(=O)(=O)[O-])cc4)c4ccc([nH]4)c(-c4ccc(S(=O)(=O)[O-])cc4)c4nc(c(-c5ccc(S(=O)(=O)[O-])cc5)c5ccc2[nH]5)C=C4)C=C3)cc1)C1CCCC1
REMARK SMILES IDX 16 1 15 2 14 3 12 4 13 5 11 7 6 8 4 9 5 10 3 11 2 12 1 13
REMARK SMILES IDX 82 14 83 15 86 16 84 17 85 18 7 19 8 20 9 21 10 22 17 23
REMARK SMILES IDX 18 24 19 25 20 26 21 28 22 29 23 30 81 31 24 32 80 33 25 34
REMARK SMILES IDX 26 35 27 36 74 37 28 38 79 39 73 40 75 41 29 42 78 43 72 44
REMARK SMILES IDX 71 45 30 47 60 48 41 49 59 50 42 51 45 52 58 53 76 54 43 55
REMARK SMILES IDX 44 56 57 58 77 59 46 60 31 61 32 62 40 63 33 64 39 65 34 66
REMARK SMILES IDX 35 67 36 68 37 69 38 70 61 71 62 72 70 73 63 74 69 75 64 76
REMARK SMILES IDX 65 77 66 78 67 79 68 80 47 81 48 82 56 83 49 84 55 85 50 86
REMARK SMILES IDX 51 87 52 88 53 89 54 90
REMARK H PARENT 14 6 19 27 75 46 45 57
REMARK Flexibility Score: inf
ROOT
ATOM      1  C   UNL     1      -0.913  -0.904   5.533  1.00  0.00     0.023 C 
ENDROOT
BRANCH   1   2
ATOM      2  C   UNL     1      -1.986   0.148   5.306  1.00  0.00     0.116 C 
BRANCH   2   3
ATOM      3  N   UNL     1      -1.671   1.452   5.829  1.00  0.00    -0.355 N 
ATOM      4  C   UNL     1      -1.666   2.653   5.177  1.00  0.00     0.239 C 
ATOM      5  O   UNL     1      -1.717   3.669   5.881  1.00  0.00    -0.273 OA
ATOM      6  H   UNL     1      -1.427   1.482   6.782  1.00  0.00     0.163 HD
BRANCH   4   7
ATOM      7  C   UNL     1      -1.820   2.769   3.640  1.00  0.00     0.221 C 
BRANCH   7   8
ATOM      8  N   UNL     1      -1.220   1.757   2.747  1.00  0.00    -0.313 N 
BRANCH   8   9
ATOM      9  C   UNL     1       0.162   1.702   2.863  1.00  0.00     0.320 C 
ATOM     10  O   UNL     1       0.706   2.459   3.679  1.00  0.00    -0.248 OA
BRANCH   9  11
ATOM     11  N   UNL     1       0.960   0.842   2.121  1.00  0.00    -0.322 N 
BRANCH  11  12
ATOM     12  C   UNL     1       0.541  -0.302   1.310  1.00  0.00     0.118 C 
ATOM     13  C   UNL     1       0.652  -0.046  -0.193  1.00  0.00     0.027 C 
ENDBRANCH  11  12
BRANCH  11  14
ATOM     14  C   UNL     1       2.416   1.077   2.295  1.00  0.00     0.087 C 
ATOM     15  C   UNL     1       3.424   0.022   1.824  1.00  0.00     0.025 C 
ATOM     16  C   UNL     1       2.891   2.333   1.554  1.00  0.00     0.025 C 
ATOM     17  C   UNL     1       4.753   0.772   1.822  1.00  0.00     0.002 C 
ATOM     18  C   UNL     1       4.412   2.230   1.522  1.00  0.00     0.002 C 
ENDBRANCH  11  14
ENDBRANCH   9  11
ENDBRANCH   8   9
BRANCH   8  19
ATOM     19  C   UNL     1      -2.058   1.394   1.587  1.00  0.00     0.150 C 
BRANCH  19  20
ATOM     20  C   UNL     1      -3.132   0.309   1.815  1.00  0.00     0.181 C 
BRANCH  20  21
ATOM     21  O   UNL     1      -4.414   0.886   2.079  1.00  0.00    -0.383 OA
ATOM     22  C   UNL     1      -4.866   0.757   3.418  1.00  0.00     0.194 C 
ENDBRANCH  20  21
ENDBRANCH  19  20
ENDBRANCH   8  19
ENDBRANCH   7   8
ENDBRANCH   4   7
ENDBRANCH   2   3
ENDBRANCH   1   2
BRANCH   1  23
ATOM     23  C   UNL     1      -0.860  -1.457   6.953  1.00  0.00     0.023 C 
BRANCH  23  24
ATOM     24  C   UNL     1      -2.175  -2.013   7.493  1.00  0.00     0.116 C 
BRANCH  24  25
ATOM     25  N   UNL     1      -2.720  -3.112   6.706  1.00  0.00    -0.352 N 
ATOM     26  C   UNL     1      -3.189  -4.334   7.141  1.00  0.00     0.251 C 
ATOM     27  H   UNL     1      -2.760  -2.961   5.734  1.00  0.00     0.163 HD
ATOM     28  O   UNL     1      -3.534  -5.187   6.336  1.00  0.00    -0.269 OA
BRANCH  26  29
ATOM     29  C   UNL     1      -3.223  -4.612   8.594  1.00  0.00     0.039 A 
ATOM     30  C   UNL     1      -2.609  -5.770   9.076  1.00  0.00     0.014 A 
ATOM     31  C   UNL     1      -3.784  -3.689   9.479  1.00  0.00     0.014 A 
ATOM     32  C   UNL     1      -2.471  -5.953  10.455  1.00  0.00     0.010 A 
ATOM     33  C   UNL     1      -3.570  -3.831  10.847  1.00  0.00     0.010 A 
ATOM     34  C   UNL     1      -2.902  -4.959  11.350  1.00  0.00    -0.014 A 
BRANCH  34  35
ATOM     35  C   UNL     1      -2.643  -5.064  12.810  1.00  0.00     0.031 A 
ATOM     36  C   UNL     1      -3.792  -5.114  13.781  1.00  0.00     0.074 A 
ATOM     37  C   UNL     1      -1.375  -5.032  13.270  1.00  0.00     0.049 A 
ATOM     38  N   UNL     1      -3.766  -5.130  15.089  1.00  0.00    -0.248 NA
ATOM     39  C   UNL     1      -5.148  -5.116  13.207  1.00  0.00     0.031 C 
ATOM     40  C   UNL     1      -0.171  -4.930  12.440  1.00  0.00     0.029 A 
ATOM     41  N   UNL     1      -0.887  -5.072  14.553  1.00  0.00    -0.354 N 
ATOM     42  C   UNL     1      -5.096  -5.121  15.493  1.00  0.00     0.074 A 
ATOM     43  C   UNL     1      -5.902  -5.047  14.294  1.00  0.00     0.031 C 
ATOM     44  C   UNL     1       0.913  -4.946  13.232  1.00  0.00     0.029 A 
ATOM     45  C   UNL     1       0.486  -5.018  14.625  1.00  0.00     0.049 A 
ATOM     46  H   UNL     1      -1.465  -5.135  15.347  1.00  0.00     0.167 HD
ATOM     47  C   UNL     1      -5.603  -5.190  16.747  1.00  0.00     0.031 A 
ATOM     48  C   UNL     1       1.310  -5.022  15.691  1.00  0.00     0.031 A 
ATOM     49  C   UNL     1      -4.803  -5.282  17.939  1.00  0.00     0.049 A 
ATOM     50  C   UNL     1       0.724  -5.109  17.074  1.00  0.00     0.074 A 
ATOM     51  C   UNL     1      -5.225  -5.419  19.250  1.00  0.00     0.029 A 
ATOM     52  N   UNL     1      -3.417  -5.250  17.966  1.00  0.00    -0.354 N 
ATOM     53  N   UNL     1      -0.537  -5.168  17.431  1.00  0.00    -0.248 NA
ATOM     54  C   UNL     1       1.672  -5.143  18.196  1.00  0.00     0.031 C 
ATOM     55  C   UNL     1      -4.095  -5.425  20.074  1.00  0.00     0.029 A 
ATOM     56  C   UNL     1      -2.968  -5.346  19.272  1.00  0.00     0.049 A 
ATOM     57  H   UNL     1      -2.838  -5.170  17.174  1.00  0.00     0.167 HD
ATOM     58  C   UNL     1      -0.532  -5.274  18.817  1.00  0.00     0.074 A 
ATOM     59  C   UNL     1       0.856  -5.284  19.232  1.00  0.00     0.031 C 
ATOM     60  C   UNL     1      -1.583  -5.356  19.670  1.00  0.00     0.031 A 
BRANCH  47  61
ATOM     61  C   UNL     1      -7.102  -5.168  16.890  1.00  0.00    -0.014 A 
ATOM     62  C   UNL     1      -7.885  -6.262  16.477  1.00  0.00     0.010 A 
ATOM     63  C   UNL     1      -7.735  -4.054  17.469  1.00  0.00     0.010 A 
ATOM     64  C   UNL     1      -9.276  -6.223  16.598  1.00  0.00     0.020 A 
ATOM     65  C   UNL     1      -9.125  -4.022  17.619  1.00  0.00     0.020 A 
ATOM     66  C   UNL     1      -9.888  -5.100  17.164  1.00  0.00     0.054 A 
BRANCH  66  67
ATOM     67  S   UNL     1     -11.694  -5.083  17.323  1.00  0.00     0.124 S 
ATOM     68  O   UNL     1     -12.115  -4.859  15.942  1.00  0.00    -0.237 OA
ATOM     69  O   UNL     1     -11.983  -6.411  17.859  1.00  0.00    -0.237 OA
ATOM     70  O   UNL     1     -11.951  -3.975  18.240  1.00  0.00    -0.744 OA
ENDBRANCH  66  67
ENDBRANCH  47  61
BRANCH  48  71
ATOM     71  C   UNL     1       2.785  -4.965  15.492  1.00  0.00    -0.014 A 
ATOM     72  C   UNL     1       3.579  -6.099  15.736  1.00  0.00     0.010 A 
ATOM     73  C   UNL     1       3.401  -3.781  15.048  1.00  0.00     0.010 A 
ATOM     74  C   UNL     1       4.965  -6.046  15.556  1.00  0.00     0.020 A 
ATOM     75  C   UNL     1       4.783  -3.732  14.841  1.00  0.00     0.020 A 
ATOM     76  C   UNL     1       5.558  -4.863  15.108  1.00  0.00     0.054 A 
BRANCH  76  77
ATOM     77  S   UNL     1       7.351  -4.834  14.829  1.00  0.00     0.124 S 
ATOM     78  O   UNL     1       7.869  -4.782  16.192  1.00  0.00    -0.237 OA
ATOM     79  O   UNL     1       7.580  -6.085  14.111  1.00  0.00    -0.237 OA
ATOM     80  O   UNL     1       7.552  -3.624  14.034  1.00  0.00    -0.744 OA
ENDBRANCH  76  77
ENDBRANCH  48  71
BRANCH  60  81
ATOM     81  C   UNL     1      -1.276  -5.501  21.136  1.00  0.00    -0.014 A 
ATOM     82  C   UNL     1      -0.785  -4.421  21.890  1.00  0.00     0.010 A 
ATOM     83  C   UNL     1      -1.533  -6.726  21.779  1.00  0.00     0.010 A 
ATOM     84  C   UNL     1      -0.527  -4.572  23.255  1.00  0.00     0.020 A 
ATOM     85  C   UNL     1      -1.301  -6.873  23.149  1.00  0.00     0.020 A 
ATOM     86  C   UNL     1      -0.785  -5.799  23.875  1.00  0.00     0.054 A 
BRANCH  86  87
ATOM     87  S   UNL     1      -0.481  -5.959  25.656  1.00  0.00     0.124 S 
ATOM     88  O   UNL     1       0.975  -6.046  25.709  1.00  0.00    -0.237 OA
ATOM     89  O   UNL     1      -1.058  -4.728  26.193  1.00  0.00    -0.237 OA
ATOM     90  O   UNL     1      -1.192  -7.183  26.020  1.00  0.00    -0.744 OA
ENDBRANCH  86  87
ENDBRANCH  60  81
ENDBRANCH  34  35
ENDBRANCH  26  29
ENDBRANCH  24  25
ENDBRANCH  23  24
ENDBRANCH   1  23
TORSDOF 22
