REMARK SMILES O=C(NCCCCNC(=O)[C@H]1CC[C@@H](CNC(=O)c2ccc(CO)cc2)O1)c1ccc(-c2c3nc(c(-c4ccc(S(=O)(=O)[O-])cc4)c4ccc([nH]4)c(-c4ccc(S(=O)(=O)[O-])cc4)c4nc(c(-c5ccc(S(=O)(=O)[O-])cc5)c5ccc2[nH]5)C=C4)C=C3)cc1
REMARK SMILES IDX 6 1 5 2 4 3 3 4 1 5 2 6 28 8 29 9 87 10 30 11 86 12 31 13
REMARK SMILES IDX 32 14 33 15 80 16 34 17 85 18 79 19 81 20 35 21 84 22 78 23
REMARK SMILES IDX 77 24 36 26 66 27 47 28 65 29 48 30 51 31 64 32 82 33 49 34
REMARK SMILES IDX 50 35 63 37 83 38 52 39 37 40 38 41 46 42 39 43 45 44 40 45
REMARK SMILES IDX 41 46 42 47 43 48 44 49 67 50 68 51 76 52 69 53 75 54 70 55
REMARK SMILES IDX 71 56 72 57 73 58 74 59 53 60 54 61 62 62 55 63 61 64 56 65
REMARK SMILES IDX 57 66 58 67 59 68 60 69 7 70 8 71 9 72 10 74 11 75 12 76
REMARK SMILES IDX 27 77 13 78 14 79 15 80 16 81 17 82 18 84 19 85 20 86 26 87
REMARK SMILES IDX 21 88 25 89 22 90 23 91 24 92
REMARK H PARENT 3 7 81 25 51 36 8 73 16 83 24 93
REMARK Flexibility Score: inf
ROOT
ATOM      1  C   UNL     1      10.136   2.506   6.262  1.00  0.00     0.023 C 
ENDROOT
BRANCH   1   2
ATOM      2  C   UNL     1      11.264   2.144   7.227  1.00  0.00     0.023 C 
BRANCH   2   3
ATOM      3  C   UNL     1      12.014   0.855   6.914  1.00  0.00     0.116 C 
BRANCH   3   4
ATOM      4  N   UNL     1      12.677   0.879   5.620  1.00  0.00    -0.352 N 
ATOM      5  O   UNL     1      14.401   0.800   4.172  1.00  0.00    -0.269 OA
ATOM      6  C   UNL     1      13.988   0.602   5.311  1.00  0.00     0.251 C 
ATOM      7  H   UNL     1      12.107   1.130   4.858  1.00  0.00     0.163 HD
BRANCH   6   8
ATOM      8  C   UNL     1      14.903   0.092   6.356  1.00  0.00     0.039 A 
ATOM      9  C   UNL     1      14.510  -0.941   7.211  1.00  0.00     0.014 A 
ATOM     10  C   UNL     1      16.178   0.654   6.476  1.00  0.00     0.014 A 
ATOM     11  C   UNL     1      15.337  -1.322   8.263  1.00  0.00     0.010 A 
ATOM     12  C   UNL     1      17.038   0.218   7.489  1.00  0.00     0.010 A 
ATOM     13  C   UNL     1      16.614  -0.755   8.407  1.00  0.00    -0.014 A 
BRANCH  13  14
ATOM     14  C   UNL     1      17.517  -1.247   9.479  1.00  0.00     0.031 A 
ATOM     15  C   UNL     1      17.937  -0.357  10.616  1.00  0.00     0.074 A 
ATOM     16  C   UNL     1      17.949  -2.522   9.422  1.00  0.00     0.049 A 
ATOM     17  N   UNL     1      18.713  -0.637  11.632  1.00  0.00    -0.248 NA
ATOM     18  C   UNL     1      17.427   1.024  10.613  1.00  0.00     0.031 C 
ATOM     19  C   UNL     1      17.616  -3.478   8.362  1.00  0.00     0.029 A 
ATOM     20  N   UNL     1      18.749  -3.238  10.274  1.00  0.00    -0.354 N 
ATOM     21  C   UNL     1      18.802   0.533  12.379  1.00  0.00     0.074 A 
ATOM     22  C   UNL     1      18.015   1.532  11.689  1.00  0.00     0.031 C 
ATOM     23  C   UNL     1      18.175  -4.663   8.647  1.00  0.00     0.029 A 
ATOM     24  C   UNL     1      18.954  -4.537   9.873  1.00  0.00     0.049 A 
ATOM     25  H   UNL     1      19.140  -2.859  11.095  1.00  0.00     0.167 HD
ATOM     26  C   UNL     1      19.478   0.750  13.533  1.00  0.00     0.031 A 
ATOM     27  C   UNL     1      19.701  -5.516  10.416  1.00  0.00     0.031 A 
ATOM     28  C   UNL     1      20.259  -0.249  14.216  1.00  0.00     0.049 A 
ATOM     29  C   UNL     1      20.462  -5.239  11.679  1.00  0.00     0.074 A 
ATOM     30  C   UNL     1      20.945  -0.135  15.413  1.00  0.00     0.029 A 
ATOM     31  N   UNL     1      20.466  -1.542  13.760  1.00  0.00    -0.354 N 
ATOM     32  N   UNL     1      20.499  -4.138  12.390  1.00  0.00    -0.248 NA
ATOM     33  C   UNL     1      21.284  -6.334  12.211  1.00  0.00     0.031 C 
ATOM     34  C   UNL     1      21.608  -1.343  15.656  1.00  0.00     0.029 A 
ATOM     35  C   UNL     1      21.293  -2.227  14.636  1.00  0.00     0.049 A 
ATOM     36  H   UNL     1      20.082  -1.919  12.936  1.00  0.00     0.167 HD
ATOM     37  C   UNL     1      21.342  -4.410  13.460  1.00  0.00     0.074 A 
ATOM     38  C   UNL     1      21.775  -5.785  13.314  1.00  0.00     0.031 C 
ATOM     39  C   UNL     1      21.724  -3.592  14.471  1.00  0.00     0.031 A 
BRANCH  26  40
ATOM     40  C   UNL     1      19.428   2.135  14.125  1.00  0.00    -0.014 A 
ATOM     41  C   UNL     1      18.270   2.614  14.763  1.00  0.00     0.010 A 
ATOM     42  C   UNL     1      20.577   2.947  14.094  1.00  0.00     0.010 A 
ATOM     43  C   UNL     1      18.251   3.893  15.328  1.00  0.00     0.020 A 
ATOM     44  C   UNL     1      20.569   4.218  14.677  1.00  0.00     0.020 A 
ATOM     45  C   UNL     1      19.400   4.689  15.277  1.00  0.00     0.054 A 
BRANCH  45  46
ATOM     46  S   UNL     1      19.356   6.336  16.038  1.00  0.00     0.124 S 
ATOM     47  O   UNL     1      18.563   7.091  15.071  1.00  0.00    -0.237 OA
ATOM     48  O   UNL     1      18.704   6.081  17.320  1.00  0.00    -0.237 OA
ATOM     49  O   UNL     1      20.763   6.717  16.123  1.00  0.00    -0.744 OA
ENDBRANCH  45  46
ENDBRANCH  26  40
BRANCH  27  50
ATOM     50  C   UNL     1      19.774  -6.840   9.744  1.00  0.00    -0.014 A 
ATOM     51  C   UNL     1      19.143  -7.964  10.303  1.00  0.00     0.010 A 
ATOM     52  C   UNL     1      20.447  -6.970   8.514  1.00  0.00     0.010 A 
ATOM     53  C   UNL     1      19.190  -9.198   9.647  1.00  0.00     0.020 A 
ATOM     54  C   UNL     1      20.473  -8.195   7.843  1.00  0.00     0.020 A 
ATOM     55  C   UNL     1      19.852  -9.304   8.420  1.00  0.00     0.054 A 
BRANCH  55  56
ATOM     56  S   UNL     1      19.844 -10.898   7.552  1.00  0.00     0.124 S 
ATOM     57  O   UNL     1      20.846 -11.653   8.298  1.00  0.00    -0.237 OA
ATOM     58  O   UNL     1      18.462 -11.343   7.718  1.00  0.00    -0.237 OA
ATOM     59  O   UNL     1      20.214 -10.541   6.184  1.00  0.00    -0.744 OA
ENDBRANCH  55  56
ENDBRANCH  27  50
BRANCH  39  60
ATOM     60  C   UNL     1      22.648  -4.169  15.507  1.00  0.00    -0.014 A 
ATOM     61  C   UNL     1      24.009  -4.379  15.225  1.00  0.00     0.010 A 
ATOM     62  C   UNL     1      22.158  -4.460  16.793  1.00  0.00     0.010 A 
ATOM     63  C   UNL     1      24.860  -4.895  16.205  1.00  0.00     0.020 A 
ATOM     64  C   UNL     1      23.011  -4.954  17.782  1.00  0.00     0.020 A 
ATOM     65  C   UNL     1      24.355  -5.181  17.478  1.00  0.00     0.054 A 
BRANCH  65  66
ATOM     66  S   UNL     1      25.489  -5.806  18.749  1.00  0.00     0.124 S 
ATOM     67  O   UNL     1      25.665  -7.197  18.340  1.00  0.00    -0.237 OA
ATOM     68  O   UNL     1      26.661  -4.949  18.584  1.00  0.00    -0.237 OA
ATOM     69  O   UNL     1      24.752  -5.610  19.995  1.00  0.00    -0.744 OA
ENDBRANCH  65  66
ENDBRANCH  39  60
ENDBRANCH  13  14
ENDBRANCH   6   8
ENDBRANCH   3   4
ENDBRANCH   2   3
ENDBRANCH   1   2
BRANCH   1  70
ATOM     70  C   UNL     1       9.106   1.409   6.011  1.00  0.00     0.116 C 
BRANCH  70  71
ATOM     71  N   UNL     1       8.429   0.973   7.219  1.00  0.00    -0.354 N 
ATOM     72  C   UNL     1       7.084   0.865   7.452  1.00  0.00     0.249 C 
ATOM     73  H   UNL     1       9.014   0.722   7.970  1.00  0.00     0.163 HD
ATOM     74  O   UNL     1       6.707   0.391   8.526  1.00  0.00    -0.272 OA
BRANCH  72  75
ATOM     75  C   UNL     1       6.101   1.369   6.383  1.00  0.00     0.207 C 
ATOM     76  C   UNL     1       4.707   0.781   6.511  1.00  0.00     0.045 C 
ATOM     77  O   UNL     1       5.975   2.794   6.524  1.00  0.00    -0.363 OA
ATOM     78  C   UNL     1       3.989   1.786   7.370  1.00  0.00     0.037 C 
ATOM     79  C   UNL     1       4.640   3.103   6.972  1.00  0.00     0.138 C 
BRANCH  79  80
ATOM     80  C   UNL     1       4.658   4.083   8.151  1.00  0.00     0.148 C 
BRANCH  80  81
ATOM     81  N   UNL     1       5.319   5.341   7.833  1.00  0.00    -0.349 N 
ATOM     82  C   UNL     1       4.835   6.617   7.723  1.00  0.00     0.251 C 
ATOM     83  H   UNL     1       6.286   5.259   7.666  1.00  0.00     0.163 HD
ATOM     84  O   UNL     1       5.572   7.524   7.345  1.00  0.00    -0.269 OA
BRANCH  82  85
ATOM     85  C   UNL     1       3.412   6.919   7.995  1.00  0.00     0.039 A 
ATOM     86  C   UNL     1       2.721   7.694   7.058  1.00  0.00     0.014 A 
ATOM     87  C   UNL     1       2.765   6.503   9.162  1.00  0.00     0.014 A 
ATOM     88  C   UNL     1       1.366   7.975   7.242  1.00  0.00     0.007 A 
ATOM     89  C   UNL     1       1.404   6.771   9.339  1.00  0.00     0.007 A 
ATOM     90  C   UNL     1       0.688   7.484   8.367  1.00  0.00    -0.023 A 
BRANCH  90  91
ATOM     91  C   UNL     1      -0.782   7.758   8.538  1.00  0.00     0.191 C 
BRANCH  91  92
ATOM     92  O   UNL     1      -1.003   9.084   8.995  1.00  0.00    -0.392 OA
ATOM     93  H   UNL     1      -0.572   9.206   9.856  1.00  0.00     0.211 HD
ENDBRANCH  91  92
ENDBRANCH  90  91
ENDBRANCH  82  85
ENDBRANCH  80  81
ENDBRANCH  79  80
ENDBRANCH  72  75
ENDBRANCH  70  71
ENDBRANCH   1  70
TORSDOF 19
