REMARK SMILES Cn1c(=O)[nH]c(=O)c2c1nc(NC1CCCC1)n2CC(=O)NCCCCNC(=O)c1ccc(-c2c3nc(c(-c4ccc(S(=O)(=O)[O-])cc4)c4ccc([nH]4)c(-c4ccc(S(=O)(=O)[O-])cc4)c4nc(c(-c5ccc(S(=O)(=O)[O-])cc5)c5ccc2[nH]5)C=C4)C=C3)cc1
REMARK SMILES IDX 24 1 23 2 22 3 20 4 21 5 19 7 18 8 1 9 2 10 3 11 9 12 4 13
REMARK SMILES IDX 5 14 8 15 10 16 6 17 11 19 7 20 12 21 13 23 14 24 17 25
REMARK SMILES IDX 15 26 16 27 25 28 26 29 27 30 28 31 29 33 30 34 31 35 89 36
REMARK SMILES IDX 32 37 88 38 33 39 34 40 35 41 82 42 36 43 87 44 81 45 83 46
REMARK SMILES IDX 37 47 86 48 80 49 79 50 38 52 68 53 49 54 67 55 50 56 53 57
REMARK SMILES IDX 66 58 84 59 51 60 52 61 65 63 85 64 54 65 39 66 40 67 48 68
REMARK SMILES IDX 41 69 47 70 42 71 43 72 44 73 45 74 46 75 69 76 70 77 78 78
REMARK SMILES IDX 71 79 77 80 72 81 73 82 74 83 75 84 76 85 55 86 56 87 64 88
REMARK SMILES IDX 57 89 63 90 58 91 59 92 60 93 61 94 62 95
REMARK H PARENT 22 6 5 18 12 22 27 32 83 51 53 62
REMARK Flexibility Score: inf
ROOT
ATOM      1  C   UNL     1       3.638   2.897   3.490  1.00  0.00     0.023 C 
ENDROOT
BRANCH   1   2
ATOM      2  C   UNL     1       2.851   3.829   4.420  1.00  0.00     0.116 C 
BRANCH   2   3
ATOM      3  N   UNL     1       2.861   5.202   3.949  1.00  0.00    -0.355 N 
ATOM      4  C   UNL     1       1.898   5.883   3.260  1.00  0.00     0.240 C 
ATOM      5  O   UNL     1       2.166   7.003   2.817  1.00  0.00    -0.273 OA
ATOM      6  H   UNL     1       3.677   5.714   4.154  1.00  0.00     0.163 HD
BRANCH   4   7
ATOM      7  C   UNL     1       0.526   5.279   3.040  1.00  0.00     0.226 C 
BRANCH   7   8
ATOM      8  N   UNL     1       0.547   4.179   2.096  1.00  0.00    -0.295 N 
ATOM      9  C   UNL     1       0.869   0.122  -0.033  1.00  0.00     0.157 C 
ATOM     10  N   UNL     1       0.373   0.831   1.130  1.00  0.00    -0.279 N 
ATOM     11  C   UNL     1      -0.172   0.141   2.206  1.00  0.00     0.329 A 
ATOM     12  C   UNL     1       0.506   2.199   1.220  1.00  0.00     0.170 A 
ATOM     13  O   UNL     1      -0.300  -1.082   2.245  1.00  0.00    -0.248 OA
ATOM     14  N   UNL     1      -0.579   0.895   3.292  1.00  0.00    -0.272 N 
ATOM     15  C   UNL     1       0.128   2.894   2.331  1.00  0.00     0.154 A 
ATOM     16  N   UNL     1       1.050   3.005   0.279  1.00  0.00    -0.194 NA
ATOM     17  C   UNL     1      -0.475   2.256   3.447  1.00  0.00     0.279 A 
ATOM     18  H   UNL     1      -0.990   0.400   4.038  1.00  0.00     0.175 HD
ATOM     19  C   UNL     1       1.075   4.209   0.815  1.00  0.00     0.206 A 
ATOM     20  O   UNL     1      -0.853   2.824   4.471  1.00  0.00    -0.267 OA
BRANCH  19  21
ATOM     21  N   UNL     1       1.570   5.338   0.267  1.00  0.00    -0.353 N 
ATOM     22  H   UNL     1       1.551   6.166   0.800  1.00  0.00     0.163 HD
BRANCH  21  23
ATOM     23  C   UNL     1       2.130   5.388  -1.074  1.00  0.00     0.082 C 
ATOM     24  C   UNL     1       3.310   4.450  -1.302  1.00  0.00     0.025 C 
ATOM     25  C   UNL     1       1.128   5.034  -2.170  1.00  0.00     0.025 C 
ATOM     26  C   UNL     1       3.392   4.336  -2.817  1.00  0.00     0.002 C 
ATOM     27  C   UNL     1       1.968   4.518  -3.336  1.00  0.00     0.002 C 
ENDBRANCH  21  23
ENDBRANCH  19  21
ENDBRANCH   7   8
ENDBRANCH   4   7
ENDBRANCH   2   3
ENDBRANCH   1   2
BRANCH   1  28
ATOM     28  C   UNL     1       5.158   3.112   3.480  1.00  0.00     0.023 C 
BRANCH  28  29
ATOM     29  C   UNL     1       5.841   2.869   4.821  1.00  0.00     0.116 C 
BRANCH  29  30
ATOM     30  N   UNL     1       5.723   1.485   5.266  1.00  0.00    -0.352 N 
ATOM     31  C   UNL     1       6.153   0.941   6.458  1.00  0.00     0.251 C 
ATOM     32  H   UNL     1       5.283   0.865   4.641  1.00  0.00     0.163 HD
ATOM     33  O   UNL     1       6.365  -0.263   6.550  1.00  0.00    -0.269 OA
BRANCH  31  34
ATOM     34  C   UNL     1       6.357   1.826   7.620  1.00  0.00     0.039 A 
ATOM     35  C   UNL     1       7.479   1.675   8.440  1.00  0.00     0.014 A 
ATOM     36  C   UNL     1       5.411   2.818   7.882  1.00  0.00     0.014 A 
ATOM     37  C   UNL     1       7.689   2.586   9.473  1.00  0.00     0.010 A 
ATOM     38  C   UNL     1       5.666   3.773   8.843  1.00  0.00     0.010 A 
ATOM     39  C   UNL     1       6.791   3.650   9.656  1.00  0.00    -0.014 A 
BRANCH  39  40
ATOM     40  C   UNL     1       7.119   4.733  10.584  1.00  0.00     0.031 A 
ATOM     41  C   UNL     1       8.411   5.418  10.295  1.00  0.00     0.074 A 
ATOM     42  C   UNL     1       6.239   5.242  11.473  1.00  0.00     0.049 A 
ATOM     43  N   UNL     1       9.475   5.448  11.027  1.00  0.00    -0.248 NA
ATOM     44  C   UNL     1       8.588   6.033   8.967  1.00  0.00     0.031 C 
ATOM     45  C   UNL     1       4.829   4.872  11.644  1.00  0.00     0.029 A 
ATOM     46  N   UNL     1       6.377   6.296  12.327  1.00  0.00    -0.354 N 
ATOM     47  C   UNL     1      10.379   6.271  10.358  1.00  0.00     0.074 A 
ATOM     48  C   UNL     1       9.857   6.440   9.026  1.00  0.00     0.031 C 
ATOM     49  C   UNL     1       4.192   5.835  12.345  1.00  0.00     0.029 A 
ATOM     50  C   UNL     1       5.172   6.800  12.811  1.00  0.00     0.049 A 
ATOM     51  H   UNL     1       7.253   6.669  12.579  1.00  0.00     0.167 HD
ATOM     52  C   UNL     1      11.349   6.957  11.025  1.00  0.00     0.031 A 
ATOM     53  C   UNL     1       4.980   7.948  13.510  1.00  0.00     0.031 A 
ATOM     54  C   UNL     1      11.506   6.474  12.372  1.00  0.00     0.049 A 
ATOM     55  C   UNL     1       6.287   8.315  14.102  1.00  0.00     0.074 A 
ATOM     56  C   UNL     1      11.854   5.269  12.946  1.00  0.00     0.029 A 
ATOM     57  N   UNL     1      10.899   7.215  13.358  1.00  0.00    -0.354 N 
ATOM     58  N   UNL     1       6.891   7.601  15.011  1.00  0.00    -0.248 NA
ATOM     59  C   UNL     1       7.133   9.255  13.385  1.00  0.00     0.031 C 
ATOM     60  C   UNL     1      11.047   5.173  14.116  1.00  0.00     0.029 A 
ATOM     61  C   UNL     1      10.303   6.349  14.235  1.00  0.00     0.049 A 
ATOM     62  H   UNL     1      10.894   8.197  13.422  1.00  0.00     0.167 HD
ATOM     63  C   UNL     1       8.236   7.672  14.678  1.00  0.00     0.074 A 
ATOM     64  C   UNL     1       8.334   8.797  13.750  1.00  0.00     0.031 C 
ATOM     65  C   UNL     1       9.086   6.643  14.966  1.00  0.00     0.031 A 
BRANCH  52  66
ATOM     66  C   UNL     1      11.847   8.327  10.620  1.00  0.00    -0.014 A 
ATOM     67  C   UNL     1      12.859   8.937  11.392  1.00  0.00     0.010 A 
ATOM     68  C   UNL     1      11.168   9.152   9.700  1.00  0.00     0.010 A 
ATOM     69  C   UNL     1      13.118  10.311  11.305  1.00  0.00     0.020 A 
ATOM     70  C   UNL     1      11.449  10.514   9.571  1.00  0.00     0.020 A 
ATOM     71  C   UNL     1      12.399  11.093  10.401  1.00  0.00     0.054 A 
BRANCH  71  72
ATOM     72  S   UNL     1      12.668  12.882  10.365  1.00  0.00     0.124 S 
ATOM     73  O   UNL     1      12.194  13.283  11.686  1.00  0.00    -0.237 OA
ATOM     74  O   UNL     1      14.109  12.972  10.152  1.00  0.00    -0.237 OA
ATOM     75  O   UNL     1      11.847  13.327   9.241  1.00  0.00    -0.744 OA
ENDBRANCH  71  72
ENDBRANCH  52  66
BRANCH  53  76
ATOM     76  C   UNL     1       3.825   8.883  13.458  1.00  0.00    -0.014 A 
ATOM     77  C   UNL     1       3.689   9.927  14.394  1.00  0.00     0.010 A 
ATOM     78  C   UNL     1       3.000   8.925  12.315  1.00  0.00     0.010 A 
ATOM     79  C   UNL     1       2.812  11.003  14.162  1.00  0.00     0.020 A 
ATOM     80  C   UNL     1       2.118   9.988  12.081  1.00  0.00     0.020 A 
ATOM     81  C   UNL     1       2.048  11.037  12.993  1.00  0.00     0.054 A 
BRANCH  81  82
ATOM     82  S   UNL     1       1.056  12.513  12.610  1.00  0.00     0.124 S 
ATOM     83  O   UNL     1       0.018  12.466  13.636  1.00  0.00    -0.237 OA
ATOM     84  O   UNL     1       2.030  13.592  12.743  1.00  0.00    -0.237 OA
ATOM     85  O   UNL     1       0.589  12.269  11.246  1.00  0.00    -0.744 OA
ENDBRANCH  81  82
ENDBRANCH  53  76
BRANCH  65  86
ATOM     86  C   UNL     1       8.643   5.592  15.957  1.00  0.00    -0.014 A 
ATOM     87  C   UNL     1       7.546   4.730  15.760  1.00  0.00     0.010 A 
ATOM     88  C   UNL     1       9.490   5.359  17.055  1.00  0.00     0.010 A 
ATOM     89  C   UNL     1       7.303   3.669  16.648  1.00  0.00     0.020 A 
ATOM     90  C   UNL     1       9.265   4.294  17.929  1.00  0.00     0.020 A 
ATOM     91  C   UNL     1       8.171   3.455  17.724  1.00  0.00     0.054 A 
BRANCH  91  92
ATOM     92  S   UNL     1       7.898   2.041  18.829  1.00  0.00     0.124 S 
ATOM     93  O   UNL     1       6.651   2.398  19.501  1.00  0.00    -0.237 OA
ATOM     94  O   UNL     1       7.814   0.916  17.901  1.00  0.00    -0.237 OA
ATOM     95  O   UNL     1       9.082   2.036  19.689  1.00  0.00    -0.744 OA
ENDBRANCH  91  92
ENDBRANCH  65  86
ENDBRANCH  39  40
ENDBRANCH  31  34
ENDBRANCH  29  30
ENDBRANCH  28  29
ENDBRANCH   1  28
TORSDOF 17
