REMARK SMILES O=C(NCCCCNC(=O)[C@@H](c1cccc(O)c1)[NH+]1CC[NH+](C2CCCC2)CC1)c1ccc(-c2c3nc(c(-c4ccc(S(=O)(=O)[O-])cc4)c4ccc([nH]4)c(-c4ccc(S(=O)(=O)[O-])cc4)c4nc(c(-c5ccc(S(=O)(=O)[O-])cc5)c5ccc2[nH]5)C=C4)C=C3)cc1
REMARK SMILES IDX 5 1 4 2 3 3 1 4 2 5 30 7 31 8 89 9 32 10 88 11 33 12 34 13
REMARK SMILES IDX 35 14 82 15 36 16 87 17 81 18 83 19 37 20 86 21 80 22 79 23
REMARK SMILES IDX 38 25 68 26 49 27 67 28 50 29 53 30 66 31 84 32 51 33 52 34
REMARK SMILES IDX 65 36 85 37 54 38 39 39 40 40 48 41 41 42 47 43 42 44 43 45
REMARK SMILES IDX 44 46 45 47 46 48 69 49 70 50 78 51 71 52 77 53 72 54 73 55
REMARK SMILES IDX 74 56 75 57 76 58 55 59 56 60 64 61 57 62 63 63 58 64 59 65
REMARK SMILES IDX 60 66 61 67 62 68 6 69 7 70 8 71 9 72 10 74 11 75 12 76
REMARK SMILES IDX 13 77 18 78 14 79 16 80 15 81 17 82 19 84 20 85 29 86 21 88
REMARK SMILES IDX 28 89 22 90 23 92 24 93 27 94 25 95 26 96
REMARK H PARENT 3 6 83 24 53 35 8 73 17 83 19 87 22 91
REMARK Flexibility Score: inf
ROOT
ATOM      1  C   UNL     1       4.635  -0.646  -2.686  1.00  0.00     0.023 C 
ENDROOT
BRANCH   1   2
ATOM      2  C   UNL     1       4.372  -0.023  -1.325  1.00  0.00     0.116 C 
BRANCH   2   3
ATOM      3  N   UNL     1       2.958   0.203  -1.067  1.00  0.00    -0.352 N 
ATOM      4  O   UNL     1       1.028   0.073   0.096  1.00  0.00    -0.269 OA
ATOM      5  C   UNL     1       2.244  -0.055   0.081  1.00  0.00     0.251 C 
ATOM      6  H   UNL     1       2.445   0.593  -1.812  1.00  0.00     0.163 HD
BRANCH   5   7
ATOM      7  C   UNL     1       2.970  -0.521   1.283  1.00  0.00     0.039 A 
ATOM      8  C   UNL     1       4.141   0.121   1.688  1.00  0.00     0.014 A 
ATOM      9  C   UNL     1       2.493  -1.632   1.983  1.00  0.00     0.014 A 
ATOM     10  C   UNL     1       4.913  -0.437   2.698  1.00  0.00     0.010 A 
ATOM     11  C   UNL     1       3.227  -2.138   3.060  1.00  0.00     0.010 A 
ATOM     12  C   UNL     1       4.460  -1.563   3.405  1.00  0.00    -0.014 A 
BRANCH  12  13
ATOM     13  C   UNL     1       5.274  -2.069   4.538  1.00  0.00     0.031 A 
ATOM     14  C   UNL     1       5.923  -3.425   4.497  1.00  0.00     0.074 A 
ATOM     15  C   UNL     1       5.474  -1.251   5.591  1.00  0.00     0.049 A 
ATOM     16  N   UNL     1       6.714  -3.980   5.380  1.00  0.00    -0.248 NA
ATOM     17  C   UNL     1       5.650  -4.269   3.323  1.00  0.00     0.031 C 
ATOM     18  C   UNL     1       4.883   0.083   5.744  1.00  0.00     0.029 A 
ATOM     19  N   UNL     1       6.251  -1.399   6.710  1.00  0.00    -0.354 N 
ATOM     20  C   UNL     1       7.025  -5.239   4.878  1.00  0.00     0.074 A 
ATOM     21  C   UNL     1       6.315  -5.377   3.624  1.00  0.00     0.031 C 
ATOM     22  C   UNL     1       5.366   0.652   6.857  1.00  0.00     0.029 A 
ATOM     23  C   UNL     1       6.248  -0.294   7.527  1.00  0.00     0.049 A 
ATOM     24  H   UNL     1       6.761  -2.217   6.908  1.00  0.00     0.167 HD
ATOM     25  C   UNL     1       7.833  -6.188   5.412  1.00  0.00     0.031 A 
ATOM     26  C   UNL     1       6.877  -0.067   8.695  1.00  0.00     0.031 A 
ATOM     27  C   UNL     1       8.533  -6.045   6.663  1.00  0.00     0.049 A 
ATOM     28  C   UNL     1       7.762  -1.136   9.263  1.00  0.00     0.074 A 
ATOM     29  C   UNL     1       9.370  -6.952   7.291  1.00  0.00     0.029 A 
ATOM     30  N   UNL     1       8.484  -4.922   7.475  1.00  0.00    -0.354 N 
ATOM     31  N   UNL     1       8.043  -2.318   8.768  1.00  0.00    -0.248 NA
ATOM     32  C   UNL     1       8.415  -0.842  10.544  1.00  0.00     0.031 C 
ATOM     33  C   UNL     1       9.799  -6.390   8.499  1.00  0.00     0.029 A 
ATOM     34  C   UNL     1       9.267  -5.115   8.601  1.00  0.00     0.049 A 
ATOM     35  H   UNL     1       7.968  -4.106   7.280  1.00  0.00     0.167 HD
ATOM     36  C   UNL     1       8.909  -2.909   9.678  1.00  0.00     0.074 A 
ATOM     37  C   UNL     1       9.131  -1.941  10.734  1.00  0.00     0.031 C 
ATOM     38  C   UNL     1       9.464  -4.146   9.648  1.00  0.00     0.031 A 
BRANCH  25  39
ATOM     39  C   UNL     1       7.994  -7.478   4.650  1.00  0.00    -0.014 A 
ATOM     40  C   UNL     1       8.769  -7.534   3.477  1.00  0.00     0.010 A 
ATOM     41  C   UNL     1       7.413  -8.661   5.142  1.00  0.00     0.010 A 
ATOM     42  C   UNL     1       8.934  -8.743   2.795  1.00  0.00     0.020 A 
ATOM     43  C   UNL     1       7.595  -9.877   4.475  1.00  0.00     0.020 A 
ATOM     44  C   UNL     1       8.343  -9.906   3.296  1.00  0.00     0.054 A 
BRANCH  44  45
ATOM     45  S   UNL     1       8.597 -11.467   2.406  1.00  0.00     0.124 S 
ATOM     46  O   UNL     1       7.723 -11.298   1.248  1.00  0.00    -0.237 OA
ATOM     47  O   UNL     1      10.029 -11.446   2.119  1.00  0.00    -0.237 OA
ATOM     48  O   UNL     1       8.172 -12.486   3.363  1.00  0.00    -0.744 OA
ENDBRANCH  44  45
ENDBRANCH  25  39
BRANCH  26  49
ATOM     49  C   UNL     1       6.665   1.222   9.406  1.00  0.00    -0.014 A 
ATOM     50  C   UNL     1       7.694   2.175   9.495  1.00  0.00     0.010 A 
ATOM     51  C   UNL     1       5.411   1.509   9.976  1.00  0.00     0.010 A 
ATOM     52  C   UNL     1       7.477   3.386  10.158  1.00  0.00     0.020 A 
ATOM     53  C   UNL     1       5.182   2.730  10.613  1.00  0.00     0.020 A 
ATOM     54  C   UNL     1       6.222   3.655  10.713  1.00  0.00     0.054 A 
BRANCH  54  55
ATOM     55  S   UNL     1       5.940   5.252  11.526  1.00  0.00     0.124 S 
ATOM     56  O   UNL     1       6.560   5.040  12.830  1.00  0.00    -0.237 OA
ATOM     57  O   UNL     1       6.629   6.188  10.641  1.00  0.00    -0.237 OA
ATOM     58  O   UNL     1       4.484   5.375  11.535  1.00  0.00    -0.744 OA
ENDBRANCH  54  55
ENDBRANCH  26  49
BRANCH  38  59
ATOM     59  C   UNL     1      10.371  -4.507  10.790  1.00  0.00    -0.014 A 
ATOM     60  C   UNL     1       9.851  -4.790  12.066  1.00  0.00     0.010 A 
ATOM     61  C   UNL     1      11.760  -4.576  10.582  1.00  0.00     0.010 A 
ATOM     62  C   UNL     1      10.708  -5.093  13.126  1.00  0.00     0.020 A 
ATOM     63  C   UNL     1      12.619  -4.902  11.634  1.00  0.00     0.020 A 
ATOM     64  C   UNL     1      12.088  -5.139  12.904  1.00  0.00     0.054 A 
BRANCH  64  65
ATOM     65  S   UNL     1      13.184  -5.549  14.291  1.00  0.00     0.124 S 
ATOM     66  O   UNL     1      13.217  -4.291  15.031  1.00  0.00    -0.237 OA
ATOM     67  O   UNL     1      12.478  -6.646  14.948  1.00  0.00    -0.237 OA
ATOM     68  O   UNL     1      14.437  -5.924  13.640  1.00  0.00    -0.744 OA
ENDBRANCH  64  65
ENDBRANCH  38  59
ENDBRANCH  12  13
ENDBRANCH   5   7
ENDBRANCH   2   3
ENDBRANCH   1   2
BRANCH   1  69
ATOM     69  C   UNL     1       4.134   0.174  -3.874  1.00  0.00     0.023 C 
BRANCH  69  70
ATOM     70  C   UNL     1       4.650   1.611  -3.926  1.00  0.00     0.116 C 
BRANCH  70  71
ATOM     71  N   UNL     1       6.095   1.668  -3.989  1.00  0.00    -0.351 N 
ATOM     72  C   UNL     1       6.904   1.868  -5.069  1.00  0.00     0.283 C 
ATOM     73  H   UNL     1       6.559   1.545  -3.130  1.00  0.00     0.163 HD
ATOM     74  O   UNL     1       8.126   1.828  -4.875  1.00  0.00    -0.268 OA
BRANCH  72  75
ATOM     75  C   UNL     1       6.337   2.184  -6.488  1.00  0.00     0.306 C 
BRANCH  75  76
ATOM     76  C   UNL     1       5.545   0.980  -7.024  1.00  0.00     0.023 A 
ATOM     77  C   UNL     1       4.185   1.038  -7.379  1.00  0.00     0.011 A 
ATOM     78  C   UNL     1       6.191  -0.268  -7.113  1.00  0.00     0.056 A 
ATOM     79  C   UNL     1       3.497  -0.103  -7.804  1.00  0.00     0.004 A 
ATOM     80  C   UNL     1       5.488  -1.406  -7.503  1.00  0.00     0.116 A 
ATOM     81  C   UNL     1       4.147  -1.333  -7.858  1.00  0.00     0.046 A 
BRANCH  80  82
ATOM     82  O   UNL     1       6.154  -2.595  -7.498  1.00  0.00    -0.508 OA
ATOM     83  H   UNL     1       5.712  -3.381  -7.754  1.00  0.00     0.293 HD
ENDBRANCH  80  82
ENDBRANCH  75  76
BRANCH  75  84
ATOM     84  N   UNL     1       5.630   3.502  -6.548  1.00  0.00    -0.312 N 
ATOM     85  C   UNL     1       6.102   4.531  -5.598  1.00  0.00     0.325 C 
ATOM     86  C   UNL     1       5.404   3.966  -7.927  1.00  0.00     0.325 C 
ATOM     87  H   UNL     1       4.699   3.311  -6.178  1.00  0.00     0.349 HD
ATOM     88  C   UNL     1       6.258   6.013  -6.045  1.00  0.00     0.324 C 
ATOM     89  C   UNL     1       5.936   5.356  -8.296  1.00  0.00     0.324 C 
ATOM     90  N   UNL     1       5.636   6.396  -7.314  1.00  0.00    -0.323 N 
ATOM     91  H   UNL     1       6.048   7.256  -7.676  1.00  0.00     0.348 HD
BRANCH  90  92
ATOM     92  C   UNL     1       4.249   6.851  -7.192  1.00  0.00     0.184 C 
ATOM     93  C   UNL     1       3.436   6.945  -8.489  1.00  0.00     0.065 C 
ATOM     94  C   UNL     1       3.285   6.134  -6.230  1.00  0.00     0.065 C 
ATOM     95  C   UNL     1       2.043   7.298  -7.989  1.00  0.00     0.006 C 
ATOM     96  C   UNL     1       1.874   6.479  -6.715  1.00  0.00     0.006 C 
ENDBRANCH  90  92
ENDBRANCH  75  84
ENDBRANCH  72  75
ENDBRANCH  70  71
ENDBRANCH  69  70
ENDBRANCH   1  69
TORSDOF 18
