REMARK SMILES CCCN(CC)S(=O)(=O)c1ccc(C(=O)NCCCCNC(=O)c2ccc(-c3c4nc(c(-c5ccc(S(=O)(=O)[O-])cc5)c5ccc([nH]5)c(-c5ccc(S(=O)(=O)[O-])cc5)c5nc(c(-c6ccc(S(=O)(=O)[O-])cc6)c6ccc3[nH]6)C=C5)C=C4)cc2)o1
REMARK SMILES IDX 18 1 17 2 16 3 14 4 15 5 13 7 10 8 11 9 84 10 12 11 7 12
REMARK SMILES IDX 8 13 9 14 4 15 3 16 2 17 1 18 5 19 6 20 19 21 20 22 21 23
REMARK SMILES IDX 22 24 23 26 24 27 25 28 83 29 26 30 82 31 27 32 28 33 29 34
REMARK SMILES IDX 76 35 30 36 81 37 75 38 77 39 31 40 80 41 74 42 73 43 32 45
REMARK SMILES IDX 62 46 43 47 61 48 44 49 47 50 60 51 78 52 45 53 46 54 59 56
REMARK SMILES IDX 79 57 48 58 33 59 34 60 42 61 35 62 41 63 36 64 37 65 38 66
REMARK SMILES IDX 39 67 40 68 63 69 64 70 72 71 65 72 71 73 66 74 67 75 68 76
REMARK SMILES IDX 69 77 70 78 49 79 50 80 58 81 51 82 57 83 52 84 53 85 54 86
REMARK SMILES IDX 55 87 56 88
REMARK H PARENT 16 6 21 25 77 44 47 55
REMARK Flexibility Score: inf
ROOT
ATOM      1  C   UNL     1      -0.552   1.653   9.362  1.00  0.00     0.023 C 
ENDROOT
BRANCH   1   2
ATOM      2  C   UNL     1      -1.200   2.667   8.420  1.00  0.00     0.116 C 
BRANCH   2   3
ATOM      3  N   UNL     1      -0.213   3.379   7.640  1.00  0.00    -0.349 N 
ATOM      4  C   UNL     1       0.442   3.051   6.475  1.00  0.00     0.287 C 
ATOM      5  O   UNL     1       1.240   3.899   6.067  1.00  0.00    -0.266 OA
ATOM      6  H   UNL     1       0.036   4.257   8.009  1.00  0.00     0.163 HD
BRANCH   4   7
ATOM      7  C   UNL     1       0.204   1.800   5.769  1.00  0.00     0.193 A 
ATOM      8  C   UNL     1       0.533   0.455   3.994  1.00  0.00     0.234 A 
ATOM      9  C   UNL     1      -0.386  -0.162   4.828  1.00  0.00     0.065 A 
ATOM     10  O   UNL     1       0.888   1.644   4.589  1.00  0.00    -0.438 OA
ATOM     11  C   UNL     1      -0.566   0.669   5.962  1.00  0.00     0.058 A 
BRANCH   8  12
ATOM     12  S   UNL     1       1.190   0.009   2.386  1.00  0.00     0.276 S 
ATOM     13  O   UNL     1       2.617   0.244   2.459  1.00  0.00    -0.204 OA
ATOM     14  O   UNL     1       0.352   0.744   1.465  1.00  0.00    -0.204 OA
BRANCH  12  15
ATOM     15  N   UNL     1       0.949  -1.671   2.101  1.00  0.00    -0.195 NA
BRANCH  15  16
ATOM     16  C   UNL     1       1.285  -2.108   0.706  1.00  0.00     0.102 C 
BRANCH  16  17
ATOM     17  C   UNL     1       0.227  -1.677  -0.311  1.00  0.00     0.013 C 
ATOM     18  C   UNL     1       0.778  -0.681  -1.322  1.00  0.00     0.005 C 
ENDBRANCH  16  17
ENDBRANCH  15  16
BRANCH  15  19
ATOM     19  C   UNL     1       1.470  -2.622   3.128  1.00  0.00     0.099 C 
ATOM     20  C   UNL     1       2.983  -2.696   3.222  1.00  0.00     0.022 C 
ENDBRANCH  15  19
ENDBRANCH  12  15
ENDBRANCH   8  12
ENDBRANCH   4   7
ENDBRANCH   2   3
ENDBRANCH   1   2
BRANCH   1  21
ATOM     21  C   UNL     1       0.077   2.272  10.620  1.00  0.00     0.023 C 
BRANCH  21  22
ATOM     22  C   UNL     1      -0.924   2.884  11.602  1.00  0.00     0.116 C 
BRANCH  22  23
ATOM     23  N   UNL     1      -1.901   1.915  12.070  1.00  0.00    -0.352 N 
ATOM     24  C   UNL     1      -2.798   2.018  13.103  1.00  0.00     0.251 C 
ATOM     25  H   UNL     1      -1.921   1.064  11.576  1.00  0.00     0.163 HD
ATOM     26  O   UNL     1      -3.448   1.030  13.436  1.00  0.00    -0.269 OA
BRANCH  24  27
ATOM     27  C   UNL     1      -2.946   3.286  13.851  1.00  0.00     0.039 A 
ATOM     28  C   UNL     1      -2.928   3.229  15.249  1.00  0.00     0.014 A 
ATOM     29  C   UNL     1      -3.140   4.508  13.203  1.00  0.00     0.014 A 
ATOM     30  C   UNL     1      -3.047   4.401  15.997  1.00  0.00     0.010 A 
ATOM     31  C   UNL     1      -3.233   5.684  13.950  1.00  0.00     0.010 A 
ATOM     32  C   UNL     1      -3.179   5.639  15.351  1.00  0.00    -0.014 A 
BRANCH  32  33
ATOM     33  C   UNL     1      -3.230   6.895  16.135  1.00  0.00     0.031 A 
ATOM     34  C   UNL     1      -4.523   7.632  16.320  1.00  0.00     0.074 A 
ATOM     35  C   UNL     1      -2.091   7.394  16.649  1.00  0.00     0.049 A 
ATOM     36  N   UNL     1      -4.740   8.767  16.934  1.00  0.00    -0.248 NA
ATOM     37  C   UNL     1      -5.723   7.023  15.727  1.00  0.00     0.031 C 
ATOM     38  C   UNL     1      -0.764   6.790  16.510  1.00  0.00     0.029 A 
ATOM     39  N   UNL     1      -1.868   8.528  17.386  1.00  0.00    -0.354 N 
ATOM     40  C   UNL     1      -6.095   9.027  16.777  1.00  0.00     0.074 A 
ATOM     41  C   UNL     1      -6.650   7.928  16.013  1.00  0.00     0.031 C 
ATOM     42  C   UNL     1       0.134   7.557  17.152  1.00  0.00     0.029 A 
ATOM     43  C   UNL     1      -0.552   8.706  17.735  1.00  0.00     0.049 A 
ATOM     44  H   UNL     1      -2.583   9.155  17.641  1.00  0.00     0.167 HD
ATOM     45  C   UNL     1      -6.812  10.086  17.223  1.00  0.00     0.031 A 
ATOM     46  C   UNL     1       0.038   9.683  18.448  1.00  0.00     0.031 A 
ATOM     47  C   UNL     1      -6.275  11.172  17.997  1.00  0.00     0.049 A 
ATOM     48  C   UNL     1      -0.791  10.799  19.008  1.00  0.00     0.074 A 
ATOM     49  C   UNL     1      -6.928  12.286  18.494  1.00  0.00     0.029 A 
ATOM     50  N   UNL     1      -4.952  11.272  18.397  1.00  0.00    -0.354 N 
ATOM     51  N   UNL     1      -2.074  11.021  18.858  1.00  0.00    -0.248 NA
ATOM     52  C   UNL     1      -0.095  11.788  19.842  1.00  0.00     0.031 C 
ATOM     53  C   UNL     1      -5.997  13.061  19.201  1.00  0.00     0.029 A 
ATOM     54  C   UNL     1      -4.769  12.422  19.147  1.00  0.00     0.049 A 
ATOM     55  H   UNL     1      -4.246  10.622  18.180  1.00  0.00     0.167 HD
ATOM     56  C   UNL     1      -2.343  12.173  19.586  1.00  0.00     0.074 A 
ATOM     57  C   UNL     1      -1.091  12.597  20.182  1.00  0.00     0.031 C 
ATOM     58  C   UNL     1      -3.522  12.822  19.742  1.00  0.00     0.031 A 
BRANCH  45  59
ATOM     59  C   UNL     1      -8.265  10.114  16.852  1.00  0.00    -0.014 A 
ATOM     60  C   UNL     1      -9.210   9.389  17.597  1.00  0.00     0.010 A 
ATOM     61  C   UNL     1      -8.686  10.851  15.731  1.00  0.00     0.010 A 
ATOM     62  C   UNL     1     -10.550   9.361  17.200  1.00  0.00     0.020 A 
ATOM     63  C   UNL     1     -10.026  10.832  15.337  1.00  0.00     0.020 A 
ATOM     64  C   UNL     1     -10.945  10.068  16.061  1.00  0.00     0.054 A 
BRANCH  64  65
ATOM     65  S   UNL     1     -12.677  10.009  15.525  1.00  0.00     0.124 S 
ATOM     66  O   UNL     1     -12.667   8.870  14.610  1.00  0.00    -0.237 OA
ATOM     67  O   UNL     1     -13.408   9.802  16.773  1.00  0.00    -0.237 OA
ATOM     68  O   UNL     1     -12.880  11.313  14.899  1.00  0.00    -0.744 OA
ENDBRANCH  64  65
ENDBRANCH  45  59
BRANCH  46  69
ATOM     69  C   UNL     1       1.498   9.618  18.694  1.00  0.00    -0.014 A 
ATOM     70  C   UNL     1       1.988   9.037  19.876  1.00  0.00     0.010 A 
ATOM     71  C   UNL     1       2.401  10.079  17.722  1.00  0.00     0.010 A 
ATOM     72  C   UNL     1       3.364   8.912  20.081  1.00  0.00     0.020 A 
ATOM     73  C   UNL     1       3.777   9.948  17.921  1.00  0.00     0.020 A 
ATOM     74  C   UNL     1       4.250   9.368  19.102  1.00  0.00     0.054 A 
BRANCH  74  75
ATOM     75  S   UNL     1       6.034   9.121  19.325  1.00  0.00     0.124 S 
ATOM     76  O   UNL     1       6.431  10.361  19.983  1.00  0.00    -0.237 OA
ATOM     77  O   UNL     1       6.100   7.917  20.151  1.00  0.00    -0.237 OA
ATOM     78  O   UNL     1       6.516   8.950  17.956  1.00  0.00    -0.744 OA
ENDBRANCH  74  75
ENDBRANCH  46  69
BRANCH  58  79
ATOM     79  C   UNL     1      -3.512  14.045  20.609  1.00  0.00    -0.014 A 
ATOM     80  C   UNL     1      -3.152  15.295  20.078  1.00  0.00     0.010 A 
ATOM     81  C   UNL     1      -3.889  13.949  21.960  1.00  0.00     0.010 A 
ATOM     82  C   UNL     1      -3.148  16.431  20.891  1.00  0.00     0.020 A 
ATOM     83  C   UNL     1      -3.891  15.084  22.774  1.00  0.00     0.020 A 
ATOM     84  C   UNL     1      -3.508  16.317  22.237  1.00  0.00     0.054 A 
BRANCH  84  85
ATOM     85  S   UNL     1      -3.535  17.798  23.285  1.00  0.00     0.124 S 
ATOM     86  O   UNL     1      -2.169  17.828  23.801  1.00  0.00    -0.237 OA
ATOM     87  O   UNL     1      -3.874  18.865  22.345  1.00  0.00    -0.237 OA
ATOM     88  O   UNL     1      -4.571  17.495  24.270  1.00  0.00    -0.744 OA
ENDBRANCH  84  85
ENDBRANCH  58  79
ENDBRANCH  32  33
ENDBRANCH  24  27
ENDBRANCH  22  23
ENDBRANCH  21  22
ENDBRANCH   1  21
TORSDOF 19
