REMARK SMILES C[C@@H](C(=O)NCCCCNC(=O)c1ccc(-c2c3nc(c(-c4ccc(S(=O)(=O)[O-])cc4)c4ccc([nH]4)c(-c4ccc(S(=O)(=O)[O-])cc4)c4nc(c(-c5ccc(S(=O)(=O)[O-])cc5)c5ccc2[nH]5)C=C4)C=C3)cc1)c1ccc(-c2ccc3[nH]ccc3c2)cc1
REMARK SMILES IDX 8 1 7 2 6 3 5 4 3 5 4 6 2 8 1 9 73 10 74 11 87 12 75 13
REMARK SMILES IDX 86 14 76 15 77 16 78 17 85 18 79 19 84 20 80 21 83 22 81 23
REMARK SMILES IDX 82 24 9 26 10 27 11 28 12 30 13 31 14 32 72 33 15 34 71 35
REMARK SMILES IDX 16 36 17 37 18 38 65 39 19 40 70 41 64 42 66 43 20 44 69 45
REMARK SMILES IDX 63 46 62 47 21 49 51 50 32 51 50 52 33 53 36 54 49 55 67 56
REMARK SMILES IDX 34 57 35 58 48 60 68 61 37 62 22 63 23 64 31 65 24 66 30 67
REMARK SMILES IDX 25 68 26 69 27 70 28 71 29 72 52 73 53 74 61 75 54 76 60 77
REMARK SMILES IDX 55 78 56 79 57 80 58 81 59 82 38 83 39 84 47 85 40 86 46 87
REMARK SMILES IDX 41 88 42 89 43 90 44 91 45 92
REMARK H PARENT 5 7 81 25 10 29 66 48 36 59
REMARK Flexibility Score: inf
ROOT
ATOM      1  C   UNL     1       4.966   0.270   2.436  1.00  0.00     0.023 C 
ENDROOT
BRANCH   1   2
ATOM      2  C   UNL     1       4.177  -0.076   1.170  1.00  0.00     0.023 C 
BRANCH   2   3
ATOM      3  C   UNL     1       3.405  -1.394   1.252  1.00  0.00     0.116 C 
BRANCH   3   4
ATOM      4  N   UNL     1       2.357  -1.307   2.246  1.00  0.00    -0.356 N 
ATOM      5  C   UNL     1       1.027  -1.050   2.088  1.00  0.00     0.227 C 
ATOM      6  O   UNL     1       0.371  -0.864   3.115  1.00  0.00    -0.274 OA
ATOM      7  H   UNL     1       2.647  -1.456   3.175  1.00  0.00     0.163 HD
BRANCH   5   8
ATOM      8  C   UNL     1       0.408  -1.054   0.681  1.00  0.00     0.105 C 
ATOM      9  C   UNL     1       0.861   0.138  -0.174  1.00  0.00     0.023 C 
BRANCH   8  10
ATOM     10  C   UNL     1      -1.114  -1.124   0.750  1.00  0.00    -0.036 A 
ATOM     11  C   UNL     1      -1.888   0.037   0.880  1.00  0.00     0.005 A 
ATOM     12  C   UNL     1      -1.764  -2.367   0.720  1.00  0.00     0.005 A 
ATOM     13  C   UNL     1      -3.276  -0.035   0.904  1.00  0.00     0.009 A 
ATOM     14  C   UNL     1      -3.160  -2.438   0.754  1.00  0.00     0.009 A 
ATOM     15  C   UNL     1      -3.929  -1.270   0.819  1.00  0.00    -0.018 A 
BRANCH  15  16
ATOM     16  C   UNL     1      -5.388  -1.303   0.757  1.00  0.00    -0.018 A 
ATOM     17  C   UNL     1      -6.032  -1.019  -0.457  1.00  0.00     0.011 A 
ATOM     18  C   UNL     1      -6.155  -1.533   1.911  1.00  0.00     0.019 A 
ATOM     19  C   UNL     1      -7.423  -0.967  -0.559  1.00  0.00     0.027 A 
ATOM     20  C   UNL     1      -7.559  -1.439   1.842  1.00  0.00    -0.000 A 
ATOM     21  C   UNL     1      -8.157  -1.176   0.610  1.00  0.00     0.045 A 
ATOM     22  C   UNL     1      -8.603  -1.517   2.805  1.00  0.00     0.028 A 
ATOM     23  N   UNL     1      -9.517  -1.162   0.817  1.00  0.00    -0.361 N 
ATOM     24  C   UNL     1      -9.795  -1.319   2.148  1.00  0.00     0.083 A 
ATOM     25  H   UNL     1     -10.193  -1.054   0.109  1.00  0.00     0.166 HD
ENDBRANCH  15  16
ENDBRANCH   8  10
ENDBRANCH   5   8
ENDBRANCH   3   4
ENDBRANCH   2   3
ENDBRANCH   1   2
BRANCH   1  26
ATOM     26  C   UNL     1       5.960  -0.796   2.880  1.00  0.00     0.116 C 
BRANCH  26  27
ATOM     27  N   UNL     1       6.942  -1.106   1.854  1.00  0.00    -0.352 N 
ATOM     28  C   UNL     1       8.300  -1.276   1.984  1.00  0.00     0.251 C 
ATOM     29  H   UNL     1       6.586  -1.209   0.942  1.00  0.00     0.163 HD
ATOM     30  O   UNL     1       9.004  -1.382   0.989  1.00  0.00    -0.269 OA
BRANCH  28  31
ATOM     31  C   UNL     1       8.899  -1.295   3.336  1.00  0.00     0.039 A 
ATOM     32  C   UNL     1      10.035  -0.521   3.580  1.00  0.00     0.014 A 
ATOM     33  C   UNL     1       8.324  -2.050   4.362  1.00  0.00     0.014 A 
ATOM     34  C   UNL     1      10.559  -0.457   4.872  1.00  0.00     0.010 A 
ATOM     35  C   UNL     1       8.800  -1.922   5.663  1.00  0.00     0.010 A 
ATOM     36  C   UNL     1       9.924  -1.126   5.932  1.00  0.00    -0.014 A 
BRANCH  36  37
ATOM     37  C   UNL     1      10.417  -0.999   7.327  1.00  0.00     0.031 A 
ATOM     38  C   UNL     1      10.920  -2.209   8.067  1.00  0.00     0.074 A 
ATOM     39  C   UNL     1      10.354   0.196   7.949  1.00  0.00     0.049 A 
ATOM     40  N   UNL     1      11.344  -2.302   9.301  1.00  0.00    -0.248 NA
ATOM     41  C   UNL     1      10.924  -3.486   7.334  1.00  0.00     0.031 C 
ATOM     42  C   UNL     1       9.844   1.434   7.356  1.00  0.00     0.029 A 
ATOM     43  N   UNL     1      10.714   0.564   9.222  1.00  0.00    -0.354 N 
ATOM     44  C   UNL     1      11.648  -3.644   9.497  1.00  0.00     0.074 A 
ATOM     45  C   UNL     1      11.312  -4.337   8.273  1.00  0.00     0.031 C 
ATOM     46  C   UNL     1       9.950   2.428   8.252  1.00  0.00     0.029 A 
ATOM     47  C   UNL     1      10.492   1.893   9.497  1.00  0.00     0.049 A 
ATOM     48  H   UNL     1      11.096  -0.065   9.876  1.00  0.00     0.167 HD
ATOM     49  C   UNL     1      12.175  -4.244  10.591  1.00  0.00     0.031 A 
ATOM     50  C   UNL     1      10.690   2.601  10.626  1.00  0.00     0.031 A 
ATOM     51  C   UNL     1      12.515  -3.548  11.804  1.00  0.00     0.049 A 
ATOM     52  C   UNL     1      11.270   1.912  11.831  1.00  0.00     0.074 A 
ATOM     53  C   UNL     1      13.112  -4.055  12.945  1.00  0.00     0.029 A 
ATOM     54  N   UNL     1      12.284  -2.201  12.039  1.00  0.00    -0.354 N 
ATOM     55  N   UNL     1      11.620   0.655  11.971  1.00  0.00    -0.248 NA
ATOM     56  C   UNL     1      11.493   2.738  13.025  1.00  0.00     0.031 C 
ATOM     57  C   UNL     1      13.184  -3.030  13.893  1.00  0.00     0.029 A 
ATOM     58  C   UNL     1      12.698  -1.866  13.317  1.00  0.00     0.049 A 
ATOM     59  H   UNL     1      11.884  -1.575  11.393  1.00  0.00     0.167 HD
ATOM     60  C   UNL     1      12.131   0.547  13.260  1.00  0.00     0.074 A 
ATOM     61  C   UNL     1      12.059   1.868  13.850  1.00  0.00     0.031 C 
ATOM     62  C   UNL     1      12.618  -0.548  13.895  1.00  0.00     0.031 A 
BRANCH  49  63
ATOM     63  C   UNL     1      12.408  -5.732  10.531  1.00  0.00    -0.014 A 
ATOM     64  C   UNL     1      13.401  -6.282   9.701  1.00  0.00     0.010 A 
ATOM     65  C   UNL     1      11.657  -6.588  11.357  1.00  0.00     0.010 A 
ATOM     66  C   UNL     1      13.612  -7.663   9.669  1.00  0.00     0.020 A 
ATOM     67  C   UNL     1      11.886  -7.967  11.352  1.00  0.00     0.020 A 
ATOM     68  C   UNL     1      12.853  -8.497  10.495  1.00  0.00     0.054 A 
BRANCH  68  69
ATOM     69  S   UNL     1      13.172 -10.282  10.456  1.00  0.00     0.124 S 
ATOM     70  O   UNL     1      12.636 -10.655   9.149  1.00  0.00    -0.237 OA
ATOM     71  O   UNL     1      14.626 -10.349  10.580  1.00  0.00    -0.237 OA
ATOM     72  O   UNL     1      12.427 -10.795  11.603  1.00  0.00    -0.744 OA
ENDBRANCH  68  69
ENDBRANCH  49  63
BRANCH  50  73
ATOM     73  C   UNL     1      10.345   4.050  10.663  1.00  0.00    -0.014 A 
ATOM     74  C   UNL     1      11.353   5.027  10.735  1.00  0.00     0.010 A 
ATOM     75  C   UNL     1       8.999   4.460  10.607  1.00  0.00     0.010 A 
ATOM     76  C   UNL     1      11.023   6.385  10.767  1.00  0.00     0.020 A 
ATOM     77  C   UNL     1       8.667   5.818  10.608  1.00  0.00     0.020 A 
ATOM     78  C   UNL     1       9.681   6.772  10.698  1.00  0.00     0.054 A 
BRANCH  78  79
ATOM     79  S   UNL     1       9.281   8.542  10.682  1.00  0.00     0.124 S 
ATOM     80  O   UNL     1       9.570   8.931  12.059  1.00  0.00    -0.237 OA
ATOM     81  O   UNL     1      10.198   9.062   9.671  1.00  0.00    -0.237 OA
ATOM     82  O   UNL     1       7.870   8.570  10.306  1.00  0.00    -0.744 OA
ENDBRANCH  78  79
ENDBRANCH  50  73
BRANCH  62  83
ATOM     83  C   UNL     1      13.147  -0.363  15.294  1.00  0.00    -0.014 A 
ATOM     84  C   UNL     1      12.286  -0.110  16.376  1.00  0.00     0.010 A 
ATOM     85  C   UNL     1      14.526  -0.503  15.535  1.00  0.00     0.010 A 
ATOM     86  C   UNL     1      12.799   0.032  17.669  1.00  0.00     0.020 A 
ATOM     87  C   UNL     1      15.039  -0.394  16.830  1.00  0.00     0.020 A 
ATOM     88  C   UNL     1      14.173  -0.112  17.887  1.00  0.00     0.054 A 
BRANCH  88  89
ATOM     89  S   UNL     1      14.807   0.035  19.580  1.00  0.00     0.124 S 
ATOM     90  O   UNL     1      14.679   1.468  19.829  1.00  0.00    -0.237 OA
ATOM     91  O   UNL     1      13.897  -0.820  20.338  1.00  0.00    -0.237 OA
ATOM     92  O   UNL     1      16.179  -0.459  19.481  1.00  0.00    -0.744 OA
ENDBRANCH  88  89
ENDBRANCH  62  83
ENDBRANCH  36  37
ENDBRANCH  28  31
ENDBRANCH  26  27
ENDBRANCH   1  26
TORSDOF 16
