REMARK SMILES O=C1C[C@@H](c2cccc(O)c2)c2c(c(C(=O)NCCCCNC(=O)c3ccc(-c4c5nc(c(-c6ccc(S(=O)(=O)[O-])cc6)c6ccc([nH]6)c(-c6ccc(S(=O)(=O)[O-])cc6)c6nc(c(-c7ccc(S(=O)(=O)[O-])cc7)c7ccc4[nH]7)C=C6)C=C5)cc3)cn2-c2cccc(C(F)(F)F)c2)N1
REMARK SMILES IDX 20 1 19 2 18 3 17 4 15 5 16 6 14 8 1 9 2 10 3 11 97 12 4 13
REMARK SMILES IDX 13 14 12 16 86 17 85 18 5 19 6 20 11 21 7 22 9 23 8 24 10 25
REMARK SMILES IDX 87 27 88 28 96 29 89 30 91 31 90 32 92 33 93 34 94 35 95 36
REMARK SMILES IDX 21 37 22 38 23 39 24 41 25 42 26 43 84 44 27 45 83 46 28 47
REMARK SMILES IDX 29 48 30 49 77 50 31 51 82 52 76 53 78 54 32 55 81 56 75 57
REMARK SMILES IDX 74 58 33 60 63 61 44 62 62 63 45 64 48 65 61 66 79 67 46 68
REMARK SMILES IDX 47 69 60 71 80 72 49 73 34 74 35 75 43 76 36 77 42 78 37 79
REMARK SMILES IDX 38 80 39 81 40 82 41 83 64 84 65 85 73 86 66 87 72 88 67 89
REMARK SMILES IDX 68 90 69 91 70 92 71 93 50 94 51 95 59 96 52 97 58 98 53 99
REMARK SMILES IDX 54 100 55 101 56 102 57 103
REMARK H PARENT 17 7 97 15 10 26 22 40 78 59 48 70
REMARK Flexibility Score: inf
ROOT
ATOM      1  C   UNL     1       6.057  -5.394   5.433  1.00  0.00     0.023 C 
ENDROOT
BRANCH   1   2
ATOM      2  C   UNL     1       6.202  -3.932   4.976  1.00  0.00     0.023 C 
BRANCH   2   3
ATOM      3  C   UNL     1       6.731  -3.750   3.550  1.00  0.00     0.116 C 
BRANCH   3   4
ATOM      4  N   UNL     1       5.710  -3.970   2.547  1.00  0.00    -0.352 N 
ATOM      5  C   UNL     1       4.895  -3.141   1.821  1.00  0.00     0.254 C 
ATOM      6  O   UNL     1       4.084  -3.694   1.073  1.00  0.00    -0.269 OA
ATOM      7  H   UNL     1       5.572  -4.923   2.341  1.00  0.00     0.163 HD
BRANCH   5   8
ATOM      8  C   UNL     1       4.925  -1.682   1.913  1.00  0.00     0.081 A 
ATOM      9  O   UNL     1       1.401  -0.391  -1.081  1.00  0.00    -0.275 OA
ATOM     10  C   UNL     1       2.389  -0.122  -0.400  1.00  0.00     0.225 C 
ATOM     11  C   UNL     1       2.980   1.283  -0.370  1.00  0.00     0.115 C 
ATOM     12  N   UNL     1       3.071  -1.094   0.290  1.00  0.00    -0.324 N 
ATOM     13  C   UNL     1       3.586   1.685   0.990  1.00  0.00     0.078 C 
ATOM     14  C   UNL     1       4.062  -0.799   1.200  1.00  0.00     0.076 A 
ATOM     15  H   UNL     1       2.844  -2.038   0.128  1.00  0.00     0.170 HD
ATOM     16  C   UNL     1       4.305   0.504   1.575  1.00  0.00     0.055 A 
ATOM     17  N   UNL     1       5.338   0.485   2.484  1.00  0.00    -0.317 N 
ATOM     18  C   UNL     1       5.736  -0.833   2.643  1.00  0.00     0.107 A 
BRANCH  13  19
ATOM     19  C   UNL     1       2.525   2.258   1.917  1.00  0.00    -0.035 A 
ATOM     20  C   UNL     1       1.495   1.466   2.452  1.00  0.00     0.005 A 
ATOM     21  C   UNL     1       2.610   3.604   2.310  1.00  0.00     0.050 A 
ATOM     22  C   UNL     1       0.608   1.992   3.392  1.00  0.00     0.004 A 
ATOM     23  C   UNL     1       1.742   4.106   3.274  1.00  0.00     0.115 A 
ATOM     24  C   UNL     1       0.740   3.311   3.819  1.00  0.00     0.046 A 
BRANCH  23  25
ATOM     25  O   UNL     1       1.945   5.384   3.703  1.00  0.00    -0.508 OA
ATOM     26  H   UNL     1       1.380   5.755   4.352  1.00  0.00     0.293 HD
ENDBRANCH  23  25
ENDBRANCH  13  19
BRANCH  17  27
ATOM     27  C   UNL     1       5.883   1.524   3.274  1.00  0.00     0.046 A 
ATOM     28  C   UNL     1       7.274   1.648   3.373  1.00  0.00     0.026 A 
ATOM     29  C   UNL     1       5.051   2.269   4.112  1.00  0.00     0.039 A 
ATOM     30  C   UNL     1       7.827   2.555   4.276  1.00  0.00     0.003 A 
ATOM     31  C   UNL     1       5.599   3.176   5.033  1.00  0.00     0.058 A 
ATOM     32  C   UNL     1       6.995   3.318   5.098  1.00  0.00     0.013 A 
BRANCH  31  33
ATOM     33  C   UNL     1       4.717   3.963   5.971  1.00  0.00     0.416 C 
ATOM     34  F   UNL     1       5.108   3.840   7.273  1.00  0.00    -0.166 F 
ATOM     35  F   UNL     1       4.731   5.299   5.709  1.00  0.00    -0.166 F 
ATOM     36  F   UNL     1       3.407   3.591   5.953  1.00  0.00    -0.166 F 
ENDBRANCH  31  33
ENDBRANCH  17  27
ENDBRANCH   5   8
ENDBRANCH   3   4
ENDBRANCH   2   3
ENDBRANCH   1   2
BRANCH   1  37
ATOM     37  C   UNL     1       7.355  -6.198   5.459  1.00  0.00     0.116 C 
BRANCH  37  38
ATOM     38  N   UNL     1       8.365  -5.639   6.359  1.00  0.00    -0.352 N 
ATOM     39  C   UNL     1       9.702  -5.995   6.462  1.00  0.00     0.251 C 
ATOM     40  H   UNL     1       8.059  -4.925   6.964  1.00  0.00     0.163 HD
ATOM     41  O   UNL     1      10.335  -5.781   7.482  1.00  0.00    -0.269 OA
BRANCH  39  42
ATOM     42  C   UNL     1      10.347  -6.612   5.288  1.00  0.00     0.039 A 
ATOM     43  C   UNL     1      11.207  -7.707   5.393  1.00  0.00     0.014 A 
ATOM     44  C   UNL     1      10.022  -6.075   4.047  1.00  0.00     0.014 A 
ATOM     45  C   UNL     1      11.670  -8.305   4.221  1.00  0.00     0.010 A 
ATOM     46  C   UNL     1      10.327  -6.767   2.908  1.00  0.00     0.010 A 
ATOM     47  C   UNL     1      11.208  -7.837   2.981  1.00  0.00    -0.014 A 
BRANCH  47  48
ATOM     48  C   UNL     1      11.543  -8.515   1.735  1.00  0.00     0.031 A 
ATOM     49  C   UNL     1      11.164  -9.953   1.694  1.00  0.00     0.074 A 
ATOM     50  C   UNL     1      11.925  -7.846   0.624  1.00  0.00     0.049 A 
ATOM     51  N   UNL     1      11.955 -10.973   1.676  1.00  0.00    -0.248 NA
ATOM     52  C   UNL     1       9.741 -10.306   1.838  1.00  0.00     0.031 C 
ATOM     53  C   UNL     1      12.012  -6.395   0.412  1.00  0.00     0.029 A 
ATOM     54  N   UNL     1      12.194  -8.334  -0.614  1.00  0.00    -0.354 N 
ATOM     55  C   UNL     1      11.135 -12.091   1.578  1.00  0.00     0.074 A 
ATOM     56  C   UNL     1       9.800 -11.639   1.883  1.00  0.00     0.031 C 
ATOM     57  C   UNL     1      12.049  -6.131  -0.913  1.00  0.00     0.029 A 
ATOM     58  C   UNL     1      12.171  -7.386  -1.631  1.00  0.00     0.049 A 
ATOM     59  H   UNL     1      12.390  -9.285  -0.778  1.00  0.00     0.167 HD
ATOM     60  C   UNL     1      11.571 -13.251   1.009  1.00  0.00     0.031 A 
ATOM     61  C   UNL     1      12.206  -7.625  -2.968  1.00  0.00     0.031 A 
ATOM     62  C   UNL     1      13.002 -13.255   0.840  1.00  0.00     0.049 A 
ATOM     63  C   UNL     1      12.762  -8.992  -3.140  1.00  0.00     0.074 A 
ATOM     64  C   UNL     1      14.071 -13.114   1.704  1.00  0.00     0.029 A 
ATOM     65  N   UNL     1      13.491 -12.961  -0.413  1.00  0.00    -0.354 N 
ATOM     66  N   UNL     1      13.981  -9.312  -2.802  1.00  0.00    -0.248 NA
ATOM     67  C   UNL     1      11.823 -10.101  -3.205  1.00  0.00     0.031 C 
ATOM     68  C   UNL     1      14.977 -12.252   1.019  1.00  0.00     0.029 A 
ATOM     69  C   UNL     1      14.462 -12.003  -0.255  1.00  0.00     0.049 A 
ATOM     70  H   UNL     1      13.198 -13.363  -1.263  1.00  0.00     0.167 HD
ATOM     71  C   UNL     1      13.867 -10.553  -2.190  1.00  0.00     0.074 A 
ATOM     72  C   UNL     1      12.526 -11.025  -2.542  1.00  0.00     0.031 C 
ATOM     73  C   UNL     1      14.742 -10.958  -1.220  1.00  0.00     0.031 A 
BRANCH  60  74
ATOM     74  C   UNL     1      10.671 -14.205   0.269  1.00  0.00    -0.014 A 
ATOM     75  C   UNL     1      11.181 -15.445  -0.160  1.00  0.00     0.010 A 
ATOM     76  C   UNL     1       9.411 -13.821  -0.238  1.00  0.00     0.010 A 
ATOM     77  C   UNL     1      10.479 -16.243  -1.075  1.00  0.00     0.020 A 
ATOM     78  C   UNL     1       8.683 -14.627  -1.115  1.00  0.00     0.020 A 
ATOM     79  C   UNL     1       9.235 -15.823  -1.549  1.00  0.00     0.054 A 
BRANCH  79  80
ATOM     80  S   UNL     1       8.364 -16.828  -2.776  1.00  0.00     0.124 S 
ATOM     81  O   UNL     1       9.246 -16.719  -3.935  1.00  0.00    -0.237 OA
ATOM     82  O   UNL     1       8.323 -18.137  -2.130  1.00  0.00    -0.237 OA
ATOM     83  O   UNL     1       7.070 -16.163  -2.907  1.00  0.00    -0.744 OA
ENDBRANCH  79  80
ENDBRANCH  60  74
BRANCH  61  84
ATOM     84  C   UNL     1      11.476  -6.899  -4.043  1.00  0.00    -0.014 A 
ATOM     85  C   UNL     1      11.757  -7.125  -5.405  1.00  0.00     0.010 A 
ATOM     86  C   UNL     1      10.300  -6.183  -3.735  1.00  0.00     0.010 A 
ATOM     87  C   UNL     1      10.865  -6.708  -6.412  1.00  0.00     0.020 A 
ATOM     88  C   UNL     1       9.410  -5.759  -4.731  1.00  0.00     0.020 A 
ATOM     89  C   UNL     1       9.684  -6.046  -6.065  1.00  0.00     0.054 A 
BRANCH  89  90
ATOM     90  S   UNL     1       8.446  -5.676  -7.347  1.00  0.00     0.124 S 
ATOM     91  O   UNL     1       9.098  -4.618  -8.113  1.00  0.00    -0.237 OA
ATOM     92  O   UNL     1       8.306  -6.958  -8.032  1.00  0.00    -0.237 OA
ATOM     93  O   UNL     1       7.274  -5.256  -6.581  1.00  0.00    -0.744 OA
ENDBRANCH  89  90
ENDBRANCH  61  84
BRANCH  73  94
ATOM     94  C   UNL     1      15.993 -10.137  -0.972  1.00  0.00    -0.014 A 
ATOM     95  C   UNL     1      15.989  -8.782  -0.580  1.00  0.00     0.010 A 
ATOM     96  C   UNL     1      17.221 -10.821  -0.974  1.00  0.00     0.010 A 
ATOM     97  C   UNL     1      17.183  -8.130  -0.228  1.00  0.00     0.020 A 
ATOM     98  C   UNL     1      18.410 -10.185  -0.606  1.00  0.00     0.020 A 
ATOM     99  C   UNL     1      18.388  -8.838  -0.245  1.00  0.00     0.054 A 
BRANCH  99 100
ATOM    100  S   UNL     1      19.928  -8.008   0.242  1.00  0.00     0.124 S 
ATOM    101  O   UNL     1      20.126  -7.046  -0.839  1.00  0.00    -0.237 OA
ATOM    102  O   UNL     1      19.591  -7.432   1.542  1.00  0.00    -0.237 OA
ATOM    103  O   UNL     1      20.909  -9.092   0.291  1.00  0.00    -0.744 OA
ENDBRANCH  99 100
ENDBRANCH  73  94
ENDBRANCH  47  48
ENDBRANCH  39  42
ENDBRANCH  37  38
ENDBRANCH   1  37
TORSDOF 18
