REMARK SMILES C[NH2+][C@]1(C(=O)NCCCCNC(=O)c2ccc(-c3c4nc(c(-c5ccc(S(=O)(=O)[O-])cc5)c5ccc([nH]5)c(-c5ccc(S(=O)(=O)[O-])cc5)c5nc(c(-c6ccc(S(=O)(=O)[O-])cc6)c6ccc3[nH]6)C=C5)C=C4)cc2)CCC[C@H]([N@H+](C)C2CC2)C1
REMARK SMILES IDX 9 1 8 2 7 3 6 4 4 5 5 6 3 8 74 9 83 10 75 11 77 12 76 13
REMARK SMILES IDX 2 14 1 15 78 18 79 19 80 21 81 22 82 23 10 24 11 25 12 26
REMARK SMILES IDX 13 28 14 29 15 30 73 31 16 32 72 33 17 34 18 35 19 36 66 37
REMARK SMILES IDX 20 38 71 39 65 40 67 41 21 42 70 43 64 44 63 45 22 47 52 48
REMARK SMILES IDX 33 49 51 50 34 51 37 52 50 53 68 54 35 55 36 56 49 58 69 59
REMARK SMILES IDX 38 60 23 61 24 62 32 63 25 64 31 65 26 66 27 67 28 68 29 69
REMARK SMILES IDX 30 70 53 71 54 72 62 73 55 74 61 75 56 76 57 77 58 78 59 79
REMARK SMILES IDX 60 80 39 81 40 82 48 83 41 84 47 85 42 86 43 87 44 88 45 89
REMARK SMILES IDX 46 90
REMARK H PARENT 6 7 2 16 2 17 78 20 11 27 67 46 37 57
REMARK Flexibility Score: inf
ROOT
ATOM      1  C   UNL     1       2.486  -2.616   4.512  1.00  0.00     0.023 C 
ENDROOT
BRANCH   1   2
ATOM      2  C   UNL     1       1.009  -2.431   4.181  1.00  0.00     0.023 C 
BRANCH   2   3
ATOM      3  C   UNL     1       0.653  -1.089   3.545  1.00  0.00     0.116 C 
BRANCH   3   4
ATOM      4  N   UNL     1       1.200  -0.938   2.209  1.00  0.00    -0.351 N 
ATOM      5  C   UNL     1       0.615  -0.901   0.977  1.00  0.00     0.281 C 
ATOM      6  O   UNL     1       1.365  -0.610   0.036  1.00  0.00    -0.268 OA
ATOM      7  H   UNL     1       2.180  -0.846   2.187  1.00  0.00     0.163 HD
BRANCH   5   8
ATOM      8  C   UNL     1      -0.924  -1.141   0.751  1.00  0.00     0.181 C 
ATOM      9  C   UNL     1      -1.389  -2.468   1.394  1.00  0.00     0.079 C 
ATOM     10  C   UNL     1      -1.685   0.093   1.337  1.00  0.00     0.144 C 
ATOM     11  C   UNL     1      -2.896  -2.583   1.550  1.00  0.00     0.013 C 
ATOM     12  C   UNL     1      -3.228  -0.062   1.494  1.00  0.00     0.190 C 
ATOM     13  C   UNL     1      -3.454  -1.366   2.283  1.00  0.00     0.065 C 
BRANCH   8  14
ATOM     14  N   UNL     1      -1.195  -1.117  -0.724  1.00  0.00    -0.336 N 
ATOM     15  C   UNL     1      -0.746  -2.273  -1.488  1.00  0.00     0.331 C 
ATOM     16  H   UNL     1      -2.203  -1.034  -0.853  1.00  0.00     0.346 HD
ATOM     17  H   UNL     1      -0.654  -0.330  -1.084  1.00  0.00     0.346 HD
ENDBRANCH   8  14
BRANCH  12  18
ATOM     18  N   UNL     1      -3.975  -0.004   0.214  1.00  0.00    -0.332 N 
ATOM     19  C   UNL     1      -3.774   1.290  -0.460  1.00  0.00     0.333 C 
ATOM     20  H   UNL     1      -3.574  -0.775  -0.319  1.00  0.00     0.348 HD
BRANCH  18  21
ATOM     21  C   UNL     1      -5.430  -0.274   0.286  1.00  0.00     0.184 C 
ATOM     22  C   UNL     1      -5.992  -1.010  -0.914  1.00  0.00     0.071 C 
ATOM     23  C   UNL     1      -6.064  -1.631   0.440  1.00  0.00     0.071 C 
ENDBRANCH  18  21
ENDBRANCH  12  18
ENDBRANCH   5   8
ENDBRANCH   3   4
ENDBRANCH   2   3
ENDBRANCH   1   2
BRANCH   1  24
ATOM     24  C   UNL     1       3.109  -1.499   5.337  1.00  0.00     0.116 C 
BRANCH  24  25
ATOM     25  N   UNL     1       2.393  -1.228   6.575  1.00  0.00    -0.352 N 
ATOM     26  C   UNL     1       2.913  -0.949   7.817  1.00  0.00     0.251 C 
ATOM     27  H   UNL     1       1.411  -1.247   6.516  1.00  0.00     0.163 HD
ATOM     28  O   UNL     1       2.173  -0.841   8.790  1.00  0.00    -0.269 OA
BRANCH  26  29
ATOM     29  C   UNL     1       4.376  -0.827   7.966  1.00  0.00     0.039 A 
ATOM     30  C   UNL     1       5.021  -1.581   8.947  1.00  0.00     0.014 A 
ATOM     31  C   UNL     1       5.111  -0.023   7.089  1.00  0.00     0.014 A 
ATOM     32  C   UNL     1       6.415  -1.587   9.002  1.00  0.00     0.010 A 
ATOM     33  C   UNL     1       6.499  -0.091   7.096  1.00  0.00     0.010 A 
ATOM     34  C   UNL     1       7.165  -0.875   8.051  1.00  0.00    -0.014 A 
BRANCH  34  35
ATOM     35  C   UNL     1       8.647  -0.935   8.034  1.00  0.00     0.031 A 
ATOM     36  C   UNL     1       9.450   0.310   8.291  1.00  0.00     0.074 A 
ATOM     37  C   UNL     1       9.266  -2.091   7.722  1.00  0.00     0.049 A 
ATOM     38  N   UNL     1      10.747   0.476   8.251  1.00  0.00    -0.248 NA
ATOM     39  C   UNL     1       8.696   1.535   8.606  1.00  0.00     0.031 C 
ATOM     40  C   UNL     1       8.596  -3.356   7.410  1.00  0.00     0.029 A 
ATOM     41  N   UNL     1      10.601  -2.387   7.608  1.00  0.00    -0.354 N 
ATOM     42  C   UNL     1      10.962   1.823   8.517  1.00  0.00     0.074 A 
ATOM     43  C   UNL     1       9.662   2.439   8.666  1.00  0.00     0.031 C 
ATOM     44  C   UNL     1       9.524  -4.298   7.171  1.00  0.00     0.029 A 
ATOM     45  C   UNL     1      10.850  -3.697   7.274  1.00  0.00     0.049 A 
ATOM     46  H   UNL     1      11.314  -1.723   7.753  1.00  0.00     0.167 HD
ATOM     47  C   UNL     1      12.136   2.485   8.647  1.00  0.00     0.031 A 
ATOM     48  C   UNL     1      12.015  -4.342   7.071  1.00  0.00     0.031 A 
ATOM     49  C   UNL     1      13.428   1.866   8.516  1.00  0.00     0.049 A 
ATOM     50  C   UNL     1      13.306  -3.587   7.222  1.00  0.00     0.074 A 
ATOM     51  C   UNL     1      14.677   2.438   8.680  1.00  0.00     0.029 A 
ATOM     52  N   UNL     1      13.636   0.534   8.192  1.00  0.00    -0.354 N 
ATOM     53  N   UNL     1      13.491  -2.324   7.528  1.00  0.00    -0.248 NA
ATOM     54  C   UNL     1      14.547  -4.345   7.012  1.00  0.00     0.031 C 
ATOM     55  C   UNL     1      15.642   1.461   8.416  1.00  0.00     0.029 A 
ATOM     56  C   UNL     1      14.994   0.269   8.137  1.00  0.00     0.049 A 
ATOM     57  H   UNL     1      12.924  -0.125   8.026  1.00  0.00     0.167 HD
ATOM     58  C   UNL     1      14.868  -2.144   7.573  1.00  0.00     0.074 A 
ATOM     59  C   UNL     1      15.469  -3.429   7.275  1.00  0.00     0.031 C 
ATOM     60  C   UNL     1      15.573  -1.017   7.840  1.00  0.00     0.031 A 
BRANCH  47  61
ATOM     61  C   UNL     1      12.071   3.958   8.951  1.00  0.00    -0.014 A 
ATOM     62  C   UNL     1      11.642   4.418  10.209  1.00  0.00     0.010 A 
ATOM     63  C   UNL     1      12.466   4.893   7.978  1.00  0.00     0.010 A 
ATOM     64  C   UNL     1      11.569   5.788  10.474  1.00  0.00     0.020 A 
ATOM     65  C   UNL     1      12.420   6.263   8.248  1.00  0.00     0.020 A 
ATOM     66  C   UNL     1      11.954   6.702   9.489  1.00  0.00     0.054 A 
BRANCH  66  67
ATOM     67  S   UNL     1      11.864   8.474   9.866  1.00  0.00     0.124 S 
ATOM     68  O   UNL     1      10.426   8.722   9.799  1.00  0.00    -0.237 OA
ATOM     69  O   UNL     1      12.452   8.549  11.201  1.00  0.00    -0.237 OA
ATOM     70  O   UNL     1      12.653   9.094   8.805  1.00  0.00    -0.744 OA
ENDBRANCH  66  67
ENDBRANCH  47  61
BRANCH  48  71
ATOM     71  C   UNL     1      12.014  -5.790   6.729  1.00  0.00    -0.014 A 
ATOM     72  C   UNL     1      12.430  -6.743   7.675  1.00  0.00     0.010 A 
ATOM     73  C   UNL     1      11.584  -6.226   5.462  1.00  0.00     0.010 A 
ATOM     74  C   UNL     1      12.433  -8.104   7.357  1.00  0.00     0.020 A 
ATOM     75  C   UNL     1      11.562  -7.588   5.149  1.00  0.00     0.020 A 
ATOM     76  C   UNL     1      11.998  -8.518   6.095  1.00  0.00     0.054 A 
BRANCH  76  77
ATOM     77  S   UNL     1      11.959 -10.294   5.722  1.00  0.00     0.124 S 
ATOM     78  O   UNL     1      13.372 -10.591   5.513  1.00  0.00    -0.237 OA
ATOM     79  O   UNL     1      11.364 -10.859   6.931  1.00  0.00    -0.237 OA
ATOM     80  O   UNL     1      11.118 -10.372   4.529  1.00  0.00    -0.744 OA
ENDBRANCH  76  77
ENDBRANCH  48  71
BRANCH  60  81
ATOM     81  C   UNL     1      17.073  -1.127   7.856  1.00  0.00    -0.014 A 
ATOM     82  C   UNL     1      17.806  -1.254   6.663  1.00  0.00     0.010 A 
ATOM     83  C   UNL     1      17.760  -1.044   9.081  1.00  0.00     0.010 A 
ATOM     84  C   UNL     1      19.201  -1.325   6.698  1.00  0.00     0.020 A 
ATOM     85  C   UNL     1      19.155  -1.089   9.117  1.00  0.00     0.020 A 
ATOM     86  C   UNL     1      19.867  -1.242   7.926  1.00  0.00     0.054 A 
BRANCH  86  87
ATOM     87  S   UNL     1      21.680  -1.289   7.942  1.00  0.00     0.124 S 
ATOM     88  O   UNL     1      21.950  -2.704   7.707  1.00  0.00    -0.237 OA
ATOM     89  O   UNL     1      22.035  -0.391   6.845  1.00  0.00    -0.237 OA
ATOM     90  O   UNL     1      22.027  -0.800   9.274  1.00  0.00    -0.744 OA
ENDBRANCH  86  87
ENDBRANCH  60  81
ENDBRANCH  34  35
ENDBRANCH  26  29
ENDBRANCH  24  25
ENDBRANCH   1  24
TORSDOF 17
