REMARK SMILES O=C(CCCN1C(=O)C(=O)/C(=C(/[O-])c2ccccc2)[C@@H]1/C=C/c1ccccc1)NCCCCNC(=O)c1ccc(-c2c3nc(c(-c4ccc(S(=O)(=O)[O-])cc4)c4ccc([nH]4)c(-c4ccc(S(=O)(=O)[O-])cc4)c4nc(c(-c5ccc(S(=O)(=O)[O-])cc5)c5ccc2[nH]5)C=C4)C=C3)cc1
REMARK SMILES IDX 30 1 29 2 1 3 2 4 3 6 4 7 5 8 6 9 7 10 20 11 8 12 9 13 11 14
REMARK SMILES IDX 10 15 12 16 13 17 21 18 22 19 23 20 24 21 28 22 25 23 27 24
REMARK SMILES IDX 26 25 14 26 15 27 19 28 16 29 18 30 17 31 31 32 32 33 33 34
REMARK SMILES IDX 34 35 35 36 36 38 37 39 38 40 96 41 39 42 95 43 40 44 41 45
REMARK SMILES IDX 42 46 89 47 43 48 94 49 88 50 90 51 44 52 93 53 87 54 86 55
REMARK SMILES IDX 45 57 75 58 56 59 74 60 57 61 60 62 73 63 91 64 58 65 59 66
REMARK SMILES IDX 72 68 92 69 61 70 46 71 47 72 55 73 48 74 54 75 49 76 50 77
REMARK SMILES IDX 51 78 52 79 53 80 76 81 77 82 85 83 78 84 84 85 79 86 80 87
REMARK SMILES IDX 81 88 82 89 83 90 62 91 63 92 71 93 64 94 70 95 65 96 66 97
REMARK SMILES IDX 67 98 68 99 69 100
REMARK H PARENT 29 5 34 37 90 56 60 67
REMARK Flexibility Score: inf
ROOT
ATOM      1  C   UNL     1       1.896   2.526  -0.461  1.00  0.00     0.116 C 
ENDROOT
BRANCH   1   2
ATOM      2  N   UNL     1       2.548   1.403   0.178  1.00  0.00    -0.356 N 
ATOM      3  O   UNL     1       1.058  -0.167  -0.593  1.00  0.00    -0.275 OA
ATOM      4  C   UNL     1       2.078   0.119   0.027  1.00  0.00     0.220 C 
ATOM      5  H   UNL     1       3.346   1.562   0.734  1.00  0.00     0.163 HD
BRANCH   4   6
ATOM      6  C   UNL     1       2.954  -0.955   0.642  1.00  0.00     0.102 C 
BRANCH   6   7
ATOM      7  C   UNL     1       3.866  -1.600  -0.400  1.00  0.00     0.031 C 
BRANCH   7   8
ATOM      8  C   UNL     1       4.984  -0.690  -0.904  1.00  0.00     0.121 C 
BRANCH   8   9
ATOM      9  N   UNL     1       6.024  -0.395   0.076  1.00  0.00    -0.325 N 
ATOM     10  C   UNL     1       6.110   0.849   0.641  1.00  0.00     0.295 C 
ATOM     11  C   UNL     1       6.995  -1.334   0.636  1.00  0.00     0.143 C 
ATOM     12  O   UNL     1       5.289   1.740   0.583  1.00  0.00    -0.265 OA
ATOM     13  C   UNL     1       7.406   0.909   1.412  1.00  0.00     0.248 C 
ATOM     14  C   UNL     1       7.893  -0.492   1.540  1.00  0.00     0.024 C 
ATOM     15  O   UNL     1       7.897   1.953   1.778  1.00  0.00    -0.283 OA
ATOM     16  C   UNL     1       8.914  -0.867   2.337  1.00  0.00    -0.092 C 
ATOM     17  O   UNL     1       9.322  -2.183   2.472  1.00  0.00    -0.872 OA
BRANCH  11  18
ATOM     18  C   UNL     1       7.740  -2.078  -0.447  1.00  0.00     0.003 C 
ATOM     19  C   UNL     1       7.168  -3.006  -1.234  1.00  0.00     0.006 C 
BRANCH  19  20
ATOM     20  C   UNL     1       7.857  -3.800  -2.248  1.00  0.00    -0.026 A 
ATOM     21  C   UNL     1       7.843  -3.423  -3.595  1.00  0.00     0.008 A 
ATOM     22  C   UNL     1       8.431  -5.019  -1.875  1.00  0.00     0.008 A 
ATOM     23  C   UNL     1       8.380  -4.275  -4.563  1.00  0.00     0.001 A 
ATOM     24  C   UNL     1       8.964  -5.868  -2.844  1.00  0.00     0.001 A 
ATOM     25  C   UNL     1       8.932  -5.500  -4.188  1.00  0.00     0.000 A 
ENDBRANCH  19  20
ENDBRANCH  11  18
BRANCH  16  26
ATOM     26  C   UNL     1       9.763   0.059   3.124  1.00  0.00    -0.033 A 
ATOM     27  C   UNL     1      11.146   0.088   2.887  1.00  0.00     0.007 A 
ATOM     28  C   UNL     1       9.239   0.924   4.098  1.00  0.00     0.007 A 
ATOM     29  C   UNL     1      11.974   0.991   3.564  1.00  0.00     0.001 A 
ATOM     30  C   UNL     1      10.064   1.839   4.762  1.00  0.00     0.001 A 
ATOM     31  C   UNL     1      11.430   1.874   4.492  1.00  0.00     0.000 A 
ENDBRANCH  16  26
ENDBRANCH   8   9
ENDBRANCH   7   8
ENDBRANCH   6   7
ENDBRANCH   4   6
ENDBRANCH   1   2
BRANCH   1  32
ATOM     32  C   UNL     1       2.194   3.873   0.199  1.00  0.00     0.023 C 
BRANCH  32  33
ATOM     33  C   UNL     1       3.652   4.345   0.195  1.00  0.00     0.023 C 
BRANCH  33  34
ATOM     34  C   UNL     1       4.348   4.358  -1.165  1.00  0.00     0.116 C 
BRANCH  34  35
ATOM     35  N   UNL     1       3.875   5.464  -1.985  1.00  0.00    -0.352 N 
ATOM     36  C   UNL     1       4.566   6.556  -2.454  1.00  0.00     0.251 C 
ATOM     37  H   UNL     1       2.925   5.424  -2.241  1.00  0.00     0.163 HD
ATOM     38  O   UNL     1       3.944   7.527  -2.881  1.00  0.00    -0.269 OA
BRANCH  36  39
ATOM     39  C   UNL     1       6.049   6.577  -2.451  1.00  0.00     0.039 A 
ATOM     40  C   UNL     1       6.710   7.751  -2.078  1.00  0.00     0.014 A 
ATOM     41  C   UNL     1       6.790   5.469  -2.874  1.00  0.00     0.014 A 
ATOM     42  C   UNL     1       8.109   7.800  -2.084  1.00  0.00     0.010 A 
ATOM     43  C   UNL     1       8.185   5.501  -2.828  1.00  0.00     0.010 A 
ATOM     44  C   UNL     1       8.862   6.668  -2.437  1.00  0.00    -0.014 A 
BRANCH  44  45
ATOM     45  C   UNL     1      10.350   6.688  -2.397  1.00  0.00     0.031 A 
ATOM     46  C   UNL     1      11.154   6.534  -3.662  1.00  0.00     0.074 A 
ATOM     47  C   UNL     1      10.986   6.795  -1.212  1.00  0.00     0.049 A 
ATOM     48  N   UNL     1      12.453   6.474  -3.813  1.00  0.00    -0.248 NA
ATOM     49  C   UNL     1      10.399   6.413  -4.919  1.00  0.00     0.031 C 
ATOM     50  C   UNL     1      10.331   6.913   0.092  1.00  0.00     0.029 A 
ATOM     51  N   UNL     1      12.326   6.810  -0.912  1.00  0.00    -0.354 N 
ATOM     52  C   UNL     1      12.671   6.293  -5.174  1.00  0.00     0.074 A 
ATOM     53  C   UNL     1      11.369   6.211  -5.800  1.00  0.00     0.031 C 
ATOM     54  C   UNL     1      11.268   7.008   1.048  1.00  0.00     0.029 A 
ATOM     55  C   UNL     1      12.590   6.916   0.434  1.00  0.00     0.049 A 
ATOM     56  H   UNL     1      13.032   6.751  -1.596  1.00  0.00     0.167 HD
ATOM     57  C   UNL     1      13.846   6.217  -5.846  1.00  0.00     0.031 A 
ATOM     58  C   UNL     1      13.759   6.926   1.104  1.00  0.00     0.031 A 
ATOM     59  C   UNL     1      15.143   6.306  -5.226  1.00  0.00     0.049 A 
ATOM     60  C   UNL     1      15.050   6.829   0.338  1.00  0.00     0.074 A 
ATOM     61  C   UNL     1      16.389   6.290  -5.831  1.00  0.00     0.029 A 
ATOM     62  N   UNL     1      15.365   6.427  -3.862  1.00  0.00    -0.354 N 
ATOM     63  N   UNL     1      15.235   6.718  -0.956  1.00  0.00    -0.248 NA
ATOM     64  C   UNL     1      16.293   6.870   1.122  1.00  0.00     0.031 C 
ATOM     65  C   UNL     1      17.364   6.350  -4.830  1.00  0.00     0.029 A 
ATOM     66  C   UNL     1      16.726   6.464  -3.605  1.00  0.00     0.049 A 
ATOM     67  H   UNL     1      14.659   6.479  -3.178  1.00  0.00     0.167 HD
ATOM     68  C   UNL     1      16.613   6.703  -1.142  1.00  0.00     0.074 A 
ATOM     69  C   UNL     1      17.215   6.832   0.169  1.00  0.00     0.031 C 
ATOM     70  C   UNL     1      17.316   6.593  -2.297  1.00  0.00     0.031 A 
BRANCH  57  71
ATOM     71  C   UNL     1      13.785   6.022  -7.339  1.00  0.00    -0.014 A 
ATOM     72  C   UNL     1      13.344   7.052  -8.189  1.00  0.00     0.010 A 
ATOM     73  C   UNL     1      14.220   4.809  -7.905  1.00  0.00     0.010 A 
ATOM     74  C   UNL     1      13.300   6.859  -9.573  1.00  0.00     0.020 A 
ATOM     75  C   UNL     1      14.204   4.622  -9.291  1.00  0.00     0.020 A 
ATOM     76  C   UNL     1      13.726   5.643 -10.115  1.00  0.00     0.054 A 
BRANCH  76  77
ATOM     77  S   UNL     1      13.677   5.428 -11.915  1.00  0.00     0.124 S 
ATOM     78  O   UNL     1      12.244   5.285 -12.161  1.00  0.00    -0.237 OA
ATOM     79  O   UNL     1      14.277   6.667 -12.404  1.00  0.00    -0.237 OA
ATOM     80  O   UNL     1      14.470   4.223 -12.143  1.00  0.00    -0.744 OA
ENDBRANCH  76  77
ENDBRANCH  57  71
BRANCH  58  81
ATOM     81  C   UNL     1      13.762   7.040   2.589  1.00  0.00    -0.014 A 
ATOM     82  C   UNL     1      14.214   8.216   3.214  1.00  0.00     0.010 A 
ATOM     83  C   UNL     1      13.306   5.974   3.386  1.00  0.00     0.010 A 
ATOM     84  C   UNL     1      14.230   8.316   4.609  1.00  0.00     0.020 A 
ATOM     85  C   UNL     1      13.293   6.081   4.779  1.00  0.00     0.020 A 
ATOM     86  C   UNL     1      13.769   7.247   5.382  1.00  0.00     0.054 A 
BRANCH  86  87
ATOM     87  S   UNL     1      13.757   7.414   7.189  1.00  0.00     0.124 S 
ATOM     88  O   UNL     1      15.175   7.294   7.514  1.00  0.00    -0.237 OA
ATOM     89  O   UNL     1      13.173   8.739   7.382  1.00  0.00    -0.237 OA
ATOM     90  O   UNL     1      12.918   6.301   7.629  1.00  0.00    -0.744 OA
ENDBRANCH  86  87
ENDBRANCH  58  81
BRANCH  70  91
ATOM     91  C   UNL     1      18.818   6.642  -2.204  1.00  0.00    -0.014 A 
ATOM     92  C   UNL     1      19.553   5.565  -1.678  1.00  0.00     0.010 A 
ATOM     93  C   UNL     1      19.508   7.763  -2.703  1.00  0.00     0.010 A 
ATOM     94  C   UNL     1      20.949   5.621  -1.624  1.00  0.00     0.020 A 
ATOM     95  C   UNL     1      20.904   7.811  -2.675  1.00  0.00     0.020 A 
ATOM     96  C   UNL     1      21.616   6.745  -2.123  1.00  0.00     0.054 A 
BRANCH  96  97
ATOM     97  S   UNL     1      23.429   6.774  -2.083  1.00  0.00     0.124 S 
ATOM     98  O   UNL     1      23.699   7.007  -0.667  1.00  0.00    -0.237 OA
ATOM     99  O   UNL     1      23.783   5.447  -2.580  1.00  0.00    -0.237 OA
ATOM    100  O   UNL     1      23.778   7.879  -2.974  1.00  0.00    -0.744 OA
ENDBRANCH  96  97
ENDBRANCH  70  91
ENDBRANCH  44  45
ENDBRANCH  36  39
ENDBRANCH  34  35
ENDBRANCH  33  34
ENDBRANCH  32  33
ENDBRANCH   1  32
TORSDOF 20
