REMARK SMILES C[C@@H](C(=O)NCCCCNC(=O)c1ccc(-c2c3nc(c(-c4ccc(S(=O)(=O)[O-])cc4)c4ccc([nH]4)c(-c4ccc(S(=O)(=O)[O-])cc4)c4nc(c(-c5ccc(S(=O)(=O)[O-])cc5)c5ccc2[nH]5)C=C4)C=C3)cc1)N1C(=O)CC2(CCCC2)C1=O
REMARK SMILES IDX 8 1 7 2 6 3 5 4 3 5 4 6 2 8 1 9 73 10 74 11 82 12 75 13
REMARK SMILES IDX 76 14 77 15 83 16 78 17 81 18 79 19 80 20 9 21 10 22 11 23
REMARK SMILES IDX 12 25 13 26 14 27 72 28 15 29 71 30 16 31 17 32 18 33 65 34
REMARK SMILES IDX 19 35 70 36 64 37 66 38 20 39 69 40 63 41 62 42 21 44 51 45
REMARK SMILES IDX 32 46 50 47 33 48 36 49 49 50 67 51 34 52 35 53 48 55 68 56
REMARK SMILES IDX 37 57 22 58 23 59 31 60 24 61 30 62 25 63 26 64 27 65 28 66
REMARK SMILES IDX 29 67 52 68 53 69 61 70 54 71 60 72 55 73 56 74 57 75 58 76
REMARK SMILES IDX 59 77 38 78 39 79 47 80 40 81 46 82 41 83 42 84 43 85 44 86
REMARK SMILES IDX 45 87
REMARK H PARENT 5 7 10 24 66 43 36 54
REMARK Flexibility Score: inf
ROOT
ATOM      1  C   UNL     1       5.008  -1.981   1.791  1.00  0.00     0.023 C 
ENDROOT
BRANCH   1   2
ATOM      2  C   UNL     1       4.186  -1.150   0.803  1.00  0.00     0.023 C 
BRANCH   2   3
ATOM      3  C   UNL     1       3.302  -1.972  -0.142  1.00  0.00     0.116 C 
BRANCH   3   4
ATOM      4  N   UNL     1       2.204  -2.579   0.589  1.00  0.00    -0.354 N 
ATOM      5  C   UNL     1       0.900  -2.175   0.695  1.00  0.00     0.243 C 
ATOM      6  O   UNL     1       0.211  -2.686   1.581  1.00  0.00    -0.273 OA
ATOM      7  H   UNL     1       2.431  -3.402   1.079  1.00  0.00     0.163 HD
BRANCH   5   8
ATOM      8  C   UNL     1       0.346  -1.095  -0.268  1.00  0.00     0.179 C 
ATOM      9  C   UNL     1       0.867   0.277   0.161  1.00  0.00     0.042 C 
BRANCH   8  10
ATOM     10  N   UNL     1      -1.124  -1.197  -0.290  1.00  0.00    -0.270 N 
ATOM     11  C   UNL     1      -2.005  -0.155  -0.258  1.00  0.00     0.231 C 
ATOM     12  C   UNL     1      -1.752  -2.352  -0.682  1.00  0.00     0.236 C 
ATOM     13  O   UNL     1      -1.760   1.042  -0.190  1.00  0.00    -0.274 OA
ATOM     14  C   UNL     1      -3.401  -0.665  -0.460  1.00  0.00     0.117 C 
ATOM     15  C   UNL     1      -3.238  -2.179  -0.466  1.00  0.00     0.059 C 
ATOM     16  O   UNL     1      -1.218  -3.340  -1.160  1.00  0.00    -0.274 OA
ATOM     17  C   UNL     1      -3.724  -2.813   0.840  1.00  0.00     0.017 C 
ATOM     18  C   UNL     1      -4.102  -2.886  -1.505  1.00  0.00     0.017 C 
ATOM     19  C   UNL     1      -5.235  -2.954   0.652  1.00  0.00     0.001 C 
ATOM     20  C   UNL     1      -5.480  -2.958  -0.858  1.00  0.00     0.001 C 
ENDBRANCH   8  10
ENDBRANCH   5   8
ENDBRANCH   3   4
ENDBRANCH   2   3
ENDBRANCH   1   2
BRANCH   1  21
ATOM     21  C   UNL     1       6.001  -2.944   1.154  1.00  0.00     0.116 C 
BRANCH  21  22
ATOM     22  N   UNL     1       6.959  -2.271   0.292  1.00  0.00    -0.352 N 
ATOM     23  C   UNL     1       8.314  -2.458   0.179  1.00  0.00     0.251 C 
ATOM     24  H   UNL     1       6.580  -1.579  -0.297  1.00  0.00     0.163 HD
ATOM     25  O   UNL     1       8.973  -1.677  -0.502  1.00  0.00    -0.269 OA
BRANCH  23  26
ATOM     26  C   UNL     1       8.981  -3.569   0.894  1.00  0.00     0.039 A 
ATOM     27  C   UNL     1      10.214  -3.323   1.501  1.00  0.00     0.014 A 
ATOM     28  C   UNL     1       8.412  -4.845   0.962  1.00  0.00     0.014 A 
ATOM     29  C   UNL     1      10.847  -4.338   2.219  1.00  0.00     0.010 A 
ATOM     30  C   UNL     1       9.005  -5.833   1.747  1.00  0.00     0.010 A 
ATOM     31  C   UNL     1      10.231  -5.592   2.380  1.00  0.00    -0.014 A 
BRANCH  31  32
ATOM     32  C   UNL     1      10.864  -6.634   3.230  1.00  0.00     0.031 A 
ATOM     33  C   UNL     1      11.327  -7.938   2.638  1.00  0.00     0.074 A 
ATOM     34  C   UNL     1      11.010  -6.403   4.550  1.00  0.00     0.049 A 
ATOM     35  N   UNL     1      11.941  -8.934   3.225  1.00  0.00    -0.248 NA
ATOM     36  C   UNL     1      11.051  -8.165   1.210  1.00  0.00     0.031 C 
ATOM     37  C   UNL     1      10.545  -5.205   5.256  1.00  0.00     0.029 A 
ATOM     38  N   UNL     1      11.599  -7.157   5.534  1.00  0.00    -0.354 N 
ATOM     39  C   UNL     1      12.131  -9.898   2.241  1.00  0.00     0.074 A 
ATOM     40  C   UNL     1      11.508  -9.397   1.035  1.00  0.00     0.031 C 
ATOM     41  C   UNL     1      10.903  -5.287   6.547  1.00  0.00     0.029 A 
ATOM     42  C   UNL     1      11.587  -6.556   6.771  1.00  0.00     0.049 A 
ATOM     43  H   UNL     1      11.992  -8.045   5.370  1.00  0.00     0.167 HD
ATOM     44  C   UNL     1      12.788 -11.080   2.324  1.00  0.00     0.031 A 
ATOM     45  C   UNL     1      12.074  -6.975   7.955  1.00  0.00     0.031 A 
ATOM     46  C   UNL     1      13.402 -11.580   3.527  1.00  0.00     0.049 A 
ATOM     47  C   UNL     1      12.795  -8.293   8.021  1.00  0.00     0.074 A 
ATOM     48  C   UNL     1      14.121 -12.750   3.705  1.00  0.00     0.029 A 
ATOM     49  N   UNL     1      13.369 -10.943   4.759  1.00  0.00    -0.354 N 
ATOM     50  N   UNL     1      13.026  -9.156   7.059  1.00  0.00    -0.248 NA
ATOM     51  C   UNL     1      13.339  -8.684   9.328  1.00  0.00     0.031 C 
ATOM     52  C   UNL     1      14.476 -12.846   5.055  1.00  0.00     0.029 A 
ATOM     53  C   UNL     1      14.036 -11.704   5.705  1.00  0.00     0.049 A 
ATOM     54  H   UNL     1      12.936 -10.077   4.935  1.00  0.00     0.167 HD
ATOM     55  C   UNL     1      13.758 -10.184   7.644  1.00  0.00     0.074 A 
ATOM     56  C   UNL     1      13.961  -9.816   9.030  1.00  0.00     0.031 C 
ATOM     57  C   UNL     1      14.215 -11.334   7.086  1.00  0.00     0.031 A 
BRANCH  44  58
ATOM     58  C   UNL     1      12.891 -11.913   1.071  1.00  0.00    -0.014 A 
ATOM     59  C   UNL     1      13.691 -11.495  -0.009  1.00  0.00     0.010 A 
ATOM     60  C   UNL     1      12.235 -13.155   0.992  1.00  0.00     0.010 A 
ATOM     61  C   UNL     1      13.809 -12.287  -1.153  1.00  0.00     0.020 A 
ATOM     62  C   UNL     1      12.374 -13.965  -0.140  1.00  0.00     0.020 A 
ATOM     63  C   UNL     1      13.152 -13.519  -1.210  1.00  0.00     0.054 A 
BRANCH  63  64
ATOM     64  S   UNL     1      13.363 -14.546  -2.691  1.00  0.00     0.124 S 
ATOM     65  O   UNL     1      12.609 -13.792  -3.690  1.00  0.00    -0.237 OA
ATOM     66  O   UNL     1      14.812 -14.551  -2.871  1.00  0.00    -0.237 OA
ATOM     67  O   UNL     1      12.780 -15.830  -2.311  1.00  0.00    -0.744 OA
ENDBRANCH  63  64
ENDBRANCH  44  58
BRANCH  45  68
ATOM     68  C   UNL     1      11.896  -6.137   9.174  1.00  0.00    -0.014 A 
ATOM     69  C   UNL     1      12.998  -5.531   9.804  1.00  0.00     0.010 A 
ATOM     70  C   UNL     1      10.612  -5.947   9.716  1.00  0.00     0.010 A 
ATOM     71  C   UNL     1      12.822  -4.780  10.971  1.00  0.00     0.020 A 
ATOM     72  C   UNL     1      10.428  -5.169  10.861  1.00  0.00     0.020 A 
ATOM     73  C   UNL     1      11.537  -4.604  11.492  1.00  0.00     0.054 A 
BRANCH  73  74
ATOM     74  S   UNL     1      11.327  -3.601  12.989  1.00  0.00     0.124 S 
ATOM     75  O   UNL     1      11.857  -4.484  14.023  1.00  0.00    -0.237 OA
ATOM     76  O   UNL     1      12.132  -2.419  12.691  1.00  0.00    -0.237 OA
ATOM     77  O   UNL     1       9.886  -3.366  13.043  1.00  0.00    -0.744 OA
ENDBRANCH  73  74
ENDBRANCH  45  68
BRANCH  57  78
ATOM     78  C   UNL     1      14.996 -12.263   7.980  1.00  0.00    -0.014 A 
ATOM     79  C   UNL     1      14.374 -12.954   9.036  1.00  0.00     0.010 A 
ATOM     80  C   UNL     1      16.372 -12.450   7.757  1.00  0.00     0.010 A 
ATOM     81  C   UNL     1      15.125 -13.765   9.890  1.00  0.00     0.020 A 
ATOM     82  C   UNL     1      17.120 -13.289   8.588  1.00  0.00     0.020 A 
ATOM     83  C   UNL     1      16.496 -13.921   9.665  1.00  0.00     0.054 A 
BRANCH  83  84
ATOM     84  S   UNL     1      17.450 -14.975  10.790  1.00  0.00     0.124 S 
ATOM     85  O   UNL     1      17.525 -14.146  11.991  1.00  0.00    -0.237 OA
ATOM     86  O   UNL     1      16.614 -16.167  10.900  1.00  0.00    -0.237 OA
ATOM     87  O   UNL     1      18.717 -15.172  10.090  1.00  0.00    -0.744 OA
ENDBRANCH  83  84
ENDBRANCH  57  78
ENDBRANCH  31  32
ENDBRANCH  23  26
ENDBRANCH  21  22
ENDBRANCH   1  21
TORSDOF 15
