REMARK SMILES O=C(NCCCCNC(=O)c1cccnc1C[N@@H+]1CCC[C@H]1c1ccccn1)c1ccc(-c2c3nc(c(-c4ccc(S(=O)(=O)[O-])cc4)c4ccc([nH]4)c(-c4ccc(S(=O)(=O)[O-])cc4)c4nc(c(-c5ccc(S(=O)(=O)[O-])cc5)c5ccc2[nH]5)C=C4)C=C3)cc1
REMARK SMILES IDX 5 1 4 2 3 3 1 4 2 5 29 7 30 8 88 9 31 10 87 11 32 12 33 13
REMARK SMILES IDX 34 14 81 15 35 16 86 17 80 18 82 19 36 20 85 21 79 22 78 23
REMARK SMILES IDX 37 25 67 26 48 27 66 28 49 29 52 30 65 31 83 32 50 33 51 34
REMARK SMILES IDX 64 36 84 37 53 38 38 39 39 40 47 41 40 42 46 43 41 44 42 45
REMARK SMILES IDX 43 46 44 47 45 48 68 49 69 50 77 51 70 52 76 53 71 54 72 55
REMARK SMILES IDX 73 56 74 57 75 58 54 59 55 60 63 61 56 62 62 63 57 64 58 65
REMARK SMILES IDX 59 66 60 67 61 68 6 69 7 70 8 71 9 72 10 74 11 75 12 76
REMARK SMILES IDX 16 77 13 78 15 79 14 80 17 81 18 82 19 83 22 84 20 86 21 87
REMARK SMILES IDX 23 88 24 89 28 90 25 91 27 92 26 93
REMARK H PARENT 3 6 82 24 52 35 8 73 18 85
REMARK Flexibility Score: inf
ROOT
ATOM      1  C   UNL     1       4.925  -0.165   2.464  1.00  0.00     0.023 C 
ENDROOT
BRANCH   1   2
ATOM      2  C   UNL     1       4.621  -0.593   1.031  1.00  0.00     0.116 C 
BRANCH   2   3
ATOM      3  N   UNL     1       3.196  -0.716   0.773  1.00  0.00    -0.352 N 
ATOM      4  O   UNL     1       1.180  -0.174  -0.062  1.00  0.00    -0.269 OA
ATOM      5  C   UNL     1       2.400  -0.032  -0.113  1.00  0.00     0.251 C 
ATOM      6  H   UNL     1       2.730  -1.392   1.317  1.00  0.00     0.163 HD
BRANCH   5   7
ATOM      7  C   UNL     1       2.995   0.888  -1.107  1.00  0.00     0.039 A 
ATOM      8  C   UNL     1       4.098   0.510  -1.879  1.00  0.00     0.014 A 
ATOM      9  C   UNL     1       2.409   2.143  -1.293  1.00  0.00     0.014 A 
ATOM     10  C   UNL     1       4.684   1.427  -2.751  1.00  0.00     0.010 A 
ATOM     11  C   UNL     1       2.962   3.040  -2.211  1.00  0.00     0.010 A 
ATOM     12  C   UNL     1       4.120   2.700  -2.927  1.00  0.00    -0.014 A 
BRANCH  12  13
ATOM     13  C   UNL     1       4.715   3.663  -3.888  1.00  0.00     0.031 A 
ATOM     14  C   UNL     1       5.344   4.939  -3.404  1.00  0.00     0.074 A 
ATOM     15  C   UNL     1       4.653   3.401  -5.207  1.00  0.00     0.049 A 
ATOM     16  N   UNL     1       5.839   5.929  -4.101  1.00  0.00    -0.248 NA
ATOM     17  C   UNL     1       5.417   5.132  -1.947  1.00  0.00     0.031 C 
ATOM     18  C   UNL     1       4.065   2.199  -5.801  1.00  0.00     0.029 A 
ATOM     19  N   UNL     1       5.075   4.136  -6.286  1.00  0.00    -0.354 N 
ATOM     20  C   UNL     1       6.257   6.876  -3.173  1.00  0.00     0.074 A 
ATOM     21  C   UNL     1       5.944   6.346  -1.863  1.00  0.00     0.031 C 
ATOM     22  C   UNL     1       4.166   2.277  -7.136  1.00  0.00     0.029 A 
ATOM     23  C   UNL     1       4.777   3.554  -7.494  1.00  0.00     0.049 A 
ATOM     24  H   UNL     1       5.545   4.997  -6.202  1.00  0.00     0.167 HD
ATOM     25  C   UNL     1       6.845   8.077  -3.393  1.00  0.00     0.031 A 
ATOM     26  C   UNL     1       4.943   4.005  -8.752  1.00  0.00     0.031 A 
ATOM     27  C   UNL     1       7.151   8.602  -4.698  1.00  0.00     0.049 A 
ATOM     28  C   UNL     1       5.575   5.347  -8.977  1.00  0.00     0.074 A 
ATOM     29  C   UNL     1       7.779   9.792  -5.022  1.00  0.00     0.029 A 
ATOM     30  N   UNL     1       6.839   7.975  -5.896  1.00  0.00    -0.354 N 
ATOM     31  N   UNL     1       6.000   6.211  -8.087  1.00  0.00    -0.248 NA
ATOM     32  C   UNL     1       5.754   5.774 -10.371  1.00  0.00     0.031 C 
ATOM     33  C   UNL     1       7.809   9.905  -6.417  1.00  0.00     0.029 A 
ATOM     34  C   UNL     1       7.242   8.763  -6.961  1.00  0.00     0.049 A 
ATOM     35  H   UNL     1       6.398   7.099  -5.977  1.00  0.00     0.167 HD
ATOM     36  C   UNL     1       6.514   7.279  -8.812  1.00  0.00     0.074 A 
ATOM     37  C   UNL     1       6.351   6.950 -10.214  1.00  0.00     0.031 C 
ATOM     38  C   UNL     1       7.074   8.424  -8.353  1.00  0.00     0.031 A 
BRANCH  25  39
ATOM     39  C   UNL     1       7.155   8.923  -2.187  1.00  0.00    -0.014 A 
ATOM     40  C   UNL     1       8.200   8.587  -1.307  1.00  0.00     0.010 A 
ATOM     41  C   UNL     1       6.386  10.073  -1.930  1.00  0.00     0.010 A 
ATOM     42  C   UNL     1       8.430   9.352  -0.159  1.00  0.00     0.020 A 
ATOM     43  C   UNL     1       6.629  10.853  -0.796  1.00  0.00     0.020 A 
ATOM     44  C   UNL     1       7.632  10.471   0.097  1.00  0.00     0.054 A 
BRANCH  44  45
ATOM     45  S   UNL     1       7.926  11.431   1.608  1.00  0.00     0.124 S 
ATOM     46  O   UNL     1       7.295  10.590   2.623  1.00  0.00    -0.237 OA
ATOM     47  O   UNL     1       9.384  11.500   1.671  1.00  0.00    -0.237 OA
ATOM     48  O   UNL     1       7.256  12.702   1.347  1.00  0.00    -0.744 OA
ENDBRANCH  44  45
ENDBRANCH  25  39
BRANCH  26  49
ATOM     49  C   UNL     1       4.479   3.159  -9.883  1.00  0.00    -0.014 A 
ATOM     50  C   UNL     1       5.400   2.432 -10.655  1.00  0.00     0.010 A 
ATOM     51  C   UNL     1       3.101   3.000 -10.123  1.00  0.00     0.010 A 
ATOM     52  C   UNL     1       4.949   1.546 -11.638  1.00  0.00     0.020 A 
ATOM     53  C   UNL     1       2.648   2.099 -11.089  1.00  0.00     0.020 A 
ATOM     54  C   UNL     1       3.576   1.377 -11.841  1.00  0.00     0.054 A 
BRANCH  54  55
ATOM     55  S   UNL     1       3.012   0.133 -13.037  1.00  0.00     0.124 S 
ATOM     56  O   UNL     1       3.239   0.812 -14.309  1.00  0.00    -0.237 OA
ATOM     57  O   UNL     1       3.893  -0.999 -12.758  1.00  0.00    -0.237 OA
ATOM     58  O   UNL     1       1.612  -0.076 -12.677  1.00  0.00    -0.744 OA
ENDBRANCH  54  55
ENDBRANCH  26  49
BRANCH  38  59
ATOM     59  C   UNL     1       7.586   9.406  -9.370  1.00  0.00    -0.014 A 
ATOM     60  C   UNL     1       6.707  10.251 -10.069  1.00  0.00     0.010 A 
ATOM     61  C   UNL     1       8.973   9.549  -9.557  1.00  0.00     0.010 A 
ATOM     62  C   UNL     1       7.207  11.222 -10.941  1.00  0.00     0.020 A 
ATOM     63  C   UNL     1       9.477  10.530 -10.414  1.00  0.00     0.020 A 
ATOM     64  C   UNL     1       8.590  11.358 -11.105  1.00  0.00     0.054 A 
BRANCH  64  65
ATOM     65  S   UNL     1       9.220  12.680 -12.177  1.00  0.00     0.124 S 
ATOM     66  O   UNL     1       8.979  12.132 -13.508  1.00  0.00    -0.237 OA
ATOM     67  O   UNL     1       8.385  13.821 -11.806  1.00  0.00    -0.237 OA
ATOM     68  O   UNL     1      10.625  12.795 -11.794  1.00  0.00    -0.744 OA
ENDBRANCH  64  65
ENDBRANCH  38  59
ENDBRANCH  12  13
ENDBRANCH   5   7
ENDBRANCH   2   3
ENDBRANCH   1   2
BRANCH   1  69
ATOM     69  C   UNL     1       4.447  -1.122   3.559  1.00  0.00     0.023 C 
BRANCH  69  70
ATOM     70  C   UNL     1       4.870  -2.580   3.398  1.00  0.00     0.116 C 
BRANCH  70  71
ATOM     71  N   UNL     1       6.311  -2.744   3.314  1.00  0.00    -0.352 N 
ATOM     72  C   UNL     1       7.108  -3.679   3.915  1.00  0.00     0.253 C 
ATOM     73  H   UNL     1       6.780  -2.091   2.745  1.00  0.00     0.163 HD
ATOM     74  O   UNL     1       8.328  -3.671   3.741  1.00  0.00    -0.269 OA
BRANCH  72  75
ATOM     75  C   UNL     1       6.511  -4.730   4.749  1.00  0.00     0.067 A 
ATOM     76  C   UNL     1       5.628  -5.638   4.147  1.00  0.00     0.017 A 
ATOM     77  C   UNL     1       6.867  -4.908   6.088  1.00  0.00     0.107 A 
ATOM     78  C   UNL     1       5.101  -6.683   4.894  1.00  0.00     0.021 A 
ATOM     79  N   UNL     1       6.366  -5.956   6.810  1.00  0.00    -0.254 NA
ATOM     80  C   UNL     1       5.501  -6.802   6.210  1.00  0.00     0.111 A 
BRANCH  77  81
ATOM     81  C   UNL     1       7.840  -3.983   6.818  1.00  0.00     0.321 C 
BRANCH  81  82
ATOM     82  N   UNL     1       7.348  -3.237   8.001  1.00  0.00    -0.322 N 
ATOM     83  C   UNL     1       6.877  -4.090   9.090  1.00  0.00     0.263 C 
ATOM     84  C   UNL     1       6.284  -2.265   7.679  1.00  0.00     0.234 C 
ATOM     85  H   UNL     1       8.178  -2.736   8.316  1.00  0.00     0.349 HD
ATOM     86  C   UNL     1       5.360  -4.003   9.120  1.00  0.00     0.068 C 
ATOM     87  C   UNL     1       4.975  -2.893   8.155  1.00  0.00     0.078 C 
BRANCH  84  88
ATOM     88  C   UNL     1       6.486  -0.876   8.286  1.00  0.00     0.098 A 
ATOM     89  C   UNL     1       6.852  -0.684   9.620  1.00  0.00     0.030 A 
ATOM     90  N   UNL     1       6.215   0.178   7.468  1.00  0.00    -0.255 NA
ATOM     91  C   UNL     1       6.954   0.611  10.124  1.00  0.00     0.004 A 
ATOM     92  C   UNL     1       6.337   1.424   7.980  1.00  0.00     0.111 A 
ATOM     93  C   UNL     1       6.694   1.689   9.290  1.00  0.00     0.020 A 
ENDBRANCH  84  88
ENDBRANCH  81  82
ENDBRANCH  77  81
ENDBRANCH  72  75
ENDBRANCH  70  71
ENDBRANCH  69  70
ENDBRANCH   1  69
TORSDOF 17
