REMARK SMILES O=C(NCCCCNC(=O)c1cc(OCc2ccc(F)cc2)cs1)c1ccc(-c2c3nc(c(-c4ccc(S(=O)(=O)[O-])cc4)c4ccc([nH]4)c(-c4ccc(S(=O)(=O)[O-])cc4)c4nc(c(-c5ccc(S(=O)(=O)[O-])cc5)c5ccc2[nH]5)C=C4)C=C3)cc1
REMARK SMILES IDX 5 1 4 2 3 3 1 4 2 5 25 7 26 8 84 9 27 10 83 11 28 12 29 13
REMARK SMILES IDX 30 14 77 15 31 16 82 17 76 18 78 19 32 20 81 21 75 22 74 23
REMARK SMILES IDX 33 25 63 26 44 27 62 28 45 29 48 30 61 31 79 32 46 33 47 34
REMARK SMILES IDX 60 36 80 37 49 38 34 39 35 40 43 41 36 42 42 43 37 44 38 45
REMARK SMILES IDX 39 46 40 47 41 48 64 49 65 50 73 51 66 52 72 53 67 54 68 55
REMARK SMILES IDX 69 56 70 57 71 58 50 59 51 60 59 61 52 62 58 63 53 64 54 65
REMARK SMILES IDX 55 66 56 67 57 68 6 69 7 70 8 71 9 72 10 74 11 75 12 76
REMARK SMILES IDX 24 77 13 78 23 79 14 80 15 81 16 82 17 83 22 84 18 85 21 86
REMARK SMILES IDX 19 87 20 88
REMARK H PARENT 3 6 78 24 48 35 8 73
REMARK Flexibility Score: inf
ROOT
ATOM      1  C   UNL     1       5.140   1.368  -2.329  1.00  0.00     0.023 C 
ENDROOT
BRANCH   1   2
ATOM      2  C   UNL     1       4.721   0.965  -0.921  1.00  0.00     0.116 C 
BRANCH   2   3
ATOM      3  N   UNL     1       3.279   0.881  -0.738  1.00  0.00    -0.352 N 
ATOM      4  O   UNL     1       1.308  -0.078  -0.196  1.00  0.00    -0.269 OA
ATOM      5  C   UNL     1       2.534  -0.138  -0.187  1.00  0.00     0.251 C 
ATOM      6  H   UNL     1       2.766   1.661  -1.051  1.00  0.00     0.163 HD
BRANCH   5   7
ATOM      7  C   UNL     1       3.212  -1.328   0.378  1.00  0.00     0.039 A 
ATOM      8  C   UNL     1       4.326  -1.191   1.206  1.00  0.00     0.014 A 
ATOM      9  C   UNL     1       2.736  -2.602   0.050  1.00  0.00     0.014 A 
ATOM     10  C   UNL     1       5.060  -2.316   1.565  1.00  0.00     0.010 A 
ATOM     11  C   UNL     1       3.425  -3.738   0.489  1.00  0.00     0.010 A 
ATOM     12  C   UNL     1       4.616  -3.603   1.218  1.00  0.00    -0.014 A 
BRANCH  12  13
ATOM     13  C   UNL     1       5.393  -4.783   1.681  1.00  0.00     0.031 A 
ATOM     14  C   UNL     1       6.083  -5.702   0.709  1.00  0.00     0.074 A 
ATOM     15  C   UNL     1       5.518  -4.986   3.008  1.00  0.00     0.049 A 
ATOM     16  N   UNL     1       6.848  -6.735   0.961  1.00  0.00    -0.248 NA
ATOM     17  C   UNL     1       5.891  -5.438  -0.726  1.00  0.00     0.031 C 
ATOM     18  C   UNL     1       4.883  -4.170   4.049  1.00  0.00     0.029 A 
ATOM     19  N   UNL     1       6.239  -5.915   3.712  1.00  0.00    -0.354 N 
ATOM     20  C   UNL     1       7.216  -7.252  -0.277  1.00  0.00     0.074 A 
ATOM     21  C   UNL     1       6.572  -6.432  -1.281  1.00  0.00     0.031 C 
ATOM     22  C   UNL     1       5.290  -4.598   5.253  1.00  0.00     0.029 A 
ATOM     23  C   UNL     1       6.163  -5.751   5.074  1.00  0.00     0.049 A 
ATOM     24  H   UNL     1       6.761  -6.631   3.282  1.00  0.00     0.167 HD
ATOM     25  C   UNL     1       8.020  -8.309  -0.549  1.00  0.00     0.031 A 
ATOM     26  C   UNL     1       6.724  -6.455   6.076  1.00  0.00     0.031 A 
ATOM     27  C   UNL     1       8.662  -9.121   0.453  1.00  0.00     0.049 A 
ATOM     28  C   UNL     1       7.602  -7.624   5.743  1.00  0.00     0.074 A 
ATOM     29  C   UNL     1       9.510 -10.201   0.272  1.00  0.00     0.029 A 
ATOM     30  N   UNL     1       8.532  -8.943   1.821  1.00  0.00    -0.354 N 
ATOM     31  N   UNL     1       7.951  -8.080   4.564  1.00  0.00    -0.248 NA
ATOM     32  C   UNL     1       8.162  -8.373   6.875  1.00  0.00     0.031 C 
ATOM     33  C   UNL     1       9.860 -10.701   1.531  1.00  0.00     0.029 A 
ATOM     34  C   UNL     1       9.268  -9.903   2.496  1.00  0.00     0.049 A 
ATOM     35  H   UNL     1       7.995  -8.238   2.251  1.00  0.00     0.167 HD
ATOM     36  C   UNL     1       8.774  -9.171   4.812  1.00  0.00     0.074 A 
ATOM     37  C   UNL     1       8.897  -9.284   6.252  1.00  0.00     0.031 C 
ATOM     38  C   UNL     1       9.367 -10.010   3.929  1.00  0.00     0.031 A 
BRANCH  25  39
ATOM     39  C   UNL     1       8.248  -8.665  -1.995  1.00  0.00    -0.014 A 
ATOM     40  C   UNL     1       9.096  -7.892  -2.808  1.00  0.00     0.010 A 
ATOM     41  C   UNL     1       7.671  -9.834  -2.527  1.00  0.00     0.010 A 
ATOM     42  C   UNL     1       9.345  -8.268  -4.131  1.00  0.00     0.020 A 
ATOM     43  C   UNL     1       7.934 -10.224  -3.844  1.00  0.00     0.020 A 
ATOM     44  C   UNL     1       8.761  -9.432  -4.641  1.00  0.00     0.054 A 
BRANCH  44  45
ATOM     45  S   UNL     1       9.137  -9.920  -6.348  1.00  0.00     0.124 S 
ATOM     46  O   UNL     1       8.348  -8.960  -7.116  1.00  0.00    -0.237 OA
ATOM     47  O   UNL     1      10.585  -9.743  -6.422  1.00  0.00    -0.237 OA
ATOM     48  O   UNL     1       8.678 -11.305  -6.422  1.00  0.00    -0.744 OA
ENDBRANCH  44  45
ENDBRANCH  25  39
BRANCH  26  49
ATOM     49  C   UNL     1       6.447  -6.079   7.487  1.00  0.00    -0.014 A 
ATOM     50  C   UNL     1       7.450  -5.514   8.291  1.00  0.00     0.010 A 
ATOM     51  C   UNL     1       5.162  -6.274   8.027  1.00  0.00     0.010 A 
ATOM     52  C   UNL     1       7.179  -5.168   9.618  1.00  0.00     0.020 A 
ATOM     53  C   UNL     1       4.880  -5.903   9.343  1.00  0.00     0.020 A 
ATOM     54  C   UNL     1       5.896  -5.366  10.136  1.00  0.00     0.054 A 
BRANCH  54  55
ATOM     55  S   UNL     1       5.546  -4.867  11.844  1.00  0.00     0.124 S 
ATOM     56  O   UNL     1       6.105  -5.980  12.604  1.00  0.00    -0.237 OA
ATOM     57  O   UNL     1       6.261  -3.598  11.960  1.00  0.00    -0.237 OA
ATOM     58  O   UNL     1       4.089  -4.755  11.872  1.00  0.00    -0.744 OA
ENDBRANCH  54  55
ENDBRANCH  26  49
BRANCH  38  59
ATOM     59  C   UNL     1      10.207 -11.116   4.505  1.00  0.00    -0.014 A 
ATOM     60  C   UNL     1       9.610 -12.226   5.129  1.00  0.00     0.010 A 
ATOM     61  C   UNL     1      11.609 -11.049   4.411  1.00  0.00     0.010 A 
ATOM     62  C   UNL     1      10.403 -13.229   5.691  1.00  0.00     0.020 A 
ATOM     63  C   UNL     1      12.404 -12.063   4.951  1.00  0.00     0.020 A 
ATOM     64  C   UNL     1      11.795 -13.137   5.605  1.00  0.00     0.054 A 
BRANCH  64  65
ATOM     65  S   UNL     1      12.806 -14.457   6.330  1.00  0.00     0.124 S 
ATOM     66  O   UNL     1      12.753 -14.132   7.752  1.00  0.00    -0.237 OA
ATOM     67  O   UNL     1      12.090 -15.668   5.934  1.00  0.00    -0.237 OA
ATOM     68  O   UNL     1      14.111 -14.278   5.697  1.00  0.00    -0.744 OA
ENDBRANCH  64  65
ENDBRANCH  38  59
ENDBRANCH  12  13
ENDBRANCH   5   7
ENDBRANCH   2   3
ENDBRANCH   1   2
BRANCH   1  69
ATOM     69  C   UNL     1       4.715   2.767  -2.762  1.00  0.00     0.023 C 
BRANCH  69  70
ATOM     70  C   UNL     1       5.211   3.898  -1.868  1.00  0.00     0.116 C 
BRANCH  70  71
ATOM     71  N   UNL     1       6.651   4.097  -1.932  1.00  0.00    -0.351 N 
ATOM     72  C   UNL     1       7.341   5.245  -2.275  1.00  0.00     0.261 C 
ATOM     73  H   UNL     1       7.204   3.316  -1.703  1.00  0.00     0.163 HD
ATOM     74  O   UNL     1       8.563   5.201  -2.347  1.00  0.00    -0.268 OA
BRANCH  72  75
ATOM     75  C   UNL     1       6.555   6.433  -2.526  1.00  0.00     0.096 A 
ATOM     76  C   UNL     1       5.678   7.077  -1.674  1.00  0.00     0.072 A 
ATOM     77  S   UNL     1       6.605   7.177  -4.061  1.00  0.00    -0.135 S 
ATOM     78  C   UNL     1       4.863   8.017  -2.362  1.00  0.00     0.131 A 
ATOM     79  C   UNL     1       5.294   8.204  -3.657  1.00  0.00     0.112 A 
BRANCH  78  80
ATOM     80  O   UNL     1       3.773   8.699  -1.924  1.00  0.00    -0.488 OA
BRANCH  80  81
ATOM     81  C   UNL     1       3.245   8.294  -0.656  1.00  0.00     0.265 C 
BRANCH  81  82
ATOM     82  C   UNL     1       2.453   7.002  -0.714  1.00  0.00    -0.011 A 
ATOM     83  C   UNL     1       2.841   5.887   0.051  1.00  0.00     0.010 A 
ATOM     84  C   UNL     1       1.307   6.905  -1.519  1.00  0.00     0.010 A 
ATOM     85  C   UNL     1       2.118   4.694  -0.015  1.00  0.00     0.039 A 
ATOM     86  C   UNL     1       0.578   5.715  -1.573  1.00  0.00     0.039 A 
ATOM     87  C   UNL     1       0.996   4.619  -0.829  1.00  0.00     0.123 A 
ATOM     88  F   UNL     1       0.311   3.472  -0.901  1.00  0.00    -0.207 F 
ENDBRANCH  81  82
ENDBRANCH  80  81
ENDBRANCH  78  80
ENDBRANCH  72  75
ENDBRANCH  70  71
ENDBRANCH  69  70
ENDBRANCH   1  69
TORSDOF 17
