REMARK SMILES CC[C@H](C)[NH2+]CCc1ccc(C(=O)NCCCCNC(=O)c2ccc(-c3c4nc(c(-c5ccc(S(=O)(=O)[O-])cc5)c5ccc([nH]5)c(-c5ccc(S(=O)(=O)[O-])cc5)c5nc(c(-c6ccc(S(=O)(=O)[O-])cc6)c6ccc3[nH]6)C=C5)C=C4)cc2)cc1
REMARK SMILES IDX 15 1 14 2 12 3 13 4 11 6 8 7 9 8 83 9 10 10 82 11 7 12 6 13
REMARK SMILES IDX 5 14 3 17 4 18 2 19 1 20 16 21 17 22 18 23 19 24 20 25 21 27
REMARK SMILES IDX 22 28 23 29 81 30 24 31 80 32 25 33 26 34 27 35 74 36 28 37
REMARK SMILES IDX 79 38 73 39 75 40 29 41 78 42 72 43 71 44 30 46 60 47 41 48
REMARK SMILES IDX 59 49 42 50 45 51 58 52 76 53 43 54 44 55 57 57 77 58 46 59
REMARK SMILES IDX 31 60 32 61 40 62 33 63 39 64 34 65 35 66 36 67 37 68 38 69
REMARK SMILES IDX 61 70 62 71 70 72 63 73 69 74 64 75 65 76 66 77 67 78 68 79
REMARK SMILES IDX 47 80 48 81 56 82 49 83 55 84 50 85 51 86 52 87 53 88 54 89
REMARK H PARENT 14 5 5 15 5 16 19 26 75 45 45 56
REMARK Flexibility Score: inf
ROOT
ATOM      1  C   UNL     1      -5.821   2.631   1.128  1.00  0.00     0.116 C 
ENDROOT
BRANCH   1   2
ATOM      2  N   UNL     1      -6.202   3.987   1.483  1.00  0.00    -0.352 N 
ATOM      3  C   UNL     1      -5.457   5.116   1.732  1.00  0.00     0.251 C 
ATOM      4  O   UNL     1      -6.059   6.177   1.903  1.00  0.00    -0.269 OA
ATOM      5  H   UNL     1      -7.174   4.123   1.560  1.00  0.00     0.163 HD
BRANCH   3   6
ATOM      6  C   UNL     1      -3.967   5.122   1.771  1.00  0.00     0.039 A 
ATOM      7  C   UNL     1      -1.122   5.239   1.783  1.00  0.00    -0.042 A 
ATOM      8  C   UNL     1      -1.895   6.382   1.519  1.00  0.00     0.005 A 
ATOM      9  C   UNL     1      -1.803   4.058   2.050  1.00  0.00     0.005 A 
ATOM     10  C   UNL     1      -3.298   6.325   1.512  1.00  0.00     0.014 A 
ATOM     11  C   UNL     1      -3.196   4.010   2.084  1.00  0.00     0.014 A 
BRANCH   7  12
ATOM     12  C   UNL     1       0.383   5.317   1.650  1.00  0.00     0.097 C 
BRANCH  12  13
ATOM     13  C   UNL     1       1.317   4.338   2.408  1.00  0.00     0.265 C 
BRANCH  13  14
ATOM     14  N   UNL     1       1.138   2.897   2.370  1.00  0.00    -0.344 N 
ATOM     15  H   UNL     1       1.732   2.519   3.109  1.00  0.00     0.346 HD
ATOM     16  H   UNL     1       0.124   2.814   2.441  1.00  0.00     0.346 HD
BRANCH  14  17
ATOM     17  C   UNL     1       1.415   2.095   1.182  1.00  0.00     0.178 C 
ATOM     18  C   UNL     1       0.730   0.732   1.390  1.00  0.00     0.075 C 
BRANCH  17  19
ATOM     19  C   UNL     1       1.009   2.708  -0.170  1.00  0.00     0.061 C 
ATOM     20  C   UNL     1       1.412   1.866  -1.375  1.00  0.00     0.010 C 
ENDBRANCH  17  19
ENDBRANCH  14  17
ENDBRANCH  13  14
ENDBRANCH  12  13
ENDBRANCH   7  12
ENDBRANCH   3   6
ENDBRANCH   1   2
BRANCH   1  21
ATOM     21  C   UNL     1      -5.769   1.719   2.359  1.00  0.00     0.023 C 
BRANCH  21  22
ATOM     22  C   UNL     1      -7.127   1.224   2.851  1.00  0.00     0.023 C 
BRANCH  22  23
ATOM     23  C   UNL     1      -7.867   0.320   1.876  1.00  0.00     0.116 C 
BRANCH  23  24
ATOM     24  N   UNL     1      -7.135  -0.894   1.543  1.00  0.00    -0.352 N 
ATOM     25  C   UNL     1      -7.652  -2.119   1.194  1.00  0.00     0.251 C 
ATOM     26  H   UNL     1      -6.153  -0.830   1.572  1.00  0.00     0.163 HD
ATOM     27  O   UNL     1      -6.911  -3.085   1.038  1.00  0.00    -0.269 OA
BRANCH  25  28
ATOM     28  C   UNL     1      -9.116  -2.264   1.058  1.00  0.00     0.039 A 
ATOM     29  C   UNL     1      -9.761  -3.288   1.755  1.00  0.00     0.014 A 
ATOM     30  C   UNL     1      -9.852  -1.352   0.296  1.00  0.00     0.014 A 
ATOM     31  C   UNL     1     -11.155  -3.354   1.744  1.00  0.00     0.010 A 
ATOM     32  C   UNL     1     -11.242  -1.377   0.345  1.00  0.00     0.010 A 
ATOM     33  C   UNL     1     -11.907  -2.377   1.071  1.00  0.00    -0.014 A 
BRANCH  33  34
ATOM     34  C   UNL     1     -13.390  -2.377   1.119  1.00  0.00     0.031 A 
ATOM     35  C   UNL     1     -14.184  -2.592  -0.141  1.00  0.00     0.074 A 
ATOM     36  C   UNL     1     -14.020  -2.113   2.281  1.00  0.00     0.049 A 
ATOM     37  N   UNL     1     -15.480  -2.566  -0.311  1.00  0.00    -0.248 NA
ATOM     38  C   UNL     1     -13.420  -2.842  -1.374  1.00  0.00     0.031 C 
ATOM     39  C   UNL     1     -13.361  -1.841   3.561  1.00  0.00     0.029 A 
ATOM     40  N   UNL     1     -15.358  -2.022   2.572  1.00  0.00    -0.354 N 
ATOM     41  C   UNL     1     -15.686  -2.776  -1.669  1.00  0.00     0.074 A 
ATOM     42  C   UNL     1     -14.382  -2.882  -2.285  1.00  0.00     0.031 C 
ATOM     43  C   UNL     1     -14.297  -1.641   4.504  1.00  0.00     0.029 A 
ATOM     44  C   UNL     1     -15.618  -1.732   3.891  1.00  0.00     0.049 A 
ATOM     45  H   UNL     1     -16.065  -2.152   1.899  1.00  0.00     0.167 HD
ATOM     46  C   UNL     1     -16.857  -2.891  -2.341  1.00  0.00     0.031 A 
ATOM     47  C   UNL     1     -16.788  -1.556   4.534  1.00  0.00     0.031 A 
ATOM     48  C   UNL     1     -18.152  -2.804  -1.724  1.00  0.00     0.049 A 
ATOM     49  C   UNL     1     -18.075  -1.694   3.767  1.00  0.00     0.074 A 
ATOM     50  C   UNL     1     -19.396  -2.969  -2.308  1.00  0.00     0.029 A 
ATOM     51  N   UNL     1     -18.373  -2.528  -0.383  1.00  0.00    -0.354 N 
ATOM     52  N   UNL     1     -18.250  -1.961   2.494  1.00  0.00    -0.248 NA
ATOM     53  C   UNL     1     -19.321  -1.516   4.524  1.00  0.00     0.031 C 
ATOM     54  C   UNL     1     -20.370  -2.749  -1.329  1.00  0.00     0.029 A 
ATOM     55  C   UNL     1     -19.732  -2.498  -0.124  1.00  0.00     0.049 A 
ATOM     56  H   UNL     1     -17.667  -2.376   0.286  1.00  0.00     0.167 HD
ATOM     57  C   UNL     1     -19.626  -2.011   2.305  1.00  0.00     0.074 A 
ATOM     58  C   UNL     1     -20.236  -1.759   3.595  1.00  0.00     0.031 C 
ATOM     59  C   UNL     1     -20.322  -2.248   1.166  1.00  0.00     0.031 A 
BRANCH  46  60
ATOM     60  C   UNL     1     -16.784  -3.121  -3.828  1.00  0.00    -0.014 A 
ATOM     61  C   UNL     1     -16.342  -4.349  -4.350  1.00  0.00     0.010 A 
ATOM     62  C   UNL     1     -17.196  -2.108  -4.713  1.00  0.00     0.010 A 
ATOM     63  C   UNL     1     -16.272  -4.547  -5.732  1.00  0.00     0.020 A 
ATOM     64  C   UNL     1     -17.154  -2.312  -6.095  1.00  0.00     0.020 A 
ATOM     65  C   UNL     1     -16.675  -3.524  -6.596  1.00  0.00     0.054 A 
BRANCH  65  66
ATOM     66  S   UNL     1     -16.593  -3.814  -8.384  1.00  0.00     0.124 S 
ATOM     67  O   UNL     1     -15.157  -3.725  -8.637  1.00  0.00    -0.237 OA
ATOM     68  O   UNL     1     -17.172  -5.149  -8.520  1.00  0.00    -0.237 OA
ATOM     69  O   UNL     1     -17.394  -2.731  -8.948  1.00  0.00    -0.744 OA
ENDBRANCH  65  66
ENDBRANCH  46  60
BRANCH  47  70
ATOM     70  C   UNL     1     -16.799  -1.255   5.991  1.00  0.00    -0.014 A 
ATOM     71  C   UNL     1     -17.222  -2.226   6.915  1.00  0.00     0.010 A 
ATOM     72  C   UNL     1     -16.377   0.001   6.464  1.00  0.00     0.010 A 
ATOM     73  C   UNL     1     -17.242  -1.942   8.284  1.00  0.00     0.020 A 
ATOM     74  C   UNL     1     -16.372   0.281   7.834  1.00  0.00     0.020 A 
ATOM     75  C   UNL     1     -16.816  -0.689   8.734  1.00  0.00     0.054 A 
BRANCH  75  76
ATOM     76  S   UNL     1     -16.804  -0.358  10.518  1.00  0.00     0.124 S 
ATOM     77  O   UNL     1     -18.223  -0.161  10.800  1.00  0.00    -0.237 OA
ATOM     78  O   UNL     1     -16.214  -1.578  11.063  1.00  0.00    -0.237 OA
ATOM     79  O   UNL     1     -15.969   0.835  10.638  1.00  0.00    -0.744 OA
ENDBRANCH  75  76
ENDBRANCH  47  70
BRANCH  59  80
ATOM     80  C   UNL     1     -21.823  -2.279   1.266  1.00  0.00    -0.014 A 
ATOM     81  C   UNL     1     -22.567  -1.098   1.433  1.00  0.00     0.010 A 
ATOM     82  C   UNL     1     -22.500  -3.506   1.135  1.00  0.00     0.010 A 
ATOM     83  C   UNL     1     -23.962  -1.147   1.495  1.00  0.00     0.020 A 
ATOM     84  C   UNL     1     -23.896  -3.555   1.171  1.00  0.00     0.020 A 
ATOM     85  C   UNL     1     -24.618  -2.375   1.364  1.00  0.00     0.054 A 
BRANCH  85  86
ATOM     86  S   UNL     1     -26.431  -2.407   1.400  1.00  0.00     0.124 S 
ATOM     87  O   UNL     1     -26.709  -2.224   2.822  1.00  0.00    -0.237 OA
ATOM     88  O   UNL     1     -26.790  -1.283   0.540  1.00  0.00    -0.237 OA
ATOM     89  O   UNL     1     -26.764  -3.725   0.864  1.00  0.00    -0.744 OA
ENDBRANCH  85  86
ENDBRANCH  59  80
ENDBRANCH  33  34
ENDBRANCH  25  28
ENDBRANCH  23  24
ENDBRANCH  22  23
ENDBRANCH  21  22
ENDBRANCH   1  21
TORSDOF 19
