REMARK SMILES CC(C)[C@H](NC(=O)[C@H]1CC(=O)N(c2ccc(F)cc2)C1)C(=O)N1CCC[C@@H]1C(=O)NCCCCNC(=O)c1ccc(-c2c3nc(c(-c4ccc(S(=O)(=O)[O-])cc4)c4ccc([nH]4)c(-c4ccc(S(=O)(=O)[O-])cc4)c4nc(c(-c5ccc(S(=O)(=O)[O-])cc5)c5ccc2[nH]5)C=C4)C=C3)cc1
REMARK SMILES IDX 31 1 30 2 28 3 29 4 27 6 23 7 24 8 25 9 26 10 21 11 22 12
REMARK SMILES IDX 4 13 2 14 1 15 3 16 5 17 6 18 7 20 8 21 9 22 20 23 10 24
REMARK SMILES IDX 12 25 11 26 13 27 14 28 19 29 15 30 18 31 16 32 17 33 32 34
REMARK SMILES IDX 33 35 34 36 35 37 36 38 37 40 38 41 39 42 97 43 40 44 96 45
REMARK SMILES IDX 41 46 42 47 43 48 90 49 44 50 95 51 89 52 91 53 45 54 94 55
REMARK SMILES IDX 88 56 87 57 46 59 76 60 57 61 75 62 58 63 61 64 74 65 92 66
REMARK SMILES IDX 59 67 60 68 73 70 93 71 62 72 47 73 48 74 56 75 49 76 55 77
REMARK SMILES IDX 50 78 51 79 52 80 53 81 54 82 77 83 78 84 86 85 79 86 85 87
REMARK SMILES IDX 80 88 81 89 82 90 83 91 84 92 63 93 64 94 72 95 65 96 71 97
REMARK SMILES IDX 66 98 67 99 68 100 69 101 70 102
REMARK H PARENT 30 5 5 19 35 39 91 58 61 69
REMARK Flexibility Score: inf
ROOT
ATOM      1  C   UNL     1      -4.002   2.083   4.303  1.00  0.00     0.116 C 
ENDROOT
BRANCH   1   2
ATOM      2  N   UNL     1      -3.907   0.952   3.414  1.00  0.00    -0.354 N 
ATOM      3  C   UNL     1      -3.505   0.917   2.101  1.00  0.00     0.242 C 
ATOM      4  O   UNL     1      -3.274  -0.204   1.631  1.00  0.00    -0.273 OA
ATOM      5  H   UNL     1      -4.166   0.085   3.801  1.00  0.00     0.163 HD
BRANCH   3   6
ATOM      6  C   UNL     1      -3.499   2.167   1.158  1.00  0.00     0.174 C 
ATOM      7  N   UNL     1      -2.663   3.345   1.466  1.00  0.00    -0.329 N 
ATOM      8  C   UNL     1      -3.382   4.554   1.124  1.00  0.00     0.120 C 
ATOM      9  C   UNL     1      -4.835   4.212   1.371  1.00  0.00     0.024 C 
ATOM     10  C   UNL     1      -4.933   2.726   1.033  1.00  0.00     0.037 C 
BRANCH   7  11
ATOM     11  C   UNL     1      -1.265   3.290   1.385  1.00  0.00     0.246 C 
ATOM     12  O   UNL     1      -0.685   2.520   0.622  1.00  0.00    -0.272 OA
BRANCH  11  13
ATOM     13  C   UNL     1      -0.470   4.063   2.523  1.00  0.00     0.174 C 
BRANCH  13  14
ATOM     14  C   UNL     1      -1.129   3.556   3.842  1.00  0.00     0.015 C 
ATOM     15  C   UNL     1      -0.261   2.676   4.756  1.00  0.00     0.010 C 
ATOM     16  C   UNL     1      -1.971   4.606   4.579  1.00  0.00     0.010 C 
ENDBRANCH  13  14
BRANCH  13  17
ATOM     17  N   UNL     1      -0.441   5.535   2.358  1.00  0.00    -0.344 N 
ATOM     18  C   UNL     1       0.203   6.591   2.929  1.00  0.00     0.226 C 
ATOM     19  H   UNL     1      -1.050   5.830   1.643  1.00  0.00     0.164 HD
ATOM     20  O   UNL     1      -0.157   7.700   2.509  1.00  0.00    -0.275 OA
BRANCH  18  21
ATOM     21  C   UNL     1       1.334   6.546   3.965  1.00  0.00     0.107 C 
ATOM     22  C   UNL     1       1.070   7.492   5.146  1.00  0.00     0.116 C 
ATOM     23  C   UNL     1       1.578   5.239   4.645  1.00  0.00     0.139 C 
ATOM     24  C   UNL     1       1.633   6.788   6.367  1.00  0.00     0.227 C 
ATOM     25  N   UNL     1       1.974   5.487   6.001  1.00  0.00    -0.312 N 
ATOM     26  O   UNL     1       1.720   7.314   7.468  1.00  0.00    -0.274 OA
BRANCH  25  27
ATOM     27  C   UNL     1       2.210   4.384   6.872  1.00  0.00     0.044 A 
ATOM     28  C   UNL     1       1.766   4.382   8.202  1.00  0.00     0.029 A 
ATOM     29  C   UNL     1       2.772   3.198   6.361  1.00  0.00     0.029 A 
ATOM     30  C   UNL     1       1.819   3.209   8.967  1.00  0.00     0.041 A 
ATOM     31  C   UNL     1       2.821   2.028   7.123  1.00  0.00     0.041 A 
ATOM     32  C   UNL     1       2.325   2.039   8.415  1.00  0.00     0.123 A 
ATOM     33  F   UNL     1       2.307   0.905   9.126  1.00  0.00    -0.207 F 
ENDBRANCH  25  27
ENDBRANCH  18  21
ENDBRANCH  13  17
ENDBRANCH  11  13
ENDBRANCH   7  11
ENDBRANCH   3   6
ENDBRANCH   1   2
BRANCH   1  34
ATOM     34  C   UNL     1      -5.094   2.068   5.359  1.00  0.00     0.023 C 
BRANCH  34  35
ATOM     35  C   UNL     1      -4.713   1.374   6.673  1.00  0.00     0.023 C 
BRANCH  35  36
ATOM     36  C   UNL     1      -3.444   1.850   7.391  1.00  0.00     0.116 C 
BRANCH  36  37
ATOM     37  N   UNL     1      -3.452   3.250   7.787  1.00  0.00    -0.352 N 
ATOM     38  C   UNL     1      -2.975   3.825   8.947  1.00  0.00     0.251 C 
ATOM     39  H   UNL     1      -3.852   3.873   7.138  1.00  0.00     0.163 HD
ATOM     40  O   UNL     1      -3.079   5.036   9.117  1.00  0.00    -0.269 OA
BRANCH  38  41
ATOM     41  C   UNL     1      -2.398   2.970  10.010  1.00  0.00     0.039 A 
ATOM     42  C   UNL     1      -2.878   3.107  11.316  1.00  0.00     0.014 A 
ATOM     43  C   UNL     1      -1.441   1.997   9.714  1.00  0.00     0.014 A 
ATOM     44  C   UNL     1      -2.474   2.202  12.301  1.00  0.00     0.010 A 
ATOM     45  C   UNL     1      -1.085   1.060  10.681  1.00  0.00     0.010 A 
ATOM     46  C   UNL     1      -1.614   1.139  11.977  1.00  0.00    -0.014 A 
BRANCH  46  47
ATOM     47  C   UNL     1      -1.301   0.073  12.963  1.00  0.00     0.031 A 
ATOM     48  C   UNL     1       0.105  -0.110  13.466  1.00  0.00     0.074 A 
ATOM     49  C   UNL     1      -2.274  -0.779  13.345  1.00  0.00     0.049 A 
ATOM     50  N   UNL     1       0.573  -1.014  14.287  1.00  0.00    -0.248 NA
ATOM     51  C   UNL     1       1.120   0.833  12.967  1.00  0.00     0.031 C 
ATOM     52  C   UNL     1      -3.666  -0.735  12.887  1.00  0.00     0.029 A 
ATOM     53  N   UNL     1      -2.242  -1.858  14.193  1.00  0.00    -0.354 N 
ATOM     54  C   UNL     1       1.933  -0.750  14.405  1.00  0.00     0.074 A 
ATOM     55  C   UNL     1       2.225   0.364  13.530  1.00  0.00     0.031 C 
ATOM     56  C   UNL     1      -4.355  -1.729  13.472  1.00  0.00     0.029 A 
ATOM     57  C   UNL     1      -3.451  -2.505  14.314  1.00  0.00     0.049 A 
ATOM     58  H   UNL     1      -1.430  -2.143  14.671  1.00  0.00     0.167 HD
ATOM     59  C   UNL     1       2.850  -1.367  15.188  1.00  0.00     0.031 A 
ATOM     60  C   UNL     1      -3.792  -3.605  15.014  1.00  0.00     0.031 A 
ATOM     61  C   UNL     1       2.555  -2.483  16.049  1.00  0.00     0.049 A 
ATOM     62  C   UNL     1      -2.745  -4.290  15.851  1.00  0.00     0.074 A 
ATOM     63  C   UNL     1       3.406  -3.150  16.913  1.00  0.00     0.029 A 
ATOM     64  N   UNL     1       1.318  -3.101  16.151  1.00  0.00    -0.354 N 
ATOM     65  N   UNL     1      -1.481  -3.975  16.011  1.00  0.00    -0.248 NA
ATOM     66  C   UNL     1      -3.172  -5.471  16.615  1.00  0.00     0.031 C 
ATOM     67  C   UNL     1       2.699  -4.206  17.494  1.00  0.00     0.029 A 
ATOM     68  C   UNL     1       1.389  -4.155  17.046  1.00  0.00     0.049 A 
ATOM     69  H   UNL     1       0.508  -2.829  15.661  1.00  0.00     0.167 HD
ATOM     70  C   UNL     1      -0.973  -4.897  16.920  1.00  0.00     0.074 A 
ATOM     71  C   UNL     1      -2.069  -5.769  17.288  1.00  0.00     0.031 C 
ATOM     72  C   UNL     1       0.287  -5.011  17.407  1.00  0.00     0.031 A 
BRANCH  59  73
ATOM     73  C   UNL     1       4.263  -0.844  15.162  1.00  0.00    -0.014 A 
ATOM     74  C   UNL     1       4.580   0.405  15.728  1.00  0.00     0.010 A 
ATOM     75  C   UNL     1       5.299  -1.642  14.643  1.00  0.00     0.010 A 
ATOM     76  C   UNL     1       5.902   0.855  15.756  1.00  0.00     0.020 A 
ATOM     77  C   UNL     1       6.627  -1.207  14.695  1.00  0.00     0.020 A 
ATOM     78  C   UNL     1       6.919   0.043  15.244  1.00  0.00     0.054 A 
BRANCH  78  79
ATOM     79  S   UNL     1       8.632   0.629  15.353  1.00  0.00     0.124 S 
ATOM     80  O   UNL     1       8.640   1.723  14.385  1.00  0.00    -0.237 OA
ATOM     81  O   UNL     1       8.744   1.028  16.753  1.00  0.00    -0.237 OA
ATOM     82  O   UNL     1       9.425  -0.539  14.976  1.00  0.00    -0.744 OA
ENDBRANCH  78  79
ENDBRANCH  59  73
BRANCH  60  83
ATOM     83  C   UNL     1      -5.185  -4.132  14.958  1.00  0.00    -0.014 A 
ATOM     84  C   UNL     1      -6.014  -4.094  16.094  1.00  0.00     0.010 A 
ATOM     85  C   UNL     1      -5.685  -4.696  13.770  1.00  0.00     0.010 A 
ATOM     86  C   UNL     1      -7.299  -4.644  16.054  1.00  0.00     0.020 A 
ATOM     87  C   UNL     1      -6.981  -5.216  13.716  1.00  0.00     0.020 A 
ATOM     88  C   UNL     1      -7.774  -5.204  14.865  1.00  0.00     0.054 A 
BRANCH  88  89
ATOM     89  S   UNL     1      -9.450  -5.896  14.830  1.00  0.00     0.124 S 
ATOM     90  O   UNL     1      -9.290  -7.120  15.608  1.00  0.00    -0.237 OA
ATOM     91  O   UNL     1     -10.239  -4.842  15.463  1.00  0.00    -0.237 OA
ATOM     92  O   UNL     1      -9.711  -6.088  13.405  1.00  0.00    -0.744 OA
ENDBRANCH  88  89
ENDBRANCH  60  83
BRANCH  72  93
ATOM     93  C   UNL     1       0.542  -6.091  18.426  1.00  0.00    -0.014 A 
ATOM     94  C   UNL     1       0.546  -7.451  18.069  1.00  0.00     0.010 A 
ATOM     95  C   UNL     1       0.835  -5.731  19.755  1.00  0.00     0.010 A 
ATOM     96  C   UNL     1       0.801  -8.432  19.030  1.00  0.00     0.020 A 
ATOM     97  C   UNL     1       1.124  -6.707  20.711  1.00  0.00     0.020 A 
ATOM     98  C   UNL     1       1.090  -8.054  20.345  1.00  0.00     0.054 A 
BRANCH  98  99
ATOM     99  S   UNL     1       1.459  -9.346  21.563  1.00  0.00     0.124 S 
ATOM    100  O   UNL     1       0.146  -9.950  21.773  1.00  0.00    -0.237 OA
ATOM    101  O   UNL     1       2.429 -10.181  20.858  1.00  0.00    -0.237 OA
ATOM    102  O   UNL     1       1.994  -8.607  22.703  1.00  0.00    -0.744 OA
ENDBRANCH  98  99
ENDBRANCH  72  93
ENDBRANCH  46  47
ENDBRANCH  38  41
ENDBRANCH  36  37
ENDBRANCH  35  36
ENDBRANCH  34  35
ENDBRANCH   1  34
TORSDOF 20
