REMARK SMILES O=C(NCCCCNC(=O)c1cc(-c2cc(Cl)ccc2Cl)cc([N+](=O)[O-])c1)c1ccc(-c2c3nc(c(-c4ccc(S(=O)(=O)[O-])cc4)c4ccc([nH]4)c(-c4ccc(S(=O)(=O)[O-])cc4)c4nc(c(-c5ccc(S(=O)(=O)[O-])cc5)c5ccc2[nH]5)C=C4)C=C3)cc1
REMARK SMILES IDX 4 1 3 2 1 3 2 4 28 6 29 7 87 8 30 9 86 10 31 11 32 12 33 13
REMARK SMILES IDX 80 14 34 15 85 16 79 17 81 18 35 19 84 20 78 21 77 22 36 24
REMARK SMILES IDX 66 25 47 26 65 27 48 28 51 29 64 30 82 31 49 32 50 33 63 35
REMARK SMILES IDX 83 36 52 37 37 38 38 39 46 40 39 41 45 42 40 43 41 44 42 45
REMARK SMILES IDX 43 46 44 47 67 48 68 49 76 50 69 51 75 52 70 53 71 54 72 55
REMARK SMILES IDX 73 56 74 57 53 58 54 59 62 60 55 61 61 62 56 63 57 64 58 65
REMARK SMILES IDX 59 66 60 67 5 68 6 69 7 70 8 71 9 72 10 74 11 75 12 76 27 77
REMARK SMILES IDX 13 78 23 79 22 80 14 81 15 82 20 83 16 84 19 85 21 86 17 87
REMARK SMILES IDX 18 88 24 89 25 90 26 91
REMARK H PARENT 3 5 81 23 51 34 8 73
REMARK Flexibility Score: inf
ROOT
ATOM      1  C   UNL     1       4.446   0.553  -1.223  1.00  0.00     0.116 C 
ENDROOT
BRANCH   1   2
ATOM      2  N   UNL     1       3.011   0.609  -0.974  1.00  0.00    -0.352 N 
ATOM      3  O   UNL     1       1.050  -0.011  -0.029  1.00  0.00    -0.269 OA
ATOM      4  C   UNL     1       2.275  -0.074  -0.030  1.00  0.00     0.251 C 
ATOM      5  H   UNL     1       2.500   1.215  -1.558  1.00  0.00     0.163 HD
BRANCH   4   6
ATOM      6  C   UNL     1       2.988  -0.913   0.957  1.00  0.00     0.039 A 
ATOM      7  C   UNL     1       4.130  -0.416   1.583  1.00  0.00     0.014 A 
ATOM      8  C   UNL     1       2.567  -2.224   1.195  1.00  0.00     0.014 A 
ATOM      9  C   UNL     1       4.963  -1.285   2.266  1.00  0.00     0.010 A 
ATOM     10  C   UNL     1       3.341  -3.061   2.007  1.00  0.00     0.010 A 
ATOM     11  C   UNL     1       4.568  -2.611   2.518  1.00  0.00    -0.014 A 
BRANCH  11  12
ATOM     12  C   UNL     1       5.434  -3.445   3.392  1.00  0.00     0.031 A 
ATOM     13  C   UNL     1       6.077  -4.715   2.905  1.00  0.00     0.074 A 
ATOM     14  C   UNL     1       5.699  -2.982   4.631  1.00  0.00     0.049 A 
ATOM     15  N   UNL     1       6.923  -5.494   3.533  1.00  0.00    -0.248 NA
ATOM     16  C   UNL     1       5.728  -5.182   1.554  1.00  0.00     0.031 C 
ATOM     17  C   UNL     1       5.117  -1.769   5.218  1.00  0.00     0.029 A 
ATOM     18  N   UNL     1       6.550  -3.439   5.603  1.00  0.00    -0.354 N 
ATOM     19  C   UNL     1       7.202  -6.542   2.663  1.00  0.00     0.074 A 
ATOM     20  C   UNL     1       6.408  -6.319   1.474  1.00  0.00     0.031 C 
ATOM     21  C   UNL     1       5.685  -1.535   6.407  1.00  0.00     0.029 A 
ATOM     22  C   UNL     1       6.599  -2.627   6.712  1.00  0.00     0.049 A 
ATOM     23  H   UNL     1       7.075  -4.267   5.516  1.00  0.00     0.167 HD
ATOM     24  C   UNL     1       8.050  -7.586   2.839  1.00  0.00     0.031 A 
ATOM     25  C   UNL     1       7.282  -2.751   7.864  1.00  0.00     0.031 A 
ATOM     26  C   UNL     1       8.829  -7.804   4.033  1.00  0.00     0.049 A 
ATOM     27  C   UNL     1       8.185  -3.934   8.040  1.00  0.00     0.074 A 
ATOM     28  C   UNL     1       9.719  -8.830   4.305  1.00  0.00     0.029 A 
ATOM     29  N   UNL     1       8.813  -6.987   5.155  1.00  0.00    -0.354 N 
ATOM     30  N   UNL     1       8.449  -4.901   7.193  1.00  0.00    -0.248 NA
ATOM     31  C   UNL     1       8.886  -4.043   9.324  1.00  0.00     0.031 C 
ATOM     32  C   UNL     1      10.198  -8.663   5.609  1.00  0.00     0.029 A 
ATOM     33  C   UNL     1       9.661  -7.496   6.126  1.00  0.00     0.049 A 
ATOM     34  H   UNL     1       8.279  -6.165   5.247  1.00  0.00     0.167 HD
ATOM     35  C   UNL     1       9.355  -5.730   7.841  1.00  0.00     0.074 A 
ATOM     36  C   UNL     1       9.624  -5.126   9.131  1.00  0.00     0.031 C 
ATOM     37  C   UNL     1       9.907  -6.892   7.412  1.00  0.00     0.031 A 
BRANCH  24  38
ATOM     38  C   UNL     1       8.178  -8.589   1.718  1.00  0.00    -0.014 A 
ATOM     39  C   UNL     1       8.829  -8.256   0.517  1.00  0.00     0.010 A 
ATOM     40  C   UNL     1       7.712  -9.906   1.897  1.00  0.00     0.010 A 
ATOM     41  C   UNL     1       8.991  -9.211  -0.492  1.00  0.00     0.020 A 
ATOM     42  C   UNL     1       7.896 -10.872   0.902  1.00  0.00     0.020 A 
ATOM     43  C   UNL     1       8.525 -10.514  -0.292  1.00  0.00     0.054 A 
BRANCH  43  44
ATOM     44  S   UNL     1       8.788 -11.742  -1.603  1.00  0.00     0.124 S 
ATOM     45  O   UNL     1       7.875 -11.273  -2.642  1.00  0.00    -0.237 OA
ATOM     46  O   UNL     1      10.210 -11.588  -1.902  1.00  0.00    -0.237 OA
ATOM     47  O   UNL     1       8.419 -13.008  -0.975  1.00  0.00    -0.744 OA
ENDBRANCH  43  44
ENDBRANCH  24  38
BRANCH  25  48
ATOM     48  C   UNL     1       7.088  -1.752   8.950  1.00  0.00    -0.014 A 
ATOM     49  C   UNL     1       8.136  -0.912   9.362  1.00  0.00     0.010 A 
ATOM     50  C   UNL     1       5.832  -1.636   9.575  1.00  0.00     0.010 A 
ATOM     51  C   UNL     1       7.939   0.002  10.402  1.00  0.00     0.020 A 
ATOM     52  C   UNL     1       5.620  -0.697  10.584  1.00  0.00     0.020 A 
ATOM     53  C   UNL     1       6.682   0.103  11.006  1.00  0.00     0.054 A 
BRANCH  53  54
ATOM     54  S   UNL     1       6.440   1.310  12.336  1.00  0.00     0.124 S 
ATOM     55  O   UNL     1       7.158   0.687  13.444  1.00  0.00    -0.237 OA
ATOM     56  O   UNL     1       7.051   2.516  11.783  1.00  0.00    -0.237 OA
ATOM     57  O   UNL     1       4.987   1.369  12.485  1.00  0.00    -0.744 OA
ENDBRANCH  53  54
ENDBRANCH  25  48
BRANCH  37  58
ATOM     58  C   UNL     1      10.875  -7.567   8.347  1.00  0.00    -0.014 A 
ATOM     59  C   UNL     1      10.440  -8.154   9.550  1.00  0.00     0.010 A 
ATOM     60  C   UNL     1      12.241  -7.616   8.017  1.00  0.00     0.010 A 
ATOM     61  C   UNL     1      11.361  -8.725  10.431  1.00  0.00     0.020 A 
ATOM     62  C   UNL     1      13.161  -8.218   8.879  1.00  0.00     0.020 A 
ATOM     63  C   UNL     1      12.717  -8.749  10.092  1.00  0.00     0.054 A 
BRANCH  63  64
ATOM     64  S   UNL     1      13.891  -9.501  11.250  1.00  0.00     0.124 S 
ATOM     65  O   UNL     1      13.944  -8.507  12.318  1.00  0.00    -0.237 OA
ATOM     66  O   UNL     1      13.238 -10.761  11.595  1.00  0.00    -0.237 OA
ATOM     67  O   UNL     1      15.115  -9.636  10.463  1.00  0.00    -0.744 OA
ENDBRANCH  63  64
ENDBRANCH  37  58
ENDBRANCH  11  12
ENDBRANCH   4   6
ENDBRANCH   1   2
BRANCH   1  68
ATOM     68  C   UNL     1       4.800   0.216  -2.662  1.00  0.00     0.023 C 
BRANCH  68  69
ATOM     69  C   UNL     1       4.328   1.235  -3.688  1.00  0.00     0.023 C 
BRANCH  69  70
ATOM     70  C   UNL     1       4.719   2.675  -3.383  1.00  0.00     0.116 C 
BRANCH  70  71
ATOM     71  N   UNL     1       6.161   2.870  -3.337  1.00  0.00    -0.352 N 
ATOM     72  C   UNL     1       6.956   3.664  -4.121  1.00  0.00     0.251 C 
ATOM     73  H   UNL     1       6.634   2.357  -2.642  1.00  0.00     0.163 HD
ATOM     74  O   UNL     1       8.181   3.594  -4.054  1.00  0.00    -0.269 OA
BRANCH  72  75
ATOM     75  C   UNL     1       6.335   4.596  -5.081  1.00  0.00     0.047 A 
ATOM     76  C   UNL     1       6.827   4.638  -6.390  1.00  0.00     0.023 A 
ATOM     77  C   UNL     1       5.295   5.439  -4.687  1.00  0.00     0.099 A 
ATOM     78  C   UNL     1       6.238   5.478  -7.348  1.00  0.00    -0.009 A 
ATOM     79  C   UNL     1       4.648   6.208  -5.653  1.00  0.00     0.270 A 
ATOM     80  C   UNL     1       5.097   6.214  -6.980  1.00  0.00     0.094 A 
BRANCH  78  81
ATOM     81  C   UNL     1       6.854   5.634  -8.677  1.00  0.00     0.002 A 
ATOM     82  C   UNL     1       6.994   4.519  -9.526  1.00  0.00     0.030 A 
ATOM     83  C   UNL     1       7.380   6.870  -9.118  1.00  0.00     0.048 A 
ATOM     84  C   UNL     1       7.638   4.638 -10.761  1.00  0.00     0.041 A 
ATOM     85  C   UNL     1       8.015   6.981 -10.359  1.00  0.00     0.023 A 
ATOM     86  Cl  UNL     1       7.325   8.302  -8.143  1.00  0.00    -0.084 Cl
ATOM     87  Cl  UNL     1       7.818   3.256 -11.770  1.00  0.00    -0.084 Cl
ATOM     88  C   UNL     1       8.148   5.863 -11.180  1.00  0.00     0.022 A 
ENDBRANCH  78  81
BRANCH  79  89
ATOM     89  N   UNL     1       3.480   7.010  -5.270  1.00  0.00     0.062 N 
ATOM     90  O   UNL     1       2.931   7.686  -6.150  1.00  0.00    -0.258 OA
ATOM     91  O   UNL     1       3.102   6.945  -4.092  1.00  0.00    -0.258 OA
ENDBRANCH  79  89
ENDBRANCH  72  75
ENDBRANCH  70  71
ENDBRANCH  69  70
ENDBRANCH  68  69
ENDBRANCH   1  68
TORSDOF 16
