REMARK SMILES CC(C)N(CC(=O)NCCCCNC(=O)c1ccc(-c2c3nc(c(-c4ccc(S(=O)(=O)[O-])cc4)c4ccc([nH]4)c(-c4ccc(S(=O)(=O)[O-])cc4)c4nc(c(-c5ccc(S(=O)(=O)[O-])cc5)c5ccc2[nH]5)C=C4)C=C3)cc1)C(=O)NC1C(C)(C)C1(C)C
REMARK SMILES IDX 10 1 9 2 8 3 6 4 7 5 5 7 4 8 2 9 1 10 3 11 76 12 77 13 78 14
REMARK SMILES IDX 79 16 80 17 83 18 81 19 82 20 84 21 85 22 11 23 12 24 13 25
REMARK SMILES IDX 14 26 15 28 16 29 17 30 75 31 18 32 74 33 19 34 20 35 21 36
REMARK SMILES IDX 68 37 22 38 73 39 67 40 69 41 23 42 72 43 66 44 65 45 24 47
REMARK SMILES IDX 54 48 35 49 53 50 36 51 39 52 52 53 70 54 37 55 38 56 51 58
REMARK SMILES IDX 71 59 40 60 25 61 26 62 34 63 27 64 33 65 28 66 29 67 30 68
REMARK SMILES IDX 31 69 32 70 55 71 56 72 64 73 57 74 63 75 58 76 59 77 60 78
REMARK SMILES IDX 61 79 62 80 41 81 42 82 50 83 43 84 49 85 44 86 45 87 46 88
REMARK SMILES IDX 47 89 48 90
REMARK H PARENT 8 6 78 15 13 27 69 46 39 57
REMARK Flexibility Score: inf
ROOT
ATOM      1  C   UNL     1      -0.279   3.997  -2.550  1.00  0.00     0.023 C 
ENDROOT
BRANCH   1   2
ATOM      2  C   UNL     1      -0.101   4.340  -1.074  1.00  0.00     0.116 C 
BRANCH   2   3
ATOM      3  N   UNL     1      -1.330   4.396  -0.321  1.00  0.00    -0.355 N 
ATOM      4  C   UNL     1      -1.770   3.534   0.638  1.00  0.00     0.239 C 
ATOM      5  O   UNL     1      -2.521   3.991   1.508  1.00  0.00    -0.273 OA
ATOM      6  H   UNL     1      -1.926   5.153  -0.525  1.00  0.00     0.163 HD
BRANCH   4   7
ATOM      7  C   UNL     1      -1.217   2.112   0.794  1.00  0.00     0.221 C 
BRANCH   7   8
ATOM      8  N   UNL     1      -0.863   1.319  -0.386  1.00  0.00    -0.313 N 
BRANCH   8   9
ATOM      9  C   UNL     1       0.549   0.838  -0.429  1.00  0.00     0.081 C 
ATOM     10  C   UNL     1       0.685  -0.586   0.120  1.00  0.00     0.031 C 
ATOM     11  C   UNL     1       1.259   0.961  -1.784  1.00  0.00     0.031 C 
ENDBRANCH   8   9
BRANCH   8  12
ATOM     12  C   UNL     1      -1.783   0.702  -1.201  1.00  0.00     0.318 C 
ATOM     13  O   UNL     1      -1.443  -0.143  -2.038  1.00  0.00    -0.249 OA
ATOM     14  N   UNL     1      -3.117   0.924  -1.159  1.00  0.00    -0.334 N 
ATOM     15  H   UNL     1      -3.589   0.360  -1.814  1.00  0.00     0.165 HD
BRANCH  14  16
ATOM     16  C   UNL     1      -4.037   1.743  -0.433  1.00  0.00     0.096 C 
ATOM     17  C   UNL     1      -4.722   2.972  -1.022  1.00  0.00    -0.007 C 
ATOM     18  C   UNL     1      -5.532   1.694  -0.793  1.00  0.00    -0.007 C 
ATOM     19  C   UNL     1      -5.042   4.162  -0.141  1.00  0.00     0.014 C 
ATOM     20  C   UNL     1      -4.389   3.396  -2.433  1.00  0.00     0.014 C 
ATOM     21  C   UNL     1      -6.054   0.961  -2.011  1.00  0.00     0.014 C 
ATOM     22  C   UNL     1      -6.521   1.642   0.357  1.00  0.00     0.014 C 
ENDBRANCH  14  16
ENDBRANCH   8  12
ENDBRANCH   7   8
ENDBRANCH   4   7
ENDBRANCH   2   3
ENDBRANCH   1   2
BRANCH   1  23
ATOM     23  C   UNL     1      -0.942   5.051  -3.431  1.00  0.00     0.023 C 
BRANCH  23  24
ATOM     24  C   UNL     1      -0.437   6.477  -3.279  1.00  0.00     0.116 C 
BRANCH  24  25
ATOM     25  N   UNL     1       1.004   6.611  -3.425  1.00  0.00    -0.352 N 
ATOM     26  C   UNL     1       1.728   7.528  -4.150  1.00  0.00     0.251 C 
ATOM     27  H   UNL     1       1.540   5.948  -2.933  1.00  0.00     0.163 HD
ATOM     28  O   UNL     1       2.952   7.441  -4.195  1.00  0.00    -0.269 OA
BRANCH  26  29
ATOM     29  C   UNL     1       1.028   8.581  -4.917  1.00  0.00     0.039 A 
ATOM     30  C   UNL     1       1.391   8.787  -6.251  1.00  0.00     0.014 A 
ATOM     31  C   UNL     1      -0.014   9.319  -4.351  1.00  0.00     0.014 A 
ATOM     32  C   UNL     1       0.644   9.660  -7.044  1.00  0.00     0.010 A 
ATOM     33  C   UNL     1      -0.806  10.127  -5.162  1.00  0.00     0.010 A 
ATOM     34  C   UNL     1      -0.495  10.292  -6.520  1.00  0.00    -0.014 A 
BRANCH  34  35
ATOM     35  C   UNL     1      -1.407  11.083  -7.386  1.00  0.00     0.031 A 
ATOM     36  C   UNL     1      -1.625  12.546  -7.129  1.00  0.00     0.074 A 
ATOM     37  C   UNL     1      -2.119  10.454  -8.342  1.00  0.00     0.049 A 
ATOM     38  N   UNL     1      -2.447  13.373  -7.723  1.00  0.00    -0.248 NA
ATOM     39  C   UNL     1      -0.840  13.152  -6.042  1.00  0.00     0.031 C 
ATOM     40  C   UNL     1      -2.047   9.023  -8.649  1.00  0.00     0.029 A 
ATOM     41  N   UNL     1      -3.061  10.933  -9.218  1.00  0.00    -0.354 N 
ATOM     42  C   UNL     1      -2.295  14.590  -7.070  1.00  0.00     0.074 A 
ATOM     43  C   UNL     1      -1.336  14.380  -6.006  1.00  0.00     0.031 C 
ATOM     44  C   UNL     1      -2.900   8.743  -9.647  1.00  0.00     0.029 A 
ATOM     45  C   UNL     1      -3.607   9.962 -10.025  1.00  0.00     0.049 A 
ATOM     46  H   UNL     1      -3.321  11.881  -9.265  1.00  0.00     0.167 HD
ATOM     47  C   UNL     1      -2.888  15.778  -7.340  1.00  0.00     0.031 A 
ATOM     48  C   UNL     1      -4.581  10.035 -10.953  1.00  0.00     0.031 A 
ATOM     49  C   UNL     1      -3.840  15.983  -8.399  1.00  0.00     0.049 A 
ATOM     50  C   UNL     1      -5.223  11.360 -11.242  1.00  0.00     0.074 A 
ATOM     51  C   UNL     1      -4.437  17.164  -8.804  1.00  0.00     0.029 A 
ATOM     52  N   UNL     1      -4.345  14.981  -9.214  1.00  0.00    -0.354 N 
ATOM     53  N   UNL     1      -4.998  12.522 -10.677  1.00  0.00    -0.248 NA
ATOM     54  C   UNL     1      -6.244  11.388 -12.298  1.00  0.00     0.031 C 
ATOM     55  C   UNL     1      -5.344  16.867  -9.828  1.00  0.00     0.029 A 
ATOM     56  C   UNL     1      -5.273  15.509 -10.096  1.00  0.00     0.049 A 
ATOM     57  H   UNL     1      -4.083  14.033  -9.171  1.00  0.00     0.167 HD
ATOM     58  C   UNL     1      -5.845  13.423 -11.312  1.00  0.00     0.074 A 
ATOM     59  C   UNL     1      -6.571  12.674 -12.319  1.00  0.00     0.031 C 
ATOM     60  C   UNL     1      -6.005  14.749 -11.079  1.00  0.00     0.031 A 
BRANCH  47  61
ATOM     61  C   UNL     1      -2.529  16.941  -6.452  1.00  0.00    -0.014 A 
ATOM     62  C   UNL     1      -1.245  17.515  -6.488  1.00  0.00     0.010 A 
ATOM     63  C   UNL     1      -3.487  17.463  -5.564  1.00  0.00     0.010 A 
ATOM     64  C   UNL     1      -0.905  18.544  -5.606  1.00  0.00     0.020 A 
ATOM     65  C   UNL     1      -3.159  18.512  -4.700  1.00  0.00     0.020 A 
ATOM     66  C   UNL     1      -1.861  19.027  -4.708  1.00  0.00     0.054 A 
BRANCH  66  67
ATOM     67  S   UNL     1      -1.388  20.346  -3.556  1.00  0.00     0.124 S 
ATOM     68  O   UNL     1      -0.591  19.613  -2.575  1.00  0.00    -0.237 OA
ATOM     69  O   UNL     1      -0.640  21.267  -4.409  1.00  0.00    -0.237 OA
ATOM     70  O   UNL     1      -2.667  20.854  -3.066  1.00  0.00    -0.744 OA
ENDBRANCH  66  67
ENDBRANCH  47  61
BRANCH  48  71
ATOM     71  C   UNL     1      -4.996   8.798 -11.668  1.00  0.00    -0.014 A 
ATOM     72  C   UNL     1      -4.600   8.574 -12.997  1.00  0.00     0.010 A 
ATOM     73  C   UNL     1      -5.730   7.805 -10.993  1.00  0.00     0.010 A 
ATOM     74  C   UNL     1      -4.924   7.374 -13.637  1.00  0.00     0.020 A 
ATOM     75  C   UNL     1      -6.035   6.595 -11.623  1.00  0.00     0.020 A 
ATOM     76  C   UNL     1      -5.631   6.388 -12.943  1.00  0.00     0.054 A 
BRANCH  76  77
ATOM     77  S   UNL     1      -5.949   4.799 -13.760  1.00  0.00     0.124 S 
ATOM     78  O   UNL     1      -7.022   5.143 -14.687  1.00  0.00    -0.237 OA
ATOM     79  O   UNL     1      -4.658   4.494 -14.371  1.00  0.00    -0.237 OA
ATOM     80  O   UNL     1      -6.330   3.919 -12.656  1.00  0.00    -0.744 OA
ENDBRANCH  76  77
ENDBRANCH  48  71
BRANCH  60  81
ATOM     81  C   UNL     1      -7.010  15.482 -11.927  1.00  0.00    -0.014 A 
ATOM     82  C   UNL     1      -8.390  15.316 -11.716  1.00  0.00     0.010 A 
ATOM     83  C   UNL     1      -6.569  16.394 -12.903  1.00  0.00     0.010 A 
ATOM     84  C   UNL     1      -9.313  16.034 -12.481  1.00  0.00     0.020 A 
ATOM     85  C   UNL     1      -7.488  17.131 -13.653  1.00  0.00     0.020 A 
ATOM     86  C   UNL     1      -8.856  16.939 -13.444  1.00  0.00     0.054 A 
BRANCH  86  87
ATOM     87  S   UNL     1     -10.072  17.901 -14.386  1.00  0.00     0.124 S 
ATOM     88  O   UNL     1     -10.598  16.902 -15.313  1.00  0.00    -0.237 OA
ATOM     89  O   UNL     1     -11.000  18.347 -13.350  1.00  0.00    -0.237 OA
ATOM     90  O   UNL     1      -9.275  18.962 -14.999  1.00  0.00    -0.744 OA
ENDBRANCH  86  87
ENDBRANCH  60  81
ENDBRANCH  34  35
ENDBRANCH  26  29
ENDBRANCH  24  25
ENDBRANCH  23  24
ENDBRANCH   1  23
TORSDOF 18
