REMARK SMILES CC[C@@H]1SC[C@@H](C(=O)NCCCCNC(=O)c2ccc(-c3c4nc(c(-c5ccc(S(=O)(=O)[O-])cc5)c5ccc([nH]5)c(-c5ccc(S(=O)(=O)[O-])cc5)c5nc(c(-c6ccc(S(=O)(=O)[O-])cc6)c6ccc3[nH]6)C=C5)C=C4)cc2)N1C(=O)NC1C(C)(C)C1(C)C
REMARK SMILES IDX 12 1 11 2 10 3 9 4 7 5 8 6 6 8 3 9 4 10 77 11 5 12 2 13 1 14
REMARK SMILES IDX 78 15 79 16 80 17 81 19 82 20 85 21 83 22 84 23 86 24 87 25
REMARK SMILES IDX 13 26 14 27 15 28 16 30 17 31 18 32 76 33 19 34 75 35 20 36
REMARK SMILES IDX 21 37 22 38 69 39 23 40 74 41 68 42 70 43 24 44 73 45 67 46
REMARK SMILES IDX 66 47 25 49 55 50 36 51 54 52 37 53 40 54 53 55 71 56 38 57
REMARK SMILES IDX 39 58 52 60 72 61 41 62 26 63 27 64 35 65 28 66 34 67 29 68
REMARK SMILES IDX 30 69 31 70 32 71 33 72 56 73 57 74 65 75 58 76 64 77 59 78
REMARK SMILES IDX 60 79 61 80 62 81 63 82 42 83 43 84 51 85 44 86 50 87 45 88
REMARK SMILES IDX 46 89 47 90 48 91 49 92
REMARK H PARENT 9 7 80 18 14 29 70 48 40 59
REMARK Flexibility Score: inf
ROOT
ATOM      1  C   UNL     1       0.973  -0.273   2.788  1.00  0.00     0.023 C 
ENDROOT
BRANCH   1   2
ATOM      2  C   UNL     1       0.835   0.679   1.601  1.00  0.00     0.023 C 
BRANCH   2   3
ATOM      3  C   UNL     1       1.016   2.151   1.963  1.00  0.00     0.116 C 
BRANCH   3   4
ATOM      4  N   UNL     1       2.399   2.567   1.895  1.00  0.00    -0.354 N 
ATOM      5  C   UNL     1       3.113   3.212   0.930  1.00  0.00     0.243 C 
ATOM      6  O   UNL     1       4.204   3.670   1.298  1.00  0.00    -0.273 OA
ATOM      7  H   UNL     1       2.924   2.341   2.696  1.00  0.00     0.163 HD
BRANCH   5   8
ATOM      8  C   UNL     1       2.566   3.569  -0.484  1.00  0.00     0.187 C 
ATOM      9  C   UNL     1       0.554   2.486  -1.389  1.00  0.00     0.145 C 
ATOM     10  S   UNL     1       0.004   4.186  -0.964  1.00  0.00    -0.134 SA
ATOM     11  N   UNL     1       2.014   2.466  -1.315  1.00  0.00    -0.300 N 
ATOM     12  C   UNL     1       1.599   4.735  -0.351  1.00  0.00     0.107 C 
BRANCH   9  13
ATOM     13  C   UNL     1      -0.215   2.133  -2.663  1.00  0.00     0.033 C 
ATOM     14  C   UNL     1      -1.417   1.242  -2.300  1.00  0.00     0.007 C 
ENDBRANCH   9  13
BRANCH  11  15
ATOM     15  C   UNL     1       2.967   1.560  -1.700  1.00  0.00     0.319 C 
ATOM     16  O   UNL     1       4.166   1.780  -1.477  1.00  0.00    -0.249 OA
ATOM     17  N   UNL     1       2.760   0.377  -2.308  1.00  0.00    -0.334 N 
ATOM     18  H   UNL     1       3.598  -0.129  -2.413  1.00  0.00     0.165 HD
BRANCH  17  19
ATOM     19  C   UNL     1       1.653  -0.333  -2.836  1.00  0.00     0.096 C 
ATOM     20  C   UNL     1       1.538  -0.579  -4.344  1.00  0.00    -0.007 C 
ATOM     21  C   UNL     1       1.720  -1.759  -3.381  1.00  0.00    -0.007 C 
ATOM     22  C   UNL     1       0.205  -0.405  -5.038  1.00  0.00     0.014 C 
ATOM     23  C   UNL     1       2.682  -0.157  -5.250  1.00  0.00     0.014 C 
ATOM     24  C   UNL     1       3.003  -2.553  -3.429  1.00  0.00     0.014 C 
ATOM     25  C   UNL     1       0.520  -2.644  -3.072  1.00  0.00     0.014 C 
ENDBRANCH  17  19
ENDBRANCH  11  15
ENDBRANCH   5   8
ENDBRANCH   3   4
ENDBRANCH   2   3
ENDBRANCH   1   2
BRANCH   1  26
ATOM     26  C   UNL     1      -0.124  -0.133   3.839  1.00  0.00     0.116 C 
BRANCH  26  27
ATOM     27  N   UNL     1      -1.461  -0.392   3.326  1.00  0.00    -0.352 N 
ATOM     28  C   UNL     1      -2.548  -0.907   4.000  1.00  0.00     0.251 C 
ATOM     29  H   UNL     1      -1.608  -0.171   2.378  1.00  0.00     0.163 HD
ATOM     30  O   UNL     1      -3.579  -1.163   3.403  1.00  0.00    -0.269 OA
BRANCH  28  31
ATOM     31  C   UNL     1      -2.422  -1.186   5.449  1.00  0.00     0.039 A 
ATOM     32  C   UNL     1      -2.804  -2.441   5.926  1.00  0.00     0.014 A 
ATOM     33  C   UNL     1      -1.885  -0.233   6.317  1.00  0.00     0.014 A 
ATOM     34  C   UNL     1      -2.585  -2.762   7.267  1.00  0.00     0.010 A 
ATOM     35  C   UNL     1      -1.596  -0.582   7.632  1.00  0.00     0.010 A 
ATOM     36  C   UNL     1      -1.946  -1.849   8.122  1.00  0.00    -0.014 A 
BRANCH  36  37
ATOM     37  C   UNL     1      -1.636  -2.206   9.529  1.00  0.00     0.031 A 
ATOM     38  C   UNL     1      -2.286  -1.457  10.661  1.00  0.00     0.074 A 
ATOM     39  C   UNL     1      -0.736  -3.175   9.787  1.00  0.00     0.049 A 
ATOM     40  N   UNL     1      -2.137  -1.621  11.950  1.00  0.00    -0.248 NA
ATOM     41  C   UNL     1      -3.203  -0.364  10.297  1.00  0.00     0.031 C 
ATOM     42  C   UNL     1      -0.002  -3.942   8.777  1.00  0.00     0.029 A 
ATOM     43  N   UNL     1      -0.288  -3.685  10.980  1.00  0.00    -0.354 N 
ATOM     44  C   UNL     1      -2.932  -0.651  12.550  1.00  0.00     0.074 A 
ATOM     45  C   UNL     1      -3.511   0.137  11.484  1.00  0.00     0.031 C 
ATOM     46  C   UNL     1       0.771  -4.852   9.392  1.00  0.00     0.029 A 
ATOM     47  C   UNL     1       0.616  -4.711  10.836  1.00  0.00     0.049 A 
ATOM     48  H   UNL     1      -0.586  -3.349  11.855  1.00  0.00     0.167 HD
ATOM     49  C   UNL     1      -3.180  -0.449  13.866  1.00  0.00     0.031 A 
ATOM     50  C   UNL     1       1.244  -5.461  11.763  1.00  0.00     0.031 A 
ATOM     51  C   UNL     1      -2.605  -1.236  14.924  1.00  0.00     0.049 A 
ATOM     52  C   UNL     1       0.957  -5.215  13.219  1.00  0.00     0.074 A 
ATOM     53  C   UNL     1      -2.824  -1.141  16.287  1.00  0.00     0.029 A 
ATOM     54  N   UNL     1      -1.695  -2.267  14.737  1.00  0.00    -0.354 N 
ATOM     55  N   UNL     1       0.153  -4.333  13.764  1.00  0.00    -0.248 NA
ATOM     56  C   UNL     1       1.649  -6.080  14.184  1.00  0.00     0.031 C 
ATOM     57  C   UNL     1      -2.012  -2.083  16.927  1.00  0.00     0.029 A 
ATOM     58  C   UNL     1      -1.331  -2.805  15.960  1.00  0.00     0.049 A 
ATOM     59  H   UNL     1      -1.358  -2.571  13.863  1.00  0.00     0.167 HD
ATOM     60  C   UNL     1       0.220  -4.557  15.134  1.00  0.00     0.074 A 
ATOM     61  C   UNL     1       1.130  -5.667  15.332  1.00  0.00     0.031 C 
ATOM     62  C   UNL     1      -0.418  -3.906  16.139  1.00  0.00     0.031 A 
BRANCH  49  63
ATOM     63  C   UNL     1      -4.118   0.674  14.226  1.00  0.00    -0.014 A 
ATOM     64  C   UNL     1      -5.490   0.599  13.919  1.00  0.00     0.010 A 
ATOM     65  C   UNL     1      -3.629   1.812  14.893  1.00  0.00     0.010 A 
ATOM     66  C   UNL     1      -6.344   1.663  14.222  1.00  0.00     0.020 A 
ATOM     67  C   UNL     1      -4.486   2.865  15.226  1.00  0.00     0.020 A 
ATOM     68  C   UNL     1      -5.835   2.792  14.868  1.00  0.00     0.054 A 
BRANCH  68  69
ATOM     69  S   UNL     1      -6.966   4.157  15.253  1.00  0.00     0.124 S 
ATOM     70  O   UNL     1      -7.181   4.749  13.935  1.00  0.00    -0.237 OA
ATOM     71  O   UNL     1      -8.118   3.466  15.827  1.00  0.00    -0.237 OA
ATOM     72  O   UNL     1      -6.208   4.982  16.191  1.00  0.00    -0.744 OA
ENDBRANCH  68  69
ENDBRANCH  49  63
BRANCH  50  73
ATOM     73  C   UNL     1       2.173  -6.544  11.339  1.00  0.00    -0.014 A 
ATOM     74  C   UNL     1       1.811  -7.893  11.497  1.00  0.00     0.010 A 
ATOM     75  C   UNL     1       3.419  -6.234  10.764  1.00  0.00     0.010 A 
ATOM     76  C   UNL     1       2.683  -8.913  11.105  1.00  0.00     0.020 A 
ATOM     77  C   UNL     1       4.282  -7.251  10.345  1.00  0.00     0.020 A 
ATOM     78  C   UNL     1       3.913  -8.585  10.529  1.00  0.00     0.054 A 
BRANCH  78  79
ATOM     79  S   UNL     1       5.005  -9.925   9.978  1.00  0.00     0.124 S 
ATOM     80  O   UNL     1       5.512 -10.443  11.244  1.00  0.00    -0.237 OA
ATOM     81  O   UNL     1       4.088 -10.802   9.255  1.00  0.00    -0.237 OA
ATOM     82  O   UNL     1       5.989  -9.240   9.141  1.00  0.00    -0.744 OA
ENDBRANCH  78  79
ENDBRANCH  50  73
BRANCH  62  83
ATOM     83  C   UNL     1      -0.182  -4.405  17.540  1.00  0.00    -0.014 A 
ATOM     84  C   UNL     1       1.050  -4.210  18.189  1.00  0.00     0.010 A 
ATOM     85  C   UNL     1      -1.225  -5.054  18.227  1.00  0.00     0.010 A 
ATOM     86  C   UNL     1       1.250  -4.697  19.484  1.00  0.00     0.020 A 
ATOM     87  C   UNL     1      -1.038  -5.515  19.533  1.00  0.00     0.020 A 
ATOM     88  C   UNL     1       0.205  -5.350  20.146  1.00  0.00     0.054 A 
BRANCH  88  89
ATOM     89  S   UNL     1       0.481  -5.955  21.833  1.00  0.00     0.124 S 
ATOM     90  O   UNL     1       1.310  -7.135  21.600  1.00  0.00    -0.237 OA
ATOM     91  O   UNL     1       1.157  -4.829  22.472  1.00  0.00    -0.237 OA
ATOM     92  O   UNL     1      -0.866  -6.228  22.328  1.00  0.00    -0.744 OA
ENDBRANCH  88  89
ENDBRANCH  62  83
ENDBRANCH  36  37
ENDBRANCH  28  31
ENDBRANCH  26  27
ENDBRANCH   1  26
TORSDOF 17
