REMARK SMILES Cc1c(C(=O)Nc2ccc(C(=O)Nc3ccccc3C(=O)NCCCCNC(=O)c3ccc(-c4c5nc(c(-c6ccc(S(=O)(=O)[O-])cc6)c6ccc([nH]6)c(-c6ccc(S(=O)(=O)[O-])cc6)c6nc(c(-c7ccc(S(=O)(=O)[O-])cc7)c7ccc4[nH]7)C=C6)C=C5)cc3)cc2)cccc1[N+](=O)[O-]
REMARK SMILES IDX 23 1 22 2 20 3 21 4 19 6 14 7 15 8 16 9 18 10 17 11 13 12
REMARK SMILES IDX 11 13 12 14 10 16 7 17 8 18 91 19 9 20 90 21 6 22 4 23 5 24
REMARK SMILES IDX 3 26 1 27 2 28 95 29 92 30 94 31 93 32 96 33 97 34 98 35
REMARK SMILES IDX 24 36 25 37 26 38 27 39 28 40 29 42 30 43 31 44 89 45 32 46
REMARK SMILES IDX 88 47 33 48 34 49 35 50 82 51 36 52 87 53 81 54 83 55 37 56
REMARK SMILES IDX 86 57 80 58 79 59 38 61 68 62 49 63 67 64 50 65 53 66 66 67
REMARK SMILES IDX 84 68 51 69 52 70 65 72 85 73 54 74 39 75 40 76 48 77 41 78
REMARK SMILES IDX 47 79 42 80 43 81 44 82 45 83 46 84 69 85 70 86 78 87 71 88
REMARK SMILES IDX 77 89 72 90 73 91 74 92 75 93 76 94 55 95 56 96 64 97 57 98
REMARK SMILES IDX 63 99 58 100 59 101 60 102 61 103 62 104
REMARK H PARENT 22 5 13 15 6 25 27 41 83 60 53 71
REMARK Flexibility Score: inf
ROOT
ATOM      1  C   UNL     1       3.134  -0.365   4.448  1.00  0.00     0.116 C 
ENDROOT
BRANCH   1   2
ATOM      2  N   UNL     1       4.407   0.080   3.881  1.00  0.00    -0.352 N 
ATOM      3  C   UNL     1       4.898   1.309   3.481  1.00  0.00     0.253 C 
ATOM      4  O   UNL     1       6.097   1.393   3.218  1.00  0.00    -0.269 OA
ATOM      5  H   UNL     1       5.052  -0.653   3.758  1.00  0.00     0.163 HD
BRANCH   3   6
ATOM      6  C   UNL     1       4.035   2.511   3.298  1.00  0.00     0.063 A 
ATOM      7  C   UNL     1       4.193   3.402   2.204  1.00  0.00     0.054 A 
ATOM      8  C   UNL     1       3.340   4.518   2.097  1.00  0.00     0.027 A 
ATOM      9  C   UNL     1       2.309   4.726   3.011  1.00  0.00     0.002 A 
ATOM     10  C   UNL     1       3.077   2.822   4.276  1.00  0.00     0.016 A 
ATOM     11  C   UNL     1       2.188   3.886   4.109  1.00  0.00     0.001 A 
BRANCH   7  12
ATOM     12  N   UNL     1       5.096   3.280   1.125  1.00  0.00    -0.321 N 
ATOM     13  C   UNL     1       5.513   2.203   0.372  1.00  0.00     0.255 C 
ATOM     14  O   UNL     1       6.443   2.361  -0.422  1.00  0.00    -0.269 OA
ATOM     15  H   UNL     1       5.508   4.133   0.856  1.00  0.00     0.170 HD
BRANCH  13  16
ATOM     16  C   UNL     1       4.746   0.927   0.318  1.00  0.00     0.040 A 
ATOM     17  C   UNL     1       3.199  -1.376  -0.146  1.00  0.00     0.041 A 
ATOM     18  C   UNL     1       2.693  -0.318   0.589  1.00  0.00     0.027 A 
ATOM     19  C   UNL     1       4.549  -1.355  -0.507  1.00  0.00     0.027 A 
ATOM     20  C   UNL     1       3.416   0.855   0.719  1.00  0.00     0.016 A 
ATOM     21  C   UNL     1       5.322  -0.205  -0.272  1.00  0.00     0.016 A 
BRANCH  17  22
ATOM     22  N   UNL     1       2.374  -2.402  -0.636  1.00  0.00    -0.322 N 
ATOM     23  C   UNL     1       1.008  -2.431  -0.872  1.00  0.00     0.256 C 
ATOM     24  O   UNL     1       0.478  -3.472  -1.260  1.00  0.00    -0.269 OA
ATOM     25  H   UNL     1       2.844  -3.241  -0.847  1.00  0.00     0.170 HD
BRANCH  23  26
ATOM     26  C   UNL     1       0.130  -1.234  -0.690  1.00  0.00     0.049 A 
ATOM     27  C   UNL     1       1.388   0.213  -2.366  1.00  0.00     0.053 C 
ATOM     28  C   UNL     1       0.379   0.038  -1.261  1.00  0.00     0.039 A 
ATOM     29  C   UNL     1      -0.349   1.130  -0.733  1.00  0.00     0.273 A 
ATOM     30  C   UNL     1      -0.974  -1.423   0.162  1.00  0.00     0.014 A 
ATOM     31  C   UNL     1      -1.436   0.937   0.137  1.00  0.00     0.086 A 
ATOM     32  C   UNL     1      -1.778  -0.349   0.541  1.00  0.00     0.008 A 
BRANCH  29  33
ATOM     33  N   UNL     1       0.068   2.520  -0.969  1.00  0.00     0.063 N 
ATOM     34  O   UNL     1      -0.821   3.382  -1.018  1.00  0.00    -0.258 OA
ATOM     35  O   UNL     1       1.281   2.757  -1.045  1.00  0.00    -0.258 OA
ENDBRANCH  29  33
ENDBRANCH  23  26
ENDBRANCH  17  22
ENDBRANCH  13  16
ENDBRANCH   7  12
ENDBRANCH   3   6
ENDBRANCH   1   2
BRANCH   1  36
ATOM     36  C   UNL     1       2.459  -1.594   3.816  1.00  0.00     0.023 C 
BRANCH  36  37
ATOM     37  C   UNL     1       3.351  -2.695   3.259  1.00  0.00     0.023 C 
BRANCH  37  38
ATOM     38  C   UNL     1       4.019  -3.537   4.330  1.00  0.00     0.116 C 
BRANCH  38  39
ATOM     39  N   UNL     1       3.284  -4.742   4.684  1.00  0.00    -0.352 N 
ATOM     40  C   UNL     1       3.836  -5.862   5.308  1.00  0.00     0.251 C 
ATOM     41  H   UNL     1       2.324  -4.770   4.468  1.00  0.00     0.163 HD
ATOM     42  O   UNL     1       3.482  -6.998   5.109  1.00  0.00    -0.269 OA
BRANCH  40  43
ATOM     43  C   UNL     1       4.805  -5.547   6.384  1.00  0.00     0.039 A 
ATOM     44  C   UNL     1       4.344  -5.621   7.704  1.00  0.00     0.014 A 
ATOM     45  C   UNL     1       5.974  -4.870   6.058  1.00  0.00     0.014 A 
ATOM     46  C   UNL     1       4.960  -4.848   8.680  1.00  0.00     0.010 A 
ATOM     47  C   UNL     1       6.505  -4.014   6.993  1.00  0.00     0.010 A 
ATOM     48  C   UNL     1       5.973  -3.976   8.290  1.00  0.00    -0.014 A 
BRANCH  48  49
ATOM     49  C   UNL     1       6.563  -2.963   9.147  1.00  0.00     0.031 A 
ATOM     50  C   UNL     1       7.921  -3.196   9.673  1.00  0.00     0.074 A 
ATOM     51  C   UNL     1       5.930  -1.785   9.323  1.00  0.00     0.049 A 
ATOM     52  N   UNL     1       8.468  -2.517  10.619  1.00  0.00    -0.248 NA
ATOM     53  C   UNL     1       8.764  -4.289   9.192  1.00  0.00     0.031 C 
ATOM     54  C   UNL     1       6.487  -0.534   9.827  1.00  0.00     0.029 A 
ATOM     55  N   UNL     1       4.569  -1.538   9.262  1.00  0.00    -0.354 N 
ATOM     56  C   UNL     1       9.801  -2.862  10.656  1.00  0.00     0.074 A 
ATOM     57  C   UNL     1       9.909  -4.036   9.828  1.00  0.00     0.031 C 
ATOM     58  C   UNL     1       5.481   0.254  10.246  1.00  0.00     0.029 A 
ATOM     59  C   UNL     1       4.259  -0.534  10.184  1.00  0.00     0.049 A 
ATOM     60  H   UNL     1       3.928  -1.992   8.670  1.00  0.00     0.167 HD
ATOM     61  C   UNL     1      10.678  -2.019  11.270  1.00  0.00     0.031 A 
ATOM     62  C   UNL     1       3.485  -0.825  11.276  1.00  0.00     0.031 A 
ATOM     63  C   UNL     1       9.961  -0.986  12.021  1.00  0.00     0.049 A 
ATOM     64  C   UNL     1       4.243  -0.734  12.589  1.00  0.00     0.074 A 
ATOM     65  C   UNL     1       9.670   0.344  11.767  1.00  0.00     0.029 A 
ATOM     66  N   UNL     1       9.126  -1.378  13.064  1.00  0.00    -0.354 N 
ATOM     67  N   UNL     1       5.546  -0.728  12.693  1.00  0.00    -0.248 NA
ATOM     68  C   UNL     1       3.588  -0.625  13.890  1.00  0.00     0.031 C 
ATOM     69  C   UNL     1       8.563   0.710  12.586  1.00  0.00     0.029 A 
ATOM     70  C   UNL     1       8.217  -0.381  13.366  1.00  0.00     0.049 A 
ATOM     71  H   UNL     1       9.176  -2.247  13.523  1.00  0.00     0.167 HD
ATOM     72  C   UNL     1       5.912  -0.616  14.009  1.00  0.00     0.074 A 
ATOM     73  C   UNL     1       4.645  -0.540  14.718  1.00  0.00     0.031 C 
ATOM     74  C   UNL     1       7.219  -0.593  14.412  1.00  0.00     0.031 A 
BRANCH  61  75
ATOM     75  C   UNL     1      12.162  -1.976  10.964  1.00  0.00    -0.014 A 
ATOM     76  C   UNL     1      12.905  -0.821  11.286  1.00  0.00     0.010 A 
ATOM     77  C   UNL     1      12.871  -2.985  10.282  1.00  0.00     0.010 A 
ATOM     78  C   UNL     1      14.246  -0.659  10.892  1.00  0.00     0.020 A 
ATOM     79  C   UNL     1      14.203  -2.834   9.869  1.00  0.00     0.020 A 
ATOM     80  C   UNL     1      14.883  -1.664  10.168  1.00  0.00     0.054 A 
BRANCH  80  81
ATOM     81  S   UNL     1      16.594  -1.432   9.623  1.00  0.00     0.124 S 
ATOM     82  O   UNL     1      16.495  -0.249   8.772  1.00  0.00    -0.237 OA
ATOM     83  O   UNL     1      17.303  -1.245  10.885  1.00  0.00    -0.237 OA
ATOM     84  O   UNL     1      16.906  -2.674   8.917  1.00  0.00    -0.744 OA
ENDBRANCH  80  81
ENDBRANCH  61  75
BRANCH  62  85
ATOM     85  C   UNL     1       2.374  -1.779  10.963  1.00  0.00    -0.014 A 
ATOM     86  C   UNL     1       1.368  -1.317  10.083  1.00  0.00     0.010 A 
ATOM     87  C   UNL     1       2.544  -3.166  11.117  1.00  0.00     0.010 A 
ATOM     88  C   UNL     1       0.704  -2.201   9.227  1.00  0.00     0.020 A 
ATOM     89  C   UNL     1       1.862  -4.059  10.271  1.00  0.00     0.020 A 
ATOM     90  C   UNL     1       1.013  -3.559   9.277  1.00  0.00     0.054 A 
BRANCH  90  91
ATOM     91  S   UNL     1       0.447  -4.612   7.903  1.00  0.00     0.124 S 
ATOM     92  O   UNL     1      -1.000  -4.427   7.944  1.00  0.00    -0.237 OA
ATOM     93  O   UNL     1       1.122  -4.008   6.750  1.00  0.00    -0.237 OA
ATOM     94  O   UNL     1       0.922  -5.939   8.274  1.00  0.00    -0.744 OA
ENDBRANCH  90  91
ENDBRANCH  62  85
BRANCH  74  95
ATOM     95  C   UNL     1       7.708  -0.701  15.842  1.00  0.00    -0.014 A 
ATOM     96  C   UNL     1       6.950  -1.222  16.901  1.00  0.00     0.010 A 
ATOM     97  C   UNL     1       9.060  -0.381  16.127  1.00  0.00     0.010 A 
ATOM     98  C   UNL     1       7.487  -1.351  18.191  1.00  0.00     0.020 A 
ATOM     99  C   UNL     1       9.622  -0.557  17.394  1.00  0.00     0.020 A 
ATOM    100  C   UNL     1       8.820  -1.016  18.430  1.00  0.00     0.054 A 
BRANCH 100 101
ATOM    101  S   UNL     1       9.519  -1.248  20.083  1.00  0.00     0.124 S 
ATOM    102  O   UNL     1       9.155   0.004  20.740  1.00  0.00    -0.237 OA
ATOM    103  O   UNL     1       8.820  -2.436  20.569  1.00  0.00    -0.237 OA
ATOM    104  O   UNL     1      10.945  -1.435  19.829  1.00  0.00    -0.744 OA
ENDBRANCH 100 101
ENDBRANCH  74  95
ENDBRANCH  48  49
ENDBRANCH  40  43
ENDBRANCH  38  39
ENDBRANCH  37  38
ENDBRANCH  36  37
ENDBRANCH   1  36
TORSDOF 19
