REMARK SMILES O=C(NCCCCNC(=O)c1ccc(-c2c3nc(c(-c4ccc(S(=O)(=O)[O-])cc4)c4ccc([nH]4)c(-c4ccc(S(=O)(=O)[O-])cc4)c4nc(c(-c5ccc(S(=O)(=O)[O-])cc5)c5ccc2[nH]5)C=C4)C=C3)cc1)c1ccc(NS(=O)(=O)C2=Cc3ccccc3CC2)cc1
REMARK SMILES IDX 5 1 4 2 3 3 1 4 2 5 71 7 72 8 90 9 73 10 89 11 74 12 75 13
REMARK SMILES IDX 76 15 77 16 78 17 79 18 80 19 88 20 81 21 87 22 82 23 86 24
REMARK SMILES IDX 83 25 85 26 84 27 6 28 7 29 8 30 9 31 10 33 11 34 12 35
REMARK SMILES IDX 70 36 13 37 69 38 14 39 15 40 16 41 63 42 17 43 68 44 62 45
REMARK SMILES IDX 64 46 18 47 67 48 61 49 60 50 19 52 49 53 30 54 48 55 31 56
REMARK SMILES IDX 34 57 47 58 65 59 32 60 33 61 46 63 66 64 35 65 20 66 21 67
REMARK SMILES IDX 29 68 22 69 28 70 23 71 24 72 25 73 26 74 27 75 50 76 51 77
REMARK SMILES IDX 59 78 52 79 58 80 53 81 54 82 55 83 56 84 57 85 36 86 37 87
REMARK SMILES IDX 45 88 38 89 44 90 39 91 40 92 41 93 42 94 43 95
REMARK H PARENT 3 6 75 14 8 32 64 51 34 62
REMARK Flexibility Score: inf
ROOT
ATOM      1  C   UNL     1       4.875  -2.349   1.218  1.00  0.00     0.023 C 
ENDROOT
BRANCH   1   2
ATOM      2  C   UNL     1       4.432  -1.264   0.241  1.00  0.00     0.116 C 
BRANCH   2   3
ATOM      3  N   UNL     1       2.986  -1.135   0.181  1.00  0.00    -0.352 N 
ATOM      4  O   UNL     1       0.995  -0.112   0.483  1.00  0.00    -0.269 OA
ATOM      5  C   UNL     1       2.213  -0.019   0.381  1.00  0.00     0.251 C 
ATOM      6  H   UNL     1       2.494  -1.960  -0.032  1.00  0.00     0.163 HD
BRANCH   5   7
ATOM      7  C   UNL     1       2.849   1.312   0.462  1.00  0.00     0.039 A 
ATOM      8  C   UNL     1       3.744   1.726  -0.526  1.00  0.00     0.016 A 
ATOM      9  C   UNL     1       2.473   2.196   1.477  1.00  0.00     0.016 A 
ATOM     10  C   UNL     1       4.290   3.007  -0.477  1.00  0.00     0.027 A 
ATOM     11  C   UNL     1       3.034   3.479   1.529  1.00  0.00     0.027 A 
ATOM     12  C   UNL     1       3.959   3.882   0.558  1.00  0.00     0.049 A 
BRANCH  12  13
ATOM     13  N   UNL     1       4.393   5.244   0.516  1.00  0.00    -0.280 N 
ATOM     14  H   UNL     1       3.730   5.964   0.412  1.00  0.00     0.180 HD
BRANCH  13  15
ATOM     15  S   UNL     1       6.045   5.633   0.642  1.00  0.00     0.258 S 
ATOM     16  O   UNL     1       6.116   7.013   0.192  1.00  0.00    -0.202 OA
ATOM     17  O   UNL     1       6.401   5.330   2.013  1.00  0.00    -0.202 OA
BRANCH  15  18
ATOM     18  C   UNL     1       6.965   4.587  -0.445  1.00  0.00     0.066 C 
ATOM     19  C   UNL     1       7.408   5.150  -1.591  1.00  0.00     0.026 C 
ATOM     20  C   UNL     1       7.923   3.645   0.244  1.00  0.00     0.055 C 
ATOM     21  C   UNL     1       8.768   5.753  -1.486  1.00  0.00    -0.021 A 
ATOM     22  C   UNL     1       9.213   4.388   0.618  1.00  0.00     0.041 C 
ATOM     23  C   UNL     1       9.182   6.675  -2.452  1.00  0.00     0.008 A 
ATOM     24  C   UNL     1       9.629   5.409  -0.422  1.00  0.00    -0.040 A 
ATOM     25  C   UNL     1      10.425   7.297  -2.334  1.00  0.00     0.001 A 
ATOM     26  C   UNL     1      10.863   6.059  -0.303  1.00  0.00     0.004 A 
ATOM     27  C   UNL     1      11.255   7.003  -1.253  1.00  0.00     0.000 A 
ENDBRANCH  15  18
ENDBRANCH  13  15
ENDBRANCH  12  13
ENDBRANCH   5   7
ENDBRANCH   2   3
ENDBRANCH   1   2
BRANCH   1  28
ATOM     28  C   UNL     1       4.437  -3.768   0.858  1.00  0.00     0.023 C 
BRANCH  28  29
ATOM     29  C   UNL     1       4.818  -4.235  -0.542  1.00  0.00     0.116 C 
BRANCH  29  30
ATOM     30  N   UNL     1       6.254  -4.225  -0.776  1.00  0.00    -0.352 N 
ATOM     31  C   UNL     1       7.064  -5.235  -1.243  1.00  0.00     0.251 C 
ATOM     32  H   UNL     1       6.711  -3.377  -0.571  1.00  0.00     0.163 HD
ATOM     33  O   UNL     1       8.282  -5.087  -1.260  1.00  0.00    -0.269 OA
BRANCH  31  34
ATOM     34  C   UNL     1       6.459  -6.508  -1.690  1.00  0.00     0.039 A 
ATOM     35  C   UNL     1       6.976  -7.712  -1.206  1.00  0.00     0.014 A 
ATOM     36  C   UNL     1       5.360  -6.509  -2.554  1.00  0.00     0.014 A 
ATOM     37  C   UNL     1       6.340  -8.914  -1.524  1.00  0.00     0.010 A 
ATOM     38  C   UNL     1       4.685  -7.699  -2.808  1.00  0.00     0.010 A 
ATOM     39  C   UNL     1       5.165  -8.914  -2.293  1.00  0.00    -0.014 A 
BRANCH  39  40
ATOM     40  C   UNL     1       4.416 -10.166  -2.573  1.00  0.00     0.031 A 
ATOM     41  C   UNL     1       4.263 -10.646  -3.991  1.00  0.00     0.074 A 
ATOM     42  C   UNL     1       3.804 -10.823  -1.567  1.00  0.00     0.049 A 
ATOM     43  N   UNL     1       3.558 -11.648  -4.450  1.00  0.00    -0.248 NA
ATOM     44  C   UNL     1       4.971  -9.882  -5.032  1.00  0.00     0.031 C 
ATOM     45  C   UNL     1       3.840 -10.439  -0.154  1.00  0.00     0.029 A 
ATOM     46  N   UNL     1       3.018 -11.949  -1.583  1.00  0.00    -0.354 N 
ATOM     47  C   UNL     1       3.716 -11.618  -5.831  1.00  0.00     0.074 A 
ATOM     48  C   UNL     1       4.548 -10.476  -6.138  1.00  0.00     0.031 C 
ATOM     49  C   UNL     1       3.126 -11.324   0.561  1.00  0.00     0.029 A 
ATOM     50  C   UNL     1       2.549 -12.314  -0.343  1.00  0.00     0.049 A 
ATOM     51  H   UNL     1       2.810 -12.448  -2.405  1.00  0.00     0.167 HD
ATOM     52  C   UNL     1       3.226 -12.474  -6.760  1.00  0.00     0.031 A 
ATOM     53  C   UNL     1       1.738 -13.325   0.025  1.00  0.00     0.031 A 
ATOM     54  C   UNL     1       2.421 -13.625  -6.452  1.00  0.00     0.049 A 
ATOM     55  C   UNL     1       1.218 -14.270  -1.023  1.00  0.00     0.074 A 
ATOM     56  C   UNL     1       1.925 -14.584  -7.319  1.00  0.00     0.029 A 
ATOM     57  N   UNL     1       1.999 -13.978  -5.180  1.00  0.00    -0.354 N 
ATOM     58  N   UNL     1       1.422 -14.255  -2.318  1.00  0.00    -0.248 NA
ATOM     59  C   UNL     1       0.367 -15.375  -0.559  1.00  0.00     0.031 C 
ATOM     60  C   UNL     1       1.172 -15.497  -6.574  1.00  0.00     0.029 A 
ATOM     61  C   UNL     1       1.240 -15.134  -5.238  1.00  0.00     0.049 A 
ATOM     62  H   UNL     1       2.209 -13.480  -4.357  1.00  0.00     0.167 HD
ATOM     63  C   UNL     1       0.752 -15.365  -2.819  1.00  0.00     0.074 A 
ATOM     64  C   UNL     1       0.143 -16.034  -1.688  1.00  0.00     0.031 C 
ATOM     65  C   UNL     1       0.652 -15.793  -4.101  1.00  0.00     0.031 A 
BRANCH  52  66
ATOM     66  C   UNL     1       3.553 -12.194  -8.202  1.00  0.00    -0.014 A 
ATOM     67  C   UNL     1       4.854 -12.385  -8.700  1.00  0.00     0.010 A 
ATOM     68  C   UNL     1       2.538 -11.771  -9.080  1.00  0.00     0.010 A 
ATOM     69  C   UNL     1       5.145 -12.117 -10.040  1.00  0.00     0.020 A 
ATOM     70  C   UNL     1       2.820 -11.527 -10.427  1.00  0.00     0.020 A 
ATOM     71  C   UNL     1       4.126 -11.685 -10.894  1.00  0.00     0.054 A 
BRANCH  71  72
ATOM     72  S   UNL     1       4.527 -11.365 -12.634  1.00  0.00     0.124 S 
ATOM     73  O   UNL     1       5.237 -10.091 -12.548  1.00  0.00    -0.237 OA
ATOM     74  O   UNL     1       5.348 -12.518 -12.992  1.00  0.00    -0.237 OA
ATOM     75  O   UNL     1       3.220 -11.308 -13.285  1.00  0.00    -0.744 OA
ENDBRANCH  71  72
ENDBRANCH  52  66
BRANCH  53  76
ATOM     76  C   UNL     1       1.378 -13.508   1.458  1.00  0.00    -0.014 A 
ATOM     77  C   UNL     1       1.917 -14.577   2.195  1.00  0.00     0.010 A 
ATOM     78  C   UNL     1       0.497 -12.613   2.093  1.00  0.00     0.010 A 
ATOM     79  C   UNL     1       1.565 -14.762   3.535  1.00  0.00     0.020 A 
ATOM     80  C   UNL     1       0.163 -12.781   3.440  1.00  0.00     0.020 A 
ATOM     81  C   UNL     1       0.689 -13.863   4.149  1.00  0.00     0.054 A 
BRANCH  81  82
ATOM     82  S   UNL     1       0.281 -14.095   5.902  1.00  0.00     0.124 S 
ATOM     83  O   UNL     1      -0.667 -15.203   5.848  1.00  0.00    -0.237 OA
ATOM     84  O   UNL     1       1.581 -14.401   6.493  1.00  0.00    -0.237 OA
ATOM     85  O   UNL     1      -0.283 -12.804   6.293  1.00  0.00    -0.744 OA
ENDBRANCH  81  82
ENDBRANCH  53  76
BRANCH  65  86
ATOM     86  C   UNL     1      -0.104 -17.070  -4.351  1.00  0.00    -0.014 A 
ATOM     87  C   UNL     1      -1.507 -17.110  -4.291  1.00  0.00     0.010 A 
ATOM     88  C   UNL     1       0.603 -18.230  -4.717  1.00  0.00     0.010 A 
ATOM     89  C   UNL     1      -2.190 -18.297  -4.571  1.00  0.00     0.020 A 
ATOM     90  C   UNL     1      -0.077 -19.411  -5.020  1.00  0.00     0.020 A 
ATOM     91  C   UNL     1      -1.470 -19.440  -4.934  1.00  0.00     0.054 A 
BRANCH  91  92
ATOM     92  S   UNL     1      -2.381 -20.954  -5.347  1.00  0.00     0.124 S 
ATOM     93  O   UNL     1      -2.777 -21.439  -4.028  1.00  0.00    -0.237 OA
ATOM     94  O   UNL     1      -3.468 -20.457  -6.187  1.00  0.00    -0.237 OA
ATOM     95  O   UNL     1      -1.391 -21.774  -6.041  1.00  0.00    -0.744 OA
ENDBRANCH  91  92
ENDBRANCH  65  86
ENDBRANCH  39  40
ENDBRANCH  31  34
ENDBRANCH  29  30
ENDBRANCH  28  29
ENDBRANCH   1  28
TORSDOF 17
