REMARK SMILES Nc1ccc(C(=O)NC[C@@H]2CC[C@@H](C(=O)NCCCCNC(=O)c3ccc(-c4c5nc(c(-c6ccc(S(=O)(=O)[O-])cc6)c6ccc([nH]6)c(-c6ccc(S(=O)(=O)[O-])cc6)c6nc(c(-c7ccc(S(=O)(=O)[O-])cc7)c7ccc4[nH]7)C=C6)C=C5)cc3)O2)cc1Cl
REMARK SMILES IDX 18 1 17 2 16 3 14 4 15 5 13 7 10 8 11 9 84 10 12 11 9 12
REMARK SMILES IDX 8 13 6 14 7 15 5 17 2 18 3 19 86 20 4 21 85 22 87 23 1 24
REMARK SMILES IDX 19 27 20 28 21 29 22 30 23 32 24 33 25 34 83 35 26 36 82 37
REMARK SMILES IDX 27 38 28 39 29 40 76 41 30 42 81 43 75 44 77 45 31 46 80 47
REMARK SMILES IDX 74 48 73 49 32 51 62 52 43 53 61 54 44 55 47 56 60 57 78 58
REMARK SMILES IDX 45 59 46 60 59 62 79 63 48 64 33 65 34 66 42 67 35 68 41 69
REMARK SMILES IDX 36 70 37 71 38 72 39 73 40 74 63 75 64 76 72 77 65 78 71 79
REMARK SMILES IDX 66 80 67 81 68 82 69 83 70 84 49 85 50 86 58 87 51 88 57 89
REMARK SMILES IDX 52 90 53 91 54 92 55 93 56 94
REMARK H PARENT 16 6 8 16 1 25 1 26 21 31 77 50 47 61
REMARK Flexibility Score: inf
ROOT
ATOM      1  C   UNL     1       4.461  -4.039  -2.678  1.00  0.00     0.023 C 
ENDROOT
BRANCH   1   2
ATOM      2  C   UNL     1       5.367  -2.885  -2.260  1.00  0.00     0.116 C 
BRANCH   2   3
ATOM      3  N   UNL     1       6.121  -2.339  -3.372  1.00  0.00    -0.354 N 
ATOM      4  C   UNL     1       6.195  -1.046  -3.807  1.00  0.00     0.249 C 
ATOM      5  O   UNL     1       6.934  -0.800  -4.762  1.00  0.00    -0.272 OA
ATOM      6  H   UNL     1       6.653  -2.990  -3.884  1.00  0.00     0.163 HD
BRANCH   4   7
ATOM      7  C   UNL     1       5.306   0.030  -3.153  1.00  0.00     0.207 C 
ATOM      8  C   UNL     1       5.769   1.356  -1.282  1.00  0.00     0.138 C 
ATOM      9  C   UNL     1       5.359   2.283  -2.412  1.00  0.00     0.037 C 
ATOM     10  O   UNL     1       5.369   0.048  -1.715  1.00  0.00    -0.363 OA
ATOM     11  C   UNL     1       5.678   1.436  -3.619  1.00  0.00     0.045 C 
BRANCH   8  12
ATOM     12  C   UNL     1       5.210   1.666   0.118  1.00  0.00     0.148 C 
BRANCH  12  13
ATOM     13  N   UNL     1       4.077   2.579   0.134  1.00  0.00    -0.349 N 
ATOM     14  C   UNL     1       2.718   2.474   0.058  1.00  0.00     0.251 C 
ATOM     15  O   UNL     1       2.111   3.551   0.052  1.00  0.00    -0.269 OA
ATOM     16  H   UNL     1       4.366   3.516   0.223  1.00  0.00     0.163 HD
BRANCH  14  17
ATOM     17  C   UNL     1       1.922   1.213  -0.002  1.00  0.00     0.041 A 
ATOM     18  C   UNL     1       0.175  -1.038  -0.057  1.00  0.00     0.050 A 
ATOM     19  C   UNL     1       1.562  -1.194  -0.102  1.00  0.00     0.028 A 
ATOM     20  C   UNL     1      -0.332   0.265   0.030  1.00  0.00     0.064 A 
ATOM     21  C   UNL     1       2.425  -0.084  -0.090  1.00  0.00     0.016 A 
ATOM     22  C   UNL     1       0.524   1.369   0.048  1.00  0.00     0.036 A 
ATOM     23  Cl  UNL     1      -2.039   0.547   0.112  1.00  0.00    -0.082 Cl
BRANCH  18  24
ATOM     24  N   UNL     1      -0.644  -2.158   0.014  1.00  0.00    -0.398 N 
ATOM     25  H   UNL     1      -0.253  -3.059  -0.051  1.00  0.00     0.156 HD
ATOM     26  H   UNL     1      -1.616  -2.050   0.130  1.00  0.00     0.156 HD
ENDBRANCH  18  24
ENDBRANCH  14  17
ENDBRANCH  12  13
ENDBRANCH   8  12
ENDBRANCH   4   7
ENDBRANCH   2   3
ENDBRANCH   1   2
BRANCH   1  27
ATOM     27  C   UNL     1       5.175  -5.248  -3.280  1.00  0.00     0.023 C 
BRANCH  27  28
ATOM     28  C   UNL     1       6.294  -5.841  -2.430  1.00  0.00     0.116 C 
BRANCH  28  29
ATOM     29  N   UNL     1       5.837  -6.302  -1.129  1.00  0.00    -0.352 N 
ATOM     30  C   UNL     1       6.004  -7.528  -0.525  1.00  0.00     0.251 C 
ATOM     31  H   UNL     1       5.333  -5.640  -0.602  1.00  0.00     0.163 HD
ATOM     32  O   UNL     1       5.422  -7.775   0.522  1.00  0.00    -0.269 OA
BRANCH  30  33
ATOM     33  C   UNL     1       6.863  -8.554  -1.162  1.00  0.00     0.039 A 
ATOM     34  C   UNL     1       6.394  -9.867  -1.247  1.00  0.00     0.014 A 
ATOM     35  C   UNL     1       8.116  -8.223  -1.682  1.00  0.00     0.014 A 
ATOM     36  C   UNL     1       7.149 -10.831  -1.922  1.00  0.00     0.010 A 
ATOM     37  C   UNL     1       8.830  -9.164  -2.420  1.00  0.00     0.010 A 
ATOM     38  C   UNL     1       8.355 -10.478  -2.550  1.00  0.00    -0.014 A 
BRANCH  38  39
ATOM     39  C   UNL     1       9.125 -11.461  -3.355  1.00  0.00     0.031 A 
ATOM     40  C   UNL     1      10.518 -11.856  -2.944  1.00  0.00     0.074 A 
ATOM     41  C   UNL     1       8.601 -11.944  -4.499  1.00  0.00     0.049 A 
ATOM     42  N   UNL     1      11.366 -12.645  -3.553  1.00  0.00    -0.248 NA
ATOM     43  C   UNL     1      11.034 -11.265  -1.699  1.00  0.00     0.031 C 
ATOM     44  C   UNL     1       7.281 -11.604  -5.036  1.00  0.00     0.029 A 
ATOM     45  N   UNL     1       9.121 -12.815  -5.425  1.00  0.00    -0.354 N 
ATOM     46  C   UNL     1      12.518 -12.634  -2.777  1.00  0.00     0.074 A 
ATOM     47  C   UNL     1      12.280 -11.716  -1.684  1.00  0.00     0.031 C 
ATOM     48  C   UNL     1       7.088 -12.274  -6.184  1.00  0.00     0.029 A 
ATOM     49  C   UNL     1       8.282 -13.057  -6.487  1.00  0.00     0.049 A 
ATOM     50  H   UNL     1      10.010 -13.228  -5.336  1.00  0.00     0.167 HD
ATOM     51  C   UNL     1      13.664 -13.337  -2.944  1.00  0.00     0.031 A 
ATOM     52  C   UNL     1       8.454 -13.815  -7.588  1.00  0.00     0.031 A 
ATOM     53  C   UNL     1      13.901 -14.247  -4.033  1.00  0.00     0.049 A 
ATOM     54  C   UNL     1       9.735 -14.582  -7.761  1.00  0.00     0.074 A 
ATOM     55  C   UNL     1      15.009 -15.043  -4.265  1.00  0.00     0.029 A 
ATOM     56  N   UNL     1      13.018 -14.478  -5.078  1.00  0.00    -0.354 N 
ATOM     57  N   UNL     1      10.788 -14.610  -6.980  1.00  0.00    -0.248 NA
ATOM     58  C   UNL     1       9.845 -15.429  -8.956  1.00  0.00     0.031 C 
ATOM     59  C   UNL     1      14.818 -15.716  -5.478  1.00  0.00     0.029 A 
ATOM     60  C   UNL     1      13.565 -15.386  -5.970  1.00  0.00     0.049 A 
ATOM     61  H   UNL     1      12.133 -14.058  -5.173  1.00  0.00     0.167 HD
ATOM     62  C   UNL     1      11.679 -15.495  -7.577  1.00  0.00     0.074 A 
ATOM     63  C   UNL     1      11.033 -15.991  -8.776  1.00  0.00     0.031 C 
ATOM     64  C   UNL     1      12.917 -15.865  -7.166  1.00  0.00     0.031 A 
BRANCH  51  65
ATOM     65  C   UNL     1      14.753 -13.132  -1.921  1.00  0.00    -0.014 A 
ATOM     66  C   UNL     1      14.595 -13.569  -0.593  1.00  0.00     0.010 A 
ATOM     67  C   UNL     1      15.952 -12.495  -2.291  1.00  0.00     0.010 A 
ATOM     68  C   UNL     1      15.585 -13.316   0.360  1.00  0.00     0.020 A 
ATOM     69  C   UNL     1      16.959 -12.269  -1.348  1.00  0.00     0.020 A 
ATOM     70  C   UNL     1      16.757 -12.658  -0.022  1.00  0.00     0.054 A 
BRANCH  70  71
ATOM     71  S   UNL     1      18.019 -12.328   1.238  1.00  0.00     0.124 S 
ATOM     72  O   UNL     1      17.406 -11.239   1.997  1.00  0.00    -0.237 OA
ATOM     73  O   UNL     1      18.115 -13.605   1.940  1.00  0.00    -0.237 OA
ATOM     74  O   UNL     1      19.198 -11.957   0.460  1.00  0.00    -0.744 OA
ENDBRANCH  70  71
ENDBRANCH  51  65
BRANCH  52  75
ATOM     75  C   UNL     1       7.367 -13.889  -8.602  1.00  0.00    -0.014 A 
ATOM     76  C   UNL     1       6.589 -15.053  -8.732  1.00  0.00     0.010 A 
ATOM     77  C   UNL     1       7.071 -12.774  -9.409  1.00  0.00     0.010 A 
ATOM     78  C   UNL     1       5.536 -15.101  -9.651  1.00  0.00     0.020 A 
ATOM     79  C   UNL     1       6.003 -12.810 -10.309  1.00  0.00     0.020 A 
ATOM     80  C   UNL     1       5.244 -13.976 -10.428  1.00  0.00     0.054 A 
BRANCH  80  81
ATOM     81  S   UNL     1       3.819 -14.033 -11.550  1.00  0.00     0.124 S 
ATOM     82  O   UNL     1       4.308 -14.899 -12.618  1.00  0.00    -0.237 OA
ATOM     83  O   UNL     1       2.774 -14.601 -10.702  1.00  0.00    -0.237 OA
ATOM     84  O   UNL     1       3.619 -12.634 -11.919  1.00  0.00    -0.744 OA
ENDBRANCH  80  81
ENDBRANCH  52  75
BRANCH  64  85
ATOM     85  C   UNL     1      13.653 -16.877  -8.005  1.00  0.00    -0.014 A 
ATOM     86  C   UNL     1      14.188 -16.537  -9.260  1.00  0.00     0.010 A 
ATOM     87  C   UNL     1      13.863 -18.174  -7.500  1.00  0.00     0.010 A 
ATOM     88  C   UNL     1      14.893 -17.483 -10.008  1.00  0.00     0.020 A 
ATOM     89  C   UNL     1      14.592 -19.115  -8.232  1.00  0.00     0.020 A 
ATOM     90  C   UNL     1      15.091 -18.767  -9.489  1.00  0.00     0.054 A 
BRANCH  90  91
ATOM     91  S   UNL     1      16.051 -19.963 -10.458  1.00  0.00     0.124 S 
ATOM     92  O   UNL     1      15.114 -20.314 -11.522  1.00  0.00    -0.237 OA
ATOM     93  O   UNL     1      17.211 -19.180 -10.876  1.00  0.00    -0.237 OA
ATOM     94  O   UNL     1      16.339 -21.032  -9.504  1.00  0.00    -0.744 OA
ENDBRANCH  90  91
ENDBRANCH  64  85
ENDBRANCH  38  39
ENDBRANCH  30  33
ENDBRANCH  28  29
ENDBRANCH  27  28
ENDBRANCH   1  27
TORSDOF 18
