REMARK SMILES CC[NH+](CC)[C@@H](C(=O)NCCCCNC(=O)c1ccc(-c2c3nc(c(-c4ccc(S(=O)(=O)[O-])cc4)c4ccc([nH]4)c(-c4ccc(S(=O)(=O)[O-])cc4)c4nc(c(-c5ccc(S(=O)(=O)[O-])cc5)c5ccc2[nH]5)C=C4)C=C3)cc1)c1ccc(C2CC2)cc1
REMARK SMILES IDX 12 1 11 2 10 3 9 4 7 5 8 6 6 8 3 9 2 11 1 12 4 13 5 14 77 15
REMARK SMILES IDX 78 16 85 17 79 18 84 19 80 20 81 21 82 22 83 23 13 24 14 25
REMARK SMILES IDX 15 26 16 28 17 29 18 30 76 31 19 32 75 33 20 34 21 35 22 36
REMARK SMILES IDX 69 37 23 38 74 39 68 40 70 41 24 42 73 43 67 44 66 45 25 47
REMARK SMILES IDX 55 48 36 49 54 50 37 51 40 52 53 53 71 54 38 55 39 56 52 58
REMARK SMILES IDX 72 59 41 60 26 61 27 62 35 63 28 64 34 65 29 66 30 67 31 68
REMARK SMILES IDX 32 69 33 70 56 71 57 72 65 73 58 74 64 75 59 76 60 77 61 78
REMARK SMILES IDX 62 79 63 80 42 81 43 82 51 83 44 84 50 85 45 86 46 87 47 88
REMARK SMILES IDX 48 89 49 90
REMARK H PARENT 9 7 3 10 14 27 70 46 40 57
REMARK Flexibility Score: inf
ROOT
ATOM      1  C   UNL     1       0.948   6.266   1.752  1.00  0.00     0.023 C 
ENDROOT
BRANCH   1   2
ATOM      2  C   UNL     1       1.001   5.859   0.277  1.00  0.00     0.023 C 
BRANCH   2   3
ATOM      3  C   UNL     1       2.271   5.135  -0.191  1.00  0.00     0.116 C 
BRANCH   3   4
ATOM      4  N   UNL     1       2.732   4.059   0.673  1.00  0.00    -0.351 N 
ATOM      5  C   UNL     1       2.714   2.691   0.567  1.00  0.00     0.283 C 
ATOM      6  O   UNL     1       3.293   2.085   1.477  1.00  0.00    -0.268 OA
ATOM      7  H   UNL     1       3.142   4.380   1.508  1.00  0.00     0.163 HD
BRANCH   5   8
ATOM      8  C   UNL     1       1.977   1.952  -0.597  1.00  0.00     0.305 C 
BRANCH   8   9
ATOM      9  N   UNL     1       0.597   1.499  -0.169  1.00  0.00    -0.321 N 
ATOM     10  H   UNL     1       0.294   0.991  -0.999  1.00  0.00     0.349 HD
BRANCH   9  11
ATOM     11  C   UNL     1       0.511   0.498   0.911  1.00  0.00     0.259 C 
ATOM     12  C   UNL     1       0.763  -0.955   0.541  1.00  0.00     0.071 C 
ENDBRANCH   9  11
BRANCH   9  13
ATOM     13  C   UNL     1      -0.323   2.616   0.085  1.00  0.00     0.259 C 
ATOM     14  C   UNL     1      -0.441   3.095   1.538  1.00  0.00     0.071 C 
ENDBRANCH   9  13
ENDBRANCH   8   9
BRANCH   8  15
ATOM     15  C   UNL     1       2.770   0.794  -1.245  1.00  0.00     0.019 A 
ATOM     16  C   UNL     1       2.099  -0.089  -2.107  1.00  0.00     0.011 A 
ATOM     17  C   UNL     1       4.115   0.512  -0.977  1.00  0.00     0.011 A 
ATOM     18  C   UNL     1       2.657  -1.327  -2.447  1.00  0.00     0.004 A 
ATOM     19  C   UNL     1       4.682  -0.720  -1.355  1.00  0.00     0.004 A 
ATOM     20  C   UNL     1       3.934  -1.710  -2.011  1.00  0.00    -0.045 A 
BRANCH  20  21
ATOM     21  C   UNL     1       4.377  -3.150  -2.199  1.00  0.00     0.019 C 
ATOM     22  C   UNL     1       5.670  -3.491  -2.888  1.00  0.00     0.009 C 
ATOM     23  C   UNL     1       5.518  -3.758  -1.417  1.00  0.00     0.009 C 
ENDBRANCH  20  21
ENDBRANCH   8  15
ENDBRANCH   5   8
ENDBRANCH   3   4
ENDBRANCH   2   3
ENDBRANCH   1   2
BRANCH   1  24
ATOM     24  C   UNL     1       1.639   7.585   2.043  1.00  0.00     0.116 C 
BRANCH  24  25
ATOM     25  N   UNL     1       0.977   8.692   1.366  1.00  0.00    -0.352 N 
ATOM     26  C   UNL     1       0.576   9.907   1.858  1.00  0.00     0.251 C 
ATOM     27  H   UNL     1       0.788   8.545   0.411  1.00  0.00     0.163 HD
ATOM     28  O   UNL     1      -0.171  10.614   1.190  1.00  0.00    -0.269 OA
BRANCH  26  29
ATOM     29  C   UNL     1       1.043  10.355   3.185  1.00  0.00     0.039 A 
ATOM     30  C   UNL     1       0.177  11.095   3.993  1.00  0.00     0.014 A 
ATOM     31  C   UNL     1       2.344  10.078   3.614  1.00  0.00     0.014 A 
ATOM     32  C   UNL     1       0.616  11.540   5.239  1.00  0.00     0.010 A 
ATOM     33  C   UNL     1       2.740  10.426   4.895  1.00  0.00     0.010 A 
ATOM     34  C   UNL     1       1.896  11.197   5.702  1.00  0.00    -0.014 A 
BRANCH  34  35
ATOM     35  C   UNL     1       2.399  11.695   7.002  1.00  0.00     0.031 A 
ATOM     36  C   UNL     1       3.596  12.609   7.034  1.00  0.00     0.074 A 
ATOM     37  C   UNL     1       1.806  11.288   8.140  1.00  0.00     0.049 A 
ATOM     38  N   UNL     1       4.203  13.135   8.065  1.00  0.00    -0.248 NA
ATOM     39  C   UNL     1       4.216  12.951   5.740  1.00  0.00     0.031 C 
ATOM     40  C   UNL     1       0.679  10.354   8.223  1.00  0.00     0.029 A 
ATOM     41  N   UNL     1       2.068  11.609   9.446  1.00  0.00    -0.354 N 
ATOM     42  C   UNL     1       5.283  13.842   7.547  1.00  0.00     0.074 A 
ATOM     43  C   UNL     1       5.287  13.631   6.119  1.00  0.00     0.031 C 
ATOM     44  C   UNL     1       0.323  10.209   9.509  1.00  0.00     0.029 A 
ATOM     45  C   UNL     1       1.216  11.007  10.341  1.00  0.00     0.049 A 
ATOM     46  H   UNL     1       2.796  12.213   9.718  1.00  0.00     0.167 HD
ATOM     47  C   UNL     1       6.175  14.621   8.202  1.00  0.00     0.031 A 
ATOM     48  C   UNL     1       1.162  11.095  11.684  1.00  0.00     0.031 A 
ATOM     49  C   UNL     1       6.137  14.848   9.621  1.00  0.00     0.049 A 
ATOM     50  C   UNL     1       2.139  12.001  12.383  1.00  0.00     0.074 A 
ATOM     51  C   UNL     1       6.944  15.672  10.383  1.00  0.00     0.029 A 
ATOM     52  N   UNL     1       5.236  14.250  10.490  1.00  0.00    -0.354 N 
ATOM     53  N   UNL     1       3.107  12.723  11.868  1.00  0.00    -0.248 NA
ATOM     54  C   UNL     1       1.999  12.124  13.838  1.00  0.00     0.031 C 
ATOM     55  C   UNL     1       6.565  15.532  11.722  1.00  0.00     0.029 A 
ATOM     56  C   UNL     1       5.479  14.673  11.785  1.00  0.00     0.049 A 
ATOM     57  H   UNL     1       4.529  13.618  10.225  1.00  0.00     0.167 HD
ATOM     58  C   UNL     1       3.673  13.411  12.935  1.00  0.00     0.074 A 
ATOM     59  C   UNL     1       2.922  13.034  14.117  1.00  0.00     0.031 C 
ATOM     60  C   UNL     1       4.716  14.278  12.942  1.00  0.00     0.031 A 
BRANCH  47  61
ATOM     61  C   UNL     1       7.259  15.283   7.392  1.00  0.00    -0.014 A 
ATOM     62  C   UNL     1       6.964  16.310   6.476  1.00  0.00     0.010 A 
ATOM     63  C   UNL     1       8.600  14.904   7.582  1.00  0.00     0.010 A 
ATOM     64  C   UNL     1       7.985  16.921   5.742  1.00  0.00     0.020 A 
ATOM     65  C   UNL     1       9.628  15.534   6.873  1.00  0.00     0.020 A 
ATOM     66  C   UNL     1       9.311  16.531   5.947  1.00  0.00     0.054 A 
BRANCH  66  67
ATOM     67  S   UNL     1      10.619  17.374   5.015  1.00  0.00     0.124 S 
ATOM     68  O   UNL     1      10.415  16.849   3.667  1.00  0.00    -0.237 OA
ATOM     69  O   UNL     1      10.283  18.783   5.197  1.00  0.00    -0.237 OA
ATOM     70  O   UNL     1      11.849  16.940   5.672  1.00  0.00    -0.744 OA
ENDBRANCH  66  67
ENDBRANCH  47  61
BRANCH  48  71
ATOM     71  C   UNL     1       0.135  10.330  12.442  1.00  0.00    -0.014 A 
ATOM     72  C   UNL     1      -0.923  10.992  13.090  1.00  0.00     0.010 A 
ATOM     73  C   UNL     1       0.206   8.927  12.513  1.00  0.00     0.010 A 
ATOM     74  C   UNL     1      -1.871  10.268  13.822  1.00  0.00     0.020 A 
ATOM     75  C   UNL     1      -0.756   8.197  13.216  1.00  0.00     0.020 A 
ATOM     76  C   UNL     1      -1.780   8.875  13.881  1.00  0.00     0.054 A 
BRANCH  76  77
ATOM     77  S   UNL     1      -3.037   7.954  14.810  1.00  0.00     0.124 S 
ATOM     78  O   UNL     1      -2.673   8.254  16.191  1.00  0.00    -0.237 OA
ATOM     79  O   UNL     1      -4.282   8.555  14.337  1.00  0.00    -0.237 OA
ATOM     80  O   UNL     1      -2.825   6.570  14.392  1.00  0.00    -0.744 OA
ENDBRANCH  76  77
ENDBRANCH  48  71
BRANCH  60  81
ATOM     81  C   UNL     1       5.071  14.911  14.260  1.00  0.00    -0.014 A 
ATOM     82  C   UNL     1       5.648  14.163  15.302  1.00  0.00     0.010 A 
ATOM     83  C   UNL     1       4.844  16.287  14.446  1.00  0.00     0.010 A 
ATOM     84  C   UNL     1       5.937  14.769  16.526  1.00  0.00     0.020 A 
ATOM     85  C   UNL     1       5.165  16.904  15.656  1.00  0.00     0.020 A 
ATOM     86  C   UNL     1       5.688  16.134  16.697  1.00  0.00     0.054 A 
BRANCH  86  87
ATOM     87  S   UNL     1       6.077  16.900  18.293  1.00  0.00     0.124 S 
ATOM     88  O   UNL     1       5.000  16.394  19.141  1.00  0.00    -0.237 OA
ATOM     89  O   UNL     1       7.408  16.374  18.586  1.00  0.00    -0.237 OA
ATOM     90  O   UNL     1       6.027  18.332  18.012  1.00  0.00    -0.744 OA
ENDBRANCH  86  87
ENDBRANCH  60  81
ENDBRANCH  34  35
ENDBRANCH  26  29
ENDBRANCH  24  25
ENDBRANCH   1  24
TORSDOF 19
