REMARK SMILES CN(CC(=O)NCCCCNC(=O)c1ccc(-c2c3nc(c(-c4ccc(S(=O)(=O)[O-])cc4)c4ccc([nH]4)c(-c4ccc(S(=O)(=O)[O-])cc4)c4nc(c(-c5ccc(S(=O)(=O)[O-])cc5)c5ccc2[nH]5)C=C4)C=C3)cc1)C(=O)N[C@@H]1C[C@H]1c1ccccc1
REMARK SMILES IDX 8 1 7 2 6 3 4 4 5 5 3 7 2 8 1 9 74 10 75 11 76 12 77 14
REMARK SMILES IDX 78 15 79 16 80 17 81 18 85 19 82 20 84 21 83 22 9 23 10 24
REMARK SMILES IDX 11 25 12 26 13 28 14 29 15 30 73 31 16 32 72 33 17 34 18 35
REMARK SMILES IDX 19 36 66 37 20 38 71 39 65 40 67 41 21 42 70 43 64 44 63 45
REMARK SMILES IDX 22 47 52 48 33 49 51 50 34 51 37 52 50 53 68 54 35 55 36 56
REMARK SMILES IDX 49 58 69 59 38 60 23 61 24 62 32 63 25 64 31 65 26 66 27 67
REMARK SMILES IDX 28 68 29 69 30 70 53 71 54 72 62 73 55 74 61 75 56 76 57 77
REMARK SMILES IDX 58 78 59 79 60 80 39 81 40 82 48 83 41 84 47 85 42 86 43 87
REMARK SMILES IDX 44 88 45 89 46 90
REMARK H PARENT 6 6 76 13 11 27 67 46 37 57
REMARK Flexibility Score: inf
ROOT
ATOM      1  C   UNL     1      -1.838  -1.846   0.106  1.00  0.00     0.023 C 
ENDROOT
BRANCH   1   2
ATOM      2  C   UNL     1      -1.960  -0.436  -0.454  1.00  0.00     0.116 C 
BRANCH   2   3
ATOM      3  N   UNL     1      -2.378   0.537   0.524  1.00  0.00    -0.355 N 
ATOM      4  C   UNL     1      -1.661   1.603   0.981  1.00  0.00     0.239 C 
ATOM      5  O   UNL     1      -2.304   2.591   1.349  1.00  0.00    -0.273 OA
ATOM      6  H   UNL     1      -3.279   0.419   0.903  1.00  0.00     0.163 HD
BRANCH   4   7
ATOM      7  C   UNL     1      -0.132   1.653   0.837  1.00  0.00     0.220 C 
BRANCH   7   8
ATOM      8  N   UNL     1       0.676   0.478   1.198  1.00  0.00    -0.319 N 
ATOM      9  C   UNL     1       1.443  -0.081   0.084  1.00  0.00     0.149 C 
BRANCH   8  10
ATOM     10  C   UNL     1       0.991  -0.086   2.402  1.00  0.00     0.317 C 
ATOM     11  O   UNL     1       1.732  -1.085   2.422  1.00  0.00    -0.249 OA
ATOM     12  N   UNL     1       0.618   0.278   3.639  1.00  0.00    -0.335 N 
ATOM     13  H   UNL     1       1.001  -0.374   4.270  1.00  0.00     0.165 HD
BRANCH  12  14
ATOM     14  C   UNL     1      -0.117   1.239   4.403  1.00  0.00     0.092 C 
ATOM     15  C   UNL     1      -1.590   1.376   4.202  1.00  0.00     0.036 C 
ATOM     16  C   UNL     1      -0.654   2.538   3.934  1.00  0.00     0.044 C 
BRANCH  16  17
ATOM     17  C   UNL     1      -0.915   3.824   4.654  1.00  0.00    -0.043 A 
ATOM     18  C   UNL     1      -1.860   4.694   4.074  1.00  0.00     0.004 A 
ATOM     19  C   UNL     1      -0.190   4.293   5.753  1.00  0.00     0.004 A 
ATOM     20  C   UNL     1      -2.050   5.993   4.533  1.00  0.00     0.000 A 
ATOM     21  C   UNL     1      -0.386   5.596   6.229  1.00  0.00     0.000 A 
ATOM     22  C   UNL     1      -1.304   6.447   5.611  1.00  0.00     0.000 A 
ENDBRANCH  16  17
ENDBRANCH  12  14
ENDBRANCH   8  10
ENDBRANCH   7   8
ENDBRANCH   4   7
ENDBRANCH   2   3
ENDBRANCH   1   2
BRANCH   1  23
ATOM     23  C   UNL     1      -3.148  -2.481   0.576  1.00  0.00     0.023 C 
BRANCH  23  24
ATOM     24  C   UNL     1      -4.339  -2.328  -0.364  1.00  0.00     0.116 C 
BRANCH  24  25
ATOM     25  N   UNL     1      -4.059  -2.734  -1.732  1.00  0.00    -0.352 N 
ATOM     26  C   UNL     1      -4.871  -3.388  -2.630  1.00  0.00     0.251 C 
ATOM     27  H   UNL     1      -3.160  -2.507  -2.063  1.00  0.00     0.163 HD
ATOM     28  O   UNL     1      -4.440  -3.700  -3.729  1.00  0.00    -0.269 OA
BRANCH  26  29
ATOM     29  C   UNL     1      -6.248  -3.752  -2.231  1.00  0.00     0.039 A 
ATOM     30  C   UNL     1      -6.676  -5.064  -2.448  1.00  0.00     0.014 A 
ATOM     31  C   UNL     1      -7.094  -2.825  -1.619  1.00  0.00     0.014 A 
ATOM     32  C   UNL     1      -7.930  -5.465  -1.984  1.00  0.00     0.010 A 
ATOM     33  C   UNL     1      -8.312  -3.245  -1.093  1.00  0.00     0.010 A 
ATOM     34  C   UNL     1      -8.742  -4.570  -1.267  1.00  0.00    -0.014 A 
BRANCH  34  35
ATOM     35  C   UNL     1     -10.042  -5.003  -0.695  1.00  0.00     0.031 A 
ATOM     36  C   UNL     1     -11.323  -4.384  -1.185  1.00  0.00     0.074 A 
ATOM     37  C   UNL     1     -10.066  -5.919   0.294  1.00  0.00     0.049 A 
ATOM     38  N   UNL     1     -12.547  -4.585  -0.768  1.00  0.00    -0.248 NA
ATOM     39  C   UNL     1     -11.214  -3.397  -2.273  1.00  0.00     0.031 C 
ATOM     40  C   UNL     1      -8.890  -6.574   0.876  1.00  0.00     0.029 A 
ATOM     41  N   UNL     1     -11.120  -6.460   0.989  1.00  0.00    -0.354 N 
ATOM     42  C   UNL     1     -13.350  -3.752  -1.538  1.00  0.00     0.074 A 
ATOM     43  C   UNL     1     -12.471  -2.998  -2.405  1.00  0.00     0.031 C 
ATOM     44  C   UNL     1      -9.291  -7.447   1.815  1.00  0.00     0.029 A 
ATOM     45  C   UNL     1     -10.743  -7.385   1.935  1.00  0.00     0.049 A 
ATOM     46  H   UNL     1     -12.057  -6.208   0.825  1.00  0.00     0.167 HD
ATOM     47  C   UNL     1     -14.700  -3.643  -1.544  1.00  0.00     0.031 A 
ATOM     48  C   UNL     1     -11.485  -8.098   2.806  1.00  0.00     0.031 A 
ATOM     49  C   UNL     1     -15.574  -4.398  -0.687  1.00  0.00     0.049 A 
ATOM     50  C   UNL     1     -12.981  -7.924   2.806  1.00  0.00     0.074 A 
ATOM     51  C   UNL     1     -16.957  -4.372  -0.632  1.00  0.00     0.029 A 
ATOM     52  N   UNL     1     -15.153  -5.320   0.258  1.00  0.00    -0.354 N 
ATOM     53  N   UNL     1     -13.723  -7.159   2.041  1.00  0.00    -0.248 NA
ATOM     54  C   UNL     1     -13.741  -8.719   3.781  1.00  0.00     0.031 C 
ATOM     55  C   UNL     1     -17.370  -5.249   0.376  1.00  0.00     0.029 A 
ATOM     56  C   UNL     1     -16.248  -5.863   0.908  1.00  0.00     0.049 A 
ATOM     57  H   UNL     1     -14.214  -5.555   0.440  1.00  0.00     0.167 HD
ATOM     58  C   UNL     1     -15.038  -7.412   2.416  1.00  0.00     0.074 A 
ATOM     59  C   UNL     1     -14.990  -8.409   3.465  1.00  0.00     0.031 C 
ATOM     60  C   UNL     1     -16.184  -6.868   1.937  1.00  0.00     0.031 A 
BRANCH  47  61
ATOM     61  C   UNL     1     -15.318  -2.683  -2.526  1.00  0.00    -0.014 A 
ATOM     62  C   UNL     1     -15.311  -2.963  -3.905  1.00  0.00     0.010 A 
ATOM     63  C   UNL     1     -15.967  -1.523  -2.067  1.00  0.00     0.010 A 
ATOM     64  C   UNL     1     -15.918  -2.089  -4.809  1.00  0.00     0.020 A 
ATOM     65  C   UNL     1     -16.601  -0.659  -2.966  1.00  0.00     0.020 A 
ATOM     66  C   UNL     1     -16.562  -0.943  -4.333  1.00  0.00     0.054 A 
BRANCH  66  67
ATOM     67  S   UNL     1     -17.382   0.147  -5.527  1.00  0.00     0.124 S 
ATOM     68  O   UNL     1     -16.244   0.762  -6.205  1.00  0.00    -0.237 OA
ATOM     69  O   UNL     1     -18.161  -0.790  -6.333  1.00  0.00    -0.237 OA
ATOM     70  O   UNL     1     -18.169   1.050  -4.691  1.00  0.00    -0.744 OA
ENDBRANCH  66  67
ENDBRANCH  47  61
BRANCH  48  71
ATOM     71  C   UNL     1     -10.837  -9.048   3.753  1.00  0.00    -0.014 A 
ATOM     72  C   UNL     1     -11.053 -10.433   3.635  1.00  0.00     0.010 A 
ATOM     73  C   UNL     1     -10.037  -8.571   4.807  1.00  0.00     0.010 A 
ATOM     74  C   UNL     1     -10.522 -11.318   4.578  1.00  0.00     0.020 A 
ATOM     75  C   UNL     1      -9.477  -9.455   5.734  1.00  0.00     0.020 A 
ATOM     76  C   UNL     1      -9.742 -10.821   5.627  1.00  0.00     0.054 A 
BRANCH  76  77
ATOM     77  S   UNL     1      -9.066 -11.985   6.843  1.00  0.00     0.124 S 
ATOM     78  O   UNL     1     -10.248 -12.323   7.628  1.00  0.00    -0.237 OA
ATOM     79  O   UNL     1      -8.538 -13.054   5.999  1.00  0.00    -0.237 OA
ATOM     80  O   UNL     1      -8.053 -11.196   7.542  1.00  0.00    -0.744 OA
ENDBRANCH  76  77
ENDBRANCH  48  71
BRANCH  60  81
ATOM     81  C   UNL     1     -17.483  -7.380   2.499  1.00  0.00    -0.014 A 
ATOM     82  C   UNL     1     -17.892  -7.064   3.806  1.00  0.00     0.010 A 
ATOM     83  C   UNL     1     -18.332  -8.150   1.682  1.00  0.00     0.010 A 
ATOM     84  C   UNL     1     -19.111  -7.537   4.298  1.00  0.00     0.020 A 
ATOM     85  C   UNL     1     -19.565  -8.600   2.160  1.00  0.00     0.020 A 
ATOM     86  C   UNL     1     -19.940  -8.303   3.472  1.00  0.00     0.054 A 
BRANCH  86  87
ATOM     87  S   UNL     1     -21.536  -8.868   4.120  1.00  0.00     0.124 S 
ATOM     88  O   UNL     1     -21.132  -9.928   5.041  1.00  0.00    -0.237 OA
ATOM     89  O   UNL     1     -22.073  -7.663   4.746  1.00  0.00    -0.237 OA
ATOM     90  O   UNL     1     -22.255  -9.318   2.930  1.00  0.00    -0.744 OA
ENDBRANCH  86  87
ENDBRANCH  60  81
ENDBRANCH  34  35
ENDBRANCH  26  29
ENDBRANCH  24  25
ENDBRANCH  23  24
ENDBRANCH   1  23
TORSDOF 18
