REMARK SMILES O=C(NCCCCNC(=O)c1ccc(-c2c3nc(c(-c4ccc(S(=O)(=O)[O-])cc4)c4ccc([nH]4)c(-c4ccc(S(=O)(=O)[O-])cc4)c4nc(c(-c5ccc(S(=O)(=O)[O-])cc5)c5ccc2[nH]5)C=C4)C=C3)cc1)C1=Cc2cc(Cl)cc(-c3ccc(CO)cc3)c2O[C@@H]1C(F)(F)F
REMARK SMILES IDX 5 1 4 2 3 3 1 4 2 5 71 7 72 8 89 9 73 10 88 11 74 12 87 13
REMARK SMILES IDX 75 14 78 15 76 16 77 17 90 18 91 19 92 20 93 21 79 22 80 23
REMARK SMILES IDX 86 24 81 25 85 26 82 27 83 28 84 29 6 31 7 32 8 33 9 34
REMARK SMILES IDX 10 36 11 37 12 38 70 39 13 40 69 41 14 42 15 43 16 44 63 45
REMARK SMILES IDX 17 46 68 47 62 48 64 49 18 50 67 51 61 52 60 53 19 55 49 56
REMARK SMILES IDX 30 57 48 58 31 59 34 60 47 61 65 62 32 63 33 64 46 66 66 67
REMARK SMILES IDX 35 68 20 69 21 70 29 71 22 72 28 73 23 74 24 75 25 76 26 77
REMARK SMILES IDX 27 78 50 79 51 80 59 81 52 82 58 83 53 84 54 85 55 86 56 87
REMARK SMILES IDX 57 88 36 89 37 90 45 91 38 92 44 93 39 94 40 95 41 96 42 97
REMARK SMILES IDX 43 98
REMARK H PARENT 3 6 84 30 8 35 64 54 34 65
REMARK Flexibility Score: inf
ROOT
ATOM      1  C   UNL     1       4.343  -2.472   2.422  1.00  0.00     0.023 C 
ENDROOT
BRANCH   1   2
ATOM      2  C   UNL     1       3.546  -1.946   1.220  1.00  0.00     0.116 C 
BRANCH   2   3
ATOM      3  N   UNL     1       2.577  -0.899   1.571  1.00  0.00    -0.352 N 
ATOM      4  O   UNL     1       1.248   0.897   1.263  1.00  0.00    -0.270 OA
ATOM      5  C   UNL     1       2.319   0.343   1.041  1.00  0.00     0.251 C 
ATOM      6  H   UNL     1       2.000  -1.132   2.333  1.00  0.00     0.163 HD
BRANCH   5   7
ATOM      7  C   UNL     1       3.279   0.932   0.085  1.00  0.00     0.067 C 
ATOM      8  C   UNL     1       4.549   1.227   0.394  1.00  0.00     0.025 C 
ATOM      9  C   UNL     1       2.910   0.893  -1.363  1.00  0.00     0.314 C 
ATOM     10  C   UNL     1       5.503   0.474  -0.439  1.00  0.00     0.019 A 
ATOM     11  O   UNL     1       3.753  -0.037  -2.075  1.00  0.00    -0.475 OA
ATOM     12  C   UNL     1       6.766   0.173   0.086  1.00  0.00     0.032 A 
ATOM     13  C   UNL     1       5.024  -0.227  -1.571  1.00  0.00     0.135 A 
ATOM     14  C   UNL     1       7.524  -0.846  -0.487  1.00  0.00     0.042 A 
ATOM     15  C   UNL     1       5.764  -1.293  -2.112  1.00  0.00     0.026 A 
ATOM     16  Cl  UNL     1       9.016  -1.301   0.238  1.00  0.00    -0.084 Cl
ATOM     17  C   UNL     1       7.027  -1.581  -1.564  1.00  0.00     0.033 A 
BRANCH   9  18
ATOM     18  C   UNL     1       2.962   2.313  -1.981  1.00  0.00     0.429 C 
ATOM     19  F   UNL     1       2.554   2.311  -3.272  1.00  0.00    -0.167 F 
ATOM     20  F   UNL     1       2.156   3.181  -1.320  1.00  0.00    -0.167 F 
ATOM     21  F   UNL     1       4.207   2.852  -1.964  1.00  0.00    -0.167 F 
ENDBRANCH   9  18
BRANCH  15  22
ATOM     22  C   UNL     1       5.169  -2.255  -3.050  1.00  0.00    -0.015 A 
ATOM     23  C   UNL     1       4.394  -3.312  -2.546  1.00  0.00     0.009 A 
ATOM     24  C   UNL     1       5.410  -2.201  -4.425  1.00  0.00     0.009 A 
ATOM     25  C   UNL     1       3.927  -4.326  -3.380  1.00  0.00     0.007 A 
ATOM     26  C   UNL     1       4.939  -3.217  -5.267  1.00  0.00     0.007 A 
ATOM     27  C   UNL     1       4.215  -4.299  -4.747  1.00  0.00    -0.023 A 
BRANCH  27  28
ATOM     28  C   UNL     1       3.797  -5.455  -5.613  1.00  0.00     0.191 C 
BRANCH  28  29
ATOM     29  O   UNL     1       4.578  -6.593  -5.276  1.00  0.00    -0.392 OA
ATOM     30  H   UNL     1       5.517  -6.396  -5.420  1.00  0.00     0.211 HD
ENDBRANCH  28  29
ENDBRANCH  27  28
ENDBRANCH  15  22
ENDBRANCH   5   7
ENDBRANCH   2   3
ENDBRANCH   1   2
BRANCH   1  31
ATOM     31  C   UNL     1       4.375  -4.004   2.550  1.00  0.00     0.023 C 
BRANCH  31  32
ATOM     32  C   UNL     1       4.909  -4.798   1.359  1.00  0.00     0.116 C 
BRANCH  32  33
ATOM     33  N   UNL     1       6.336  -4.650   1.103  1.00  0.00    -0.352 N 
ATOM     34  C   UNL     1       7.187  -5.588   0.563  1.00  0.00     0.251 C 
ATOM     35  H   UNL     1       6.736  -3.783   1.344  1.00  0.00     0.163 HD
ATOM     36  O   UNL     1       8.388  -5.349   0.440  1.00  0.00    -0.269 OA
BRANCH  34  37
ATOM     37  C   UNL     1       6.656  -6.921   0.182  1.00  0.00     0.039 A 
ATOM     38  C   UNL     1       7.201  -8.063   0.775  1.00  0.00     0.014 A 
ATOM     39  C   UNL     1       5.563  -7.034  -0.682  1.00  0.00     0.014 A 
ATOM     40  C   UNL     1       6.578  -9.301   0.591  1.00  0.00     0.010 A 
ATOM     41  C   UNL     1       4.911  -8.261  -0.820  1.00  0.00     0.010 A 
ATOM     42  C   UNL     1       5.390  -9.401  -0.156  1.00  0.00    -0.014 A 
BRANCH  42  43
ATOM     43  C   UNL     1       4.596 -10.661  -0.155  1.00  0.00     0.031 A 
ATOM     44  C   UNL     1       4.392 -11.460  -1.413  1.00  0.00     0.074 A 
ATOM     45  C   UNL     1       3.998 -11.058   0.989  1.00  0.00     0.049 A 
ATOM     46  N   UNL     1       3.743 -12.587  -1.572  1.00  0.00    -0.248 NA
ATOM     47  C   UNL     1       4.975 -10.922  -2.651  1.00  0.00     0.031 C 
ATOM     48  C   UNL     1       4.058 -10.343   2.268  1.00  0.00     0.029 A 
ATOM     49  N   UNL     1       3.220 -12.156   1.264  1.00  0.00    -0.354 N 
ATOM     50  C   UNL     1       3.839 -12.894  -2.924  1.00  0.00     0.074 A 
ATOM     51  C   UNL     1       4.569 -11.811  -3.548  1.00  0.00     0.031 C 
ATOM     52  C   UNL     1       3.374 -11.035   3.193  1.00  0.00     0.029 A 
ATOM     53  C   UNL     1       2.801 -12.225   2.573  1.00  0.00     0.049 A 
ATOM     54  H   UNL     1       2.983 -12.831   0.588  1.00  0.00     0.167 HD
ATOM     55  C   UNL     1       3.378 -13.985  -3.584  1.00  0.00     0.031 A 
ATOM     56  C   UNL     1       2.043 -13.140   3.210  1.00  0.00     0.031 A 
ATOM     57  C   UNL     1       2.643 -15.060  -2.969  1.00  0.00     0.049 A 
ATOM     58  C   UNL     1       1.539 -14.338   2.455  1.00  0.00     0.074 A 
ATOM     59  C   UNL     1       2.186 -16.232  -3.550  1.00  0.00     0.029 A 
ATOM     60  N   UNL     1       2.248 -15.095  -1.641  1.00  0.00    -0.354 N 
ATOM     61  N   UNL     1       1.723 -14.653   1.195  1.00  0.00    -0.248 NA
ATOM     62  C   UNL     1       0.738 -15.312   3.211  1.00  0.00     0.031 C 
ATOM     63  C   UNL     1       1.474 -16.952  -2.585  1.00  0.00     0.029 A 
ATOM     64  C   UNL     1       1.532 -16.255  -1.390  1.00  0.00     0.049 A 
ATOM     65  H   UNL     1       2.446 -14.398  -0.975  1.00  0.00     0.167 HD
ATOM     66  C   UNL     1       1.081 -15.874   1.014  1.00  0.00     0.074 A 
ATOM     67  C   UNL     1       0.518 -16.247   2.296  1.00  0.00     0.031 C 
ATOM     68  C   UNL     1       0.972 -16.618  -0.113  1.00  0.00     0.031 A 
BRANCH  55  69
ATOM     69  C   UNL     1       3.661 -14.075  -5.061  1.00  0.00    -0.014 A 
ATOM     70  C   UNL     1       4.962 -14.335  -5.530  1.00  0.00     0.010 A 
ATOM     71  C   UNL     1       2.610 -13.957  -5.988  1.00  0.00     0.010 A 
ATOM     72  C   UNL     1       5.213 -14.439  -6.900  1.00  0.00     0.020 A 
ATOM     73  C   UNL     1       2.853 -14.085  -7.359  1.00  0.00     0.020 A 
ATOM     74  C   UNL     1       4.157 -14.309  -7.807  1.00  0.00     0.054 A 
BRANCH  74  75
ATOM     75  S   UNL     1       4.508 -14.475  -9.579  1.00  0.00     0.124 S 
ATOM     76  O   UNL     1       5.182 -13.213  -9.872  1.00  0.00    -0.237 OA
ATOM     77  O   UNL     1       5.355 -15.664  -9.630  1.00  0.00    -0.237 OA
ATOM     78  O   UNL     1       3.187 -14.630 -10.182  1.00  0.00    -0.744 OA
ENDBRANCH  74  75
ENDBRANCH  55  69
BRANCH  56  79
ATOM     79  C   UNL     1       1.729 -12.970   4.655  1.00  0.00    -0.014 A 
ATOM     80  C   UNL     1       2.323 -13.804   5.618  1.00  0.00     0.010 A 
ATOM     81  C   UNL     1       0.834 -11.969   5.075  1.00  0.00     0.010 A 
ATOM     82  C   UNL     1       2.012 -13.656   6.973  1.00  0.00     0.020 A 
ATOM     83  C   UNL     1       0.540 -11.801   6.431  1.00  0.00     0.020 A 
ATOM     84  C   UNL     1       1.122 -12.654   7.371  1.00  0.00     0.054 A 
BRANCH  84  85
ATOM     85  S   UNL     1       0.767 -12.447   9.139  1.00  0.00     0.124 S 
ATOM     86  O   UNL     1      -0.139 -13.560   9.398  1.00  0.00    -0.237 OA
ATOM     87  O   UNL     1       2.093 -12.554   9.743  1.00  0.00    -0.237 OA
ATOM     88  O   UNL     1       0.165 -11.117   9.210  1.00  0.00    -0.744 OA
ENDBRANCH  84  85
ENDBRANCH  56  79
BRANCH  68  89
ATOM     89  C   UNL     1       0.235 -17.927  -0.011  1.00  0.00    -0.014 A 
ATOM     90  C   UNL     1      -1.164 -17.967   0.118  1.00  0.00     0.010 A 
ATOM     91  C   UNL     1       0.951 -19.136  -0.094  1.00  0.00     0.010 A 
ATOM     92  C   UNL     1      -1.832 -19.193   0.193  1.00  0.00     0.020 A 
ATOM     93  C   UNL     1       0.284 -20.363  -0.044  1.00  0.00     0.020 A 
ATOM     94  C   UNL     1      -1.103 -20.383   0.113  1.00  0.00     0.054 A 
BRANCH  94  95
ATOM     95  S   UNL     1      -1.996 -21.962   0.168  1.00  0.00     0.124 S 
ATOM     96  O   UNL     1      -2.329 -22.073   1.585  1.00  0.00    -0.237 OA
ATOM     97  O   UNL     1      -3.127 -21.724  -0.727  1.00  0.00    -0.237 OA
ATOM     98  O   UNL     1      -1.017 -22.930  -0.321  1.00  0.00    -0.744 OA
ENDBRANCH  94  95
ENDBRANCH  68  89
ENDBRANCH  42  43
ENDBRANCH  34  37
ENDBRANCH  32  33
ENDBRANCH  31  32
ENDBRANCH   1  31
TORSDOF 18
