REMARK SMILES CC[C@@H]([NH3+])C(=O)N1CC[C@H](C(=O)NCCCCNC(=O)c2ccc(-c3c4nc(c(-c5ccc(S(=O)(=O)[O-])cc5)c5ccc([nH]5)c(-c5ccc(S(=O)(=O)[O-])cc5)c5nc(c(-c6ccc(S(=O)(=O)[O-])cc6)c6ccc3[nH]6)C=C5)C=C4)cc2)[C@@H]1C
REMARK SMILES IDX 15 1 14 2 13 3 11 4 12 5 10 7 7 8 8 9 81 10 9 11 82 12 5 13
REMARK SMILES IDX 6 14 3 15 2 16 1 17 4 18 16 22 17 23 18 24 19 25 20 27 21 28
REMARK SMILES IDX 22 29 80 30 23 31 79 32 24 33 25 34 26 35 73 36 27 37 78 38
REMARK SMILES IDX 72 39 74 40 28 41 77 42 71 43 70 44 29 46 59 47 40 48 58 49
REMARK SMILES IDX 41 50 44 51 57 52 75 53 42 54 43 55 56 57 76 58 45 59 30 60
REMARK SMILES IDX 31 61 39 62 32 63 38 64 33 65 34 66 35 67 36 68 37 69 60 70
REMARK SMILES IDX 61 71 69 72 62 73 68 74 63 75 64 76 65 77 66 78 67 79 46 80
REMARK SMILES IDX 47 81 55 82 48 83 54 84 49 85 50 86 51 87 52 88 53 89
REMARK H PARENT 13 6 4 19 4 20 4 21 18 26 74 45 44 56
REMARK Flexibility Score: inf
ROOT
ATOM      1  C   UNL     1      -6.841   0.559  -6.180  1.00  0.00     0.023 C 
ENDROOT
BRANCH   1   2
ATOM      2  C   UNL     1      -5.359   0.821  -5.943  1.00  0.00     0.116 C 
BRANCH   2   3
ATOM      3  N   UNL     1      -5.097   1.921  -5.037  1.00  0.00    -0.356 N 
ATOM      4  C   UNL     1      -4.043   2.124  -4.190  1.00  0.00     0.225 C 
ATOM      5  O   UNL     1      -4.057   3.178  -3.557  1.00  0.00    -0.275 OA
ATOM      6  H   UNL     1      -5.782   2.628  -5.030  1.00  0.00     0.163 HD
BRANCH   4   7
ATOM      7  C   UNL     1      -2.996   1.020  -3.998  1.00  0.00     0.102 C 
ATOM      8  N   UNL     1      -0.594   1.011  -3.870  1.00  0.00    -0.334 N 
ATOM      9  C   UNL     1      -0.931   1.120  -5.265  1.00  0.00     0.121 C 
ATOM     10  C   UNL     1      -1.783   1.266  -3.043  1.00  0.00     0.094 C 
ATOM     11  C   UNL     1      -2.336   0.564  -5.312  1.00  0.00     0.037 C 
ATOM     12  C   UNL     1      -1.664   2.660  -2.425  1.00  0.00     0.032 C 
BRANCH   8  13
ATOM     13  C   UNL     1       0.696   0.692  -3.510  1.00  0.00     0.280 C 
ATOM     14  O   UNL     1       1.626   0.836  -4.315  1.00  0.00    -0.268 OA
BRANCH  13  15
ATOM     15  C   UNL     1       0.984  -0.059  -2.183  1.00  0.00     0.270 C 
BRANCH  15  16
ATOM     16  C   UNL     1       0.670   0.668  -0.876  1.00  0.00     0.072 C 
ATOM     17  C   UNL     1       1.257  -0.033   0.345  1.00  0.00     0.011 C 
ENDBRANCH  15  16
BRANCH  15  18
ATOM     18  N   UNL     1       0.346  -1.395  -2.253  1.00  0.00    -0.347 N 
ATOM     19  H   UNL     1      -0.666  -1.286  -2.311  1.00  0.00     0.345 HD
ATOM     20  H   UNL     1       0.584  -1.930  -1.418  1.00  0.00     0.345 HD
ATOM     21  H   UNL     1       0.682  -1.889  -3.080  1.00  0.00     0.345 HD
ENDBRANCH  15  18
ENDBRANCH  13  15
ENDBRANCH   8  13
ENDBRANCH   4   7
ENDBRANCH   2   3
ENDBRANCH   1   2
BRANCH   1  22
ATOM     22  C   UNL     1      -7.641   1.732  -6.745  1.00  0.00     0.023 C 
BRANCH  22  23
ATOM     23  C   UNL     1      -7.021   2.449  -7.939  1.00  0.00     0.116 C 
BRANCH  23  24
ATOM     24  N   UNL     1      -6.779   1.571  -9.074  1.00  0.00    -0.352 N 
ATOM     25  C   UNL     1      -7.279   1.630 -10.353  1.00  0.00     0.251 C 
ATOM     26  H   UNL     1      -6.166   0.821  -8.899  1.00  0.00     0.163 HD
ATOM     27  O   UNL     1      -7.055   0.713 -11.139  1.00  0.00    -0.269 OA
BRANCH  25  28
ATOM     28  C   UNL     1      -8.110   2.780 -10.770  1.00  0.00     0.039 A 
ATOM     29  C   UNL     1      -9.300   2.543 -11.461  1.00  0.00     0.014 A 
ATOM     30  C   UNL     1      -7.725   4.088 -10.464  1.00  0.00     0.014 A 
ATOM     31  C   UNL     1     -10.138   3.613 -11.783  1.00  0.00     0.010 A 
ATOM     32  C   UNL     1      -8.604   5.139 -10.701  1.00  0.00     0.010 A 
ATOM     33  C   UNL     1      -9.815   4.918 -11.374  1.00  0.00    -0.014 A 
BRANCH  33  34
ATOM     34  C   UNL     1     -10.708   6.069 -11.669  1.00  0.00     0.031 A 
ATOM     35  C   UNL     1     -10.206   7.201 -12.529  1.00  0.00     0.074 A 
ATOM     36  C   UNL     1     -11.938   6.129 -11.119  1.00  0.00     0.049 A 
ATOM     37  N   UNL     1     -10.799   8.325 -12.840  1.00  0.00    -0.248 NA
ATOM     38  C   UNL     1      -8.848   7.069 -13.085  1.00  0.00     0.031 C 
ATOM     39  C   UNL     1     -12.525   5.122 -10.229  1.00  0.00     0.029 A 
ATOM     40  N   UNL     1     -12.918   7.086 -11.221  1.00  0.00    -0.354 N 
ATOM     41  C   UNL     1      -9.879   9.041 -13.598  1.00  0.00     0.074 A 
ATOM     42  C   UNL     1      -8.671   8.249 -13.660  1.00  0.00     0.031 C 
ATOM     43  C   UNL     1     -13.768   5.502  -9.891  1.00  0.00     0.029 A 
ATOM     44  C   UNL     1     -14.056   6.794 -10.504  1.00  0.00     0.049 A 
ATOM     45  H   UNL     1     -12.816   7.905 -11.758  1.00  0.00     0.167 HD
ATOM     46  C   UNL     1     -10.032  10.239 -14.208  1.00  0.00     0.031 A 
ATOM     47  C   UNL     1     -15.200   7.491 -10.355  1.00  0.00     0.031 A 
ATOM     48  C   UNL     1     -11.248  11.005 -14.183  1.00  0.00     0.049 A 
ATOM     49  C   UNL     1     -15.353   8.809 -11.069  1.00  0.00     0.074 A 
ATOM     50  C   UNL     1     -11.527  12.195 -14.831  1.00  0.00     0.029 A 
ATOM     51  N   UNL     1     -12.390  10.652 -13.482  1.00  0.00    -0.354 N 
ATOM     52  N   UNL     1     -14.494   9.433 -11.840  1.00  0.00    -0.248 NA
ATOM     53  C   UNL     1     -16.637   9.506 -10.911  1.00  0.00     0.031 C 
ATOM     54  C   UNL     1     -12.824  12.586 -14.486  1.00  0.00     0.029 A 
ATOM     55  C   UNL     1     -13.372  11.608 -13.672  1.00  0.00     0.049 A 
ATOM     56  H   UNL     1     -12.489   9.841 -12.932  1.00  0.00     0.167 HD
ATOM     57  C   UNL     1     -15.151  10.573 -12.292  1.00  0.00     0.074 A 
ATOM     58  C   UNL     1     -16.480  10.546 -11.718  1.00  0.00     0.031 C 
ATOM     59  C   UNL     1     -14.697  11.553 -13.111  1.00  0.00     0.031 A 
BRANCH  46  60
ATOM     60  C   UNL     1      -8.859  10.799 -14.970  1.00  0.00    -0.014 A 
ATOM     61  C   UNL     1      -8.441  10.227 -16.184  1.00  0.00     0.010 A 
ATOM     62  C   UNL     1      -8.216  11.960 -14.502  1.00  0.00     0.010 A 
ATOM     63  C   UNL     1      -7.388  10.792 -16.907  1.00  0.00     0.020 A 
ATOM     64  C   UNL     1      -7.181  12.545 -15.237  1.00  0.00     0.020 A 
ATOM     65  C   UNL     1      -6.768  11.951 -16.431  1.00  0.00     0.054 A 
BRANCH  65  66
ATOM     66  S   UNL     1      -5.448  12.700 -17.425  1.00  0.00     0.124 S 
ATOM     67  O   UNL     1      -4.352  11.754 -17.232  1.00  0.00    -0.237 OA
ATOM     68  O   UNL     1      -6.030  12.721 -18.765  1.00  0.00    -0.237 OA
ATOM     69  O   UNL     1      -5.253  14.012 -16.813  1.00  0.00    -0.744 OA
ENDBRANCH  65  66
ENDBRANCH  46  60
BRANCH  47  70
ATOM     70  C   UNL     1     -16.305   6.961  -9.506  1.00  0.00    -0.014 A 
ATOM     71  C   UNL     1     -17.520   6.552 -10.085  1.00  0.00     0.010 A 
ATOM     72  C   UNL     1     -16.162   6.897  -8.108  1.00  0.00     0.010 A 
ATOM     73  C   UNL     1     -18.586   6.135  -9.280  1.00  0.00     0.020 A 
ATOM     74  C   UNL     1     -17.213   6.450  -7.303  1.00  0.00     0.020 A 
ATOM     75  C   UNL     1     -18.427   6.093  -7.893  1.00  0.00     0.054 A 
BRANCH  75  76
ATOM     76  S   UNL     1     -19.819   5.544  -6.867  1.00  0.00     0.124 S 
ATOM     77  O   UNL     1     -20.706   6.702  -6.917  1.00  0.00    -0.237 OA
ATOM     78  O   UNL     1     -20.287   4.356  -7.575  1.00  0.00    -0.237 OA
ATOM     79  O   UNL     1     -19.203   5.283  -5.568  1.00  0.00    -0.744 OA
ENDBRANCH  75  76
ENDBRANCH  47  70
BRANCH  59  80
ATOM     80  C   UNL     1     -15.663  12.641 -13.497  1.00  0.00    -0.014 A 
ATOM     81  C   UNL     1     -16.077  13.619 -12.576  1.00  0.00     0.010 A 
ATOM     82  C   UNL     1     -16.121  12.711 -14.826  1.00  0.00     0.010 A 
ATOM     83  C   UNL     1     -16.966  14.624 -12.969  1.00  0.00     0.020 A 
ATOM     84  C   UNL     1     -16.984  13.732 -15.229  1.00  0.00     0.020 A 
ATOM     85  C   UNL     1     -17.415  14.672 -14.292  1.00  0.00     0.054 A 
BRANCH  85  86
ATOM     86  S   UNL     1     -18.542  16.005 -14.785  1.00  0.00     0.124 S 
ATOM     87  O   UNL     1     -19.799  15.580 -14.175  1.00  0.00    -0.237 OA
ATOM     88  O   UNL     1     -17.922  17.186 -14.191  1.00  0.00    -0.237 OA
ATOM     89  O   UNL     1     -18.512  15.961 -16.246  1.00  0.00    -0.744 OA
ENDBRANCH  85  86
ENDBRANCH  59  80
ENDBRANCH  33  34
ENDBRANCH  25  28
ENDBRANCH  23  24
ENDBRANCH  22  23
ENDBRANCH   1  22
TORSDOF 18
