REMARK SMILES O=C(Cc1ccccc1-c1ccn(C(F)F)c(=O)c1)NCCCCNC(=O)c1ccc(-c2c3nc(c(-c4ccc(S(=O)(=O)[O-])cc4)c4ccc([nH]4)c(-c4ccc(S(=O)(=O)[O-])cc4)c4nc(c(-c5ccc(S(=O)(=O)[O-])cc5)c5ccc2[nH]5)C=C4)C=C3)cc1
REMARK SMILES IDX 22 1 21 2 20 3 1 4 2 5 3 7 4 8 5 9 9 10 6 11 8 12 7 13 10 14
REMARK SMILES IDX 11 15 19 16 12 17 17 18 13 19 18 20 14 21 15 22 16 23 23 24
REMARK SMILES IDX 24 25 25 26 26 27 27 29 28 30 29 31 87 32 30 33 86 34 31 35
REMARK SMILES IDX 32 36 33 37 80 38 34 39 85 40 79 41 81 42 35 43 84 44 78 45
REMARK SMILES IDX 77 46 36 48 66 49 47 50 65 51 48 52 51 53 64 54 82 55 49 56
REMARK SMILES IDX 50 57 63 59 83 60 52 61 37 62 38 63 46 64 39 65 45 66 40 67
REMARK SMILES IDX 41 68 42 69 43 70 44 71 67 72 68 73 76 74 69 75 75 76 70 77
REMARK SMILES IDX 71 78 72 79 73 80 74 81 53 82 54 83 62 84 55 85 61 86 56 87
REMARK SMILES IDX 57 88 58 89 59 90 60 91
REMARK H PARENT 20 6 25 28 81 47 51 58
REMARK Flexibility Score: inf
ROOT
ATOM      1  C   UNL     1       2.433  -2.188  -3.002  1.00  0.00     0.023 C 
ENDROOT
BRANCH   1   2
ATOM      2  C   UNL     1       2.029  -2.058  -1.536  1.00  0.00     0.116 C 
BRANCH   2   3
ATOM      3  N   UNL     1       2.730  -0.979  -0.871  1.00  0.00    -0.356 N 
ATOM      4  O   UNL     1       0.868  -0.036   0.092  1.00  0.00    -0.275 OA
ATOM      5  C   UNL     1       2.083  -0.055  -0.079  1.00  0.00     0.224 C 
ATOM      6  H   UNL     1       3.704  -0.903  -0.990  1.00  0.00     0.163 HD
BRANCH   5   7
ATOM      7  C   UNL     1       3.010   0.949   0.580  1.00  0.00     0.136 C 
BRANCH   7   8
ATOM      8  C   UNL     1       3.734   0.483   1.835  1.00  0.00    -0.031 A 
ATOM      9  C   UNL     1       3.725  -0.870   2.226  1.00  0.00     0.005 A 
ATOM     10  C   UNL     1       4.488   1.400   2.610  1.00  0.00    -0.014 A 
ATOM     11  C   UNL     1       4.443  -1.310   3.339  1.00  0.00     0.000 A 
ATOM     12  C   UNL     1       5.188   0.942   3.742  1.00  0.00     0.009 A 
ATOM     13  C   UNL     1       5.172  -0.405   4.098  1.00  0.00     0.001 A 
BRANCH  10  14
ATOM     14  C   UNL     1       4.591   2.837   2.260  1.00  0.00    -0.011 A 
ATOM     15  C   UNL     1       3.457   3.742   2.286  1.00  0.00     0.027 A 
ATOM     16  C   UNL     1       5.788   3.309   1.869  1.00  0.00     0.080 A 
ATOM     17  C   UNL     1       3.574   4.994   1.831  1.00  0.00     0.095 A 
ATOM     18  C   UNL     1       5.949   4.721   1.426  1.00  0.00     0.255 A 
ATOM     19  N   UNL     1       4.789   5.476   1.383  1.00  0.00    -0.258 N 
ATOM     20  O   UNL     1       7.069   5.116   1.115  1.00  0.00    -0.269 OA
BRANCH  19  21
ATOM     21  C   UNL     1       4.900   6.813   0.860  1.00  0.00     0.451 C 
ATOM     22  F   UNL     1       5.723   7.573   1.621  1.00  0.00    -0.185 F 
ATOM     23  F   UNL     1       5.384   6.803  -0.406  1.00  0.00    -0.185 F 
ENDBRANCH  19  21
ENDBRANCH  10  14
ENDBRANCH   7   8
ENDBRANCH   5   7
ENDBRANCH   2   3
ENDBRANCH   1   2
BRANCH   1  24
ATOM     24  C   UNL     1       3.922  -2.454  -3.242  1.00  0.00     0.023 C 
BRANCH  24  25
ATOM     25  C   UNL     1       4.484  -3.693  -2.552  1.00  0.00     0.116 C 
BRANCH  25  26
ATOM     26  N   UNL     1       3.881  -4.925  -3.035  1.00  0.00    -0.352 N 
ATOM     27  C   UNL     1       4.482  -6.043  -3.563  1.00  0.00     0.251 C 
ATOM     28  H   UNL     1       2.899  -4.964  -2.976  1.00  0.00     0.163 HD
ATOM     29  O   UNL     1       3.790  -6.920  -4.076  1.00  0.00    -0.269 OA
BRANCH  27  30
ATOM     30  C   UNL     1       5.956  -6.181  -3.541  1.00  0.00     0.039 A 
ATOM     31  C   UNL     1       6.610  -6.633  -4.690  1.00  0.00     0.014 A 
ATOM     32  C   UNL     1       6.694  -5.870  -2.395  1.00  0.00     0.014 A 
ATOM     33  C   UNL     1       8.006  -6.706  -4.712  1.00  0.00     0.010 A 
ATOM     34  C   UNL     1       8.087  -5.870  -2.445  1.00  0.00     0.010 A 
ATOM     35  C   UNL     1       8.760  -6.288  -3.603  1.00  0.00    -0.014 A 
BRANCH  35  36
ATOM     36  C   UNL     1      10.247  -6.267  -3.643  1.00  0.00     0.031 A 
ATOM     37  C   UNL     1      11.048  -7.130  -2.704  1.00  0.00     0.074 A 
ATOM     38  C   UNL     1      10.880  -5.423  -4.484  1.00  0.00     0.049 A 
ATOM     39  N   UNL     1      12.347  -7.208  -2.561  1.00  0.00    -0.248 NA
ATOM     40  C   UNL     1      10.292  -8.004  -1.792  1.00  0.00     0.031 C 
ATOM     41  C   UNL     1      10.222  -4.509  -5.421  1.00  0.00     0.029 A 
ATOM     42  N   UNL     1      12.219  -5.193  -4.685  1.00  0.00    -0.354 N 
ATOM     43  C   UNL     1      12.562  -8.121  -1.535  1.00  0.00     0.074 A 
ATOM     44  C   UNL     1      11.260  -8.534  -1.059  1.00  0.00     0.031 C 
ATOM     45  C   UNL     1      11.158  -3.843  -6.117  1.00  0.00     0.029 A 
ATOM     46  C   UNL     1      12.480  -4.244  -5.646  1.00  0.00     0.049 A 
ATOM     47  H   UNL     1      12.926  -5.664  -4.188  1.00  0.00     0.167 HD
ATOM     48  C   UNL     1      13.736  -8.586  -1.044  1.00  0.00     0.031 A 
ATOM     49  C   UNL     1      13.648  -3.744  -6.095  1.00  0.00     0.031 A 
ATOM     50  C   UNL     1      15.031  -8.178  -1.524  1.00  0.00     0.049 A 
ATOM     51  C   UNL     1      14.938  -4.259  -5.515  1.00  0.00     0.074 A 
ATOM     52  C   UNL     1      16.276  -8.638  -1.131  1.00  0.00     0.029 A 
ATOM     53  N   UNL     1      15.250  -7.212  -2.494  1.00  0.00    -0.354 N 
ATOM     54  N   UNL     1      15.120  -5.176  -4.595  1.00  0.00    -0.248 NA
ATOM     55  C   UNL     1      16.181  -3.679  -6.043  1.00  0.00     0.031 C 
ATOM     56  C   UNL     1      17.249  -7.903  -1.816  1.00  0.00     0.029 A 
ATOM     57  C   UNL     1      16.610  -7.037  -2.689  1.00  0.00     0.049 A 
ATOM     58  H   UNL     1      14.543  -6.723  -2.974  1.00  0.00     0.167 HD
ATOM     59  C   UNL     1      16.498  -5.305  -4.457  1.00  0.00     0.074 A 
ATOM     60  C   UNL     1      17.101  -4.383  -5.399  1.00  0.00     0.031 C 
ATOM     61  C   UNL     1      17.201  -6.117  -3.628  1.00  0.00     0.031 A 
BRANCH  48  62
ATOM     62  C   UNL     1      13.677  -9.583   0.087  1.00  0.00    -0.014 A 
ATOM     63  C   UNL     1      13.192 -10.888  -0.114  1.00  0.00     0.010 A 
ATOM     64  C   UNL     1      14.159  -9.222   1.359  1.00  0.00     0.010 A 
ATOM     65  C   UNL     1      13.149 -11.799   0.946  1.00  0.00     0.020 A 
ATOM     66  C   UNL     1      14.148 -10.140   2.413  1.00  0.00     0.020 A 
ATOM     67  C   UNL     1      13.626 -11.418   2.204  1.00  0.00     0.054 A 
BRANCH  67  68
ATOM     68  S   UNL     1      13.578 -12.628   3.554  1.00  0.00     0.124 S 
ATOM     69  O   UNL     1      12.146 -12.711   3.832  1.00  0.00    -0.237 OA
ATOM     70  O   UNL     1      14.167 -13.815   2.940  1.00  0.00    -0.237 OA
ATOM     71  O   UNL     1      14.380 -12.009   4.605  1.00  0.00    -0.744 OA
ENDBRANCH  67  68
ENDBRANCH  48  62
BRANCH  49  72
ATOM     72  C   UNL     1      13.654  -2.705  -7.162  1.00  0.00    -0.014 A 
ATOM     73  C   UNL     1      14.137  -3.005  -8.448  1.00  0.00     0.010 A 
ATOM     74  C   UNL     1      13.172  -1.409  -6.901  1.00  0.00     0.010 A 
ATOM     75  C   UNL     1      14.155  -2.026  -9.446  1.00  0.00     0.020 A 
ATOM     76  C   UNL     1      13.159  -0.436  -7.905  1.00  0.00     0.020 A 
ATOM     77  C   UNL     1      13.663  -0.748  -9.169  1.00  0.00     0.054 A 
BRANCH  77  78
ATOM     78  S   UNL     1      13.651   0.490 -10.495  1.00  0.00     0.124 S 
ATOM     79  O   UNL     1      15.070   0.802 -10.632  1.00  0.00    -0.237 OA
ATOM     80  O   UNL     1      13.054  -0.246 -11.606  1.00  0.00    -0.237 OA
ATOM     81  O   UNL     1      12.823   1.564  -9.952  1.00  0.00    -0.744 OA
ENDBRANCH  77  78
ENDBRANCH  49  72
BRANCH  61  82
ATOM     82  C   UNL     1      18.704  -6.080  -3.725  1.00  0.00    -0.014 A 
ATOM     83  C   UNL     1      19.442  -4.970  -3.277  1.00  0.00     0.010 A 
ATOM     84  C   UNL     1      19.392  -7.202  -4.224  1.00  0.00     0.010 A 
ATOM     85  C   UNL     1      20.838  -4.970  -3.356  1.00  0.00     0.020 A 
ATOM     86  C   UNL     1      20.788  -7.219  -4.275  1.00  0.00     0.020 A 
ATOM     87  C   UNL     1      21.502  -6.096  -3.853  1.00  0.00     0.054 A 
BRANCH  87  88
ATOM     88  S   UNL     1      23.315  -6.089  -3.902  1.00  0.00     0.124 S 
ATOM     89  O   UNL     1      23.586  -5.154  -4.990  1.00  0.00    -0.237 OA
ATOM     90  O   UNL     1      23.669  -5.619  -2.565  1.00  0.00    -0.237 OA
ATOM     91  O   UNL     1      23.661  -7.482  -4.178  1.00  0.00    -0.744 OA
ENDBRANCH  87  88
ENDBRANCH  61  82
ENDBRANCH  35  36
ENDBRANCH  27  30
ENDBRANCH  25  26
ENDBRANCH  24  25
ENDBRANCH   1  24
TORSDOF 17
