REMARK SMILES C[C@@H](C(=O)NCCCCNC(=O)c1ccc(-c2c3nc(c(-c4ccc(S(=O)(=O)[O-])cc4)c4ccc([nH]4)c(-c4ccc(S(=O)(=O)[O-])cc4)c4nc(c(-c5ccc(S(=O)(=O)[O-])cc5)c5ccc2[nH]5)C=C4)C=C3)cc1)c1ccc(N[C@H]2CCC[C@@H]2O)cc1F
REMARK SMILES IDX 7 1 6 2 5 3 3 4 4 5 2 7 1 8 73 9 74 10 85 11 75 12 84 13
REMARK SMILES IDX 86 14 76 15 77 16 78 18 79 19 82 20 80 21 81 22 83 23 8 25
REMARK SMILES IDX 9 26 10 27 11 28 12 30 13 31 14 32 72 33 15 34 71 35 16 36
REMARK SMILES IDX 17 37 18 38 65 39 19 40 70 41 64 42 66 43 20 44 69 45 63 46
REMARK SMILES IDX 62 47 21 49 51 50 32 51 50 52 33 53 36 54 49 55 67 56 34 57
REMARK SMILES IDX 35 58 48 60 68 61 37 62 22 63 23 64 31 65 24 66 30 67 25 68
REMARK SMILES IDX 26 69 27 70 28 71 29 72 52 73 53 74 61 75 54 76 60 77 55 78
REMARK SMILES IDX 56 79 57 80 58 81 59 82 38 83 39 84 47 85 40 86 46 87 41 88
REMARK SMILES IDX 42 89 43 90 44 91 45 92
REMARK H PARENT 5 6 77 17 83 24 10 29 66 48 36 59
REMARK Flexibility Score: inf
ROOT
ATOM      1  C   UNL     1       4.200  -1.006   0.825  1.00  0.00     0.023 C 
ENDROOT
BRANCH   1   2
ATOM      2  C   UNL     1       3.430  -2.034  -0.010  1.00  0.00     0.116 C 
BRANCH   2   3
ATOM      3  N   UNL     1       2.341  -2.589   0.766  1.00  0.00    -0.356 N 
ATOM      4  C   UNL     1       1.035  -2.190   0.827  1.00  0.00     0.227 C 
ATOM      5  O   UNL     1       0.360  -2.624   1.762  1.00  0.00    -0.274 OA
ATOM      6  H   UNL     1       2.574  -3.362   1.329  1.00  0.00     0.163 HD
BRANCH   4   7
ATOM      7  C   UNL     1       0.468  -1.262  -0.264  1.00  0.00     0.108 C 
ATOM      8  C   UNL     1       1.042   0.158  -0.131  1.00  0.00     0.023 C 
BRANCH   7   9
ATOM      9  C   UNL     1      -1.058  -1.259  -0.267  1.00  0.00     0.000 A 
ATOM     10  C   UNL     1      -1.796  -0.090  -0.080  1.00  0.00     0.009 A 
ATOM     11  C   UNL     1      -1.782  -2.441  -0.454  1.00  0.00     0.129 A 
ATOM     12  C   UNL     1      -3.187  -0.111  -0.069  1.00  0.00     0.026 A 
ATOM     13  C   UNL     1      -3.182  -2.460  -0.428  1.00  0.00     0.065 A 
ATOM     14  F   UNL     1      -1.131  -3.593  -0.679  1.00  0.00    -0.207 F 
ATOM     15  C   UNL     1      -3.917  -1.287  -0.228  1.00  0.00     0.037 A 
BRANCH  15  16
ATOM     16  N   UNL     1      -5.296  -1.322  -0.257  1.00  0.00    -0.380 N 
ATOM     17  H   UNL     1      -5.706  -2.211  -0.360  1.00  0.00     0.160 HD
BRANCH  16  18
ATOM     18  C   UNL     1      -6.221  -0.193  -0.154  1.00  0.00     0.107 C 
ATOM     19  C   UNL     1      -6.129   0.589   1.164  1.00  0.00     0.027 C 
ATOM     20  C   UNL     1      -6.072   0.846  -1.283  1.00  0.00     0.136 C 
ATOM     21  C   UNL     1      -6.118   2.070   0.772  1.00  0.00     0.005 C 
ATOM     22  C   UNL     1      -6.635   2.114  -0.659  1.00  0.00     0.034 C 
BRANCH  20  23
ATOM     23  O   UNL     1      -6.795   0.477  -2.449  1.00  0.00    -0.391 OA
ATOM     24  H   UNL     1      -7.732   0.363  -2.225  1.00  0.00     0.211 HD
ENDBRANCH  20  23
ENDBRANCH  16  18
ENDBRANCH  15  16
ENDBRANCH   7   9
ENDBRANCH   4   7
ENDBRANCH   2   3
ENDBRANCH   1   2
BRANCH   1  25
ATOM     25  C   UNL     1       5.006  -1.608   1.978  1.00  0.00     0.023 C 
BRANCH  25  26
ATOM     26  C   UNL     1       6.019  -2.662   1.558  1.00  0.00     0.116 C 
BRANCH  26  27
ATOM     27  N   UNL     1       6.949  -2.171   0.555  1.00  0.00    -0.352 N 
ATOM     28  C   UNL     1       8.297  -2.390   0.446  1.00  0.00     0.251 C 
ATOM     29  H   UNL     1       6.555  -1.601  -0.145  1.00  0.00     0.163 HD
ATOM     30  O   UNL     1       8.950  -1.758  -0.384  1.00  0.00    -0.269 OA
BRANCH  28  31
ATOM     31  C   UNL     1       8.963  -3.356   1.343  1.00  0.00     0.039 A 
ATOM     32  C   UNL     1      10.195  -3.009   1.898  1.00  0.00     0.014 A 
ATOM     33  C   UNL     1       8.381  -4.593   1.642  1.00  0.00     0.014 A 
ATOM     34  C   UNL     1      10.819  -3.881   2.788  1.00  0.00     0.010 A 
ATOM     35  C   UNL     1       8.963  -5.423   2.596  1.00  0.00     0.010 A 
ATOM     36  C   UNL     1      10.193  -5.081   3.172  1.00  0.00    -0.014 A 
BRANCH  36  37
ATOM     37  C   UNL     1      10.826  -5.964   4.184  1.00  0.00     0.031 A 
ATOM     38  C   UNL     1      11.276  -7.353   3.821  1.00  0.00     0.074 A 
ATOM     39  C   UNL     1      10.988  -5.506   5.442  1.00  0.00     0.049 A 
ATOM     40  N   UNL     1      11.902  -8.232   4.561  1.00  0.00    -0.248 NA
ATOM     41  C   UNL     1      10.968  -7.826   2.461  1.00  0.00     0.031 C 
ATOM     42  C   UNL     1      10.531  -4.203   5.933  1.00  0.00     0.029 A 
ATOM     43  N   UNL     1      11.590  -6.078   6.533  1.00  0.00    -0.354 N 
ATOM     44  C   UNL     1      12.070  -9.354   3.757  1.00  0.00     0.074 A 
ATOM     45  C   UNL     1      11.418  -9.072   2.498  1.00  0.00     0.031 C 
ATOM     46  C   UNL     1      10.910  -4.058   7.213  1.00  0.00     0.029 A 
ATOM     47  C   UNL     1      11.602  -5.267   7.644  1.00  0.00     0.049 A 
ATOM     48  H   UNL     1      11.977  -6.983   6.522  1.00  0.00     0.167 HD
ATOM     49  C   UNL     1      12.733 -10.503   4.031  1.00  0.00     0.031 A 
ATOM     50  C   UNL     1      12.116  -5.471   8.872  1.00  0.00     0.031 A 
ATOM     51  C   UNL     1      13.374 -10.784   5.289  1.00  0.00     0.049 A 
ATOM     52  C   UNL     1      12.847  -6.755   9.150  1.00  0.00     0.074 A 
ATOM     53  C   UNL     1      14.100 -11.904   5.655  1.00  0.00     0.029 A 
ATOM     54  N   UNL     1      13.365  -9.938   6.389  1.00  0.00    -0.354 N 
ATOM     55  N   UNL     1      13.059  -7.774   8.351  1.00  0.00    -0.248 NA
ATOM     56  C   UNL     1      13.428  -6.907  10.491  1.00  0.00     0.031 C 
ATOM     57  C   UNL     1      14.485 -11.758   6.993  1.00  0.00     0.029 A 
ATOM     58  C   UNL     1      14.056 -10.519   7.440  1.00  0.00     0.049 A 
ATOM     59  H   UNL     1      12.932  -9.055   6.418  1.00  0.00     0.167 HD
ATOM     60  C   UNL     1      13.813  -8.681   9.087  1.00  0.00     0.074 A 
ATOM     61  C   UNL     1      14.048  -8.073  10.381  1.00  0.00     0.031 C 
ATOM     62  C   UNL     1      14.265  -9.909   8.729  1.00  0.00     0.031 A 
BRANCH  49  63
ATOM     63  C   UNL     1      12.808 -11.541   2.940  1.00  0.00    -0.014 A 
ATOM     64  C   UNL     1      13.573 -11.314   1.780  1.00  0.00     0.010 A 
ATOM     65  C   UNL     1      12.153 -12.776   3.093  1.00  0.00     0.010 A 
ATOM     66  C   UNL     1      13.654 -12.288   0.781  1.00  0.00     0.020 A 
ATOM     67  C   UNL     1      12.256 -13.765   2.109  1.00  0.00     0.020 A 
ATOM     68  C   UNL     1      12.996 -13.509   0.953  1.00  0.00     0.054 A 
BRANCH  68  69
ATOM     69  S   UNL     1      13.152 -14.767  -0.344  1.00  0.00     0.124 S 
ATOM     70  O   UNL     1      12.357 -14.188  -1.424  1.00  0.00    -0.237 OA
ATOM     71  O   UNL     1      14.594 -14.806  -0.578  1.00  0.00    -0.237 OA
ATOM     72  O   UNL     1      12.590 -15.969   0.267  1.00  0.00    -0.744 OA
ENDBRANCH  68  69
ENDBRANCH  49  63
BRANCH  50  73
ATOM     73  C   UNL     1      11.963  -4.429   9.925  1.00  0.00    -0.014 A 
ATOM     74  C   UNL     1      13.075  -3.712  10.402  1.00  0.00     0.010 A 
ATOM     75  C   UNL     1      10.691  -4.147  10.456  1.00  0.00     0.010 A 
ATOM     76  C   UNL     1      12.922  -2.756  11.411  1.00  0.00     0.020 A 
ATOM     77  C   UNL     1      10.529  -3.168  11.439  1.00  0.00     0.020 A 
ATOM     78  C   UNL     1      11.648  -2.490  11.922  1.00  0.00     0.054 A 
BRANCH  78  79
ATOM     79  S   UNL     1      11.466  -1.219  13.204  1.00  0.00     0.124 S 
ATOM     80  O   UNL     1      12.030  -1.884  14.374  1.00  0.00    -0.237 OA
ATOM     81  O   UNL     1      12.250  -0.111  12.664  1.00  0.00    -0.237 OA
ATOM     82  O   UNL     1      10.024  -0.985  13.250  1.00  0.00    -0.744 OA
ENDBRANCH  78  79
ENDBRANCH  50  73
BRANCH  62  83
ATOM     83  C   UNL     1      15.075 -10.663   9.751  1.00  0.00    -0.014 A 
ATOM     84  C   UNL     1      14.486 -11.161  10.928  1.00  0.00     0.010 A 
ATOM     85  C   UNL     1      16.447 -10.882   9.529  1.00  0.00     0.010 A 
ATOM     86  C   UNL     1      15.265 -11.808  11.890  1.00  0.00     0.020 A 
ATOM     87  C   UNL     1      17.223 -11.559  10.473  1.00  0.00     0.020 A 
ATOM     88  C   UNL     1      16.631 -11.995  11.659  1.00  0.00     0.054 A 
BRANCH  88  89
ATOM     89  S   UNL     1      17.623 -12.833  12.926  1.00  0.00     0.124 S 
ATOM     90  O   UNL     1      17.723 -11.807  13.960  1.00  0.00    -0.237 OA
ATOM     91  O   UNL     1      16.798 -13.990  13.266  1.00  0.00    -0.237 OA
ATOM     92  O   UNL     1      18.872 -13.147  12.236  1.00  0.00    -0.744 OA
ENDBRANCH  88  89
ENDBRANCH  62  83
ENDBRANCH  36  37
ENDBRANCH  28  31
ENDBRANCH  26  27
ENDBRANCH  25  26
ENDBRANCH   1  25
TORSDOF 18
