REMARK SMILES CC[C@H](Oc1ccccc1/C=C1\SC(N)=[NH+]C1=O)C(=O)NCCCCNC(=O)c1ccc(-c2c3nc(c(-c4ccc(S(=O)(=O)[O-])cc4)c4ccc([nH]4)c(-c4ccc(S(=O)(=O)[O-])cc4)c4nc(c(-c5ccc(S(=O)(=O)[O-])cc5)c5ccc2[nH]5)C=C4)C=C3)cc1
REMARK SMILES IDX 23 1 22 2 21 3 19 4 20 5 3 7 2 8 1 9 4 10 5 11 6 12 10 13
REMARK SMILES IDX 7 14 9 15 8 16 11 17 12 18 13 19 17 20 14 21 16 22 18 23
REMARK SMILES IDX 15 24 24 28 25 29 26 30 27 31 28 33 29 34 30 35 88 36 31 37
REMARK SMILES IDX 87 38 32 39 33 40 34 41 81 42 35 43 86 44 80 45 82 46 36 47
REMARK SMILES IDX 85 48 79 49 78 50 37 52 67 53 48 54 66 55 49 56 52 57 65 58
REMARK SMILES IDX 83 59 50 60 51 61 64 63 84 64 53 65 38 66 39 67 47 68 40 69
REMARK SMILES IDX 46 70 41 71 42 72 43 73 44 74 45 75 68 76 69 77 77 78 70 79
REMARK SMILES IDX 76 80 71 81 72 82 73 83 74 84 75 85 54 86 55 87 63 88 56 89
REMARK SMILES IDX 62 90 57 91 58 92 59 93 60 94 61 95
REMARK H PARENT 21 6 16 25 15 26 15 27 26 32 82 51 52 62
REMARK Flexibility Score: inf
ROOT
ATOM      1  C   UNL     1      -3.098  -2.681   1.494  1.00  0.00     0.023 C 
ENDROOT
BRANCH   1   2
ATOM      2  C   UNL     1      -2.180  -1.888   2.416  1.00  0.00     0.116 C 
BRANCH   2   3
ATOM      3  N   UNL     1      -0.961  -2.573   2.753  1.00  0.00    -0.353 N 
ATOM      4  C   UNL     1       0.332  -2.160   2.655  1.00  0.00     0.261 C 
ATOM      5  O   UNL     1       1.184  -2.954   3.080  1.00  0.00    -0.271 OA
ATOM      6  H   UNL     1      -1.080  -3.482   3.111  1.00  0.00     0.163 HD
BRANCH   4   7
ATOM      7  C   UNL     1       0.774  -0.750   2.124  1.00  0.00     0.261 C 
BRANCH   7   8
ATOM      8  C   UNL     1       0.717   0.366   3.195  1.00  0.00     0.052 C 
ATOM      9  C   UNL     1      -0.524   0.438   4.075  1.00  0.00     0.008 C 
ENDBRANCH   7   8
BRANCH   7  10
ATOM     10  O   UNL     1       0.675  -0.299   0.767  1.00  0.00    -0.480 OA
BRANCH  10  11
ATOM     11  C   UNL     1      -0.533  -0.004   0.214  1.00  0.00     0.127 A 
ATOM     12  C   UNL     1      -1.345   1.013   0.729  1.00  0.00     0.047 A 
ATOM     13  C   UNL     1      -0.923  -0.662  -0.967  1.00  0.00     0.018 A 
ATOM     14  C   UNL     1      -2.621   1.240   0.207  1.00  0.00     0.004 A 
ATOM     15  C   UNL     1      -2.204  -0.419  -1.492  1.00  0.00     0.012 A 
ATOM     16  C   UNL     1      -3.062   0.501  -0.885  1.00  0.00     0.001 A 
BRANCH  13  17
ATOM     17  C   UNL     1      -0.006  -1.507  -1.752  1.00  0.00     0.036 C 
ATOM     18  C   UNL     1       0.336  -2.784  -1.542  1.00  0.00     0.110 C 
ATOM     19  S   UNL     1      -0.193  -3.833  -0.304  1.00  0.00     0.006 SA
ATOM     20  C   UNL     1       1.281  -3.532  -2.430  1.00  0.00     0.346 C 
ATOM     21  C   UNL     1       0.796  -5.102  -0.942  1.00  0.00     0.314 C 
ATOM     22  N   UNL     1       1.476  -4.831  -2.000  1.00  0.00    -0.200 N 
ATOM     23  O   UNL     1       1.801  -3.037  -3.422  1.00  0.00    -0.240 OA
ATOM     24  N   UNL     1       0.769  -6.272  -0.277  1.00  0.00    -0.281 N 
ATOM     25  H   UNL     1       2.068  -5.475  -2.452  1.00  0.00     0.316 HD
ATOM     26  H   UNL     1       0.209  -6.370   0.526  1.00  0.00     0.302 HD
ATOM     27  H   UNL     1       1.310  -7.031  -0.596  1.00  0.00     0.302 HD
ENDBRANCH  13  17
ENDBRANCH  10  11
ENDBRANCH   7  10
ENDBRANCH   4   7
ENDBRANCH   2   3
ENDBRANCH   1   2
BRANCH   1  28
ATOM     28  C   UNL     1      -3.880  -3.775   2.203  1.00  0.00     0.023 C 
BRANCH  28  29
ATOM     29  C   UNL     1      -4.744  -3.250   3.336  1.00  0.00     0.116 C 
BRANCH  29  30
ATOM     30  N   UNL     1      -5.624  -2.167   2.909  1.00  0.00    -0.352 N 
ATOM     31  C   UNL     1      -6.981  -2.055   3.074  1.00  0.00     0.251 C 
ATOM     32  H   UNL     1      -5.187  -1.419   2.441  1.00  0.00     0.163 HD
ATOM     33  O   UNL     1      -7.614  -1.185   2.488  1.00  0.00    -0.269 OA
BRANCH  31  34
ATOM     34  C   UNL     1      -7.653  -3.021   3.961  1.00  0.00     0.039 A 
ATOM     35  C   UNL     1      -8.822  -3.649   3.535  1.00  0.00     0.014 A 
ATOM     36  C   UNL     1      -7.071  -3.345   5.189  1.00  0.00     0.014 A 
ATOM     37  C   UNL     1      -9.389  -4.637   4.338  1.00  0.00     0.010 A 
ATOM     38  C   UNL     1      -7.561  -4.415   5.917  1.00  0.00     0.010 A 
ATOM     39  C   UNL     1      -8.750  -5.042   5.524  1.00  0.00    -0.014 A 
BRANCH  39  40
ATOM     40  C   UNL     1      -9.352  -6.063   6.413  1.00  0.00     0.031 A 
ATOM     41  C   UNL     1      -9.738  -5.681   7.819  1.00  0.00     0.074 A 
ATOM     42  C   UNL     1      -9.516  -7.326   5.974  1.00  0.00     0.049 A 
ATOM     43  N   UNL     1     -10.275  -6.418   8.755  1.00  0.00    -0.248 NA
ATOM     44  C   UNL     1      -9.450  -4.298   8.243  1.00  0.00     0.031 C 
ATOM     45  C   UNL     1      -9.132  -7.825   4.651  1.00  0.00     0.029 A 
ATOM     46  N   UNL     1     -10.062  -8.420   6.595  1.00  0.00    -0.354 N 
ATOM     47  C   UNL     1     -10.364  -5.599   9.874  1.00  0.00     0.074 A 
ATOM     48  C   UNL     1      -9.759  -4.335   9.529  1.00  0.00     0.031 C 
ATOM     49  C   UNL     1      -9.504  -9.110   4.541  1.00  0.00     0.029 A 
ATOM     50  C   UNL     1     -10.115  -9.537   5.796  1.00  0.00     0.049 A 
ATOM     51  H   UNL     1     -10.385  -8.406   7.524  1.00  0.00     0.167 HD
ATOM     52  C   UNL     1     -10.931  -5.861  11.075  1.00  0.00     0.031 A 
ATOM     53  C   UNL     1     -10.612 -10.764   6.046  1.00  0.00     0.031 A 
ATOM     54  C   UNL     1     -11.556  -7.112  11.401  1.00  0.00     0.049 A 
ATOM     55  C   UNL     1     -11.248 -11.029   7.385  1.00  0.00     0.074 A 
ATOM     56  C   UNL     1     -12.219  -7.465  12.562  1.00  0.00     0.029 A 
ATOM     57  N   UNL     1     -11.595  -8.216  10.562  1.00  0.00    -0.354 N 
ATOM     58  N   UNL     1     -11.391 -10.218   8.407  1.00  0.00    -0.248 NA
ATOM     59  C   UNL     1     -11.810 -12.369   7.594  1.00  0.00     0.031 C 
ATOM     60  C   UNL     1     -12.605  -8.805  12.450  1.00  0.00     0.029 A 
ATOM     61  C   UNL     1     -12.252  -9.260  11.189  1.00  0.00     0.049 A 
ATOM     62  H   UNL     1     -11.213  -8.251   9.656  1.00  0.00     0.167 HD
ATOM     63  C   UNL     1     -12.100 -10.937   9.364  1.00  0.00     0.074 A 
ATOM     64  C   UNL     1     -12.362 -12.242   8.792  1.00  0.00     0.031 C 
ATOM     65  C   UNL     1     -12.505 -10.551  10.600  1.00  0.00     0.031 A 
BRANCH  52  66
ATOM     66  C   UNL     1     -10.889  -4.774  12.118  1.00  0.00    -0.014 A 
ATOM     67  C   UNL     1     -11.606  -3.573  11.957  1.00  0.00     0.010 A 
ATOM     68  C   UNL     1     -10.135  -4.965  13.290  1.00  0.00     0.010 A 
ATOM     69  C   UNL     1     -11.530  -2.567  12.923  1.00  0.00     0.020 A 
ATOM     70  C   UNL     1     -10.086  -3.976  14.276  1.00  0.00     0.020 A 
ATOM     71  C   UNL     1     -10.769  -2.775  14.077  1.00  0.00     0.054 A 
BRANCH  71  72
ATOM     72  S   UNL     1     -10.707  -1.461  15.325  1.00  0.00     0.124 S 
ATOM     73  O   UNL     1      -9.888  -0.451  14.658  1.00  0.00    -0.237 OA
ATOM     74  O   UNL     1     -12.116  -1.115  15.494  1.00  0.00    -0.237 OA
ATOM     75  O   UNL     1     -10.083  -2.106  16.477  1.00  0.00    -0.744 OA
ENDBRANCH  71  72
ENDBRANCH  52  66
BRANCH  53  76
ATOM     76  C   UNL     1     -10.573 -11.816   4.993  1.00  0.00    -0.014 A 
ATOM     77  C   UNL     1     -11.760 -12.261   4.383  1.00  0.00     0.010 A 
ATOM     78  C   UNL     1      -9.348 -12.378   4.591  1.00  0.00     0.010 A 
ATOM     79  C   UNL     1     -11.726 -13.266   3.411  1.00  0.00     0.020 A 
ATOM     80  C   UNL     1      -9.306 -13.360   3.597  1.00  0.00     0.020 A 
ATOM     81  C   UNL     1     -10.497 -13.807   3.023  1.00  0.00     0.054 A 
BRANCH  81  82
ATOM     82  S   UNL     1     -10.474 -15.081   1.730  1.00  0.00     0.124 S 
ATOM     83  O   UNL     1     -11.048 -16.229   2.424  1.00  0.00    -0.237 OA
ATOM     84  O   UNL     1     -11.308 -14.486   0.689  1.00  0.00    -0.237 OA
ATOM     85  O   UNL     1      -9.057 -15.197   1.392  1.00  0.00    -0.744 OA
ENDBRANCH  81  82
ENDBRANCH  53  76
BRANCH  65  86
ATOM     86  C   UNL     1     -13.332 -11.529  11.393  1.00  0.00    -0.014 A 
ATOM     87  C   UNL     1     -12.783 -12.715  11.910  1.00  0.00     0.010 A 
ATOM     88  C   UNL     1     -14.682 -11.227  11.654  1.00  0.00     0.010 A 
ATOM     89  C   UNL     1     -13.585 -13.609  12.625  1.00  0.00     0.020 A 
ATOM     90  C   UNL     1     -15.476 -12.099  12.401  1.00  0.00     0.020 A 
ATOM     91  C   UNL     1     -14.927 -13.296  12.863  1.00  0.00     0.054 A 
BRANCH  91  92
ATOM     92  S   UNL     1     -15.943 -14.465  13.805  1.00  0.00     0.124 S 
ATOM     93  O   UNL     1     -16.130 -15.548  12.843  1.00  0.00    -0.237 OA
ATOM     94  O   UNL     1     -15.091 -14.780  14.949  1.00  0.00    -0.237 OA
ATOM     95  O   UNL     1     -17.147 -13.700  14.123  1.00  0.00    -0.744 OA
ENDBRANCH  91  92
ENDBRANCH  65  86
ENDBRANCH  39  40
ENDBRANCH  31  34
ENDBRANCH  29  30
ENDBRANCH  28  29
ENDBRANCH   1  28
TORSDOF 18
