REMARK SMILES COc1ccc(C(=O)Nc2cc(C(=O)NCCCCNC(=O)c3ccc(-c4c5nc(c(-c6ccc(S(=O)(=O)[O-])cc6)c6ccc([nH]6)c(-c6ccc(S(=O)(=O)[O-])cc6)c6nc(c(-c7ccc(S(=O)(=O)[O-])cc7)c7ccc4[nH]7)C=C6)C=C5)cc3)c(Cl)cc2Cl)cc1Cl
REMARK SMILES IDX 17 1 16 2 15 3 13 4 14 5 12 7 10 8 11 9 86 10 85 11 87 12
REMARK SMILES IDX 83 13 84 14 9 15 7 16 8 17 6 19 3 20 4 21 89 22 5 23 88 24
REMARK SMILES IDX 90 25 2 26 1 27 18 28 19 29 20 30 21 31 22 33 23 34 24 35
REMARK SMILES IDX 82 36 25 37 81 38 26 39 27 40 28 41 75 42 29 43 80 44 74 45
REMARK SMILES IDX 76 46 30 47 79 48 73 49 72 50 31 52 61 53 42 54 60 55 43 56
REMARK SMILES IDX 46 57 59 58 77 59 44 60 45 61 58 63 78 64 47 65 32 66 33 67
REMARK SMILES IDX 41 68 34 69 40 70 35 71 36 72 37 73 38 74 39 75 62 76 63 77
REMARK SMILES IDX 71 78 64 79 70 80 65 81 66 82 67 83 68 84 69 85 48 86 49 87
REMARK SMILES IDX 57 88 50 89 56 90 51 91 52 92 53 93 54 94 55 95
REMARK H PARENT 15 6 9 18 20 32 76 51 46 62
REMARK Flexibility Score: inf
ROOT
ATOM      1  C   UNL     1       6.614  -0.261   0.149  1.00  0.00     0.023 C 
ENDROOT
BRANCH   1   2
ATOM      2  C   UNL     1       7.031   0.829  -0.836  1.00  0.00     0.116 C 
BRANCH   2   3
ATOM      3  N   UNL     1       6.506   0.677  -2.182  1.00  0.00    -0.352 N 
ATOM      4  C   UNL     1       6.136   1.625  -3.109  1.00  0.00     0.252 C 
ATOM      5  O   UNL     1       5.799   1.262  -4.235  1.00  0.00    -0.269 OA
ATOM      6  H   UNL     1       6.398  -0.255  -2.480  1.00  0.00     0.163 HD
BRANCH   4   7
ATOM      7  C   UNL     1       6.005   3.065  -2.778  1.00  0.00     0.060 A 
ATOM      8  C   UNL     1       4.492   4.995  -2.820  1.00  0.00     0.061 A 
ATOM      9  C   UNL     1       4.770   3.658  -3.127  1.00  0.00     0.043 A 
ATOM     10  C   UNL     1       5.499   5.765  -2.218  1.00  0.00     0.066 A 
ATOM     11  C   UNL     1       6.742   5.206  -1.921  1.00  0.00     0.044 A 
ATOM     12  Cl  UNL     1       5.220   7.415  -1.778  1.00  0.00    -0.082 Cl
ATOM     13  C   UNL     1       7.010   3.868  -2.232  1.00  0.00     0.055 A 
ATOM     14  Cl  UNL     1       8.641   3.347  -2.019  1.00  0.00    -0.083 Cl
BRANCH   8  15
ATOM     15  N   UNL     1       3.252   5.609  -3.102  1.00  0.00    -0.321 N 
ATOM     16  C   UNL     1       1.971   5.120  -3.233  1.00  0.00     0.255 C 
ATOM     17  O   UNL     1       1.115   5.828  -3.764  1.00  0.00    -0.269 OA
ATOM     18  H   UNL     1       3.316   6.583  -3.231  1.00  0.00     0.170 HD
BRANCH  16  19
ATOM     19  C   UNL     1       1.553   3.819  -2.642  1.00  0.00     0.041 A 
ATOM     20  C   UNL     1       0.744   1.327  -1.593  1.00  0.00     0.137 A 
ATOM     21  C   UNL     1       0.031   1.939  -2.636  1.00  0.00     0.049 A 
ATOM     22  C   UNL     1       1.856   1.989  -1.065  1.00  0.00     0.083 A 
ATOM     23  C   UNL     1       0.432   3.170  -3.163  1.00  0.00     0.018 A 
ATOM     24  C   UNL     1       2.204   3.257  -1.542  1.00  0.00     0.038 A 
ATOM     25  Cl  UNL     1       2.943   1.323   0.100  1.00  0.00    -0.080 Cl
BRANCH  20  26
ATOM     26  O   UNL     1       0.253   0.095  -1.261  1.00  0.00    -0.495 OA
ATOM     27  C   UNL     1       0.368  -0.315   0.095  1.00  0.00     0.278 C 
ENDBRANCH  20  26
ENDBRANCH  16  19
ENDBRANCH   8  15
ENDBRANCH   4   7
ENDBRANCH   2   3
ENDBRANCH   1   2
BRANCH   1  28
ATOM     28  C   UNL     1       7.005  -1.699  -0.191  1.00  0.00     0.023 C 
BRANCH  28  29
ATOM     29  C   UNL     1       8.450  -1.946  -0.610  1.00  0.00     0.116 C 
BRANCH  29  30
ATOM     30  N   UNL     1       9.438  -1.514   0.368  1.00  0.00    -0.352 N 
ATOM     31  C   UNL     1      10.482  -2.206   0.941  1.00  0.00     0.251 C 
ATOM     32  H   UNL     1       9.345  -0.581   0.666  1.00  0.00     0.163 HD
ATOM     33  O   UNL     1      11.171  -1.659   1.799  1.00  0.00    -0.269 OA
BRANCH  31  34
ATOM     34  C   UNL     1      10.749  -3.615   0.569  1.00  0.00     0.039 A 
ATOM     35  C   UNL     1      10.977  -4.547   1.586  1.00  0.00     0.014 A 
ATOM     36  C   UNL     1      10.753  -4.028  -0.765  1.00  0.00     0.014 A 
ATOM     37  C   UNL     1      11.105  -5.904   1.272  1.00  0.00     0.010 A 
ATOM     38  C   UNL     1      10.799  -5.387  -1.069  1.00  0.00     0.010 A 
ATOM     39  C   UNL     1      10.962  -6.343  -0.054  1.00  0.00    -0.014 A 
BRANCH  39  40
ATOM     40  C   UNL     1      10.949  -7.791  -0.397  1.00  0.00     0.031 A 
ATOM     41  C   UNL     1      11.998  -8.366  -1.311  1.00  0.00     0.074 A 
ATOM     42  C   UNL     1       9.944  -8.573   0.047  1.00  0.00     0.049 A 
ATOM     43  N   UNL     1      12.099  -9.581  -1.788  1.00  0.00    -0.248 NA
ATOM     44  C   UNL     1      13.055  -7.451  -1.770  1.00  0.00     0.031 C 
ATOM     45  C   UNL     1       8.837  -8.132   0.901  1.00  0.00     0.029 A 
ATOM     46  N   UNL     1       9.682  -9.905  -0.166  1.00  0.00    -0.354 N 
ATOM     47  C   UNL     1      13.214  -9.570  -2.619  1.00  0.00     0.074 A 
ATOM     48  C   UNL     1      13.728  -8.217  -2.616  1.00  0.00     0.031 C 
ATOM     49  C   UNL     1       8.033  -9.177   1.157  1.00  0.00     0.029 A 
ATOM     50  C   UNL     1       8.538 -10.352   0.455  1.00  0.00     0.049 A 
ATOM     51  H   UNL     1      10.259 -10.486  -0.713  1.00  0.00     0.167 HD
ATOM     52  C   UNL     1      13.772 -10.595  -3.306  1.00  0.00     0.031 A 
ATOM     53  C   UNL     1       7.954 -11.566   0.455  1.00  0.00     0.031 A 
ATOM     54  C   UNL     1      13.271 -11.944  -3.295  1.00  0.00     0.049 A 
ATOM     55  C   UNL     1       8.593 -12.689  -0.316  1.00  0.00     0.074 A 
ATOM     56  C   UNL     1      13.803 -13.064  -3.911  1.00  0.00     0.029 A 
ATOM     57  N   UNL     1      12.123 -12.357  -2.637  1.00  0.00    -0.354 N 
ATOM     58  N   UNL     1       9.685 -12.672  -1.042  1.00  0.00    -0.248 NA
ATOM     59  C   UNL     1       7.926 -13.997  -0.259  1.00  0.00     0.031 C 
ATOM     60  C   UNL     1      12.950 -14.145  -3.664  1.00  0.00     0.029 A 
ATOM     61  C   UNL     1      11.917 -13.710  -2.849  1.00  0.00     0.049 A 
ATOM     62  H   UNL     1      11.539 -11.775  -2.099  1.00  0.00     0.167 HD
ATOM     63  C   UNL     1       9.850 -13.972  -1.506  1.00  0.00     0.074 A 
ATOM     64  C   UNL     1       8.755 -14.752  -0.967  1.00  0.00     0.031 C 
ATOM     65  C   UNL     1      10.823 -14.475  -2.306  1.00  0.00     0.031 A 
BRANCH  52  66
ATOM     66  C   UNL     1      14.995 -10.293  -4.133  1.00  0.00    -0.014 A 
ATOM     67  C   UNL     1      16.227  -9.991  -3.523  1.00  0.00     0.010 A 
ATOM     68  C   UNL     1      14.923 -10.348  -5.537  1.00  0.00     0.010 A 
ATOM     69  C   UNL     1      17.351  -9.705  -4.301  1.00  0.00     0.020 A 
ATOM     70  C   UNL     1      16.053 -10.091  -6.319  1.00  0.00     0.020 A 
ATOM     71  C   UNL     1      17.256  -9.753  -5.695  1.00  0.00     0.054 A 
BRANCH  71  72
ATOM     72  S   UNL     1      18.736  -9.395  -6.680  1.00  0.00     0.124 S 
ATOM     73  O   UNL     1      18.855  -7.947  -6.528  1.00  0.00    -0.237 OA
ATOM     74  O   UNL     1      19.767 -10.182  -6.008  1.00  0.00    -0.237 OA
ATOM     75  O   UNL     1      18.381  -9.853  -8.020  1.00  0.00    -0.744 OA
ENDBRANCH  71  72
ENDBRANCH  52  66
BRANCH  53  76
ATOM     76  C   UNL     1       6.699 -11.789   1.225  1.00  0.00    -0.014 A 
ATOM     77  C   UNL     1       6.711 -12.565   2.397  1.00  0.00     0.010 A 
ATOM     78  C   UNL     1       5.487 -11.218   0.796  1.00  0.00     0.010 A 
ATOM     79  C   UNL     1       5.532 -12.782   3.117  1.00  0.00     0.020 A 
ATOM     80  C   UNL     1       4.311 -11.410   1.528  1.00  0.00     0.020 A 
ATOM     81  C   UNL     1       4.339 -12.200   2.678  1.00  0.00     0.054 A 
BRANCH  81  82
ATOM     82  S   UNL     1       2.831 -12.450   3.657  1.00  0.00     0.124 S 
ATOM     83  O   UNL     1       2.487 -13.832   3.338  1.00  0.00    -0.237 OA
ATOM     84  O   UNL     1       3.297 -12.212   5.021  1.00  0.00    -0.237 OA
ATOM     85  O   UNL     1       1.915 -11.439   3.135  1.00  0.00    -0.744 OA
ENDBRANCH  81  82
ENDBRANCH  53  76
BRANCH  65  86
ATOM     86  C   UNL     1      10.770 -15.946  -2.622  1.00  0.00    -0.014 A 
ATOM     87  C   UNL     1       9.809 -16.468  -3.505  1.00  0.00     0.010 A 
ATOM     88  C   UNL     1      11.734 -16.808  -2.068  1.00  0.00     0.010 A 
ATOM     89  C   UNL     1       9.795 -17.833  -3.805  1.00  0.00     0.020 A 
ATOM     90  C   UNL     1      11.740 -18.168  -2.387  1.00  0.00     0.020 A 
ATOM     91  C   UNL     1      10.761 -18.675  -3.244  1.00  0.00     0.054 A 
BRANCH  91  92
ATOM     92  S   UNL     1      10.750 -20.434  -3.684  1.00  0.00     0.124 S 
ATOM     93  O   UNL     1       9.608 -20.931  -2.922  1.00  0.00    -0.237 OA
ATOM     94  O   UNL     1      10.572 -20.401  -5.134  1.00  0.00    -0.237 OA
ATOM     95  O   UNL     1      12.055 -20.912  -3.235  1.00  0.00    -0.744 OA
ENDBRANCH  91  92
ENDBRANCH  65  86
ENDBRANCH  39  40
ENDBRANCH  31  34
ENDBRANCH  29  30
ENDBRANCH  28  29
ENDBRANCH   1  28
TORSDOF 17
