REMARK SMILES Cc1ccc(NC(=O)C[C@@H](C(=O)NCCCCNC(=O)c2ccc(-c3c4nc(c(-c5ccc(S(=O)(=O)[O-])cc5)c5ccc([nH]5)c(-c5ccc(S(=O)(=O)[O-])cc5)c5nc(c(-c6ccc(S(=O)(=O)[O-])cc6)c6ccc3[nH]6)C=C5)C=C4)cc2)[NH+]2CCOCC2)cc1
REMARK SMILES IDX 15 1 14 2 13 3 11 4 12 5 10 7 9 8 7 9 6 10 8 12 5 13 1 14
REMARK SMILES IDX 2 15 3 16 88 17 4 18 87 19 81 20 82 21 86 22 83 24 85 25
REMARK SMILES IDX 84 26 16 27 17 28 18 29 19 30 20 32 21 33 22 34 80 35 23 36
REMARK SMILES IDX 79 37 24 38 25 39 26 40 73 41 27 42 78 43 72 44 74 45 28 46
REMARK SMILES IDX 77 47 71 48 70 49 29 51 59 52 40 53 58 54 41 55 44 56 57 57
REMARK SMILES IDX 75 58 42 59 43 60 56 62 76 63 45 64 30 65 31 66 39 67 32 68
REMARK SMILES IDX 38 69 33 70 34 71 35 72 36 73 37 74 60 75 61 76 69 77 62 78
REMARK SMILES IDX 68 79 63 80 64 81 65 82 66 83 67 84 46 85 47 86 55 87 48 88
REMARK SMILES IDX 54 89 49 90 50 91 51 92 52 93 53 94
REMARK H PARENT 13 6 6 11 81 23 18 31 74 50 44 61
REMARK Flexibility Score: inf
ROOT
ATOM      1  C   UNL     1      -4.628   0.926  -0.553  1.00  0.00     0.023 C 
ENDROOT
BRANCH   1   2
ATOM      2  C   UNL     1      -4.076   0.073  -1.711  1.00  0.00     0.116 C 
BRANCH   2   3
ATOM      3  N   UNL     1      -2.641  -0.148  -1.679  1.00  0.00    -0.351 N 
ATOM      4  C   UNL     1      -1.844  -1.246  -1.604  1.00  0.00     0.278 C 
ATOM      5  O   UNL     1      -0.642  -1.017  -1.798  1.00  0.00    -0.268 OA
ATOM      6  H   UNL     1      -2.127   0.691  -1.722  1.00  0.00     0.163 HD
BRANCH   4   7
ATOM      7  C   UNL     1      -2.383  -2.701  -1.365  1.00  0.00     0.283 C 
BRANCH   7   8
ATOM      8  C   UNL     1      -2.883  -2.988   0.069  1.00  0.00     0.175 C 
BRANCH   8   9
ATOM      9  C   UNL     1      -3.315  -1.884   0.997  1.00  0.00     0.230 C 
ATOM     10  N   UNL     1      -2.458  -0.974   1.540  1.00  0.00    -0.326 N 
ATOM     11  H   UNL     1      -2.899  -0.303   2.109  1.00  0.00     0.169 HD
ATOM     12  O   UNL     1      -4.507  -1.822   1.319  1.00  0.00    -0.274 OA
BRANCH  10  13
ATOM     13  C   UNL     1      -1.065  -0.808   1.444  1.00  0.00     0.041 A 
ATOM     14  C   UNL     1       2.962   0.109   0.250  1.00  0.00     0.044 C 
ATOM     15  C   UNL     1       1.604  -0.206   0.798  1.00  0.00    -0.051 A 
ATOM     16  C   UNL     1       1.162  -1.530   0.828  1.00  0.00     0.005 A 
ATOM     17  C   UNL     1       0.740   0.802   1.228  1.00  0.00     0.005 A 
ATOM     18  C   UNL     1      -0.162  -1.828   1.160  1.00  0.00     0.026 A 
ATOM     19  C   UNL     1      -0.579   0.497   1.576  1.00  0.00     0.026 A 
ENDBRANCH  10  13
ENDBRANCH   8   9
ENDBRANCH   7   8
BRANCH   7  20
ATOM     20  N   UNL     1      -1.317  -3.693  -1.763  1.00  0.00    -0.320 N 
ATOM     21  C   UNL     1      -0.918  -3.636  -3.188  1.00  0.00     0.291 C 
ATOM     22  C   UNL     1      -1.421  -5.100  -1.345  1.00  0.00     0.291 C 
ATOM     23  H   UNL     1      -0.582  -3.316  -1.164  1.00  0.00     0.348 HD
ATOM     24  C   UNL     1      -1.688  -4.600  -4.106  1.00  0.00     0.221 C 
ATOM     25  C   UNL     1      -2.188  -6.013  -2.306  1.00  0.00     0.221 C 
ATOM     26  O   UNL     1      -1.641  -5.949  -3.624  1.00  0.00    -0.370 OA
ENDBRANCH   7  20
ENDBRANCH   4   7
ENDBRANCH   2   3
ENDBRANCH   1   2
BRANCH   1  27
ATOM     27  C   UNL     1      -3.718   2.007   0.037  1.00  0.00     0.023 C 
BRANCH  27  28
ATOM     28  C   UNL     1      -3.746   3.333  -0.709  1.00  0.00     0.116 C 
BRANCH  28  29
ATOM     29  N   UNL     1      -4.266   4.433   0.109  1.00  0.00    -0.352 N 
ATOM     30  C   UNL     1      -4.194   5.786  -0.164  1.00  0.00     0.251 C 
ATOM     31  H   UNL     1      -4.717   4.179   0.947  1.00  0.00     0.163 HD
ATOM     32  O   UNL     1      -4.551   6.659   0.620  1.00  0.00    -0.269 OA
BRANCH  30  33
ATOM     33  C   UNL     1      -3.717   6.138  -1.510  1.00  0.00     0.039 A 
ATOM     34  C   UNL     1      -4.695   6.354  -2.487  1.00  0.00     0.014 A 
ATOM     35  C   UNL     1      -2.403   5.814  -1.837  1.00  0.00     0.014 A 
ATOM     36  C   UNL     1      -4.399   6.053  -3.810  1.00  0.00     0.010 A 
ATOM     37  C   UNL     1      -2.144   5.426  -3.136  1.00  0.00     0.010 A 
ATOM     38  C   UNL     1      -3.155   5.494  -4.107  1.00  0.00    -0.014 A 
BRANCH  38  39
ATOM     39  C   UNL     1      -2.851   4.884  -5.395  1.00  0.00     0.031 A 
ATOM     40  C   UNL     1      -1.982   5.610  -6.345  1.00  0.00     0.074 A 
ATOM     41  C   UNL     1      -3.328   3.661  -5.723  1.00  0.00     0.049 A 
ATOM     42  N   UNL     1      -2.044   5.483  -7.628  1.00  0.00    -0.248 NA
ATOM     43  C   UNL     1      -0.992   6.591  -5.907  1.00  0.00     0.031 C 
ATOM     44  C   UNL     1      -2.917   2.845  -6.864  1.00  0.00     0.029 A 
ATOM     45  N   UNL     1      -4.450   2.995  -5.222  1.00  0.00    -0.354 N 
ATOM     46  C   UNL     1      -0.926   6.095  -8.145  1.00  0.00     0.074 A 
ATOM     47  C   UNL     1      -0.352   6.843  -7.051  1.00  0.00     0.031 C 
ATOM     48  C   UNL     1      -3.916   2.003  -7.170  1.00  0.00     0.029 A 
ATOM     49  C   UNL     1      -5.042   2.347  -6.319  1.00  0.00     0.049 A 
ATOM     50  H   UNL     1      -4.763   2.983  -4.288  1.00  0.00     0.167 HD
ATOM     51  C   UNL     1      -0.491   5.784  -9.397  1.00  0.00     0.031 A 
ATOM     52  C   UNL     1      -6.314   2.583  -6.754  1.00  0.00     0.031 A 
ATOM     53  C   UNL     1      -1.374   4.836 -10.066  1.00  0.00     0.049 A 
ATOM     54  C   UNL     1      -6.377   3.019  -8.205  1.00  0.00     0.074 A 
ATOM     55  C   UNL     1      -1.307   3.469 -10.280  1.00  0.00     0.029 A 
ATOM     56  N   UNL     1      -2.677   5.215 -10.363  1.00  0.00    -0.354 N 
ATOM     57  N   UNL     1      -5.343   3.412  -8.897  1.00  0.00    -0.248 NA
ATOM     58  C   UNL     1      -7.614   3.096  -8.976  1.00  0.00     0.031 C 
ATOM     59  C   UNL     1      -2.596   3.018 -10.662  1.00  0.00     0.029 A 
ATOM     60  C   UNL     1      -3.439   4.114 -10.701  1.00  0.00     0.049 A 
ATOM     61  H   UNL     1      -3.011   6.141 -10.336  1.00  0.00     0.167 HD
ATOM     62  C   UNL     1      -5.737   3.794 -10.156  1.00  0.00     0.074 A 
ATOM     63  C   UNL     1      -7.171   3.562 -10.158  1.00  0.00     0.031 C 
ATOM     64  C   UNL     1      -4.841   4.275 -11.072  1.00  0.00     0.031 A 
BRANCH  51  65
ATOM     65  C   UNL     1       0.915   6.106  -9.838  1.00  0.00    -0.014 A 
ATOM     66  C   UNL     1       1.645   5.165 -10.589  1.00  0.00     0.010 A 
ATOM     67  C   UNL     1       1.591   7.289  -9.481  1.00  0.00     0.010 A 
ATOM     68  C   UNL     1       3.007   5.338 -10.871  1.00  0.00     0.020 A 
ATOM     69  C   UNL     1       2.965   7.457  -9.719  1.00  0.00     0.020 A 
ATOM     70  C   UNL     1       3.668   6.471 -10.404  1.00  0.00     0.054 A 
BRANCH  70  71
ATOM     71  S   UNL     1       5.453   6.620 -10.682  1.00  0.00     0.124 S 
ATOM     72  O   UNL     1       5.960   5.344 -10.182  1.00  0.00    -0.237 OA
ATOM     73  O   UNL     1       5.528   6.804 -12.128  1.00  0.00    -0.237 OA
ATOM     74  O   UNL     1       5.831   7.785  -9.884  1.00  0.00    -0.744 OA
ENDBRANCH  70  71
ENDBRANCH  51  65
BRANCH  52  75
ATOM     75  C   UNL     1      -7.260   3.018  -5.690  1.00  0.00    -0.014 A 
ATOM     76  C   UNL     1      -7.616   2.071  -4.705  1.00  0.00     0.010 A 
ATOM     77  C   UNL     1      -7.456   4.383  -5.423  1.00  0.00     0.010 A 
ATOM     78  C   UNL     1      -8.008   2.484  -3.429  1.00  0.00     0.020 A 
ATOM     79  C   UNL     1      -7.854   4.799  -4.144  1.00  0.00     0.020 A 
ATOM     80  C   UNL     1      -8.070   3.848  -3.142  1.00  0.00     0.054 A 
BRANCH  80  81
ATOM     81  S   UNL     1      -8.240   4.348  -1.402  1.00  0.00     0.124 S 
ATOM     82  O   UNL     1      -9.580   3.873  -1.074  1.00  0.00    -0.237 OA
ATOM     83  O   UNL     1      -7.141   3.620  -0.768  1.00  0.00    -0.237 OA
ATOM     84  O   UNL     1      -8.075   5.797  -1.453  1.00  0.00    -0.744 OA
ENDBRANCH  80  81
ENDBRANCH  52  75
BRANCH  64  85
ATOM     85  C   UNL     1      -5.136   4.887 -12.431  1.00  0.00    -0.014 A 
ATOM     86  C   UNL     1      -6.400   5.284 -12.886  1.00  0.00     0.010 A 
ATOM     87  C   UNL     1      -4.042   5.176 -13.292  1.00  0.00     0.010 A 
ATOM     88  C   UNL     1      -6.571   5.896 -14.141  1.00  0.00     0.020 A 
ATOM     89  C   UNL     1      -4.192   5.823 -14.521  1.00  0.00     0.020 A 
ATOM     90  C   UNL     1      -5.466   6.163 -14.950  1.00  0.00     0.054 A 
BRANCH  90  91
ATOM     91  S   UNL     1      -5.695   7.017 -16.529  1.00  0.00     0.124 S 
ATOM     92  O   UNL     1      -6.080   5.920 -17.413  1.00  0.00    -0.237 OA
ATOM     93  O   UNL     1      -6.753   7.979 -16.227  1.00  0.00    -0.237 OA
ATOM     94  O   UNL     1      -4.386   7.608 -16.795  1.00  0.00    -0.744 OA
ENDBRANCH  90  91
ENDBRANCH  64  85
ENDBRANCH  38  39
ENDBRANCH  30  33
ENDBRANCH  28  29
ENDBRANCH  27  28
ENDBRANCH   1  27
TORSDOF 18
