REMARK SMILES CC(C)(C(=O)NCCCCNC(=O)c1ccc(-c2c3nc(c(-c4ccc(S(=O)(=O)[O-])cc4)c4ccc([nH]4)c(-c4ccc(S(=O)(=O)[O-])cc4)c4nc(c(-c5ccc(S(=O)(=O)[O-])cc5)c5ccc2[nH]5)C=C4)C=C3)cc1)c1ccc(C(=O)CCCCl)cc1
REMARK SMILES IDX 7 1 6 2 4 3 5 4 2 6 1 7 3 8 74 9 75 10 85 11 76 12 84 13
REMARK SMILES IDX 77 14 78 15 79 16 80 17 81 18 82 19 83 20 8 21 9 22 10 23
REMARK SMILES IDX 11 24 12 25 13 27 14 28 15 29 73 30 16 31 72 32 17 33 18 34
REMARK SMILES IDX 19 35 66 36 20 37 71 38 65 39 67 40 21 41 70 42 64 43 63 44
REMARK SMILES IDX 22 46 52 47 33 48 51 49 34 50 37 51 50 52 68 53 35 54 36 55
REMARK SMILES IDX 49 57 69 58 38 59 23 60 24 61 32 62 25 63 31 64 26 65 27 66
REMARK SMILES IDX 28 67 29 68 30 69 53 70 54 71 62 72 55 73 61 74 56 75 57 76
REMARK SMILES IDX 58 77 59 78 60 79 39 80 40 81 48 82 41 83 47 84 42 85 43 86
REMARK SMILES IDX 44 87 45 88 46 89
REMARK H PARENT 6 5 11 26 67 45 37 56
REMARK Flexibility Score: inf
ROOT
ATOM      1  C   UNL     1      -0.983  -2.200  -1.126  1.00  0.00     0.116 C 
ENDROOT
BRANCH   1   2
ATOM      2  N   UNL     1      -1.509  -0.865  -1.344  1.00  0.00    -0.355 N 
ATOM      3  C   UNL     1      -0.917   0.357  -1.476  1.00  0.00     0.230 C 
ATOM      4  O   UNL     1      -1.685   1.256  -1.835  1.00  0.00    -0.274 OA
ATOM      5  H   UNL     1      -2.491  -0.836  -1.411  1.00  0.00     0.163 HD
BRANCH   3   6
ATOM      6  C   UNL     1       0.617   0.577  -1.293  1.00  0.00     0.068 C 
ATOM      7  C   UNL     1       1.135  -0.009   0.034  1.00  0.00     0.026 C 
ATOM      8  C   UNL     1       1.269  -0.095  -2.528  1.00  0.00     0.026 C 
BRANCH   6   9
ATOM      9  C   UNL     1       1.056   2.073  -1.243  1.00  0.00    -0.033 A 
ATOM     10  C   UNL     1       2.378   2.436  -1.569  1.00  0.00     0.005 A 
ATOM     11  C   UNL     1       0.204   3.100  -0.806  1.00  0.00     0.005 A 
ATOM     12  C   UNL     1       2.785   3.771  -1.592  1.00  0.00     0.012 A 
ATOM     13  C   UNL     1       0.604   4.442  -0.832  1.00  0.00     0.012 A 
ATOM     14  C   UNL     1       1.879   4.784  -1.280  1.00  0.00     0.018 A 
BRANCH  14  15
ATOM     15  C   UNL     1       2.306   6.192  -1.498  1.00  0.00     0.162 C 
ATOM     16  O   UNL     1       3.507   6.462  -1.518  1.00  0.00    -0.294 OA
BRANCH  15  17
ATOM     17  C   UNL     1       1.266   7.257  -1.794  1.00  0.00     0.082 C 
BRANCH  17  18
ATOM     18  C   UNL     1       0.806   7.243  -3.256  1.00  0.00     0.024 C 
BRANCH  18  19
ATOM     19  C   UNL     1      -0.313   6.262  -3.600  1.00  0.00     0.110 C 
ATOM     20  Cl  UNL     1      -1.804   6.616  -2.697  1.00  0.00    -0.127 Cl
ENDBRANCH  18  19
ENDBRANCH  17  18
ENDBRANCH  15  17
ENDBRANCH  14  15
ENDBRANCH   6   9
ENDBRANCH   3   6
ENDBRANCH   1   2
BRANCH   1  21
ATOM     21  C   UNL     1      -1.369  -2.749   0.244  1.00  0.00     0.023 C 
BRANCH  21  22
ATOM     22  C   UNL     1      -2.865  -3.007   0.427  1.00  0.00     0.023 C 
BRANCH  22  23
ATOM     23  C   UNL     1      -3.515  -3.869  -0.649  1.00  0.00     0.116 C 
BRANCH  23  24
ATOM     24  N   UNL     1      -2.852  -5.152  -0.830  1.00  0.00    -0.352 N 
ATOM     25  C   UNL     1      -3.411  -6.400  -0.975  1.00  0.00     0.251 C 
ATOM     26  H   UNL     1      -1.868  -5.122  -0.852  1.00  0.00     0.163 HD
ATOM     27  O   UNL     1      -2.697  -7.394  -0.995  1.00  0.00    -0.269 OA
BRANCH  25  28
ATOM     28  C   UNL     1      -4.880  -6.527  -1.069  1.00  0.00     0.039 A 
ATOM     29  C   UNL     1      -5.530  -7.454  -0.251  1.00  0.00     0.014 A 
ATOM     30  C   UNL     1      -5.612  -5.709  -1.933  1.00  0.00     0.014 A 
ATOM     31  C   UNL     1      -6.924  -7.511  -0.249  1.00  0.00     0.010 A 
ATOM     32  C   UNL     1      -7.002  -5.718  -1.876  1.00  0.00     0.010 A 
ATOM     33  C   UNL     1      -7.673  -6.618  -1.034  1.00  0.00    -0.014 A 
BRANCH  33  34
ATOM     34  C   UNL     1      -9.156  -6.604  -0.982  1.00  0.00     0.031 A 
ATOM     35  C   UNL     1      -9.957  -6.952  -2.207  1.00  0.00     0.074 A 
ATOM     36  C   UNL     1      -9.780  -6.214   0.147  1.00  0.00     0.049 A 
ATOM     37  N   UNL     1     -11.255  -6.939  -2.374  1.00  0.00    -0.248 NA
ATOM     38  C   UNL     1      -9.201  -7.339  -3.410  1.00  0.00     0.031 C 
ATOM     39  C   UNL     1      -9.115  -5.811   1.389  1.00  0.00     0.029 A 
ATOM     40  N   UNL     1     -11.117  -6.086   0.433  1.00  0.00    -0.354 N 
ATOM     41  C   UNL     1     -11.469  -7.296  -3.700  1.00  0.00     0.074 A 
ATOM     42  C   UNL     1     -10.168  -7.473  -4.306  1.00  0.00     0.031 C 
ATOM     43  C   UNL     1     -10.045  -5.510   2.310  1.00  0.00     0.029 A 
ATOM     44  C   UNL     1     -11.370  -5.656   1.715  1.00  0.00     0.049 A 
ATOM     45  H   UNL     1     -11.828  -6.282  -0.219  1.00  0.00     0.167 HD
ATOM     46  C   UNL     1     -12.643  -7.478  -4.350  1.00  0.00     0.031 A 
ATOM     47  C   UNL     1     -12.536  -5.404   2.341  1.00  0.00     0.031 A 
ATOM     48  C   UNL     1     -13.935  -7.317  -3.739  1.00  0.00     0.049 A 
ATOM     49  C   UNL     1     -13.826  -5.610   1.595  1.00  0.00     0.074 A 
ATOM     50  C   UNL     1     -15.182  -7.540  -4.296  1.00  0.00     0.029 A 
ATOM     51  N   UNL     1     -14.148  -6.893  -2.437  1.00  0.00    -0.354 N 
ATOM     52  N   UNL     1     -14.009  -6.016   0.361  1.00  0.00    -0.248 NA
ATOM     53  C   UNL     1     -15.068  -5.335   2.330  1.00  0.00     0.031 C 
ATOM     54  C   UNL     1     -16.151  -7.202  -3.345  1.00  0.00     0.029 A 
ATOM     55  C   UNL     1     -15.506  -6.824  -2.178  1.00  0.00     0.049 A 
ATOM     56  H   UNL     1     -13.438  -6.673  -1.791  1.00  0.00     0.167 HD
ATOM     57  C   UNL     1     -15.387  -6.073   0.182  1.00  0.00     0.074 A 
ATOM     58  C   UNL     1     -15.989  -5.673   1.438  1.00  0.00     0.031 C 
ATOM     59  C   UNL     1     -16.090  -6.426  -0.922  1.00  0.00     0.031 A 
BRANCH  46  60
ATOM     60  C   UNL     1     -12.582  -7.867  -5.804  1.00  0.00    -0.014 A 
ATOM     61  C   UNL     1     -12.138  -9.143  -6.197  1.00  0.00     0.010 A 
ATOM     62  C   UNL     1     -13.015  -6.960  -6.789  1.00  0.00     0.010 A 
ATOM     63  C   UNL     1     -12.089  -9.489  -7.550  1.00  0.00     0.020 A 
ATOM     64  C   UNL     1     -12.995  -7.314  -8.141  1.00  0.00     0.020 A 
ATOM     65  C   UNL     1     -12.515  -8.571  -8.514  1.00  0.00     0.054 A 
BRANCH  65  66
ATOM     66  S   UNL     1     -12.465  -9.058 -10.260  1.00  0.00     0.124 S 
ATOM     67  O   UNL     1     -11.031  -9.017 -10.541  1.00  0.00    -0.237 OA
ATOM     68  O   UNL     1     -13.062 -10.390 -10.239  1.00  0.00    -0.237 OA
ATOM     69  O   UNL     1     -13.260  -8.032 -10.930  1.00  0.00    -0.744 OA
ENDBRANCH  65  66
ENDBRANCH  46  60
BRANCH  47  70
ATOM     70  C   UNL     1     -12.539  -4.947   3.757  1.00  0.00    -0.014 A 
ATOM     71  C   UNL     1     -12.990  -5.801   4.780  1.00  0.00     0.010 A 
ATOM     72  C   UNL     1     -12.086  -3.658   4.093  1.00  0.00     0.010 A 
ATOM     73  C   UNL     1     -13.009  -5.367   6.109  1.00  0.00     0.020 A 
ATOM     74  C   UNL     1     -12.078  -3.231   5.424  1.00  0.00     0.020 A 
ATOM     75  C   UNL     1     -12.552  -4.084   6.422  1.00  0.00     0.054 A 
BRANCH  75  76
ATOM     76  S   UNL     1     -12.543  -3.559   8.159  1.00  0.00     0.124 S 
ATOM     77  O   UNL     1     -13.960  -3.324   8.412  1.00  0.00    -0.237 OA
ATOM     78  O   UNL     1     -11.962  -4.716   8.836  1.00  0.00    -0.237 OA
ATOM     79  O   UNL     1     -11.700  -2.366   8.150  1.00  0.00    -0.744 OA
ENDBRANCH  75  76
ENDBRANCH  47  70
BRANCH  59  80
ATOM     80  C   UNL     1     -17.591  -6.435  -0.815  1.00  0.00    -0.014 A 
ATOM     81  C   UNL     1     -18.326  -5.237  -0.757  1.00  0.00     0.010 A 
ATOM     82  C   UNL     1     -18.279  -7.662  -0.829  1.00  0.00     0.010 A 
ATOM     83  C   UNL     1     -19.721  -5.269  -0.685  1.00  0.00     0.020 A 
ATOM     84  C   UNL     1     -19.674  -7.697  -0.786  1.00  0.00     0.020 A 
ATOM     85  C   UNL     1     -20.386  -6.499  -0.700  1.00  0.00     0.054 A 
BRANCH  85  86
ATOM     86  S   UNL     1     -22.200  -6.512  -0.652  1.00  0.00     0.124 S 
ATOM     87  O   UNL     1     -22.469  -6.169   0.742  1.00  0.00    -0.237 OA
ATOM     88  O   UNL     1     -22.554  -5.487  -1.631  1.00  0.00    -0.237 OA
ATOM     89  O   UNL     1     -22.547  -7.878  -1.036  1.00  0.00    -0.744 OA
ENDBRANCH  85  86
ENDBRANCH  59  80
ENDBRANCH  33  34
ENDBRANCH  25  28
ENDBRANCH  23  24
ENDBRANCH  22  23
ENDBRANCH  21  22
ENDBRANCH   1  21
TORSDOF 19
