REMARK SMILES Cc1ccc(Nc2c(Cl)cc(Cl)cc2Cl)c(CC(=O)NCCCCNC(=O)c2ccc(-c3c4nc(c(-c5ccc(S(=O)(=O)[O-])cc5)c5ccc([nH]5)c(-c5ccc(S(=O)(=O)[O-])cc5)c5nc(c(-c6ccc(S(=O)(=O)[O-])cc6)c6ccc3[nH]6)C=C5)C=C4)cc2)c1
REMARK SMILES IDX 22 1 21 2 20 3 18 4 19 5 17 7 16 8 1 9 2 10 3 11 88 12 4 13
REMARK SMILES IDX 5 14 6 15 7 17 8 18 14 19 9 20 10 21 13 22 15 23 11 24 12 25
REMARK SMILES IDX 23 26 24 27 25 28 26 29 27 31 28 32 29 33 87 34 30 35 86 36
REMARK SMILES IDX 31 37 32 38 33 39 80 40 34 41 85 42 79 43 81 44 35 45 84 46
REMARK SMILES IDX 78 47 77 48 36 50 66 51 47 52 65 53 48 54 51 55 64 56 82 57
REMARK SMILES IDX 49 58 50 59 63 61 83 62 52 63 37 64 38 65 46 66 39 67 45 68
REMARK SMILES IDX 40 69 41 70 42 71 43 72 44 73 67 74 68 75 76 76 69 77 75 78
REMARK SMILES IDX 70 79 71 80 72 81 73 82 74 83 53 84 54 85 62 86 55 87 61 88
REMARK SMILES IDX 56 89 57 90 58 91 59 92 60 93
REMARK H PARENT 20 6 6 16 25 30 81 49 51 60
REMARK Flexibility Score: inf
ROOT
ATOM      1  C   UNL     1      -0.112   1.174  -3.225  1.00  0.00     0.023 C 
ENDROOT
BRANCH   1   2
ATOM      2  C   UNL     1      -0.567   2.578  -2.795  1.00  0.00     0.116 C 
BRANCH   2   3
ATOM      3  N   UNL     1      -1.976   2.642  -2.433  1.00  0.00    -0.356 N 
ATOM      4  C   UNL     1      -2.569   2.535  -1.212  1.00  0.00     0.224 C 
ATOM      5  O   UNL     1      -3.802   2.506  -1.147  1.00  0.00    -0.275 OA
ATOM      6  H   UNL     1      -2.594   2.786  -3.186  1.00  0.00     0.163 HD
BRANCH   4   7
ATOM      7  C   UNL     1      -1.744   2.405   0.055  1.00  0.00     0.137 C 
BRANCH   7   8
ATOM      8  C   UNL     1      -1.049   1.067   0.176  1.00  0.00    -0.015 A 
ATOM      9  C   UNL     1       2.600  -0.068   0.215  1.00  0.00     0.044 C 
ATOM     10  C   UNL     1       1.102  -0.101   0.236  1.00  0.00    -0.051 A 
ATOM     11  C   UNL     1       0.423  -1.314   0.144  1.00  0.00     0.005 A 
ATOM     12  C   UNL     1       0.359   1.079   0.282  1.00  0.00     0.009 A 
ATOM     13  C   UNL     1      -0.974  -1.342   0.097  1.00  0.00     0.026 A 
ATOM     14  C   UNL     1      -1.740  -0.164   0.105  1.00  0.00     0.042 A 
BRANCH  14  15
ATOM     15  N   UNL     1      -3.155  -0.210   0.077  1.00  0.00    -0.353 N 
ATOM     16  H   UNL     1      -3.604   0.664   0.030  1.00  0.00     0.167 HD
BRANCH  15  17
ATOM     17  C   UNL     1      -4.016  -1.335   0.107  1.00  0.00     0.076 A 
ATOM     18  C   UNL     1      -4.032  -2.263   1.169  1.00  0.00     0.067 A 
ATOM     19  C   UNL     1      -4.843  -1.607  -1.005  1.00  0.00     0.067 A 
ATOM     20  Cl  UNL     1      -3.160  -1.994   2.643  1.00  0.00    -0.082 Cl
ATOM     21  C   UNL     1      -4.814  -3.421   1.105  1.00  0.00     0.043 A 
ATOM     22  C   UNL     1      -5.631  -2.760  -1.067  1.00  0.00     0.043 A 
ATOM     23  Cl  UNL     1      -4.898  -0.535  -2.363  1.00  0.00    -0.082 Cl
ATOM     24  C   UNL     1      -5.601  -3.666  -0.014  1.00  0.00     0.044 A 
ATOM     25  Cl  UNL     1      -6.551  -5.099  -0.092  1.00  0.00    -0.084 Cl
ENDBRANCH  15  17
ENDBRANCH  14  15
ENDBRANCH   7   8
ENDBRANCH   4   7
ENDBRANCH   2   3
ENDBRANCH   1   2
BRANCH   1  26
ATOM     26  C   UNL     1      -0.882   0.553  -4.391  1.00  0.00     0.023 C 
BRANCH  26  27
ATOM     27  C   UNL     1      -0.683   1.299  -5.702  1.00  0.00     0.116 C 
BRANCH  27  28
ATOM     28  N   UNL     1       0.049   0.548  -6.711  1.00  0.00    -0.352 N 
ATOM     29  C   UNL     1       0.277   0.922  -8.025  1.00  0.00     0.251 C 
ATOM     30  H   UNL     1       0.422  -0.319  -6.430  1.00  0.00     0.163 HD
ATOM     31  O   UNL     1       0.693   0.145  -8.869  1.00  0.00    -0.269 OA
BRANCH  29  32
ATOM     32  C   UNL     1       0.116   2.358  -8.337  1.00  0.00     0.039 A 
ATOM     33  C   UNL     1       1.289   3.090  -8.555  1.00  0.00     0.014 A 
ATOM     34  C   UNL     1      -1.099   2.995  -8.097  1.00  0.00     0.014 A 
ATOM     35  C   UNL     1       1.283   4.465  -8.342  1.00  0.00     0.010 A 
ATOM     36  C   UNL     1      -1.081   4.344  -7.798  1.00  0.00     0.010 A 
ATOM     37  C   UNL     1       0.121   5.066  -7.865  1.00  0.00    -0.014 A 
BRANCH  37  38
ATOM     38  C   UNL     1       0.069   6.428  -7.349  1.00  0.00     0.031 A 
ATOM     39  C   UNL     1      -0.578   7.489  -8.153  1.00  0.00     0.074 A 
ATOM     40  C   UNL     1       0.528   6.716  -6.109  1.00  0.00     0.049 A 
ATOM     41  N   UNL     1      -0.445   8.753  -7.926  1.00  0.00    -0.248 NA
ATOM     42  C   UNL     1      -1.364   7.205  -9.354  1.00  0.00     0.031 C 
ATOM     43  C   UNL     1       0.237   7.915  -5.324  1.00  0.00     0.029 A 
ATOM     44  N   UNL     1       1.558   6.096  -5.397  1.00  0.00    -0.354 N 
ATOM     45  C   UNL     1      -1.385   9.400  -8.689  1.00  0.00     0.074 A 
ATOM     46  C   UNL     1      -1.803   8.428  -9.668  1.00  0.00     0.031 C 
ATOM     47  C   UNL     1       1.238   8.108  -4.452  1.00  0.00     0.029 A 
ATOM     48  C   UNL     1       2.268   7.137  -4.769  1.00  0.00     0.049 A 
ATOM     49  H   UNL     1       1.748   5.131  -5.346  1.00  0.00     0.167 HD
ATOM     50  C   UNL     1      -1.823  10.630  -8.301  1.00  0.00     0.031 A 
ATOM     51  C   UNL     1       3.575   7.435  -5.035  1.00  0.00     0.031 A 
ATOM     52  C   UNL     1      -0.942  11.233  -7.296  1.00  0.00     0.049 A 
ATOM     53  C   UNL     1       3.799   8.861  -5.515  1.00  0.00     0.074 A 
ATOM     54  C   UNL     1      -1.063  11.591  -5.965  1.00  0.00     0.029 A 
ATOM     55  N   UNL     1       0.409  11.348  -7.598  1.00  0.00    -0.354 N 
ATOM     56  N   UNL     1       2.853   9.742  -5.697  1.00  0.00    -0.248 NA
ATOM     57  C   UNL     1       5.106   9.370  -5.929  1.00  0.00     0.031 C 
ATOM     58  C   UNL     1       0.243  11.888  -5.464  1.00  0.00     0.029 A 
ATOM     59  C   UNL     1       1.147  11.744  -6.500  1.00  0.00     0.049 A 
ATOM     60  H   UNL     1       0.794  11.169  -8.486  1.00  0.00     0.167 HD
ATOM     61  C   UNL     1       3.371  10.871  -6.280  1.00  0.00     0.074 A 
ATOM     62  C   UNL     1       4.791  10.590  -6.399  1.00  0.00     0.031 C 
ATOM     63  C   UNL     1       2.585  11.923  -6.664  1.00  0.00     0.031 A 
BRANCH  50  64
ATOM     64  C   UNL     1      -3.173  11.201  -8.698  1.00  0.00    -0.014 A 
ATOM     65  C   UNL     1      -3.595  12.446  -8.186  1.00  0.00     0.010 A 
ATOM     66  C   UNL     1      -4.129  10.504  -9.469  1.00  0.00     0.010 A 
ATOM     67  C   UNL     1      -4.896  12.941  -8.404  1.00  0.00     0.020 A 
ATOM     68  C   UNL     1      -5.415  10.998  -9.723  1.00  0.00     0.020 A 
ATOM     69  C   UNL     1      -5.802  12.207  -9.167  1.00  0.00     0.054 A 
BRANCH  69  70
ATOM     70  S   UNL     1      -7.495  12.808  -9.400  1.00  0.00     0.124 S 
ATOM     71  O   UNL     1      -8.044  12.718  -8.050  1.00  0.00    -0.237 OA
ATOM     72  O   UNL     1      -7.288  14.159  -9.912  1.00  0.00    -0.237 OA
ATOM     73  O   UNL     1      -8.068  11.866 -10.362  1.00  0.00    -0.744 OA
ENDBRANCH  69  70
ENDBRANCH  50  64
BRANCH  51  74
ATOM     74  C   UNL     1       4.394   6.256  -5.436  1.00  0.00    -0.014 A 
ATOM     75  C   UNL     1       4.636   5.273  -4.452  1.00  0.00     0.010 A 
ATOM     76  C   UNL     1       4.529   5.910  -6.792  1.00  0.00     0.010 A 
ATOM     77  C   UNL     1       4.819   3.937  -4.814  1.00  0.00     0.020 A 
ATOM     78  C   UNL     1       4.725   4.570  -7.157  1.00  0.00     0.020 A 
ATOM     79  C   UNL     1       4.792   3.588  -6.164  1.00  0.00     0.054 A 
BRANCH  79  80
ATOM     80  S   UNL     1       4.618   1.827  -6.581  1.00  0.00     0.124 S 
ATOM     81  O   UNL     1       5.792   1.237  -5.946  1.00  0.00    -0.237 OA
ATOM     82  O   UNL     1       3.334   1.503  -5.960  1.00  0.00    -0.237 OA
ATOM     83  O   UNL     1       4.623   1.828  -8.041  1.00  0.00    -0.744 OA
ENDBRANCH  79  80
ENDBRANCH  51  74
BRANCH  63  84
ATOM     84  C   UNL     1       3.079  13.203  -7.308  1.00  0.00    -0.014 A 
ATOM     85  C   UNL     1       4.347  13.762  -7.082  1.00  0.00     0.010 A 
ATOM     86  C   UNL     1       2.193  13.956  -8.119  1.00  0.00     0.010 A 
ATOM     87  C   UNL     1       4.739  14.959  -7.705  1.00  0.00     0.020 A 
ATOM     88  C   UNL     1       2.563  15.159  -8.727  1.00  0.00     0.020 A 
ATOM     89  C   UNL     1       3.847  15.644  -8.534  1.00  0.00     0.054 A 
BRANCH  89  90
ATOM     90  S   UNL     1       4.372  17.190  -9.315  1.00  0.00     0.124 S 
ATOM     91  O   UNL     1       4.880  17.960  -8.182  1.00  0.00    -0.237 OA
ATOM     92  O   UNL     1       5.383  16.725 -10.261  1.00  0.00    -0.237 OA
ATOM     93  O   UNL     1       3.149  17.712  -9.919  1.00  0.00    -0.744 OA
ENDBRANCH  89  90
ENDBRANCH  63  84
ENDBRANCH  37  38
ENDBRANCH  29  32
ENDBRANCH  27  28
ENDBRANCH  26  27
ENDBRANCH   1  26
TORSDOF 17
