REMARK SMILES CN(c1ccc(C(N)=O)nn1)[C@H]1COC[C@@H]1C(=O)NCCCCNC(=O)c1ccc(-c2c3nc(c(-c4ccc(S(=O)(=O)[O-])cc4)c4ccc([nH]4)c(-c4ccc(S(=O)(=O)[O-])cc4)c4nc(c(-c5ccc(S(=O)(=O)[O-])cc5)c5ccc2[nH]5)C=C4)C=C3)cc1
REMARK SMILES IDX 21 1 20 2 19 3 17 4 18 5 16 7 12 8 13 9 14 10 15 11 2 12
REMARK SMILES IDX 1 13 3 14 4 15 11 16 5 17 10 18 6 19 7 20 8 21 9 22 22 25
REMARK SMILES IDX 23 26 24 27 25 28 26 30 27 31 28 32 86 33 29 34 85 35 30 36
REMARK SMILES IDX 31 37 32 38 79 39 33 40 84 41 78 42 80 43 34 44 83 45 77 46
REMARK SMILES IDX 76 47 35 49 65 50 46 51 64 52 47 53 50 54 63 55 81 56 48 57
REMARK SMILES IDX 49 58 62 60 82 61 51 62 36 63 37 64 45 65 38 66 44 67 39 68
REMARK SMILES IDX 40 69 41 70 42 71 43 72 66 73 67 74 75 75 68 76 74 77 69 78
REMARK SMILES IDX 70 79 71 80 72 81 73 82 52 83 53 84 61 85 54 86 60 87 55 88
REMARK SMILES IDX 56 89 57 90 58 91 59 92
REMARK H PARENT 19 6 8 23 8 24 24 29 80 48 50 59
REMARK Flexibility Score: inf
ROOT
ATOM      1  C   UNL     1       1.127  -5.898   4.005  1.00  0.00     0.023 C 
ENDROOT
BRANCH   1   2
ATOM      2  C   UNL     1       0.503  -4.801   3.152  1.00  0.00     0.116 C 
BRANCH   2   3
ATOM      3  N   UNL     1       1.273  -3.570   3.147  1.00  0.00    -0.356 N 
ATOM      4  C   UNL     1       1.874  -2.835   2.179  1.00  0.00     0.227 C 
ATOM      5  O   UNL     1       2.328  -1.746   2.557  1.00  0.00    -0.275 OA
ATOM      6  H   UNL     1       1.383  -3.183   4.046  1.00  0.00     0.163 HD
BRANCH   4   7
ATOM      7  C   UNL     1       1.981  -3.185   0.693  1.00  0.00     0.129 C 
ATOM      8  C   UNL     1       0.833  -2.582  -0.112  1.00  0.00     0.124 C 
ATOM      9  C   UNL     1      -0.183  -3.725   0.034  1.00  0.00     0.186 C 
ATOM     10  O   UNL     1       0.569  -4.951  -0.047  1.00  0.00    -0.378 OA
ATOM     11  C   UNL     1       1.936  -4.643   0.304  1.00  0.00     0.176 C 
BRANCH   8  12
ATOM     12  N   UNL     1       1.094  -2.278  -1.557  1.00  0.00    -0.352 N 
ATOM     13  C   UNL     1       0.002  -2.418  -2.518  1.00  0.00     0.145 C 
BRANCH  12  14
ATOM     14  C   UNL     1       2.313  -1.845  -2.049  1.00  0.00     0.151 A 
ATOM     15  C   UNL     1       2.394  -0.768  -2.933  1.00  0.00     0.051 A 
ATOM     16  N   UNL     1       3.451  -2.501  -1.742  1.00  0.00    -0.132 NA
ATOM     17  C   UNL     1       3.613  -0.394  -3.497  1.00  0.00     0.040 A 
ATOM     18  N   UNL     1       4.675  -2.138  -2.271  1.00  0.00    -0.143 NA
ATOM     19  C   UNL     1       4.736  -1.108  -3.138  1.00  0.00     0.150 A 
BRANCH  19  20
ATOM     20  C   UNL     1       6.073  -0.774  -3.698  1.00  0.00     0.269 C 
ATOM     21  N   UNL     1       7.133  -1.476  -3.189  1.00  0.00    -0.364 N 
ATOM     22  O   UNL     1       6.226   0.080  -4.564  1.00  0.00    -0.268 OA
ATOM     23  H   UNL     1       6.984  -2.157  -2.493  1.00  0.00     0.160 HD
ATOM     24  H   UNL     1       8.044  -1.301  -3.518  1.00  0.00     0.160 HD
ENDBRANCH  19  20
ENDBRANCH  12  14
ENDBRANCH   8  12
ENDBRANCH   4   7
ENDBRANCH   2   3
ENDBRANCH   1   2
BRANCH   1  25
ATOM     25  C   UNL     1       0.930  -5.736   5.509  1.00  0.00     0.023 C 
BRANCH  25  26
ATOM     26  C   UNL     1      -0.505  -5.491   5.966  1.00  0.00     0.116 C 
BRANCH  26  27
ATOM     27  N   UNL     1      -1.467  -6.455   5.446  1.00  0.00    -0.352 N 
ATOM     28  C   UNL     1      -2.533  -7.033   6.095  1.00  0.00     0.251 C 
ATOM     29  H   UNL     1      -1.337  -6.727   4.508  1.00  0.00     0.163 HD
ATOM     30  O   UNL     1      -3.221  -7.880   5.536  1.00  0.00    -0.269 OA
BRANCH  28  31
ATOM     31  C   UNL     1      -2.804  -6.649   7.495  1.00  0.00     0.039 A 
ATOM     32  C   UNL     1      -2.872  -7.648   8.468  1.00  0.00     0.014 A 
ATOM     33  C   UNL     1      -2.897  -5.301   7.848  1.00  0.00     0.014 A 
ATOM     34  C   UNL     1      -2.946  -7.289   9.814  1.00  0.00     0.010 A 
ATOM     35  C   UNL     1      -2.893  -4.946   9.192  1.00  0.00     0.010 A 
ATOM     36  C   UNL     1      -2.909  -5.935  10.188  1.00  0.00    -0.014 A 
BRANCH  36  37
ATOM     37  C   UNL     1      -2.875  -5.527  11.615  1.00  0.00     0.031 A 
ATOM     38  C   UNL     1      -4.001  -4.711  12.187  1.00  0.00     0.074 A 
ATOM     39  C   UNL     1      -1.795  -5.814  12.370  1.00  0.00     0.049 A 
ATOM     40  N   UNL     1      -4.113  -4.179  13.377  1.00  0.00    -0.248 NA
ATOM     41  C   UNL     1      -5.137  -4.429  11.293  1.00  0.00     0.031 C 
ATOM     42  C   UNL     1      -0.615  -6.556  11.917  1.00  0.00     0.029 A 
ATOM     43  N   UNL     1      -1.509  -5.505  13.676  1.00  0.00    -0.354 N 
ATOM     44  C   UNL     1      -5.314  -3.481  13.366  1.00  0.00     0.074 A 
ATOM     45  C   UNL     1      -5.871  -3.616  12.038  1.00  0.00     0.031 C 
ATOM     46  C   UNL     1       0.255  -6.664  12.936  1.00  0.00     0.029 A 
ATOM     47  C   UNL     1      -0.285  -5.968  14.099  1.00  0.00     0.049 A 
ATOM     48  H   UNL     1      -2.123  -5.000  14.256  1.00  0.00     0.167 HD
ATOM     49  C   UNL     1      -5.910  -2.803  14.375  1.00  0.00     0.031 A 
ATOM     50  C   UNL     1       0.337  -5.842  15.288  1.00  0.00     0.031 A 
ATOM     51  C   UNL     1      -5.364  -2.691  15.701  1.00  0.00     0.049 A 
ATOM     52  C   UNL     1      -0.352  -5.098  16.399  1.00  0.00     0.074 A 
ATOM     53  C   UNL     1      -5.922  -2.081  16.811  1.00  0.00     0.029 A 
ATOM     54  N   UNL     1      -4.138  -3.202  16.097  1.00  0.00    -0.354 N 
ATOM     55  N   UNL     1      -1.519  -4.499  16.389  1.00  0.00    -0.248 NA
ATOM     56  C   UNL     1       0.354  -5.024  17.686  1.00  0.00     0.031 C 
ATOM     57  C   UNL     1      -5.013  -2.187  17.869  1.00  0.00     0.029 A 
ATOM     58  C   UNL     1      -3.913  -2.908  17.430  1.00  0.00     0.049 A 
ATOM     59  H   UNL     1      -3.519  -3.701  15.516  1.00  0.00     0.167 HD
ATOM     60  C   UNL     1      -1.699  -4.000  17.674  1.00  0.00     0.074 A 
ATOM     61  C   UNL     1      -0.527  -4.378  18.438  1.00  0.00     0.031 C 
ATOM     62  C   UNL     1      -2.743  -3.296  18.177  1.00  0.00     0.031 A 
BRANCH  49  63
ATOM     63  C   UNL     1      -7.223  -2.131  14.078  1.00  0.00    -0.014 A 
ATOM     64  C   UNL     1      -8.390  -2.884  13.856  1.00  0.00     0.010 A 
ATOM     65  C   UNL     1      -7.298  -0.726  14.047  1.00  0.00     0.010 A 
ATOM     66  C   UNL     1      -9.598  -2.247  13.562  1.00  0.00     0.020 A 
ATOM     67  C   UNL     1      -8.511  -0.085  13.782  1.00  0.00     0.020 A 
ATOM     68  C   UNL     1      -9.650  -0.851  13.522  1.00  0.00     0.054 A 
BRANCH  68  69
ATOM     69  S   UNL     1     -11.235  -0.049  13.153  1.00  0.00     0.124 S 
ATOM     70  O   UNL     1     -11.363  -0.285  11.717  1.00  0.00    -0.237 OA
ATOM     71  O   UNL     1     -12.172  -0.787  13.997  1.00  0.00    -0.237 OA
ATOM     72  O   UNL     1     -11.017   1.343  13.539  1.00  0.00    -0.744 OA
ENDBRANCH  68  69
ENDBRANCH  49  63
BRANCH  50  73
ATOM     73  C   UNL     1       1.678  -6.452  15.494  1.00  0.00    -0.014 A 
ATOM     74  C   UNL     1       1.825  -7.591  16.306  1.00  0.00     0.010 A 
ATOM     75  C   UNL     1       2.815  -5.908  14.868  1.00  0.00     0.010 A 
ATOM     76  C   UNL     1       3.084  -8.165  16.502  1.00  0.00     0.020 A 
ATOM     77  C   UNL     1       4.072  -6.495  15.042  1.00  0.00     0.020 A 
ATOM     78  C   UNL     1       4.200  -7.614  15.867  1.00  0.00     0.054 A 
BRANCH  78  79
ATOM     79  S   UNL     1       5.817  -8.407  16.091  1.00  0.00     0.124 S 
ATOM     80  O   UNL     1       6.172  -7.996  17.446  1.00  0.00    -0.237 OA
ATOM     81  O   UNL     1       5.500  -9.823  15.922  1.00  0.00    -0.237 OA
ATOM     82  O   UNL     1       6.631  -7.828  15.025  1.00  0.00    -0.744 OA
ENDBRANCH  78  79
ENDBRANCH  50  73
BRANCH  62  83
ATOM     83  C   UNL     1      -2.687  -2.916  19.631  1.00  0.00    -0.014 A 
ATOM     84  C   UNL     1      -1.836  -1.894  20.086  1.00  0.00     0.010 A 
ATOM     85  C   UNL     1      -3.551  -3.548  20.544  1.00  0.00     0.010 A 
ATOM     86  C   UNL     1      -1.833  -1.528  21.434  1.00  0.00     0.020 A 
ATOM     87  C   UNL     1      -3.569  -3.168  21.888  1.00  0.00     0.020 A 
ATOM     88  C   UNL     1      -2.700  -2.167  22.327  1.00  0.00     0.054 A 
BRANCH  88  89
ATOM     89  S   UNL     1      -2.716  -1.637  24.061  1.00  0.00     0.124 S 
ATOM     90  O   UNL     1      -1.482  -2.229  24.571  1.00  0.00    -0.237 OA
ATOM     91  O   UNL     1      -2.716  -0.180  23.953  1.00  0.00    -0.237 OA
ATOM     92  O   UNL     1      -3.950  -2.216  24.589  1.00  0.00    -0.744 OA
ENDBRANCH  88  89
ENDBRANCH  62  83
ENDBRANCH  36  37
ENDBRANCH  28  31
ENDBRANCH  26  27
ENDBRANCH  25  26
ENDBRANCH   1  25
TORSDOF 17
