REMARK SMILES NS(=O)(=O)c1ccc(-n2nc(C(F)(F)F)cc2-c2ccc(C(=O)NCCCCNC(=O)c3ccc(-c4c5nc(c(-c6ccc(S(=O)(=O)[O-])cc6)c6ccc([nH]6)c(-c6ccc(S(=O)(=O)[O-])cc6)c6nc(c(-c7ccc(S(=O)(=O)[O-])cc7)c7ccc4[nH]7)C=C6)C=C5)cc3)cc2)cc1
REMARK SMILES IDX 26 1 25 2 24 3 22 4 23 5 21 7 18 8 19 9 93 10 20 11 92 12
REMARK SMILES IDX 17 13 9 14 10 15 11 16 16 17 8 18 5 19 6 20 95 21 7 22 94 23
REMARK SMILES IDX 2 24 3 25 4 26 1 27 12 30 13 31 14 32 15 33 27 34 28 35
REMARK SMILES IDX 29 36 30 37 31 39 32 40 33 41 91 42 34 43 90 44 35 45 36 46
REMARK SMILES IDX 37 47 84 48 38 49 89 50 83 51 85 52 39 53 88 54 82 55 81 56
REMARK SMILES IDX 40 58 70 59 51 60 69 61 52 62 55 63 68 64 86 65 53 66 54 67
REMARK SMILES IDX 67 69 87 70 56 71 41 72 42 73 50 74 43 75 49 76 44 77 45 78
REMARK SMILES IDX 46 79 47 80 48 81 71 82 72 83 80 84 73 85 79 86 74 87 75 88
REMARK SMILES IDX 76 89 77 90 78 91 57 92 58 93 66 94 59 95 65 96 60 97 61 98
REMARK SMILES IDX 62 99 63 100 64 101
REMARK H PARENT 24 6 1 28 1 29 29 38 85 57 55 68
REMARK Flexibility Score: inf
ROOT
ATOM      1  C   UNL     1       8.118   3.153   4.620  1.00  0.00     0.023 C 
ENDROOT
BRANCH   1   2
ATOM      2  C   UNL     1       8.684   4.152   3.603  1.00  0.00     0.116 C 
BRANCH   2   3
ATOM      3  N   UNL     1       8.614   3.622   2.255  1.00  0.00    -0.352 N 
ATOM      4  C   UNL     1       7.696   3.765   1.247  1.00  0.00     0.251 C 
ATOM      5  O   UNL     1       7.906   3.164   0.193  1.00  0.00    -0.269 OA
ATOM      6  H   UNL     1       9.376   3.046   2.017  1.00  0.00     0.163 HD
BRANCH   4   7
ATOM      7  C   UNL     1       6.483   4.626   1.351  1.00  0.00     0.039 A 
ATOM      8  C   UNL     1       4.197   6.272   1.380  1.00  0.00     0.000 A 
ATOM      9  C   UNL     1       4.806   5.940   0.166  1.00  0.00     0.011 A 
ATOM     10  C   UNL     1       4.725   5.776   2.571  1.00  0.00     0.011 A 
ATOM     11  C   UNL     1       5.946   5.128   0.155  1.00  0.00     0.014 A 
ATOM     12  C   UNL     1       5.831   4.927   2.549  1.00  0.00     0.014 A 
BRANCH   8  13
ATOM     13  C   UNL     1       2.978   7.066   1.424  1.00  0.00     0.075 A 
ATOM     14  N   UNL     1       1.741   6.655   0.948  1.00  0.00    -0.233 N 
ATOM     15  N   UNL     1       0.830   7.663   0.975  1.00  0.00    -0.163 NA
ATOM     16  C   UNL     1       1.432   8.653   1.667  1.00  0.00     0.167 A 
ATOM     17  C   UNL     1       2.789   8.339   1.917  1.00  0.00     0.064 A 
BRANCH  14  18
ATOM     18  C   UNL     1       1.365   5.356   0.514  1.00  0.00     0.065 A 
ATOM     19  C   UNL     1       0.779   2.805  -0.444  1.00  0.00     0.082 A 
ATOM     20  C   UNL     1       1.553   2.944   0.708  1.00  0.00     0.024 A 
ATOM     21  C   UNL     1       0.259   3.932  -1.094  1.00  0.00     0.024 A 
ATOM     22  C   UNL     1       1.849   4.221   1.181  1.00  0.00     0.030 A 
ATOM     23  C   UNL     1       0.531   5.212  -0.600  1.00  0.00     0.030 A 
BRANCH  19  24
ATOM     24  S   UNL     1       0.442   1.211  -1.128  1.00  0.00     0.238 S 
ATOM     25  O   UNL     1       1.157   1.095  -2.384  1.00  0.00    -0.207 OA
ATOM     26  O   UNL     1      -0.966   0.950  -1.006  1.00  0.00    -0.207 OA
BRANCH  24  27
ATOM     27  N   UNL     1       1.194   0.124  -0.087  1.00  0.00    -0.225 NA
ATOM     28  H   UNL     1       1.042  -0.827  -0.421  1.00  0.00     0.137 HD
ATOM     29  H   UNL     1       0.802   0.223   0.850  1.00  0.00     0.137 HD
ENDBRANCH  24  27
ENDBRANCH  19  24
ENDBRANCH  14  18
BRANCH  16  30
ATOM     30  C   UNL     1       0.723   9.903   2.113  1.00  0.00     0.435 C 
ATOM     31  F   UNL     1       0.082  10.545   1.103  1.00  0.00    -0.164 F 
ATOM     32  F   UNL     1      -0.207   9.642   3.074  1.00  0.00    -0.164 F 
ATOM     33  F   UNL     1       1.585  10.805   2.661  1.00  0.00    -0.164 F 
ENDBRANCH  16  30
ENDBRANCH   8  13
ENDBRANCH   4   7
ENDBRANCH   2   3
ENDBRANCH   1   2
BRANCH   1  34
ATOM     34  C   UNL     1       9.031   1.961   4.935  1.00  0.00     0.023 C 
BRANCH  34  35
ATOM     35  C   UNL     1      10.294   2.314   5.714  1.00  0.00     0.116 C 
BRANCH  35  36
ATOM     36  N   UNL     1      10.004   2.888   7.028  1.00  0.00    -0.352 N 
ATOM     37  C   UNL     1      10.848   3.615   7.846  1.00  0.00     0.251 C 
ATOM     38  H   UNL     1       9.094   2.738   7.373  1.00  0.00     0.163 HD
ATOM     39  O   UNL     1      10.637   3.701   9.050  1.00  0.00    -0.269 OA
BRANCH  37  40
ATOM     40  C   UNL     1      11.998   4.300   7.233  1.00  0.00     0.039 A 
ATOM     41  C   UNL     1      13.273   4.244   7.799  1.00  0.00     0.014 A 
ATOM     42  C   UNL     1      11.777   4.962   6.029  1.00  0.00     0.014 A 
ATOM     43  C   UNL     1      14.346   4.783   7.091  1.00  0.00     0.010 A 
ATOM     44  C   UNL     1      12.849   5.364   5.271  1.00  0.00     0.010 A 
ATOM     45  C   UNL     1      14.131   5.321   5.812  1.00  0.00    -0.014 A 
BRANCH  45  46
ATOM     46  C   UNL     1      15.250   5.752   4.979  1.00  0.00     0.031 A 
ATOM     47  C   UNL     1      16.299   4.723   4.729  1.00  0.00     0.074 A 
ATOM     48  C   UNL     1      15.236   6.905   4.276  1.00  0.00     0.049 A 
ATOM     49  N   UNL     1      17.523   4.729   5.141  1.00  0.00    -0.248 NA
ATOM     50  C   UNL     1      15.915   3.486   4.029  1.00  0.00     0.031 C 
ATOM     51  C   UNL     1      14.146   7.880   4.150  1.00  0.00     0.029 A 
ATOM     52  N   UNL     1      16.161   7.380   3.400  1.00  0.00    -0.354 N 
ATOM     53  C   UNL     1      18.128   3.608   4.579  1.00  0.00     0.074 A 
ATOM     54  C   UNL     1      17.057   2.795   4.059  1.00  0.00     0.031 C 
ATOM     55  C   UNL     1      14.364   8.663   3.071  1.00  0.00     0.029 A 
ATOM     56  C   UNL     1      15.686   8.371   2.549  1.00  0.00     0.049 A 
ATOM     57  H   UNL     1      17.088   7.051   3.371  1.00  0.00     0.167 HD
ATOM     58  C   UNL     1      19.476   3.544   4.377  1.00  0.00     0.031 A 
ATOM     59  C   UNL     1      16.319   8.888   1.467  1.00  0.00     0.031 A 
ATOM     60  C   UNL     1      20.168   4.609   5.058  1.00  0.00     0.049 A 
ATOM     61  C   UNL     1      17.766   8.606   1.637  1.00  0.00     0.074 A 
ATOM     62  C   UNL     1      20.268   5.021   6.372  1.00  0.00     0.029 A 
ATOM     63  N   UNL     1      20.567   5.684   4.296  1.00  0.00    -0.354 N 
ATOM     64  N   UNL     1      18.486   9.130   2.589  1.00  0.00    -0.248 NA
ATOM     65  C   UNL     1      18.309   7.394   1.044  1.00  0.00     0.031 C 
ATOM     66  C   UNL     1      20.225   6.446   6.310  1.00  0.00     0.029 A 
ATOM     67  C   UNL     1      20.185   6.819   4.965  1.00  0.00     0.049 A 
ATOM     68  H   UNL     1      21.038   5.645   3.432  1.00  0.00     0.167 HD
ATOM     69  C   UNL     1      19.309   8.100   3.020  1.00  0.00     0.074 A 
ATOM     70  C   UNL     1      19.233   7.093   1.962  1.00  0.00     0.031 C 
ATOM     71  C   UNL     1      19.749   8.037   4.313  1.00  0.00     0.031 A 
BRANCH  58  72
ATOM     72  C   UNL     1      20.134   2.763   3.264  1.00  0.00    -0.014 A 
ATOM     73  C   UNL     1      21.543   2.704   3.213  1.00  0.00     0.010 A 
ATOM     74  C   UNL     1      19.435   2.318   2.124  1.00  0.00     0.010 A 
ATOM     75  C   UNL     1      22.214   2.292   2.053  1.00  0.00     0.020 A 
ATOM     76  C   UNL     1      20.093   1.863   0.979  1.00  0.00     0.020 A 
ATOM     77  C   UNL     1      21.481   1.888   0.938  1.00  0.00     0.054 A 
BRANCH  77  78
ATOM     78  S   UNL     1      22.352   1.464  -0.591  1.00  0.00     0.124 S 
ATOM     79  O   UNL     1      22.915   2.752  -0.982  1.00  0.00    -0.237 OA
ATOM     80  O   UNL     1      23.313   0.464  -0.132  1.00  0.00    -0.237 OA
ATOM     81  O   UNL     1      21.293   0.951  -1.456  1.00  0.00    -0.744 OA
ENDBRANCH  77  78
ENDBRANCH  58  72
BRANCH  59  82
ATOM     82  C   UNL     1      15.724   9.325   0.180  1.00  0.00    -0.014 A 
ATOM     83  C   UNL     1      16.485  10.040  -0.763  1.00  0.00     0.010 A 
ATOM     84  C   UNL     1      14.491   8.787  -0.245  1.00  0.00     0.010 A 
ATOM     85  C   UNL     1      16.066  10.145  -2.100  1.00  0.00     0.020 A 
ATOM     86  C   UNL     1      14.063   8.895  -1.574  1.00  0.00     0.020 A 
ATOM     87  C   UNL     1      14.868   9.548  -2.503  1.00  0.00     0.054 A 
BRANCH  87  88
ATOM     88  S   UNL     1      14.438   9.505  -4.269  1.00  0.00     0.124 S 
ATOM     89  O   UNL     1      14.090  10.897  -4.538  1.00  0.00    -0.237 OA
ATOM     90  O   UNL     1      15.674   9.030  -4.885  1.00  0.00    -0.237 OA
ATOM     91  O   UNL     1      13.320   8.564  -4.327  1.00  0.00    -0.744 OA
ENDBRANCH  87  88
ENDBRANCH  59  82
BRANCH  71  92
ATOM     92  C   UNL     1      19.556   9.249   5.201  1.00  0.00    -0.014 A 
ATOM     93  C   UNL     1      18.304   9.835   5.476  1.00  0.00     0.010 A 
ATOM     94  C   UNL     1      20.682   9.738   5.887  1.00  0.00     0.010 A 
ATOM     95  C   UNL     1      18.193  10.911   6.371  1.00  0.00     0.020 A 
ATOM     96  C   UNL     1      20.576  10.794   6.795  1.00  0.00     0.020 A 
ATOM     97  C   UNL     1      19.335  11.389   7.020  1.00  0.00     0.054 A 
BRANCH  97  98
ATOM     98  S   UNL     1      19.190  12.779   8.177  1.00  0.00     0.124 S 
ATOM     99  O   UNL     1      18.851  13.892   7.295  1.00  0.00    -0.237 OA
ATOM    100  O   UNL     1      18.125  12.343   9.078  1.00  0.00    -0.237 OA
ATOM    101  O   UNL     1      20.514  12.860   8.792  1.00  0.00    -0.744 OA
ENDBRANCH  97  98
ENDBRANCH  71  92
ENDBRANCH  45  46
ENDBRANCH  37  40
ENDBRANCH  35  36
ENDBRANCH  34  35
ENDBRANCH   1  34
TORSDOF 19
