REMARK SMILES C[C@H](c1ccc(C(=O)NCCCCNC(=O)c2ccc(-c3c4nc(c(-c5ccc(S(=O)(=O)[O-])cc5)c5ccc([nH]5)c(-c5ccc(S(=O)(=O)[O-])cc5)c5nc(c(-c6ccc(S(=O)(=O)[O-])cc6)c6ccc3[nH]6)C=C5)C=C4)cc2)o1)[NH+]1Cc2ccccc2C1
REMARK SMILES IDX 12 1 11 2 10 3 9 4 7 5 8 6 6 8 3 9 4 10 77 11 5 12 2 13 1 14
REMARK SMILES IDX 78 15 79 16 86 17 80 19 85 20 81 21 84 22 82 23 83 24 13 25
REMARK SMILES IDX 14 26 15 27 16 29 17 30 18 31 76 32 19 33 75 34 20 35 21 36
REMARK SMILES IDX 22 37 69 38 23 39 74 40 68 41 70 42 24 43 73 44 67 45 66 46
REMARK SMILES IDX 25 48 55 49 36 50 54 51 37 52 40 53 53 54 71 55 38 56 39 57
REMARK SMILES IDX 52 59 72 60 41 61 26 62 27 63 35 64 28 65 34 66 29 67 30 68
REMARK SMILES IDX 31 69 32 70 33 71 56 72 57 73 65 74 58 75 64 76 59 77 60 78
REMARK SMILES IDX 61 79 62 80 63 81 42 82 43 83 51 84 44 85 50 86 45 87 46 88
REMARK SMILES IDX 47 89 48 90 49 91
REMARK H PARENT 9 7 78 18 14 28 70 47 40 58
REMARK Flexibility Score: inf
ROOT
ATOM      1  C   UNL     1       4.383  -0.231   6.209  1.00  0.00     0.023 C 
ENDROOT
BRANCH   1   2
ATOM      2  C   UNL     1       3.300  -0.599   5.192  1.00  0.00     0.023 C 
BRANCH   2   3
ATOM      3  C   UNL     1       2.285   0.510   4.916  1.00  0.00     0.116 C 
BRANCH   3   4
ATOM      4  N   UNL     1       2.791   1.476   3.965  1.00  0.00    -0.349 N 
ATOM      5  C   UNL     1       2.590   1.566   2.606  1.00  0.00     0.287 C 
ATOM      6  O   UNL     1       3.030   2.579   2.060  1.00  0.00    -0.266 OA
ATOM      7  H   UNL     1       3.367   2.176   4.349  1.00  0.00     0.163 HD
BRANCH   5   8
ATOM      8  C   UNL     1       1.907   0.509   1.877  1.00  0.00     0.191 A 
ATOM      9  C   UNL     1       0.925  -0.308   0.063  1.00  0.00     0.162 A 
ATOM     10  C   UNL     1       1.030  -1.353   0.957  1.00  0.00     0.053 A 
ATOM     11  O   UNL     1       1.441   0.823   0.622  1.00  0.00    -0.450 OA
ATOM     12  C   UNL     1       1.649  -0.830   2.112  1.00  0.00     0.057 A 
BRANCH   9  13
ATOM     13  C   UNL     1       0.579  -0.234  -1.403  1.00  0.00     0.248 C 
ATOM     14  C   UNL     1       1.709  -0.997  -2.139  1.00  0.00     0.084 C 
BRANCH  13  15
ATOM     15  N   UNL     1      -0.849  -0.486  -1.793  1.00  0.00    -0.319 N 
ATOM     16  C   UNL     1      -1.669  -1.255  -0.813  1.00  0.00     0.300 C 
ATOM     17  C   UNL     1      -0.972  -1.313  -3.027  1.00  0.00     0.300 C 
ATOM     18  H   UNL     1      -1.187   0.472  -1.887  1.00  0.00     0.349 HD
ATOM     19  C   UNL     1      -1.470  -2.688  -1.198  1.00  0.00     0.015 A 
ATOM     20  C   UNL     1      -1.019  -2.722  -2.521  1.00  0.00     0.015 A 
ATOM     21  C   UNL     1      -1.631  -3.845  -0.461  1.00  0.00     0.010 A 
ATOM     22  C   UNL     1      -0.663  -3.909  -3.129  1.00  0.00     0.010 A 
ATOM     23  C   UNL     1      -1.270  -5.053  -1.062  1.00  0.00     0.001 A 
ATOM     24  C   UNL     1      -0.777  -5.083  -2.380  1.00  0.00     0.001 A 
ENDBRANCH  13  15
ENDBRANCH   9  13
ENDBRANCH   5   8
ENDBRANCH   3   4
ENDBRANCH   2   3
ENDBRANCH   1   2
BRANCH   1  25
ATOM     25  C   UNL     1       3.868   0.163   7.589  1.00  0.00     0.116 C 
BRANCH  25  26
ATOM     26  N   UNL     1       3.002  -0.838   8.196  1.00  0.00    -0.352 N 
ATOM     27  C   UNL     1       2.813  -1.095   9.533  1.00  0.00     0.251 C 
ATOM     28  H   UNL     1       2.488  -1.399   7.571  1.00  0.00     0.163 HD
ATOM     29  O   UNL     1       2.121  -2.041   9.892  1.00  0.00    -0.269 OA
BRANCH  27  30
ATOM     30  C   UNL     1       3.496  -0.242  10.527  1.00  0.00     0.039 A 
ATOM     31  C   UNL     1       4.274  -0.849  11.515  1.00  0.00     0.014 A 
ATOM     32  C   UNL     1       3.413   1.150  10.442  1.00  0.00     0.014 A 
ATOM     33  C   UNL     1       5.027  -0.053  12.380  1.00  0.00     0.010 A 
ATOM     34  C   UNL     1       4.217   1.937  11.259  1.00  0.00     0.010 A 
ATOM     35  C   UNL     1       5.033   1.344  12.234  1.00  0.00    -0.014 A 
BRANCH  35  36
ATOM     36  C   UNL     1       5.887   2.203  13.090  1.00  0.00     0.031 A 
ATOM     37  C   UNL     1       5.256   3.185  14.038  1.00  0.00     0.074 A 
ATOM     38  C   UNL     1       7.228   2.148  12.963  1.00  0.00     0.049 A 
ATOM     39  N   UNL     1       5.831   4.060  14.822  1.00  0.00    -0.248 NA
ATOM     40  C   UNL     1       3.785   3.204  14.094  1.00  0.00     0.031 C 
ATOM     41  C   UNL     1       7.959   1.271  12.044  1.00  0.00     0.029 A 
ATOM     42  N   UNL     1       8.216   2.851  13.605  1.00  0.00    -0.354 N 
ATOM     43  C   UNL     1       4.796   4.745  15.447  1.00  0.00     0.074 A 
ATOM     44  C   UNL     1       3.558   4.218  14.916  1.00  0.00     0.031 C 
ATOM     45  C   UNL     1       9.278   1.471  12.201  1.00  0.00     0.029 A 
ATOM     46  C   UNL     1       9.486   2.513  13.202  1.00  0.00     0.049 A 
ATOM     47  H   UNL     1       8.033   3.534  14.290  1.00  0.00     0.167 HD
ATOM     48  C   UNL     1       4.869   5.710  16.393  1.00  0.00     0.031 A 
ATOM     49  C   UNL     1      10.685   2.989  13.591  1.00  0.00     0.031 A 
ATOM     50  C   UNL     1       6.101   6.220  16.931  1.00  0.00     0.049 A 
ATOM     51  C   UNL     1      10.740   4.059  14.647  1.00  0.00     0.074 A 
ATOM     52  C   UNL     1       6.279   7.155  17.936  1.00  0.00     0.029 A 
ATOM     53  N   UNL     1       7.365   5.838  16.510  1.00  0.00    -0.354 N 
ATOM     54  N   UNL     1       9.750   4.645  15.277  1.00  0.00    -0.248 NA
ATOM     55  C   UNL     1      12.074   4.523  15.052  1.00  0.00     0.031 C 
ATOM     56  C   UNL     1       7.653   7.370  18.092  1.00  0.00     0.029 A 
ATOM     57  C   UNL     1       8.330   6.532  17.220  1.00  0.00     0.049 A 
ATOM     58  H   UNL     1       7.550   5.171  15.809  1.00  0.00     0.167 HD
ATOM     59  C   UNL     1      10.342   5.531  16.170  1.00  0.00     0.074 A 
ATOM     60  C   UNL     1      11.775   5.392  16.009  1.00  0.00     0.031 C 
ATOM     61  C   UNL     1       9.752   6.381  17.046  1.00  0.00     0.031 A 
BRANCH  48  62
ATOM     62  C   UNL     1       3.571   6.278  16.904  1.00  0.00    -0.014 A 
ATOM     63  C   UNL     1       2.714   5.510  17.714  1.00  0.00     0.010 A 
ATOM     64  C   UNL     1       3.215   7.603  16.594  1.00  0.00     0.010 A 
ATOM     65  C   UNL     1       1.504   6.041  18.166  1.00  0.00     0.020 A 
ATOM     66  C   UNL     1       2.018   8.147  17.068  1.00  0.00     0.020 A 
ATOM     67  C   UNL     1       1.161   7.355  17.835  1.00  0.00     0.054 A 
BRANCH  67  68
ATOM     68  S   UNL     1      -0.411   8.024  18.447  1.00  0.00     0.124 S 
ATOM     69  O   UNL     1      -1.379   7.351  17.584  1.00  0.00    -0.237 OA
ATOM     70  O   UNL     1      -0.417   7.601  19.845  1.00  0.00    -0.237 OA
ATOM     71  O   UNL     1      -0.281   9.463  18.234  1.00  0.00    -0.744 OA
ENDBRANCH  67  68
ENDBRANCH  48  62
BRANCH  49  72
ATOM     72  C   UNL     1      11.932   2.441  12.993  1.00  0.00    -0.014 A 
ATOM     73  C   UNL     1      12.779   1.612  13.750  1.00  0.00     0.010 A 
ATOM     74  C   UNL     1      12.274   2.733  11.660  1.00  0.00     0.010 A 
ATOM     75  C   UNL     1      13.953   1.099  13.191  1.00  0.00     0.020 A 
ATOM     76  C   UNL     1      13.434   2.201  11.090  1.00  0.00     0.020 A 
ATOM     77  C   UNL     1      14.272   1.396  11.863  1.00  0.00     0.054 A 
BRANCH  77  78
ATOM     78  S   UNL     1      15.773   0.676  11.141  1.00  0.00     0.124 S 
ATOM     79  O   UNL     1      16.822   1.486  11.752  1.00  0.00    -0.237 OA
ATOM     80  O   UNL     1      15.704  -0.714  11.588  1.00  0.00    -0.237 OA
ATOM     81  O   UNL     1      15.587   0.869   9.705  1.00  0.00    -0.744 OA
ENDBRANCH  77  78
ENDBRANCH  49  72
BRANCH  61  82
ATOM     82  C   UNL     1      10.654   7.210  17.920  1.00  0.00    -0.014 A 
ATOM     83  C   UNL     1      11.367   8.303  17.399  1.00  0.00     0.010 A 
ATOM     84  C   UNL     1      10.738   6.926  19.296  1.00  0.00     0.010 A 
ATOM     85  C   UNL     1      12.170   9.083  18.235  1.00  0.00     0.020 A 
ATOM     86  C   UNL     1      11.520   7.719  20.139  1.00  0.00     0.020 A 
ATOM     87  C   UNL     1      12.241   8.786  19.600  1.00  0.00     0.054 A 
BRANCH  87  88
ATOM     88  S   UNL     1      13.249   9.845  20.673  1.00  0.00     0.124 S 
ATOM     89  O   UNL     1      14.604   9.417  20.337  1.00  0.00    -0.237 OA
ATOM     90  O   UNL     1      12.887  11.190  20.231  1.00  0.00    -0.237 OA
ATOM     91  O   UNL     1      12.802   9.498  22.020  1.00  0.00    -0.744 OA
ENDBRANCH  87  88
ENDBRANCH  61  82
ENDBRANCH  35  36
ENDBRANCH  27  30
ENDBRANCH  25  26
ENDBRANCH   1  25
TORSDOF 16
