REMARK SMILES Cc1cccc(-n2c(C)cc(/C=N\c3ccc(O)c(C(=O)NCCCCNC(=O)c4ccc(-c5c6nc(c(-c7ccc(S(=O)(=O)[O-])cc7)c7ccc([nH]7)c(-c7ccc(S(=O)(=O)[O-])cc7)c7nc(c(-c8ccc(S(=O)(=O)[O-])cc8)c8ccc5[nH]8)C=C7)C=C6)cc4)c3)c2C)c1
REMARK SMILES IDX 24 1 23 2 22 3 20 4 21 5 19 7 14 8 15 9 90 10 16 11 17 12
REMARK SMILES IDX 13 13 12 14 11 15 7 16 8 17 91 18 9 19 10 20 92 21 6 22 1 23
REMARK SMILES IDX 2 24 3 25 93 26 4 27 5 28 18 29 25 31 26 32 27 33 28 34
REMARK SMILES IDX 29 36 30 37 31 38 89 39 32 40 88 41 33 42 34 43 35 44 82 45
REMARK SMILES IDX 36 46 87 47 81 48 83 49 37 50 86 51 80 52 79 53 38 55 68 56
REMARK SMILES IDX 49 57 67 58 50 59 53 60 66 61 84 62 51 63 52 64 65 66 85 67
REMARK SMILES IDX 54 68 39 69 40 70 48 71 41 72 47 73 42 74 43 75 44 76 45 77
REMARK SMILES IDX 46 78 69 79 70 80 78 81 71 82 77 83 72 84 73 85 74 86 75 87
REMARK SMILES IDX 76 88 55 89 56 90 64 91 57 92 63 93 58 94 59 95 60 96 61 97
REMARK SMILES IDX 62 98
REMARK H PARENT 22 6 18 30 27 35 83 54 53 65
REMARK Flexibility Score: inf
ROOT
ATOM      1  C   UNL     1      -3.840  -1.391   8.087  1.00  0.00     0.023 C 
ENDROOT
BRANCH   1   2
ATOM      2  C   UNL     1      -3.761  -1.191   6.576  1.00  0.00     0.116 C 
BRANCH   2   3
ATOM      3  N   UNL     1      -4.999  -0.818   5.901  1.00  0.00    -0.352 N 
ATOM      4  C   UNL     1      -5.295   0.153   4.967  1.00  0.00     0.255 C 
ATOM      5  O   UNL     1      -6.451   0.188   4.539  1.00  0.00    -0.269 OA
ATOM      6  H   UNL     1      -5.774  -1.365   6.163  1.00  0.00     0.163 HD
BRANCH   4   7
ATOM      7  C   UNL     1      -4.324   1.180   4.477  1.00  0.00     0.083 A 
ATOM      8  C   UNL     1      -4.032   3.353   3.383  1.00  0.00     0.064 A 
ATOM      9  C   UNL     1      -2.661   3.291   3.617  1.00  0.00     0.032 A 
ATOM     10  C   UNL     1      -4.862   2.364   3.935  1.00  0.00     0.046 A 
ATOM     11  C   UNL     1      -2.108   2.114   4.105  1.00  0.00     0.049 A 
ATOM     12  C   UNL     1      -2.939   1.030   4.394  1.00  0.00     0.128 A 
BRANCH   8  13
ATOM     13  N   UNL     1      -4.591   4.347   2.574  1.00  0.00    -0.256 NA
ATOM     14  C   UNL     1      -4.252   4.511   1.325  1.00  0.00     0.121 C 
BRANCH  14  15
ATOM     15  C   UNL     1      -3.281   3.798   0.485  1.00  0.00     0.014 A 
ATOM     16  N   UNL     1      -1.888   2.294  -0.481  1.00  0.00    -0.318 N 
ATOM     17  C   UNL     1      -1.654   3.516  -1.095  1.00  0.00     0.021 A 
ATOM     18  C   UNL     1      -3.014   2.435   0.340  1.00  0.00     0.029 A 
ATOM     19  C   UNL     1      -0.736   3.692  -2.255  1.00  0.00     0.065 C 
ATOM     20  C   UNL     1      -2.468   4.451  -0.487  1.00  0.00     0.033 A 
ATOM     21  C   UNL     1      -3.680   1.258   0.963  1.00  0.00     0.065 C 
BRANCH  16  22
ATOM     22  C   UNL     1      -1.070   1.130  -0.609  1.00  0.00     0.046 A 
ATOM     23  C   UNL     1       2.574   0.156  -0.013  1.00  0.00     0.044 C 
ATOM     24  C   UNL     1       1.110   0.082  -0.335  1.00  0.00    -0.049 A 
ATOM     25  C   UNL     1       0.518  -1.170  -0.547  1.00  0.00     0.003 A 
ATOM     26  C   UNL     1       0.310   1.235  -0.372  1.00  0.00     0.030 A 
ATOM     27  C   UNL     1      -0.843  -1.269  -0.827  1.00  0.00     0.002 A 
ATOM     28  C   UNL     1      -1.634  -0.121  -0.870  1.00  0.00     0.026 A 
ENDBRANCH  16  22
ENDBRANCH  14  15
ENDBRANCH   8  13
BRANCH  12  29
ATOM     29  O   UNL     1      -2.299  -0.179   4.389  1.00  0.00    -0.507 OA
ATOM     30  H   UNL     1      -1.364  -0.214   4.331  1.00  0.00     0.293 HD
ENDBRANCH  12  29
ENDBRANCH   4   7
ENDBRANCH   2   3
ENDBRANCH   1   2
BRANCH   1  31
ATOM     31  C   UNL     1      -4.850  -2.390   8.624  1.00  0.00     0.023 C 
BRANCH  31  32
ATOM     32  C   UNL     1      -4.772  -3.797   8.065  1.00  0.00     0.116 C 
BRANCH  32  33
ATOM     33  N   UNL     1      -3.692  -4.644   8.548  1.00  0.00    -0.352 N 
ATOM     34  C   UNL     1      -3.903  -6.016   8.696  1.00  0.00     0.251 C 
ATOM     35  H   UNL     1      -2.817  -4.252   8.768  1.00  0.00     0.163 HD
ATOM     36  O   UNL     1      -3.909  -6.603   9.770  1.00  0.00    -0.269 OA
BRANCH  34  37
ATOM     37  C   UNL     1      -4.190  -6.735   7.432  1.00  0.00     0.039 A 
ATOM     38  C   UNL     1      -3.246  -7.583   6.848  1.00  0.00     0.014 A 
ATOM     39  C   UNL     1      -5.359  -6.401   6.751  1.00  0.00     0.014 A 
ATOM     40  C   UNL     1      -3.417  -7.978   5.516  1.00  0.00     0.010 A 
ATOM     41  C   UNL     1      -5.462  -6.681   5.411  1.00  0.00     0.010 A 
ATOM     42  C   UNL     1      -4.486  -7.458   4.784  1.00  0.00    -0.014 A 
BRANCH  42  43
ATOM     43  C   UNL     1      -4.692  -7.612   3.351  1.00  0.00     0.031 A 
ATOM     44  C   UNL     1      -5.775  -8.489   2.846  1.00  0.00     0.074 A 
ATOM     45  C   UNL     1      -4.048  -6.785   2.499  1.00  0.00     0.049 A 
ATOM     46  N   UNL     1      -5.821  -8.969   1.649  1.00  0.00    -0.248 NA
ATOM     47  C   UNL     1      -6.904  -8.905   3.675  1.00  0.00     0.031 C 
ATOM     48  C   UNL     1      -4.386  -6.523   1.103  1.00  0.00     0.029 A 
ATOM     49  N   UNL     1      -2.812  -6.161   2.666  1.00  0.00    -0.354 N 
ATOM     50  C   UNL     1      -7.098  -9.448   1.454  1.00  0.00     0.074 A 
ATOM     51  C   UNL     1      -7.705  -9.466   2.764  1.00  0.00     0.031 C 
ATOM     52  C   UNL     1      -3.280  -6.099   0.470  1.00  0.00     0.029 A 
ATOM     53  C   UNL     1      -2.180  -6.218   1.413  1.00  0.00     0.049 A 
ATOM     54  H   UNL     1      -2.455  -5.763   3.492  1.00  0.00     0.167 HD
ATOM     55  C   UNL     1      -7.574  -9.625   0.190  1.00  0.00     0.031 A 
ATOM     56  C   UNL     1      -1.014  -6.893   1.187  1.00  0.00     0.031 A 
ATOM     57  C   UNL     1      -6.569  -9.309  -0.821  1.00  0.00     0.049 A 
ATOM     58  C   UNL     1      -1.156  -7.972   0.132  1.00  0.00     0.074 A 
ATOM     59  C   UNL     1      -6.372  -8.216  -1.650  1.00  0.00     0.029 A 
ATOM     60  N   UNL     1      -5.400 -10.058  -0.877  1.00  0.00    -0.354 N 
ATOM     61  N   UNL     1      -2.301  -8.414  -0.311  1.00  0.00    -0.248 NA
ATOM     62  C   UNL     1      -0.028  -8.661  -0.487  1.00  0.00     0.031 C 
ATOM     63  C   UNL     1      -5.048  -8.280  -2.157  1.00  0.00     0.029 A 
ATOM     64  C   UNL     1      -4.451  -9.421  -1.652  1.00  0.00     0.049 A 
ATOM     65  H   UNL     1      -5.267 -10.923  -0.426  1.00  0.00     0.167 HD
ATOM     66  C   UNL     1      -2.098  -9.400  -1.242  1.00  0.00     0.074 A 
ATOM     67  C   UNL     1      -0.652  -9.511  -1.322  1.00  0.00     0.031 C 
ATOM     68  C   UNL     1      -3.142 -10.032  -1.859  1.00  0.00     0.031 A 
BRANCH  55  69
ATOM     69  C   UNL     1      -9.048  -9.791  -0.107  1.00  0.00    -0.014 A 
ATOM     70  C   UNL     1      -9.591  -9.246  -1.288  1.00  0.00     0.010 A 
ATOM     71  C   UNL     1      -9.956 -10.434   0.757  1.00  0.00     0.010 A 
ATOM     72  C   UNL     1     -10.969  -9.244  -1.543  1.00  0.00     0.020 A 
ATOM     73  C   UNL     1     -11.342 -10.407   0.535  1.00  0.00     0.020 A 
ATOM     74  C   UNL     1     -11.842  -9.800  -0.613  1.00  0.00     0.054 A 
BRANCH  74  75
ATOM     75  S   UNL     1     -13.626  -9.710  -0.920  1.00  0.00     0.124 S 
ATOM     76  O   UNL     1     -13.838  -8.280  -1.137  1.00  0.00    -0.237 OA
ATOM     77  O   UNL     1     -13.783 -10.555  -2.100  1.00  0.00    -0.237 OA
ATOM     78  O   UNL     1     -14.216 -10.239   0.308  1.00  0.00    -0.744 OA
ENDBRANCH  74  75
ENDBRANCH  55  69
BRANCH  56  79
ATOM     79  C   UNL     1      -0.110  -6.942   2.374  1.00  0.00    -0.014 A 
ATOM     80  C   UNL     1       0.455  -5.716   2.792  1.00  0.00     0.010 A 
ATOM     81  C   UNL     1      -0.216  -7.992   3.304  1.00  0.00     0.010 A 
ATOM     82  C   UNL     1       0.705  -5.473   4.146  1.00  0.00     0.020 A 
ATOM     83  C   UNL     1       0.050  -7.752   4.662  1.00  0.00     0.020 A 
ATOM     84  C   UNL     1       0.421  -6.469   5.079  1.00  0.00     0.054 A 
BRANCH  84  85
ATOM     85  S   UNL     1       0.360  -6.006   6.840  1.00  0.00     0.124 S 
ATOM     86  O   UNL     1       1.641  -5.334   7.033  1.00  0.00    -0.237 OA
ATOM     87  O   UNL     1      -0.822  -5.142   6.892  1.00  0.00    -0.237 OA
ATOM     88  O   UNL     1       0.216  -7.291   7.517  1.00  0.00    -0.744 OA
ENDBRANCH  84  85
ENDBRANCH  56  79
BRANCH  68  89
ATOM     89  C   UNL     1      -3.075 -11.233  -2.781  1.00  0.00    -0.014 A 
ATOM     90  C   UNL     1      -1.978 -12.097  -2.898  1.00  0.00     0.010 A 
ATOM     91  C   UNL     1      -4.240 -11.591  -3.512  1.00  0.00     0.010 A 
ATOM     92  C   UNL     1      -2.020 -13.226  -3.734  1.00  0.00     0.020 A 
ATOM     93  C   UNL     1      -4.310 -12.734  -4.312  1.00  0.00     0.020 A 
ATOM     94  C   UNL     1      -3.185 -13.536  -4.437  1.00  0.00     0.054 A 
BRANCH  94  95
ATOM     95  S   UNL     1      -3.252 -15.032  -5.453  1.00  0.00     0.124 S 
ATOM     96  O   UNL     1      -2.700 -14.560  -6.720  1.00  0.00    -0.237 OA
ATOM     97  O   UNL     1      -2.408 -15.968  -4.713  1.00  0.00    -0.237 OA
ATOM     98  O   UNL     1      -4.673 -15.370  -5.474  1.00  0.00    -0.744 OA
ENDBRANCH  94  95
ENDBRANCH  68  89
ENDBRANCH  42  43
ENDBRANCH  34  37
ENDBRANCH  32  33
ENDBRANCH  31  32
ENDBRANCH   1  31
TORSDOF 18
