REMARK SMILES COc1ncccc1Cn1ccc(C(=O)NCCCCNC(=O)c2ccc(-c3c4nc(c(-c5ccc(S(=O)(=O)[O-])cc5)c5ccc([nH]5)c(-c5ccc(S(=O)(=O)[O-])cc5)c5nc(c(-c6ccc(S(=O)(=O)[O-])cc6)c6ccc3[nH]6)C=C5)C=C4)cc2)n1
REMARK SMILES IDX 18 1 17 2 16 3 14 4 15 5 13 7 10 8 11 9 84 10 12 11 9 12
REMARK SMILES IDX 8 13 3 14 4 15 5 16 7 17 6 18 2 19 1 20 19 21 20 22 21 23
REMARK SMILES IDX 22 24 23 26 24 27 25 28 83 29 26 30 82 31 27 32 28 33 29 34
REMARK SMILES IDX 76 35 30 36 81 37 75 38 77 39 31 40 80 41 74 42 73 43 32 45
REMARK SMILES IDX 62 46 43 47 61 48 44 49 47 50 60 51 78 52 45 53 46 54 59 56
REMARK SMILES IDX 79 57 48 58 33 59 34 60 42 61 35 62 41 63 36 64 37 65 38 66
REMARK SMILES IDX 39 67 40 68 63 69 64 70 72 71 65 72 71 73 66 74 67 75 68 76
REMARK SMILES IDX 69 77 70 78 49 79 50 80 58 81 51 82 57 83 52 84 53 85 54 86
REMARK SMILES IDX 55 87 56 88
REMARK H PARENT 16 6 21 25 77 44 47 55
REMARK Flexibility Score: inf
ROOT
ATOM      1  C   UNL     1       5.406  -3.045  -4.093  1.00  0.00     0.023 C 
ENDROOT
BRANCH   1   2
ATOM      2  C   UNL     1       5.419  -1.545  -3.803  1.00  0.00     0.116 C 
BRANCH   2   3
ATOM      3  N   UNL     1       4.442  -0.856  -4.622  1.00  0.00    -0.351 N 
ATOM      4  C   UNL     1       3.215  -0.342  -4.272  1.00  0.00     0.271 C 
ATOM      5  O   UNL     1       2.531   0.177  -5.154  1.00  0.00    -0.267 OA
ATOM      6  H   UNL     1       4.693  -0.740  -5.566  1.00  0.00     0.163 HD
BRANCH   4   7
ATOM      7  C   UNL     1       2.821  -0.298  -2.857  1.00  0.00     0.150 A 
ATOM      8  N   UNL     1       2.717  -0.707  -0.766  1.00  0.00    -0.267 N 
ATOM      9  C   UNL     1       2.281   0.580  -0.901  1.00  0.00     0.110 A 
ATOM     10  N   UNL     1       3.057  -1.269  -1.948  1.00  0.00    -0.167 NA
ATOM     11  C   UNL     1       2.209   0.826  -2.247  1.00  0.00     0.056 A 
BRANCH   8  12
ATOM     12  C   UNL     1       3.011  -1.392   0.492  1.00  0.00     0.185 C 
BRANCH  12  13
ATOM     13  C   UNL     1       2.079  -2.536   0.774  1.00  0.00     0.036 A 
ATOM     14  C   UNL     1       0.842  -2.359   1.393  1.00  0.00     0.218 A 
ATOM     15  N   UNL     1      -0.014  -3.365   1.684  1.00  0.00    -0.222 NA
ATOM     16  C   UNL     1       0.379  -4.614   1.350  1.00  0.00     0.115 A 
ATOM     17  C   UNL     1       2.447  -3.849   0.452  1.00  0.00     0.013 A 
ATOM     18  C   UNL     1       1.595  -4.906   0.756  1.00  0.00     0.021 A 
BRANCH  14  19
ATOM     19  O   UNL     1       0.543  -1.156   1.980  1.00  0.00    -0.481 OA
ATOM     20  C   UNL     1      -0.167  -0.297   1.098  1.00  0.00     0.280 C 
ENDBRANCH  14  19
ENDBRANCH  12  13
ENDBRANCH   8  12
ENDBRANCH   4   7
ENDBRANCH   2   3
ENDBRANCH   1   2
BRANCH   1  21
ATOM     21  C   UNL     1       5.809  -3.421  -5.529  1.00  0.00     0.023 C 
BRANCH  21  22
ATOM     22  C   UNL     1       7.215  -2.988  -5.928  1.00  0.00     0.116 C 
BRANCH  22  23
ATOM     23  N   UNL     1       8.247  -3.621  -5.113  1.00  0.00    -0.352 N 
ATOM     24  C   UNL     1       9.605  -3.355  -5.097  1.00  0.00     0.251 C 
ATOM     25  H   UNL     1       7.939  -4.325  -4.498  1.00  0.00     0.163 HD
ATOM     26  O   UNL     1      10.397  -4.195  -4.706  1.00  0.00    -0.269 OA
BRANCH  24  27
ATOM     27  C   UNL     1      10.072  -2.030  -5.552  1.00  0.00     0.039 A 
ATOM     28  C   UNL     1      11.213  -1.895  -6.344  1.00  0.00     0.014 A 
ATOM     29  C   UNL     1       9.331  -0.910  -5.179  1.00  0.00     0.014 A 
ATOM     30  C   UNL     1      11.548  -0.631  -6.827  1.00  0.00     0.010 A 
ATOM     31  C   UNL     1       9.582   0.309  -5.761  1.00  0.00     0.010 A 
ATOM     32  C   UNL     1      10.712   0.466  -6.553  1.00  0.00    -0.014 A 
BRANCH  32  33
ATOM     33  C   UNL     1      10.943   1.757  -7.192  1.00  0.00     0.031 A 
ATOM     34  C   UNL     1      11.024   1.706  -8.675  1.00  0.00     0.074 A 
ATOM     35  C   UNL     1      10.901   2.942  -6.546  1.00  0.00     0.049 A 
ATOM     36  N   UNL     1      12.089   1.803  -9.397  1.00  0.00    -0.248 NA
ATOM     37  C   UNL     1       9.816   1.359  -9.441  1.00  0.00     0.031 C 
ATOM     38  C   UNL     1      10.530   3.216  -5.152  1.00  0.00     0.029 A 
ATOM     39  N   UNL     1      11.094   4.191  -7.050  1.00  0.00    -0.354 N 
ATOM     40  C   UNL     1      11.665   1.759 -10.720  1.00  0.00     0.074 A 
ATOM     41  C   UNL     1      10.298   1.303 -10.686  1.00  0.00     0.031 C 
ATOM     42  C   UNL     1      10.300   4.540  -4.995  1.00  0.00     0.029 A 
ATOM     43  C   UNL     1      10.684   5.225  -6.215  1.00  0.00     0.049 A 
ATOM     44  H   UNL     1      11.492   4.351  -7.936  1.00  0.00     0.167 HD
ATOM     45  C   UNL     1      12.399   2.327 -11.718  1.00  0.00     0.031 A 
ATOM     46  C   UNL     1      10.656   6.549  -6.512  1.00  0.00     0.031 A 
ATOM     47  C   UNL     1      13.708   2.713 -11.257  1.00  0.00     0.049 A 
ATOM     48  C   UNL     1      11.608   6.757  -7.629  1.00  0.00     0.074 A 
ATOM     49  C   UNL     1      14.793   2.044 -10.726  1.00  0.00     0.029 A 
ATOM     50  N   UNL     1      13.877   4.039 -10.930  1.00  0.00    -0.354 N 
ATOM     51  N   UNL     1      12.895   6.582  -7.511  1.00  0.00    -0.248 NA
ATOM     52  C   UNL     1      11.096   6.712  -8.988  1.00  0.00     0.031 C 
ATOM     53  C   UNL     1      15.295   2.913  -9.712  1.00  0.00     0.029 A 
ATOM     54  C   UNL     1      14.546   4.091  -9.735  1.00  0.00     0.049 A 
ATOM     55  H   UNL     1      13.573   4.811 -11.460  1.00  0.00     0.167 HD
ATOM     56  C   UNL     1      13.279   5.970  -8.695  1.00  0.00     0.074 A 
ATOM     57  C   UNL     1      12.150   6.169  -9.604  1.00  0.00     0.031 C 
ATOM     58  C   UNL     1      14.353   5.127  -8.739  1.00  0.00     0.031 A 
BRANCH  45  59
ATOM     59  C   UNL     1      11.818   2.900 -12.986  1.00  0.00    -0.014 A 
ATOM     60  C   UNL     1      12.700   3.379 -13.977  1.00  0.00     0.010 A 
ATOM     61  C   UNL     1      10.456   3.236 -13.123  1.00  0.00     0.010 A 
ATOM     62  C   UNL     1      12.251   4.204 -15.015  1.00  0.00     0.020 A 
ATOM     63  C   UNL     1       9.991   4.023 -14.179  1.00  0.00     0.020 A 
ATOM     64  C   UNL     1      10.897   4.528 -15.102  1.00  0.00     0.054 A 
BRANCH  64  65
ATOM     65  S   UNL     1      10.343   5.661 -16.399  1.00  0.00     0.124 S 
ATOM     66  O   UNL     1      11.000   6.906 -16.012  1.00  0.00    -0.237 OA
ATOM     67  O   UNL     1      10.856   5.021 -17.607  1.00  0.00    -0.237 OA
ATOM     68  O   UNL     1       8.888   5.651 -16.263  1.00  0.00    -0.744 OA
ENDBRANCH  64  65
ENDBRANCH  45  59
BRANCH  46  69
ATOM     69  C   UNL     1       9.657   7.572  -6.111  1.00  0.00    -0.014 A 
ATOM     70  C   UNL     1       9.899   8.944  -6.323  1.00  0.00     0.010 A 
ATOM     71  C   UNL     1       8.338   7.182  -5.803  1.00  0.00     0.010 A 
ATOM     72  C   UNL     1       8.849   9.878  -6.304  1.00  0.00     0.020 A 
ATOM     73  C   UNL     1       7.286   8.109  -5.777  1.00  0.00     0.020 A 
ATOM     74  C   UNL     1       7.543   9.450  -6.055  1.00  0.00     0.054 A 
BRANCH  74  75
ATOM     75  S   UNL     1       6.166  10.627  -6.227  1.00  0.00     0.124 S 
ATOM     76  O   UNL     1       6.354  11.497  -5.071  1.00  0.00    -0.237 OA
ATOM     77  O   UNL     1       6.429  11.237  -7.527  1.00  0.00    -0.237 OA
ATOM     78  O   UNL     1       4.978   9.775  -6.176  1.00  0.00    -0.744 OA
ENDBRANCH  74  75
ENDBRANCH  46  69
BRANCH  58  79
ATOM     79  C   UNL     1      15.309   5.111  -7.567  1.00  0.00    -0.014 A 
ATOM     80  C   UNL     1      14.950   4.757  -6.251  1.00  0.00     0.010 A 
ATOM     81  C   UNL     1      16.669   5.324  -7.854  1.00  0.00     0.010 A 
ATOM     82  C   UNL     1      15.927   4.644  -5.248  1.00  0.00     0.020 A 
ATOM     83  C   UNL     1      17.647   5.195  -6.866  1.00  0.00     0.020 A 
ATOM     84  C   UNL     1      17.271   4.866  -5.564  1.00  0.00     0.054 A 
BRANCH  84  85
ATOM     85  S   UNL     1      18.540   4.682  -4.279  1.00  0.00     0.124 S 
ATOM     86  O   UNL     1      18.261   5.810  -3.394  1.00  0.00    -0.237 OA
ATOM     87  O   UNL     1      18.253   3.361  -3.724  1.00  0.00    -0.237 OA
ATOM     88  O   UNL     1      19.800   4.773  -5.016  1.00  0.00    -0.744 OA
ENDBRANCH  84  85
ENDBRANCH  58  79
ENDBRANCH  32  33
ENDBRANCH  24  27
ENDBRANCH  22  23
ENDBRANCH  21  22
ENDBRANCH   1  21
TORSDOF 17
