REMARK SMILES C[C@H]([NH3+])CC(=O)N1CC(C(=O)NCCCCNC(=O)c2ccc(-c3c4nc(c(-c5ccc(S(=O)(=O)[O-])cc5)c5ccc([nH]5)c(-c5ccc(S(=O)(=O)[O-])cc5)c5nc(c(-c6ccc(S(=O)(=O)[O-])cc6)c6ccc3[nH]6)C=C5)C=C4)cc2)C1
REMARK SMILES IDX 14 1 13 2 12 3 10 4 11 5 9 7 5 8 6 9 7 10 8 11 80 12 4 13
REMARK SMILES IDX 2 14 1 15 3 16 15 20 16 21 17 22 18 23 19 25 20 26 21 27
REMARK SMILES IDX 79 28 22 29 78 30 23 31 24 32 25 33 72 34 26 35 77 36 71 37
REMARK SMILES IDX 73 38 27 39 76 40 70 41 69 42 28 44 58 45 39 46 57 47 40 48
REMARK SMILES IDX 43 49 56 50 74 51 41 52 42 53 55 55 75 56 44 57 29 58 30 59
REMARK SMILES IDX 38 60 31 61 37 62 32 63 33 64 34 65 35 66 36 67 59 68 60 69
REMARK SMILES IDX 68 70 61 71 67 72 62 73 63 74 64 75 65 76 66 77 45 78 46 79
REMARK SMILES IDX 54 80 47 81 53 82 48 83 49 84 50 85 51 86 52 87
REMARK H PARENT 12 6 3 17 3 18 3 19 17 24 73 43 43 54
REMARK Flexibility Score: inf
ROOT
ATOM      1  C   UNL     1       0.146   3.137  -3.161  1.00  0.00     0.023 C 
ENDROOT
BRANCH   1   2
ATOM      2  C   UNL     1      -0.946   2.169  -3.618  1.00  0.00     0.116 C 
BRANCH   2   3
ATOM      3  N   UNL     1      -0.484   1.268  -4.656  1.00  0.00    -0.356 N 
ATOM      4  C   UNL     1      -0.242  -0.084  -4.646  1.00  0.00     0.226 C 
ATOM      5  O   UNL     1       0.112  -0.570  -5.732  1.00  0.00    -0.275 OA
ATOM      6  H   UNL     1      -0.312   1.703  -5.522  1.00  0.00     0.163 HD
BRANCH   4   7
ATOM      7  C   UNL     1      -0.386  -0.954  -3.397  1.00  0.00     0.117 C 
ATOM      8  C   UNL     1      -1.565  -1.025  -0.197  1.00  0.00     0.228 C 
ATOM      9  O   UNL     1      -2.655  -1.570   0.006  1.00  0.00    -0.275 OA
ATOM     10  N   UNL     1      -1.064  -0.927  -1.456  1.00  0.00    -0.341 N 
ATOM     11  C   UNL     1      -1.747  -1.134  -2.723  1.00  0.00     0.134 C 
ATOM     12  C   UNL     1       0.191  -0.525  -2.047  1.00  0.00     0.134 C 
BRANCH   8  13
ATOM     13  C   UNL     1      -0.860  -0.314   0.950  1.00  0.00     0.164 C 
BRANCH  13  14
ATOM     14  C   UNL     1       0.625  -0.598   1.198  1.00  0.00     0.187 C 
ATOM     15  C   UNL     1       0.948  -0.456   2.691  1.00  0.00     0.075 C 
BRANCH  14  16
ATOM     16  N   UNL     1       1.482   0.358   0.485  1.00  0.00    -0.355 N 
ATOM     17  H   UNL     1       1.295   1.301   0.825  1.00  0.00     0.344 HD
ATOM     18  H   UNL     1       1.285   0.311  -0.515  1.00  0.00     0.344 HD
ATOM     19  H   UNL     1       2.462   0.125   0.650  1.00  0.00     0.344 HD
ENDBRANCH  14  16
ENDBRANCH  13  14
ENDBRANCH   8  13
ENDBRANCH   4   7
ENDBRANCH   2   3
ENDBRANCH   1   2
BRANCH   1  20
ATOM     20  C   UNL     1       0.652   4.107  -4.232  1.00  0.00     0.023 C 
BRANCH  20  21
ATOM     21  C   UNL     1      -0.416   4.959  -4.912  1.00  0.00     0.116 C 
BRANCH  21  22
ATOM     22  N   UNL     1      -1.151   5.808  -3.987  1.00  0.00    -0.352 N 
ATOM     23  C   UNL     1      -1.542   7.117  -4.152  1.00  0.00     0.251 C 
ATOM     24  H   UNL     1      -1.402   5.391  -3.131  1.00  0.00     0.163 HD
ATOM     25  O   UNL     1      -2.067   7.728  -3.226  1.00  0.00    -0.269 OA
BRANCH  23  26
ATOM     26  C   UNL     1      -1.284   7.793  -5.441  1.00  0.00     0.039 A 
ATOM     27  C   UNL     1      -0.620   9.023  -5.442  1.00  0.00     0.014 A 
ATOM     28  C   UNL     1      -1.649   7.187  -6.646  1.00  0.00     0.014 A 
ATOM     29  C   UNL     1      -0.243   9.605  -6.656  1.00  0.00     0.010 A 
ATOM     30  C   UNL     1      -1.220   7.737  -7.850  1.00  0.00     0.010 A 
ATOM     31  C   UNL     1      -0.500   8.943  -7.867  1.00  0.00    -0.014 A 
BRANCH  31  32
ATOM     32  C   UNL     1      -0.007   9.466  -9.167  1.00  0.00     0.031 A 
ATOM     33  C   UNL     1      -0.987   9.876 -10.231  1.00  0.00     0.074 A 
ATOM     34  C   UNL     1       1.316   9.472  -9.428  1.00  0.00     0.049 A 
ATOM     35  N   UNL     1      -0.761  10.204 -11.477  1.00  0.00    -0.248 NA
ATOM     36  C   UNL     1      -2.408   9.891  -9.850  1.00  0.00     0.031 C 
ATOM     37  C   UNL     1       2.369   9.072  -8.492  1.00  0.00     0.029 A 
ATOM     38  N   UNL     1       1.999   9.806 -10.572  1.00  0.00    -0.354 N 
ATOM     39  C   UNL     1      -2.012  10.435 -12.038  1.00  0.00     0.074 A 
ATOM     40  C   UNL     1      -2.992  10.180 -11.005  1.00  0.00     0.031 C 
ATOM     41  C   UNL     1       3.563   9.194  -9.095  1.00  0.00     0.029 A 
ATOM     42  C   UNL     1       3.360   9.635 -10.472  1.00  0.00     0.049 A 
ATOM     43  H   UNL     1       1.557  10.138 -11.386  1.00  0.00     0.167 HD
ATOM     44  C   UNL     1      -2.316  10.833 -13.296  1.00  0.00     0.031 A 
ATOM     45  C   UNL     1       4.335   9.794 -11.388  1.00  0.00     0.031 A 
ATOM     46  C   UNL     1      -1.339  11.105 -14.316  1.00  0.00     0.049 A 
ATOM     47  C   UNL     1       3.973  10.232 -12.781  1.00  0.00     0.074 A 
ATOM     48  C   UNL     1      -1.547  11.564 -15.605  1.00  0.00     0.029 A 
ATOM     49  N   UNL     1       0.029  10.947 -14.163  1.00  0.00    -0.354 N 
ATOM     50  N   UNL     1       2.787  10.487 -13.280  1.00  0.00    -0.248 NA
ATOM     51  C   UNL     1       5.080  10.408 -13.732  1.00  0.00     0.031 C 
ATOM     52  C   UNL     1      -0.306  11.648 -16.244  1.00  0.00     0.029 A 
ATOM     53  C   UNL     1       0.678  11.286 -15.338  1.00  0.00     0.049 A 
ATOM     54  H   UNL     1       0.474  10.640 -13.340  1.00  0.00     0.167 HD
ATOM     55  C   UNL     1       3.008  10.879 -14.595  1.00  0.00     0.074 A 
ATOM     56  C   UNL     1       4.439  10.834 -14.813  1.00  0.00     0.031 C 
ATOM     57  C   UNL     1       2.104  11.246 -15.536  1.00  0.00     0.031 A 
BRANCH  44  58
ATOM     58  C   UNL     1      -3.772  10.990 -13.639  1.00  0.00    -0.014 A 
ATOM     59  C   UNL     1      -4.529  12.055 -13.119  1.00  0.00     0.010 A 
ATOM     60  C   UNL     1      -4.386  10.077 -14.516  1.00  0.00     0.010 A 
ATOM     61  C   UNL     1      -5.884  12.179 -13.432  1.00  0.00     0.020 A 
ATOM     62  C   UNL     1      -5.736  10.212 -14.852  1.00  0.00     0.020 A 
ATOM     63  C   UNL     1      -6.481  11.251 -14.292  1.00  0.00     0.054 A 
BRANCH  63  64
ATOM     64  S   UNL     1      -8.241  11.440 -14.691  1.00  0.00     0.124 S 
ATOM     65  O   UNL     1      -8.878  10.957 -13.468  1.00  0.00    -0.237 OA
ATOM     66  O   UNL     1      -8.364  12.874 -14.939  1.00  0.00    -0.237 OA
ATOM     67  O   UNL     1      -8.422  10.590 -15.865  1.00  0.00    -0.744 OA
ENDBRANCH  63  64
ENDBRANCH  44  58
BRANCH  45  68
ATOM     68  C   UNL     1       5.753   9.540 -11.015  1.00  0.00    -0.014 A 
ATOM     69  C   UNL     1       6.645  10.613 -10.850  1.00  0.00     0.010 A 
ATOM     70  C   UNL     1       6.213   8.227 -10.807  1.00  0.00     0.010 A 
ATOM     71  C   UNL     1       7.977  10.379 -10.496  1.00  0.00     0.020 A 
ATOM     72  C   UNL     1       7.538   7.990 -10.429  1.00  0.00     0.020 A 
ATOM     73  C   UNL     1       8.415   9.068 -10.286  1.00  0.00     0.054 A 
BRANCH  73  74
ATOM     74  S   UNL     1      10.132   8.790  -9.770  1.00  0.00     0.124 S 
ATOM     75  O   UNL     1      10.859   8.978 -11.020  1.00  0.00    -0.237 OA
ATOM     76  O   UNL     1      10.332   9.825  -8.759  1.00  0.00    -0.237 OA
ATOM     77  O   UNL     1      10.114   7.423  -9.252  1.00  0.00    -0.744 OA
ENDBRANCH  73  74
ENDBRANCH  45  68
BRANCH  57  78
ATOM     78  C   UNL     1       2.630  11.669 -16.880  1.00  0.00    -0.014 A 
ATOM     79  C   UNL     1       3.084  10.722 -17.814  1.00  0.00     0.010 A 
ATOM     80  C   UNL     1       2.588  13.028 -17.242  1.00  0.00     0.010 A 
ATOM     81  C   UNL     1       3.499  11.129 -19.085  1.00  0.00     0.020 A 
ATOM     82  C   UNL     1       2.982  13.436 -18.518  1.00  0.00     0.020 A 
ATOM     83  C   UNL     1       3.442  12.484 -19.430  1.00  0.00     0.054 A 
BRANCH  83  84
ATOM     84  S   UNL     1       3.915  12.980 -21.110  1.00  0.00     0.124 S 
ATOM     85  O   UNL     1       5.372  12.903 -21.050  1.00  0.00    -0.237 OA
ATOM     86  O   UNL     1       3.266  11.967 -21.939  1.00  0.00    -0.237 OA
ATOM     87  O   UNL     1       3.366  14.328 -21.240  1.00  0.00    -0.744 OA
ENDBRANCH  83  84
ENDBRANCH  57  78
ENDBRANCH  31  32
ENDBRANCH  23  26
ENDBRANCH  21  22
ENDBRANCH  20  21
ENDBRANCH   1  20
TORSDOF 17
