REMARK SMILES COc1ccc(CCN2C(=O)C[C@@H](C(=O)NCCCCNC(=O)c3ccc(-c4c5nc(c(-c6ccc(S(=O)(=O)[O-])cc6)c6ccc([nH]6)c(-c6ccc(S(=O)(=O)[O-])cc6)c6nc(c(-c7ccc(S(=O)(=O)[O-])cc7)c7ccc4[nH]7)C=C6)C=C5)cc3)S/C2=[NH+]\c2ccc(F)cc2)cc1OC
REMARK SMILES IDX 18 1 17 2 16 3 14 4 15 5 13 7 9 8 10 9 85 10 11 11 12 12
REMARK SMILES IDX 84 13 86 14 8 16 7 17 6 18 3 19 4 20 95 21 5 22 94 23 2 24
REMARK SMILES IDX 1 25 96 26 97 27 87 28 88 29 93 30 89 31 92 32 90 33 91 34
REMARK SMILES IDX 19 35 20 36 21 37 22 38 23 40 24 41 25 42 83 43 26 44 82 45
REMARK SMILES IDX 27 46 28 47 29 48 76 49 30 50 81 51 75 52 77 53 31 54 80 55
REMARK SMILES IDX 74 56 73 57 32 59 62 60 43 61 61 62 44 63 47 64 60 65 78 66
REMARK SMILES IDX 45 67 46 68 59 70 79 71 48 72 33 73 34 74 42 75 35 76 41 77
REMARK SMILES IDX 36 78 37 79 38 80 39 81 40 82 63 83 64 84 72 85 65 86 71 87
REMARK SMILES IDX 66 88 67 89 68 90 69 91 70 92 49 93 50 94 58 95 51 96 57 97
REMARK SMILES IDX 52 98 53 99 54 100 55 101 56 102
REMARK H PARENT 16 6 86 15 21 39 77 58 47 69
REMARK Flexibility Score: inf
ROOT
ATOM      1  C   UNL     1      -2.264  -6.276   0.720  1.00  0.00     0.023 C 
ENDROOT
BRANCH   1   2
ATOM      2  C   UNL     1      -2.147  -5.059   1.630  1.00  0.00     0.116 C 
BRANCH   2   3
ATOM      3  N   UNL     1      -3.401  -4.565   2.161  1.00  0.00    -0.355 N 
ATOM      4  C   UNL     1      -3.807  -4.311   3.440  1.00  0.00     0.234 C 
ATOM      5  O   UNL     1      -4.890  -3.731   3.572  1.00  0.00    -0.274 OA
ATOM      6  H   UNL     1      -4.084  -4.379   1.477  1.00  0.00     0.163 HD
BRANCH   4   7
ATOM      7  C   UNL     1      -2.978  -4.648   4.688  1.00  0.00     0.160 C 
ATOM      8  N   UNL     1      -0.082  -5.315   4.972  1.00  0.00    -0.191 N 
ATOM      9  C   UNL     1      -0.526  -4.056   5.337  1.00  0.00     0.311 C 
ATOM     10  C   UNL     1      -0.871  -6.434   5.205  1.00  0.00     0.319 C 
ATOM     11  O   UNL     1       0.209  -3.240   5.902  1.00  0.00    -0.247 OA
ATOM     12  C   UNL     1      -1.923  -3.619   4.985  1.00  0.00     0.153 C 
ATOM     13  S   UNL     1      -2.542  -6.365   4.702  1.00  0.00    -0.024 SA
ATOM     14  N   UNL     1      -0.364  -7.514   5.731  1.00  0.00    -0.235 N 
ATOM     15  H   UNL     1       0.602  -7.582   5.908  1.00  0.00     0.313 HD
BRANCH   8  16
ATOM     16  C   UNL     1       1.389  -5.461   4.822  1.00  0.00     0.251 C 
BRANCH  16  17
ATOM     17  C   UNL     1       1.912  -5.286   3.362  1.00  0.00     0.082 C 
BRANCH  17  18
ATOM     18  C   UNL     1       1.832  -3.913   2.714  1.00  0.00    -0.040 A 
ATOM     19  C   UNL     1       1.576  -1.380   1.437  1.00  0.00     0.160 A 
ATOM     20  C   UNL     1       0.462  -2.038   1.942  1.00  0.00     0.051 A 
ATOM     21  C   UNL     1       2.834  -1.990   1.550  1.00  0.00     0.160 A 
ATOM     22  C   UNL     1       0.603  -3.290   2.533  1.00  0.00     0.008 A 
ATOM     23  C   UNL     1       2.950  -3.246   2.195  1.00  0.00     0.054 A 
BRANCH  19  24
ATOM     24  O   UNL     1       1.444  -0.119   0.920  1.00  0.00    -0.493 OA
ATOM     25  C   UNL     1       0.389   0.013  -0.032  1.00  0.00     0.278 C 
ENDBRANCH  19  24
BRANCH  21  26
ATOM     26  O   UNL     1       4.030  -1.500   1.085  1.00  0.00    -0.493 OA
ATOM     27  C   UNL     1       3.971  -0.461   0.112  1.00  0.00     0.278 C 
ENDBRANCH  21  26
ENDBRANCH  17  18
ENDBRANCH  16  17
ENDBRANCH   8  16
BRANCH  14  28
ATOM     28  C   UNL     1      -1.233  -8.584   6.039  1.00  0.00     0.125 A 
ATOM     29  C   UNL     1      -1.912  -8.599   7.269  1.00  0.00     0.055 A 
ATOM     30  C   UNL     1      -1.536  -9.556   5.078  1.00  0.00     0.055 A 
ATOM     31  C   UNL     1      -2.943  -9.514   7.495  1.00  0.00     0.043 A 
ATOM     32  C   UNL     1      -2.571 -10.467   5.302  1.00  0.00     0.043 A 
ATOM     33  C   UNL     1      -3.275 -10.427   6.501  1.00  0.00     0.123 A 
ATOM     34  F   UNL     1      -4.298 -11.268   6.695  1.00  0.00    -0.207 F 
ENDBRANCH  14  28
ENDBRANCH   4   7
ENDBRANCH   2   3
ENDBRANCH   1   2
BRANCH   1  35
ATOM     35  C   UNL     1      -3.003  -6.046  -0.595  1.00  0.00     0.023 C 
BRANCH  35  36
ATOM     36  C   UNL     1      -2.504  -4.886  -1.452  1.00  0.00     0.116 C 
BRANCH  36  37
ATOM     37  N   UNL     1      -1.129  -5.037  -1.907  1.00  0.00    -0.352 N 
ATOM     38  C   UNL     1      -0.623  -4.938  -3.185  1.00  0.00     0.251 C 
ATOM     39  H   UNL     1      -0.469  -5.236  -1.204  1.00  0.00     0.163 HD
ATOM     40  O   UNL     1       0.558  -5.197  -3.401  1.00  0.00    -0.269 OA
BRANCH  38  41
ATOM     41  C   UNL     1      -1.516  -4.558  -4.303  1.00  0.00     0.039 A 
ATOM     42  C   UNL     1      -1.515  -5.332  -5.467  1.00  0.00     0.014 A 
ATOM     43  C   UNL     1      -2.387  -3.472  -4.185  1.00  0.00     0.014 A 
ATOM     44  C   UNL     1      -2.454  -5.074  -6.470  1.00  0.00     0.010 A 
ATOM     45  C   UNL     1      -3.372  -3.269  -5.147  1.00  0.00     0.010 A 
ATOM     46  C   UNL     1      -3.425  -4.074  -6.296  1.00  0.00    -0.014 A 
BRANCH  46  47
ATOM     47  C   UNL     1      -4.517  -3.868  -7.285  1.00  0.00     0.031 A 
ATOM     48  C   UNL     1      -4.647  -2.555  -8.011  1.00  0.00     0.074 A 
ATOM     49  C   UNL     1      -5.445  -4.830  -7.467  1.00  0.00     0.049 A 
ATOM     50  N   UNL     1      -5.578  -2.161  -8.841  1.00  0.00    -0.248 NA
ATOM     51  C   UNL     1      -3.610  -1.543  -7.747  1.00  0.00     0.031 C 
ATOM     52  C   UNL     1      -5.466  -6.129  -6.790  1.00  0.00     0.029 A 
ATOM     53  N   UNL     1      -6.560  -4.860  -8.269  1.00  0.00    -0.354 N 
ATOM     54  C   UNL     1      -5.254  -0.852  -9.180  1.00  0.00     0.074 A 
ATOM     55  C   UNL     1      -4.067  -0.503  -8.430  1.00  0.00     0.031 C 
ATOM     56  C   UNL     1      -6.524  -6.835  -7.220  1.00  0.00     0.029 A 
ATOM     57  C   UNL     1      -7.282  -6.027  -8.170  1.00  0.00     0.049 A 
ATOM     58  H   UNL     1      -6.819  -4.116  -8.859  1.00  0.00     0.167 HD
ATOM     59  C   UNL     1      -5.877  -0.020 -10.049  1.00  0.00     0.031 A 
ATOM     60  C   UNL     1      -8.431  -6.404  -8.766  1.00  0.00     0.031 A 
ATOM     61  C   UNL     1      -7.047  -0.374 -10.809  1.00  0.00     0.049 A 
ATOM     62  C   UNL     1      -9.103  -5.464  -9.729  1.00  0.00     0.074 A 
ATOM     63  C   UNL     1      -7.707   0.375 -11.767  1.00  0.00     0.029 A 
ATOM     64  N   UNL     1      -7.732  -1.574 -10.697  1.00  0.00    -0.354 N 
ATOM     65  N   UNL     1      -8.736  -4.258 -10.094  1.00  0.00    -0.248 NA
ATOM     66  C   UNL     1     -10.337  -5.939 -10.371  1.00  0.00     0.031 C 
ATOM     67  C   UNL     1      -8.823  -0.350 -12.196  1.00  0.00     0.029 A 
ATOM     68  C   UNL     1      -8.824  -1.575 -11.549  1.00  0.00     0.049 A 
ATOM     69  H   UNL     1      -7.480  -2.315 -10.100  1.00  0.00     0.167 HD
ATOM     70  C   UNL     1      -9.680  -3.842 -11.026  1.00  0.00     0.074 A 
ATOM     71  C   UNL     1     -10.624  -4.929 -11.181  1.00  0.00     0.031 C 
ATOM     72  C   UNL     1      -9.756  -2.665 -11.695  1.00  0.00     0.031 A 
BRANCH  59  73
ATOM     73  C   UNL     1      -5.306   1.363 -10.222  1.00  0.00    -0.014 A 
ATOM     74  C   UNL     1      -4.074   1.566 -10.869  1.00  0.00     0.010 A 
ATOM     75  C   UNL     1      -6.034   2.480  -9.771  1.00  0.00     0.010 A 
ATOM     76  C   UNL     1      -3.560   2.856 -11.023  1.00  0.00     0.020 A 
ATOM     77  C   UNL     1      -5.537   3.774  -9.949  1.00  0.00     0.020 A 
ATOM     78  C   UNL     1      -4.293   3.952 -10.559  1.00  0.00     0.054 A 
BRANCH  78  79
ATOM     79  S   UNL     1      -3.611   5.616 -10.793  1.00  0.00     0.124 S 
ATOM     80  O   UNL     1      -2.533   5.638  -9.807  1.00  0.00    -0.237 OA
ATOM     81  O   UNL     1      -3.183   5.594 -12.189  1.00  0.00    -0.237 OA
ATOM     82  O   UNL     1      -4.738   6.498 -10.503  1.00  0.00    -0.744 OA
ENDBRANCH  78  79
ENDBRANCH  59  73
BRANCH  60  83
ATOM     83  C   UNL     1      -9.017  -7.742  -8.475  1.00  0.00    -0.014 A 
ATOM     84  C   UNL     1      -9.007  -8.754  -9.452  1.00  0.00     0.010 A 
ATOM     85  C   UNL     1      -9.582  -8.014  -7.216  1.00  0.00     0.010 A 
ATOM     86  C   UNL     1      -9.568 -10.006  -9.181  1.00  0.00     0.020 A 
ATOM     87  C   UNL     1     -10.118  -9.274  -6.932  1.00  0.00     0.020 A 
ATOM     88  C   UNL     1     -10.118 -10.258  -7.922  1.00  0.00     0.054 A 
BRANCH  88  89
ATOM     89  S   UNL     1     -10.795 -11.906  -7.576  1.00  0.00     0.124 S 
ATOM     90  O   UNL     1     -12.044 -11.885  -8.330  1.00  0.00    -0.237 OA
ATOM     91  O   UNL     1      -9.755 -12.790  -8.097  1.00  0.00    -0.237 OA
ATOM     92  O   UNL     1     -10.939 -11.917  -6.122  1.00  0.00    -0.744 OA
ENDBRANCH  88  89
ENDBRANCH  60  83
BRANCH  72  93
ATOM     93  C   UNL     1     -10.879  -2.497 -12.683  1.00  0.00    -0.014 A 
ATOM     94  C   UNL     1     -12.206  -2.314 -12.257  1.00  0.00     0.010 A 
ATOM     95  C   UNL     1     -10.590  -2.460 -14.060  1.00  0.00     0.010 A 
ATOM     96  C   UNL     1     -13.228  -2.125 -13.191  1.00  0.00     0.020 A 
ATOM     97  C   UNL     1     -11.604  -2.244 -14.995  1.00  0.00     0.020 A 
ATOM     98  C   UNL     1     -12.920  -2.090 -14.555  1.00  0.00     0.054 A 
BRANCH  98  99
ATOM     99  S   UNL     1     -14.257  -1.794 -15.745  1.00  0.00     0.124 S 
ATOM    100  O   UNL     1     -14.962  -3.072 -15.735  1.00  0.00    -0.237 OA
ATOM    101  O   UNL     1     -14.978  -0.674 -15.144  1.00  0.00    -0.237 OA
ATOM    102  O   UNL     1     -13.553  -1.479 -16.986  1.00  0.00    -0.744 OA
ENDBRANCH  98  99
ENDBRANCH  72  93
ENDBRANCH  46  47
ENDBRANCH  38  41
ENDBRANCH  36  37
ENDBRANCH  35  36
ENDBRANCH   1  35
TORSDOF 20
