REMARK SMILES O=C(NCCCCNC(=O)c1cc(Cl)ncc1-c1cccc(C(F)(F)F)c1)c1ccc(-c2c3nc(c(-c4ccc(S(=O)(=O)[O-])cc4)c4ccc([nH]4)c(-c4ccc(S(=O)(=O)[O-])cc4)c4nc(c(-c5ccc(S(=O)(=O)[O-])cc5)c5ccc2[nH]5)C=C4)C=C3)cc1
REMARK SMILES IDX 5 1 4 2 3 3 1 4 2 5 28 7 29 8 87 9 30 10 86 11 31 12 32 13
REMARK SMILES IDX 33 14 80 15 34 16 85 17 79 18 81 19 35 20 84 21 78 22 77 23
REMARK SMILES IDX 36 25 66 26 47 27 65 28 48 29 51 30 64 31 82 32 49 33 50 34
REMARK SMILES IDX 63 36 83 37 52 38 37 39 38 40 46 41 39 42 45 43 40 44 41 45
REMARK SMILES IDX 42 46 43 47 44 48 67 49 68 50 76 51 69 52 75 53 70 54 71 55
REMARK SMILES IDX 72 56 73 57 74 58 53 59 54 60 62 61 55 62 61 63 56 64 57 65
REMARK SMILES IDX 58 66 59 67 60 68 6 69 7 70 8 71 9 72 10 74 11 75 12 76
REMARK SMILES IDX 17 77 13 78 16 79 14 80 15 81 18 82 19 83 27 84 20 85 22 86
REMARK SMILES IDX 21 87 23 88 24 89 25 90 26 91
REMARK H PARENT 3 6 81 24 51 35 8 73
REMARK Flexibility Score: inf
ROOT
ATOM      1  C   UNL     1       4.931  -2.481   0.932  1.00  0.00     0.023 C 
ENDROOT
BRANCH   1   2
ATOM      2  C   UNL     1       4.561  -1.393  -0.067  1.00  0.00     0.116 C 
BRANCH   2   3
ATOM      3  N   UNL     1       3.125  -1.221  -0.227  1.00  0.00    -0.352 N 
ATOM      4  O   UNL     1       1.133  -0.168  -0.116  1.00  0.00    -0.269 OA
ATOM      5  C   UNL     1       2.357  -0.091  -0.056  1.00  0.00     0.251 C 
ATOM      6  H   UNL     1       2.631  -2.029  -0.495  1.00  0.00     0.163 HD
BRANCH   5   7
ATOM      7  C   UNL     1       3.010   1.205   0.233  1.00  0.00     0.039 A 
ATOM      8  C   UNL     1       4.131   1.614  -0.490  1.00  0.00     0.014 A 
ATOM      9  C   UNL     1       2.505   2.010   1.258  1.00  0.00     0.014 A 
ATOM     10  C   UNL     1       4.849   2.730  -0.076  1.00  0.00     0.010 A 
ATOM     11  C   UNL     1       3.174   3.188   1.607  1.00  0.00     0.010 A 
ATOM     12  C   UNL     1       4.375   3.536   0.972  1.00  0.00    -0.014 A 
BRANCH  12  13
ATOM     13  C   UNL     1       5.129   4.761   1.348  1.00  0.00     0.031 A 
ATOM     14  C   UNL     1       5.746   4.913   2.712  1.00  0.00     0.074 A 
ATOM     15  C   UNL     1       5.278   5.736   0.429  1.00  0.00     0.049 A 
ATOM     16  N   UNL     1       6.460   5.903   3.186  1.00  0.00    -0.248 NA
ATOM     17  C   UNL     1       5.529   3.819   3.672  1.00  0.00     0.031 C 
ATOM     18  C   UNL     1       4.730   5.703  -0.930  1.00  0.00     0.029 A 
ATOM     19  N   UNL     1       5.952   6.929   0.486  1.00  0.00    -0.354 N 
ATOM     20  C   UNL     1       6.758   5.566   4.502  1.00  0.00     0.074 A 
ATOM     21  C   UNL     1       6.122   4.291   4.760  1.00  0.00     0.031 C 
ATOM     22  C   UNL     1       5.136   6.794  -1.594  1.00  0.00     0.029 A 
ATOM     23  C   UNL     1       5.910   7.638  -0.691  1.00  0.00     0.049 A 
ATOM     24  H   UNL     1       6.419   7.247   1.292  1.00  0.00     0.167 HD
ATOM     25  C   UNL     1       7.493   6.254   5.411  1.00  0.00     0.031 A 
ATOM     26  C   UNL     1       6.423   8.840  -1.011  1.00  0.00     0.031 A 
ATOM     27  C   UNL     1       8.114   7.529   5.149  1.00  0.00     0.049 A 
ATOM     28  C   UNL     1       7.196   9.602   0.024  1.00  0.00     0.074 A 
ATOM     29  C   UNL     1       8.905   8.291   5.992  1.00  0.00     0.029 A 
ATOM     30  N   UNL     1       8.005   8.236   3.960  1.00  0.00    -0.354 N 
ATOM     31  N   UNL     1       7.493   9.251   1.252  1.00  0.00    -0.248 NA
ATOM     32  C   UNL     1       7.705  10.921  -0.371  1.00  0.00     0.031 C 
ATOM     33  C   UNL     1       9.220   9.486   5.336  1.00  0.00     0.029 A 
ATOM     34  C   UNL     1       8.687   9.439   4.057  1.00  0.00     0.049 A 
ATOM     35  H   UNL     1       7.514   7.929   3.163  1.00  0.00     0.167 HD
ATOM     36  C   UNL     1       8.248  10.296   1.771  1.00  0.00     0.074 A 
ATOM     37  C   UNL     1       8.371  11.284   0.717  1.00  0.00     0.031 C 
ATOM     38  C   UNL     1       8.794  10.421   3.006  1.00  0.00     0.031 A 
BRANCH  25  39
ATOM     39  C   UNL     1       7.627   5.660   6.792  1.00  0.00    -0.014 A 
ATOM     40  C   UNL     1       8.369   4.487   7.022  1.00  0.00     0.010 A 
ATOM     41  C   UNL     1       7.011   6.299   7.885  1.00  0.00     0.010 A 
ATOM     42  C   UNL     1       8.441   3.933   8.304  1.00  0.00     0.020 A 
ATOM     43  C   UNL     1       7.107   5.766   9.174  1.00  0.00     0.020 A 
ATOM     44  C   UNL     1       7.800   4.571   9.370  1.00  0.00     0.054 A 
BRANCH  44  45
ATOM     45  S   UNL     1       7.893   3.820  11.019  1.00  0.00     0.124 S 
ATOM     46  O   UNL     1       7.006   2.667  10.873  1.00  0.00    -0.237 OA
ATOM     47  O   UNL     1       9.313   3.506  11.150  1.00  0.00    -0.237 OA
ATOM     48  O   UNL     1       7.405   4.871  11.908  1.00  0.00    -0.744 OA
ENDBRANCH  44  45
ENDBRANCH  25  39
BRANCH  26  49
ATOM     49  C   UNL     1       6.217   9.380  -2.382  1.00  0.00    -0.014 A 
ATOM     50  C   UNL     1       7.291   9.464  -3.284  1.00  0.00     0.010 A 
ATOM     51  C   UNL     1       4.930   9.760  -2.810  1.00  0.00     0.010 A 
ATOM     52  C   UNL     1       7.083   9.917  -4.589  1.00  0.00     0.020 A 
ATOM     53  C   UNL     1       4.713  10.185  -4.122  1.00  0.00     0.020 A 
ATOM     54  C   UNL     1       5.793  10.267  -5.003  1.00  0.00     0.054 A 
BRANCH  54  55
ATOM     55  S   UNL     1       5.537  10.775  -6.725  1.00  0.00     0.124 S 
ATOM     56  O   UNL     1       6.153  12.098  -6.746  1.00  0.00    -0.237 OA
ATOM     57  O   UNL     1       6.243   9.734  -7.468  1.00  0.00    -0.237 OA
ATOM     58  O   UNL     1       4.083  10.757  -6.874  1.00  0.00    -0.744 OA
ENDBRANCH  54  55
ENDBRANCH  26  49
BRANCH  38  59
ATOM     59  C   UNL     1       9.609  11.659   3.276  1.00  0.00    -0.014 A 
ATOM     60  C   UNL     1       9.005  12.922   3.410  1.00  0.00     0.010 A 
ATOM     61  C   UNL     1      11.002  11.546   3.438  1.00  0.00     0.010 A 
ATOM     62  C   UNL     1       9.784  14.054   3.664  1.00  0.00     0.020 A 
ATOM     63  C   UNL     1      11.780  12.670   3.723  1.00  0.00     0.020 A 
ATOM     64  C   UNL     1      11.168  13.920   3.819  1.00  0.00     0.054 A 
BRANCH  64  65
ATOM     65  S   UNL     1      12.153  15.398   4.187  1.00  0.00     0.124 S 
ATOM     66  O   UNL     1      12.147  16.095   2.903  1.00  0.00    -0.237 OA
ATOM     67  O   UNL     1      11.385  16.037   5.253  1.00  0.00    -0.237 OA
ATOM     68  O   UNL     1      13.447  14.859   4.597  1.00  0.00    -0.744 OA
ENDBRANCH  64  65
ENDBRANCH  38  59
ENDBRANCH  12  13
ENDBRANCH   5   7
ENDBRANCH   2   3
ENDBRANCH   1   2
BRANCH   1  69
ATOM     69  C   UNL     1       4.458  -3.887   0.576  1.00  0.00     0.023 C 
BRANCH  69  70
ATOM     70  C   UNL     1       4.823  -4.365  -0.825  1.00  0.00     0.116 C 
BRANCH  70  71
ATOM     71  N   UNL     1       6.258  -4.395  -1.067  1.00  0.00    -0.352 N 
ATOM     72  C   UNL     1       7.055  -5.435  -1.475  1.00  0.00     0.252 C 
ATOM     73  H   UNL     1       6.727  -3.542  -0.915  1.00  0.00     0.163 HD
ATOM     74  O   UNL     1       8.260  -5.276  -1.641  1.00  0.00    -0.269 OA
BRANCH  72  75
ATOM     75  C   UNL     1       6.447  -6.754  -1.731  1.00  0.00     0.052 A 
ATOM     76  C   UNL     1       5.468  -6.833  -2.727  1.00  0.00     0.055 A 
ATOM     77  C   UNL     1       6.859  -7.897  -1.027  1.00  0.00     0.013 A 
ATOM     78  C   UNL     1       4.862  -8.051  -2.928  1.00  0.00     0.129 A 
ATOM     79  C   UNL     1       6.168  -9.069  -1.338  1.00  0.00     0.122 A 
ATOM     80  Cl  UNL     1       3.591  -8.225  -4.064  1.00  0.00    -0.062 Cl
ATOM     81  N   UNL     1       5.174  -9.172  -2.254  1.00  0.00    -0.244 NA
BRANCH  77  82
ATOM     82  C   UNL     1       7.941  -7.928  -0.030  1.00  0.00    -0.015 A 
ATOM     83  C   UNL     1       9.078  -8.725  -0.249  1.00  0.00     0.009 A 
ATOM     84  C   UNL     1       7.871  -7.189   1.163  1.00  0.00     0.021 A 
ATOM     85  C   UNL     1      10.110  -8.786   0.689  1.00  0.00     0.001 A 
ATOM     86  C   UNL     1       8.908  -7.236   2.113  1.00  0.00     0.056 A 
ATOM     87  C   UNL     1      10.024  -8.047   1.865  1.00  0.00     0.013 A 
BRANCH  86  88
ATOM     88  C   UNL     1       8.834  -6.438   3.392  1.00  0.00     0.416 C 
ATOM     89  F   UNL     1       8.807  -7.239   4.494  1.00  0.00    -0.166 F 
ATOM     90  F   UNL     1       9.902  -5.611   3.557  1.00  0.00    -0.166 F 
ATOM     91  F   UNL     1       7.727  -5.649   3.478  1.00  0.00    -0.166 F 
ENDBRANCH  86  88
ENDBRANCH  77  82
ENDBRANCH  72  75
ENDBRANCH  70  71
ENDBRANCH  69  70
ENDBRANCH   1  69
TORSDOF 16
