REMARK SMILES CCC[C@H]1CC[C@H](C(=O)NCCCCNC(=O)c2ccc(-c3c4nc(c(-c5ccc(S(=O)(=O)[O-])cc5)c5ccc([nH]5)c(-c5ccc(S(=O)(=O)[O-])cc5)c5nc(c(-c6ccc(S(=O)(=O)[O-])cc6)c6ccc3[nH]6)C=C5)C=C4)cc2)[C@H](Sc2ccncc2)C1
REMARK SMILES IDX 13 1 12 2 11 3 10 4 8 5 9 6 7 8 4 9 5 10 86 11 6 12 78 13
REMARK SMILES IDX 3 14 2 15 1 16 79 17 80 18 81 19 85 20 82 21 84 22 83 23
REMARK SMILES IDX 14 24 15 25 16 26 17 28 18 29 19 30 77 31 20 32 76 33 21 34
REMARK SMILES IDX 22 35 23 36 70 37 24 38 75 39 69 40 71 41 25 42 74 43 68 44
REMARK SMILES IDX 67 45 26 47 56 48 37 49 55 50 38 51 41 52 54 53 72 54 39 55
REMARK SMILES IDX 40 56 53 58 73 59 42 60 27 61 28 62 36 63 29 64 35 65 30 66
REMARK SMILES IDX 31 67 32 68 33 69 34 70 57 71 58 72 66 73 59 74 65 75 60 76
REMARK SMILES IDX 61 77 62 78 63 79 64 80 43 81 44 82 52 83 45 84 51 85 46 86
REMARK SMILES IDX 47 87 48 88 49 89 50 90
REMARK H PARENT 10 7 15 27 71 46 41 57
REMARK Flexibility Score: inf
ROOT
ATOM      1  C   UNL     1       4.895  -0.751   0.476  1.00  0.00     0.023 C 
ENDROOT
BRANCH   1   2
ATOM      2  C   UNL     1       3.511  -0.895   1.096  1.00  0.00     0.023 C 
BRANCH   2   3
ATOM      3  C   UNL     1       3.397  -2.017   2.127  1.00  0.00     0.116 C 
BRANCH   3   4
ATOM      4  N   UNL     1       3.451  -1.535   3.486  1.00  0.00    -0.356 N 
ATOM      5  C   UNL     1       2.587  -1.583   4.525  1.00  0.00     0.224 C 
ATOM      6  O   UNL     1       3.027  -1.130   5.593  1.00  0.00    -0.275 OA
ATOM      7  H   UNL     1       4.293  -1.074   3.702  1.00  0.00     0.163 HD
BRANCH   5   8
ATOM      8  C   UNL     1       1.127  -2.059   4.489  1.00  0.00     0.092 C 
ATOM      9  C   UNL     1      -0.170  -2.567   1.790  1.00  0.00    -0.010 C 
ATOM     10  C   UNL     1       0.107  -1.150   2.334  1.00  0.00     0.004 C 
ATOM     11  C   UNL     1       0.456  -3.743   2.594  1.00  0.00     0.019 C 
ATOM     12  C   UNL     1       0.208  -1.020   3.841  1.00  0.00     0.015 C 
ATOM     13  C   UNL     1       0.688  -3.470   4.083  1.00  0.00     0.064 C 
BRANCH   9  14
ATOM     14  C   UNL     1      -1.686  -2.781   1.558  1.00  0.00     0.003 C 
BRANCH  14  15
ATOM     15  C   UNL     1      -2.003  -3.367   0.172  1.00  0.00    -0.003 C 
ATOM     16  C   UNL     1      -1.406  -4.742  -0.081  1.00  0.00     0.004 C 
ENDBRANCH  14  15
ENDBRANCH   9  14
BRANCH  13  17
ATOM     17  S   UNL     1       1.415  -4.907   4.995  1.00  0.00    -0.122 SA
BRANCH  17  18
ATOM     18  C   UNL     1       3.150  -4.871   4.612  1.00  0.00     0.011 A 
ATOM     19  C   UNL     1       4.034  -4.196   5.451  1.00  0.00     0.035 A 
ATOM     20  C   UNL     1       3.667  -5.640   3.572  1.00  0.00     0.035 A 
ATOM     21  C   UNL     1       5.387  -4.242   5.164  1.00  0.00     0.112 A 
ATOM     22  C   UNL     1       5.040  -5.649   3.382  1.00  0.00     0.112 A 
ATOM     23  N   UNL     1       5.908  -4.946   4.139  1.00  0.00    -0.265 NA
ENDBRANCH  17  18
ENDBRANCH  13  17
ENDBRANCH   5   8
ENDBRANCH   3   4
ENDBRANCH   2   3
ENDBRANCH   1   2
BRANCH   1  24
ATOM     24  C   UNL     1       5.379  -1.966  -0.310  1.00  0.00     0.116 C 
BRANCH  24  25
ATOM     25  N   UNL     1       4.521  -2.330  -1.431  1.00  0.00    -0.352 N 
ATOM     26  C   UNL     1       4.907  -2.797  -2.671  1.00  0.00     0.251 C 
ATOM     27  H   UNL     1       3.552  -2.232  -1.286  1.00  0.00     0.163 HD
ATOM     28  O   UNL     1       4.083  -3.009  -3.548  1.00  0.00    -0.269 OA
BRANCH  26  29
ATOM     29  C   UNL     1       6.350  -2.985  -2.923  1.00  0.00     0.039 A 
ATOM     30  C   UNL     1       6.950  -2.284  -3.970  1.00  0.00     0.014 A 
ATOM     31  C   UNL     1       7.118  -3.749  -2.040  1.00  0.00     0.014 A 
ATOM     32  C   UNL     1       8.342  -2.276  -4.077  1.00  0.00     0.010 A 
ATOM     33  C   UNL     1       8.504  -3.675  -2.103  1.00  0.00     0.010 A 
ATOM     34  C   UNL     1       9.130  -2.929  -3.115  1.00  0.00    -0.014 A 
BRANCH  34  35
ATOM     35  C   UNL     1      10.612  -2.838  -3.134  1.00  0.00     0.031 A 
ATOM     36  C   UNL     1      11.435  -4.081  -3.325  1.00  0.00     0.074 A 
ATOM     37  C   UNL     1      11.214  -1.656  -2.894  1.00  0.00     0.049 A 
ATOM     38  N   UNL     1      12.735  -4.224  -3.281  1.00  0.00    -0.248 NA
ATOM     39  C   UNL     1      10.699  -5.334  -3.561  1.00  0.00     0.031 C 
ATOM     40  C   UNL     1      10.528  -0.387  -2.634  1.00  0.00     0.029 A 
ATOM     41  N   UNL     1      12.546  -1.331  -2.818  1.00  0.00    -0.354 N 
ATOM     42  C   UNL     1      12.969  -5.582  -3.456  1.00  0.00     0.074 A 
ATOM     43  C   UNL     1      11.678  -6.226  -3.558  1.00  0.00     0.031 C 
ATOM     44  C   UNL     1      11.443   0.581  -2.455  1.00  0.00     0.029 A 
ATOM     45  C   UNL     1      12.778  -0.002  -2.553  1.00  0.00     0.049 A 
ATOM     46  H   UNL     1      13.268  -1.988  -2.942  1.00  0.00     0.167 HD
ATOM     47  C   UNL     1      14.152  -6.234  -3.544  1.00  0.00     0.031 A 
ATOM     48  C   UNL     1      13.934   0.673  -2.404  1.00  0.00     0.031 A 
ATOM     49  C   UNL     1      15.435  -5.590  -3.472  1.00  0.00     0.049 A 
ATOM     50  C   UNL     1      15.237  -0.066  -2.545  1.00  0.00     0.074 A 
ATOM     51  C   UNL     1      16.691  -6.153  -3.613  1.00  0.00     0.029 A 
ATOM     52  N   UNL     1      15.625  -4.235  -3.248  1.00  0.00    -0.354 N 
ATOM     53  N   UNL     1      15.438  -1.342  -2.771  1.00  0.00    -0.248 NA
ATOM     54  C   UNL     1      16.467   0.729  -2.424  1.00  0.00     0.031 C 
ATOM     55  C   UNL     1      17.643  -5.141  -3.445  1.00  0.00     0.029 A 
ATOM     56  C   UNL     1      16.977  -3.943  -3.240  1.00  0.00     0.049 A 
ATOM     57  H   UNL     1      14.904  -3.578  -3.115  1.00  0.00     0.167 HD
ATOM     58  C   UNL     1      16.817  -1.499  -2.842  1.00  0.00     0.074 A 
ATOM     59  C   UNL     1      17.400  -0.187  -2.648  1.00  0.00     0.031 C 
ATOM     60  C   UNL     1      17.537  -2.629  -3.050  1.00  0.00     0.031 A 
BRANCH  47  61
ATOM     61  C   UNL     1      14.101  -7.726  -3.736  1.00  0.00    -0.014 A 
ATOM     62  C   UNL     1      13.678  -8.282  -4.958  1.00  0.00     0.010 A 
ATOM     63  C   UNL     1      14.487  -8.582  -2.690  1.00  0.00     0.010 A 
ATOM     64  C   UNL     1      13.592  -9.667  -5.112  1.00  0.00     0.020 A 
ATOM     65  C   UNL     1      14.428  -9.970  -2.849  1.00  0.00     0.020 A 
ATOM     66  C   UNL     1      13.959 -10.502  -4.053  1.00  0.00     0.054 A 
BRANCH  66  67
ATOM     67  S   UNL     1      13.841 -12.298  -4.279  1.00  0.00     0.124 S 
ATOM     68  O   UNL     1      12.404 -12.523  -4.139  1.00  0.00    -0.237 OA
ATOM     69  O   UNL     1      14.378 -12.491  -5.623  1.00  0.00    -0.237 OA
ATOM     70  O   UNL     1      14.664 -12.837  -3.199  1.00  0.00    -0.744 OA
ENDBRANCH  66  67
ENDBRANCH  47  61
BRANCH  48  71
ATOM     71  C   UNL     1      13.913   2.136  -2.137  1.00  0.00    -0.014 A 
ATOM     72  C   UNL     1      14.258   3.047  -3.152  1.00  0.00     0.010 A 
ATOM     73  C   UNL     1      13.535   2.628  -0.875  1.00  0.00     0.010 A 
ATOM     74  C   UNL     1      14.241   4.423  -2.905  1.00  0.00     0.020 A 
ATOM     75  C   UNL     1      13.495   4.005  -0.632  1.00  0.00     0.020 A 
ATOM     76  C   UNL     1      13.858   4.893  -1.646  1.00  0.00     0.054 A 
BRANCH  76  77
ATOM     77  S   UNL     1      13.787   6.685  -1.364  1.00  0.00     0.124 S 
ATOM     78  O   UNL     1      15.196   7.021  -1.194  1.00  0.00    -0.237 OA
ATOM     79  O   UNL     1      13.161   7.175  -2.590  1.00  0.00    -0.237 OA
ATOM     80  O   UNL     1      12.963   6.806  -0.163  1.00  0.00    -0.744 OA
ENDBRANCH  76  77
ENDBRANCH  48  71
BRANCH  60  81
ATOM     81  C   UNL     1      19.033  -2.494  -3.111  1.00  0.00    -0.014 A 
ATOM     82  C   UNL     1      19.792  -2.306  -1.944  1.00  0.00     0.010 A 
ATOM     83  C   UNL     1      19.689  -2.617  -4.349  1.00  0.00     0.010 A 
ATOM     84  C   UNL     1      21.185  -2.219  -2.016  1.00  0.00     0.020 A 
ATOM     85  C   UNL     1      21.083  -2.552  -4.422  1.00  0.00     0.020 A 
ATOM     86  C   UNL     1      21.821  -2.342  -3.256  1.00  0.00     0.054 A 
BRANCH  86  87
ATOM     87  S   UNL     1      23.633  -2.278  -3.321  1.00  0.00     0.124 S 
ATOM     88  O   UNL     1      23.890  -0.846  -3.196  1.00  0.00    -0.237 OA
ATOM     89  O   UNL     1      24.026  -3.091  -2.172  1.00  0.00    -0.237 OA
ATOM     90  O   UNL     1      23.952  -2.858  -4.624  1.00  0.00    -0.744 OA
ENDBRANCH  86  87
ENDBRANCH  60  81
ENDBRANCH  34  35
ENDBRANCH  26  29
ENDBRANCH  24  25
ENDBRANCH   1  24
TORSDOF 18
