REMARK SMILES CC(C)[C@H](NS(=O)(=O)N1C[C@@H](C)O[C@H](C)C1)C(=O)NCCCCNC(=O)c1ccc(-c2c3nc(c(-c4ccc(S(=O)(=O)[O-])cc4)c4ccc([nH]4)c(-c4ccc(S(=O)(=O)[O-])cc4)c4nc(c(-c5ccc(S(=O)(=O)[O-])cc5)c5ccc2[nH]5)C=C4)C=C3)cc1
REMARK SMILES IDX 21 1 20 2 19 3 17 4 18 5 4 7 2 8 1 9 3 10 5 11 6 13 7 14
REMARK SMILES IDX 8 15 9 16 10 17 16 18 11 19 14 20 12 21 13 22 15 23 22 24
REMARK SMILES IDX 23 25 24 26 25 27 26 29 27 30 28 31 86 32 29 33 85 34 30 35
REMARK SMILES IDX 31 36 32 37 79 38 33 39 84 40 78 41 80 42 34 43 83 44 77 45
REMARK SMILES IDX 76 46 35 48 65 49 46 50 64 51 47 52 50 53 63 54 81 55 48 56
REMARK SMILES IDX 49 57 62 59 82 60 51 61 36 62 37 63 45 64 38 65 44 66 39 67
REMARK SMILES IDX 40 68 41 69 42 70 43 71 66 72 67 73 75 74 68 75 74 76 69 77
REMARK SMILES IDX 70 78 71 79 72 80 73 81 52 82 53 83 61 84 54 85 60 86 55 87
REMARK SMILES IDX 56 88 57 89 58 90 59 91
REMARK H PARENT 19 6 5 12 24 28 80 47 50 58
REMARK Flexibility Score: inf
ROOT
ATOM      1  C   UNL     1       1.160   3.922   2.606  1.00  0.00     0.023 C 
ENDROOT
BRANCH   1   2
ATOM      2  C   UNL     1      -0.135   3.124   2.515  1.00  0.00     0.116 C 
BRANCH   2   3
ATOM      3  N   UNL     1      -0.956   3.544   1.400  1.00  0.00    -0.355 N 
ATOM      4  C   UNL     1      -1.609   2.794   0.470  1.00  0.00     0.238 C 
ATOM      5  O   UNL     1      -2.329   3.386  -0.339  1.00  0.00    -0.273 OA
ATOM      6  H   UNL     1      -1.057   4.518   1.298  1.00  0.00     0.163 HD
BRANCH   4   7
ATOM      7  C   UNL     1      -1.425   1.264   0.379  1.00  0.00     0.162 C 
BRANCH   7   8
ATOM      8  C   UNL     1      -2.111   0.429   1.474  1.00  0.00     0.010 C 
ATOM      9  C   UNL     1      -3.219   1.175   2.227  1.00  0.00     0.009 C 
ATOM     10  C   UNL     1      -2.710  -0.841   0.853  1.00  0.00     0.009 C 
ENDBRANCH   7   8
BRANCH   7  11
ATOM     11  N   UNL     1      -0.003   1.002   0.054  1.00  0.00    -0.189 NA
ATOM     12  H   UNL     1       0.409   1.932  -0.028  1.00  0.00     0.143 HD
BRANCH  11  13
ATOM     13  S   UNL     1       1.125   0.137   0.875  1.00  0.00     0.280 S 
ATOM     14  O   UNL     1       2.340   0.881   0.647  1.00  0.00    -0.195 OA
ATOM     15  O   UNL     1       0.734  -0.180   2.224  1.00  0.00    -0.195 OA
BRANCH  13  16
ATOM     16  N   UNL     1       1.217  -1.304   0.035  1.00  0.00    -0.184 NA
ATOM     17  C   UNL     1       0.719  -1.469  -1.352  1.00  0.00     0.135 C 
ATOM     18  C   UNL     1       2.527  -2.000   0.203  1.00  0.00     0.135 C 
ATOM     19  C   UNL     1       1.779  -1.218  -2.445  1.00  0.00     0.130 C 
ATOM     20  C   UNL     1       3.522  -1.431  -0.822  1.00  0.00     0.130 C 
ATOM     21  C   UNL     1       1.873   0.249  -2.852  1.00  0.00     0.040 C 
ATOM     22  O   UNL     1       3.076  -1.773  -2.145  1.00  0.00    -0.373 OA
ATOM     23  C   UNL     1       4.926  -1.960  -0.584  1.00  0.00     0.040 C 
ENDBRANCH  13  16
ENDBRANCH  11  13
ENDBRANCH   7  11
ENDBRANCH   4   7
ENDBRANCH   2   3
ENDBRANCH   1   2
BRANCH   1  24
ATOM     24  C   UNL     1       0.964   5.383   3.010  1.00  0.00     0.023 C 
BRANCH  24  25
ATOM     25  C   UNL     1       0.169   5.591   4.294  1.00  0.00     0.116 C 
BRANCH  25  26
ATOM     26  N   UNL     1       0.775   4.941   5.447  1.00  0.00    -0.352 N 
ATOM     27  C   UNL     1       1.009   5.460   6.698  1.00  0.00     0.251 C 
ATOM     28  H   UNL     1       1.054   4.006   5.313  1.00  0.00     0.163 HD
ATOM     29  O   UNL     1       1.667   4.830   7.519  1.00  0.00    -0.269 OA
BRANCH  27  30
ATOM     30  C   UNL     1       0.488   6.803   7.028  1.00  0.00     0.039 A 
ATOM     31  C   UNL     1       1.351   7.744   7.592  1.00  0.00     0.014 A 
ATOM     32  C   UNL     1      -0.836   7.142   6.733  1.00  0.00     0.014 A 
ATOM     33  C   UNL     1       0.904   9.051   7.793  1.00  0.00     0.010 A 
ATOM     34  C   UNL     1      -1.251   8.464   6.858  1.00  0.00     0.010 A 
ATOM     35  C   UNL     1      -0.387   9.432   7.389  1.00  0.00    -0.014 A 
BRANCH  35  36
ATOM     36  C   UNL     1      -0.841  10.843   7.499  1.00  0.00     0.031 A 
ATOM     37  C   UNL     1      -2.010  11.197   8.378  1.00  0.00     0.074 A 
ATOM     38  C   UNL     1      -0.239  11.796   6.759  1.00  0.00     0.049 A 
ATOM     39  N   UNL     1      -2.571  12.364   8.570  1.00  0.00    -0.248 NA
ATOM     40  C   UNL     1      -2.647  10.095   9.117  1.00  0.00     0.031 C 
ATOM     41  C   UNL     1       0.874  11.573   5.833  1.00  0.00     0.029 A 
ATOM     42  N   UNL     1      -0.482  13.144   6.663  1.00  0.00    -0.354 N 
ATOM     43  C   UNL     1      -3.633  12.134   9.438  1.00  0.00     0.074 A 
ATOM     44  C   UNL     1      -3.671  10.710   9.690  1.00  0.00     0.031 C 
ATOM     45  C   UNL     1       1.237  12.746   5.290  1.00  0.00     0.029 A 
ATOM     46  C   UNL     1       0.356  13.796   5.790  1.00  0.00     0.049 A 
ATOM     47  H   UNL     1      -1.190  13.600   7.173  1.00  0.00     0.167 HD
ATOM     48  C   UNL     1      -4.487  13.029   9.990  1.00  0.00     0.031 A 
ATOM     49  C   UNL     1       0.408  15.092   5.424  1.00  0.00     0.031 A 
ATOM     50  C   UNL     1      -4.443  14.445   9.736  1.00  0.00     0.049 A 
ATOM     51  C   UNL     1      -0.561  16.065   6.037  1.00  0.00     0.074 A 
ATOM     52  C   UNL     1      -5.226  15.441  10.292  1.00  0.00     0.029 A 
ATOM     53  N   UNL     1      -3.578  15.066   8.848  1.00  0.00    -0.354 N 
ATOM     54  N   UNL     1      -1.510  15.840   6.915  1.00  0.00    -0.248 NA
ATOM     55  C   UNL     1      -0.446  17.469   5.620  1.00  0.00     0.031 C 
ATOM     56  C   UNL     1      -4.880  16.655   9.690  1.00  0.00     0.029 A 
ATOM     57  C   UNL     1      -3.830  16.427   8.815  1.00  0.00     0.049 A 
ATOM     58  H   UNL     1      -2.886  14.606   8.319  1.00  0.00     0.167 HD
ATOM     59  C   UNL     1      -2.085  17.079   7.177  1.00  0.00     0.074 A 
ATOM     60  C   UNL     1      -1.367  18.050   6.376  1.00  0.00     0.031 C 
ATOM     61  C   UNL     1      -3.112  17.384   8.009  1.00  0.00     0.031 A 
BRANCH  48  62
ATOM     62  C   UNL     1      -5.553  12.496  10.913  1.00  0.00    -0.014 A 
ATOM     63  C   UNL     1      -5.227  11.940  12.164  1.00  0.00     0.010 A 
ATOM     64  C   UNL     1      -6.907  12.583  10.539  1.00  0.00     0.010 A 
ATOM     65  C   UNL     1      -6.228  11.437  13.000  1.00  0.00     0.020 A 
ATOM     66  C   UNL     1      -7.914  12.112  11.386  1.00  0.00     0.020 A 
ATOM     67  C   UNL     1      -7.566  11.524  12.604  1.00  0.00     0.054 A 
BRANCH  67  68
ATOM     68  S   UNL     1      -8.844  10.876  13.715  1.00  0.00     0.124 S 
ATOM     69  O   UNL     1      -8.633   9.434  13.607  1.00  0.00    -0.237 OA
ATOM     70  O   UNL     1      -8.481  11.468  14.999  1.00  0.00    -0.237 OA
ATOM     71  O   UNL     1     -10.091  11.367  13.135  1.00  0.00    -0.744 OA
ENDBRANCH  67  68
ENDBRANCH  48  62
BRANCH  49  72
ATOM     72  C   UNL     1       1.425  15.542   4.433  1.00  0.00    -0.014 A 
ATOM     73  C   UNL     1       2.499  16.359   4.828  1.00  0.00     0.010 A 
ATOM     74  C   UNL     1       1.339  15.132   3.090  1.00  0.00     0.010 A 
ATOM     75  C   UNL     1       3.459  16.769   3.897  1.00  0.00     0.020 A 
ATOM     76  C   UNL     1       2.312  15.513   2.163  1.00  0.00     0.020 A 
ATOM     77  C   UNL     1       3.362  16.338   2.571  1.00  0.00     0.054 A 
BRANCH  77  78
ATOM     78  S   UNL     1       4.654  16.830   1.396  1.00  0.00     0.124 S 
ATOM     79  O   UNL     1       4.375  18.251   1.215  1.00  0.00    -0.237 OA
ATOM     80  O   UNL     1       5.879  16.512   2.125  1.00  0.00    -0.237 OA
ATOM     81  O   UNL     1       4.396  15.987   0.231  1.00  0.00    -0.744 OA
ENDBRANCH  77  78
ENDBRANCH  49  72
BRANCH  61  82
ATOM     82  C   UNL     1      -3.506  18.834   8.126  1.00  0.00    -0.014 A 
ATOM     83  C   UNL     1      -4.146  19.509   7.072  1.00  0.00     0.010 A 
ATOM     84  C   UNL     1      -3.281  19.515   9.337  1.00  0.00     0.010 A 
ATOM     85  C   UNL     1      -4.525  20.846   7.215  1.00  0.00     0.020 A 
ATOM     86  C   UNL     1      -3.688  20.842   9.496  1.00  0.00     0.020 A 
ATOM     87  C   UNL     1      -4.296  21.504   8.428  1.00  0.00     0.054 A 
BRANCH  87  88
ATOM     88  S   UNL     1      -4.839  23.225   8.604  1.00  0.00     0.124 S 
ATOM     89  O   UNL     1      -3.883  23.934   7.757  1.00  0.00    -0.237 OA
ATOM     90  O   UNL     1      -6.210  23.180   8.102  1.00  0.00    -0.237 OA
ATOM     91  O   UNL     1      -4.714  23.485  10.036  1.00  0.00    -0.744 OA
ENDBRANCH  87  88
ENDBRANCH  61  82
ENDBRANCH  35  36
ENDBRANCH  27  30
ENDBRANCH  25  26
ENDBRANCH  24  25
ENDBRANCH   1  24
TORSDOF 18
