REMARK SMILES NC(=O)c1ccccc1NC(=O)[C@@H]1CC=CC[C@@H]1C(=O)NCCCCNC(=O)c1ccc(-c2c3nc(c(-c4ccc(S(=O)(=O)[O-])cc4)c4ccc([nH]4)c(-c4ccc(S(=O)(=O)[O-])cc4)c4nc(c(-c5ccc(S(=O)(=O)[O-])cc5)c5ccc2[nH]5)C=C4)C=C3)cc1
REMARK SMILES IDX 23 1 22 2 21 3 19 4 20 5 18 7 13 8 14 9 15 10 17 11 16 12
REMARK SMILES IDX 11 13 10 14 12 16 9 17 4 18 5 19 6 20 8 21 7 22 2 23 1 24
REMARK SMILES IDX 3 27 24 28 25 29 26 30 27 31 28 33 29 34 30 35 88 36 31 37
REMARK SMILES IDX 87 38 32 39 33 40 34 41 81 42 35 43 86 44 80 45 82 46 36 47
REMARK SMILES IDX 85 48 79 49 78 50 37 52 67 53 48 54 66 55 49 56 52 57 65 58
REMARK SMILES IDX 83 59 50 60 51 61 64 63 84 64 53 65 38 66 39 67 47 68 40 69
REMARK SMILES IDX 46 70 41 71 42 72 43 73 44 74 45 75 68 76 69 77 77 78 70 79
REMARK SMILES IDX 76 80 71 81 72 82 73 83 74 84 75 85 54 86 55 87 63 88 56 89
REMARK SMILES IDX 62 90 57 91 58 92 59 93 60 94 61 95
REMARK H PARENT 21 6 10 15 1 25 1 26 26 32 82 51 52 62
REMARK Flexibility Score: inf
ROOT
ATOM      1  C   UNL     1       8.817   0.723   1.671  1.00  0.00     0.023 C 
ENDROOT
BRANCH   1   2
ATOM      2  C   UNL     1       7.477   1.447   1.821  1.00  0.00     0.116 C 
BRANCH   2   3
ATOM      3  N   UNL     1       7.446   2.669   1.040  1.00  0.00    -0.356 N 
ATOM      4  C   UNL     1       6.543   3.018   0.087  1.00  0.00     0.224 C 
ATOM      5  O   UNL     1       7.026   3.402  -0.980  1.00  0.00    -0.275 OA
ATOM      6  H   UNL     1       8.162   3.321   1.220  1.00  0.00     0.163 HD
BRANCH   4   7
ATOM      7  C   UNL     1       5.018   2.897   0.276  1.00  0.00     0.095 C 
ATOM      8  C   UNL     1       4.179   4.029  -0.411  1.00  0.00     0.095 C 
ATOM      9  C   UNL     1       3.244   4.917   0.432  1.00  0.00     0.041 C 
ATOM     10  C   UNL     1       2.908   4.415   1.790  1.00  0.00    -0.030 C 
ATOM     11  C   UNL     1       4.495   2.482   1.667  1.00  0.00     0.041 C 
ATOM     12  C   UNL     1       3.458   3.328   2.329  1.00  0.00    -0.030 C 
BRANCH   8  13
ATOM     13  C   UNL     1       4.840   4.935  -1.447  1.00  0.00     0.228 C 
ATOM     14  N   UNL     1       5.793   5.877  -1.217  1.00  0.00    -0.325 N 
ATOM     15  H   UNL     1       5.988   6.392  -2.032  1.00  0.00     0.169 HD
ATOM     16  O   UNL     1       4.426   4.872  -2.616  1.00  0.00    -0.274 OA
BRANCH  14  17
ATOM     17  C   UNL     1       6.583   6.322  -0.129  1.00  0.00     0.053 A 
ATOM     18  C   UNL     1       7.685   7.169  -0.397  1.00  0.00     0.063 A 
ATOM     19  C   UNL     1       8.627   7.467   0.602  1.00  0.00     0.016 A 
ATOM     20  C   UNL     1       8.450   6.992   1.896  1.00  0.00     0.001 A 
ATOM     21  C   UNL     1       6.399   5.913   1.194  1.00  0.00     0.027 A 
ATOM     22  C   UNL     1       7.323   6.239   2.196  1.00  0.00     0.002 A 
BRANCH  18  23
ATOM     23  C   UNL     1       7.937   7.789  -1.725  1.00  0.00     0.250 C 
ATOM     24  N   UNL     1       6.842   8.261  -2.398  1.00  0.00    -0.366 N 
ATOM     25  H   UNL     1       6.951   8.681  -3.282  1.00  0.00     0.159 HD
ATOM     26  H   UNL     1       5.946   8.180  -1.998  1.00  0.00     0.159 HD
ATOM     27  O   UNL     1       9.063   7.932  -2.177  1.00  0.00    -0.269 OA
ENDBRANCH  18  23
ENDBRANCH  14  17
ENDBRANCH   8  13
ENDBRANCH   4   7
ENDBRANCH   2   3
ENDBRANCH   1   2
BRANCH   1  28
ATOM     28  C   UNL     1      10.030   1.463   2.252  1.00  0.00     0.023 C 
BRANCH  28  29
ATOM     29  C   UNL     1       9.930   1.827   3.732  1.00  0.00     0.116 C 
BRANCH  29  30
ATOM     30  N   UNL     1       9.743   0.661   4.584  1.00  0.00    -0.352 N 
ATOM     31  C   UNL     1      10.590   0.094   5.506  1.00  0.00     0.251 C 
ATOM     32  H   UNL     1       8.876   0.207   4.483  1.00  0.00     0.163 HD
ATOM     33  O   UNL     1      10.317  -1.000   5.992  1.00  0.00    -0.269 OA
BRANCH  31  34
ATOM     34  C   UNL     1      11.838   0.786   5.895  1.00  0.00     0.039 A 
ATOM     35  C   UNL     1      13.037   0.067   5.900  1.00  0.00     0.014 A 
ATOM     36  C   UNL     1      11.828   2.137   6.248  1.00  0.00     0.014 A 
ATOM     37  C   UNL     1      14.240   0.729   6.161  1.00  0.00     0.010 A 
ATOM     38  C   UNL     1      13.032   2.808   6.449  1.00  0.00     0.010 A 
ATOM     39  C   UNL     1      14.251   2.115   6.384  1.00  0.00    -0.014 A 
BRANCH  39  40
ATOM     40  C   UNL     1      15.524   2.876   6.479  1.00  0.00     0.031 A 
ATOM     41  C   UNL     1      15.899   3.589   7.746  1.00  0.00     0.074 A 
ATOM     42  C   UNL     1      16.292   3.009   5.379  1.00  0.00     0.049 A 
ATOM     43  N   UNL     1      16.904   4.396   7.970  1.00  0.00    -0.248 NA
ATOM     44  C   UNL     1      15.018   3.385   8.906  1.00  0.00     0.031 C 
ATOM     45  C   UNL     1      16.017   2.399   4.075  1.00  0.00     0.029 A 
ATOM     46  N   UNL     1      17.448   3.721   5.174  1.00  0.00    -0.354 N 
ATOM     47  C   UNL     1      16.774   4.806   9.291  1.00  0.00     0.074 A 
ATOM     48  C   UNL     1      15.567   4.190   9.805  1.00  0.00     0.031 C 
ATOM     49  C   UNL     1      16.976   2.760   3.209  1.00  0.00     0.029 A 
ATOM     50  C   UNL     1      17.908   3.661   3.879  1.00  0.00     0.049 A 
ATOM     51  H   UNL     1      17.904   4.226   5.885  1.00  0.00     0.167 HD
ATOM     52  C   UNL     1      17.590   5.610  10.015  1.00  0.00     0.031 A 
ATOM     53  C   UNL     1      18.947   4.280   3.285  1.00  0.00     0.031 A 
ATOM     54  C   UNL     1      18.783   6.229   9.498  1.00  0.00     0.049 A 
ATOM     55  C   UNL     1      19.817   5.199   4.094  1.00  0.00     0.074 A 
ATOM     56  C   UNL     1      19.702   7.018  10.168  1.00  0.00     0.029 A 
ATOM     57  N   UNL     1      19.216   6.139   8.184  1.00  0.00    -0.354 N 
ATOM     58  N   UNL     1      19.714   5.522   5.361  1.00  0.00    -0.248 NA
ATOM     59  C   UNL     1      20.941   5.837   3.396  1.00  0.00     0.031 C 
ATOM     60  C   UNL     1      20.663   7.448   9.245  1.00  0.00     0.029 A 
ATOM     61  C   UNL     1      20.371   6.885   8.013  1.00  0.00     0.049 A 
ATOM     62  H   UNL     1      18.769   5.620   7.476  1.00  0.00     0.167 HD
ATOM     63  C   UNL     1      20.765   6.396   5.614  1.00  0.00     0.074 A 
ATOM     64  C   UNL     1      21.503   6.534   4.375  1.00  0.00     0.031 C 
ATOM     65  C   UNL     1      21.086   7.029   6.769  1.00  0.00     0.031 A 
BRANCH  52  66
ATOM     66  C   UNL     1      17.204   5.874  11.446  1.00  0.00    -0.014 A 
ATOM     67  C   UNL     1      17.293   4.861  12.418  1.00  0.00     0.010 A 
ATOM     68  C   UNL     1      16.760   7.153  11.829  1.00  0.00     0.010 A 
ATOM     69  C   UNL     1      16.893   5.105  13.734  1.00  0.00     0.020 A 
ATOM     70  C   UNL     1      16.383   7.409  13.151  1.00  0.00     0.020 A 
ATOM     71  C   UNL     1      16.430   6.375  14.090  1.00  0.00     0.054 A 
BRANCH  71  72
ATOM     72  S   UNL     1      15.905   6.663  15.802  1.00  0.00     0.124 S 
ATOM     73  O   UNL     1      14.613   5.980  15.837  1.00  0.00    -0.237 OA
ATOM     74  O   UNL     1      16.969   6.030  16.577  1.00  0.00    -0.237 OA
ATOM     75  O   UNL     1      15.843   8.118  15.907  1.00  0.00    -0.744 OA
ENDBRANCH  71  72
ENDBRANCH  52  66
BRANCH  53  76
ATOM     76  C   UNL     1      19.203   4.054   1.838  1.00  0.00    -0.014 A 
ATOM     77  C   UNL     1      20.282   3.257   1.421  1.00  0.00     0.010 A 
ATOM     78  C   UNL     1      18.335   4.595   0.871  1.00  0.00     0.010 A 
ATOM     79  C   UNL     1      20.490   3.005   0.061  1.00  0.00     0.020 A 
ATOM     80  C   UNL     1      18.526   4.325  -0.487  1.00  0.00     0.020 A 
ATOM     81  C   UNL     1      19.607   3.536  -0.884  1.00  0.00     0.054 A 
BRANCH  81  82
ATOM     82  S   UNL     1      19.848   3.125  -2.635  1.00  0.00     0.124 S 
ATOM     83  O   UNL     1      20.986   3.968  -2.989  1.00  0.00    -0.237 OA
ATOM     84  O   UNL     1      20.114   1.689  -2.589  1.00  0.00    -0.237 OA
ATOM     85  O   UNL     1      18.576   3.495  -3.250  1.00  0.00    -0.744 OA
ENDBRANCH  81  82
ENDBRANCH  53  76
BRANCH  65  86
ATOM     86  C   UNL     1      22.287   7.934   6.752  1.00  0.00    -0.014 A 
ATOM     87  C   UNL     1      22.227   9.198   6.139  1.00  0.00     0.010 A 
ATOM     88  C   UNL     1      23.465   7.548   7.417  1.00  0.00     0.010 A 
ATOM     89  C   UNL     1      23.331  10.055   6.178  1.00  0.00     0.020 A 
ATOM     90  C   UNL     1      24.562   8.411   7.478  1.00  0.00     0.020 A 
ATOM     91  C   UNL     1      24.490   9.657   6.851  1.00  0.00     0.054 A 
BRANCH  91  92
ATOM     92  S   UNL     1      25.884  10.815   6.946  1.00  0.00     0.124 S 
ATOM     93  O   UNL     1      26.424  10.754   5.590  1.00  0.00    -0.237 OA
ATOM     94  O   UNL     1      25.233  12.072   7.307  1.00  0.00    -0.237 OA
ATOM     95  O   UNL     1      26.739  10.243   7.984  1.00  0.00    -0.744 OA
ENDBRANCH  91  92
ENDBRANCH  65  86
ENDBRANCH  39  40
ENDBRANCH  31  34
ENDBRANCH  29  30
ENDBRANCH  28  29
ENDBRANCH   1  28
TORSDOF 17
