REMARK SMILES Cc1coc2cc3c(cc12)[C@@H](C)[C@H](CCC(=O)N[C@@H](Cc1c[nH]c2ccccc12)C(=O)NCCCCNC(=O)c1ccc(-c2c4nc(c(-c5ccc(S(=O)(=O)[O-])cc5)c5ccc([nH]5)c(-c5ccc(S(=O)(=O)[O-])cc5)c5nc(c(-c6ccc(S(=O)(=O)[O-])cc6)c6ccc2[nH]6)C=C5)C=C4)cc1)C(=O)O3
REMARK SMILES IDX 34 1 33 2 32 3 30 4 31 5 19 7 18 8 16 9 17 10 15 12 14 13
REMARK SMILES IDX 13 14 1 15 2 16 3 17 10 18 4 19 5 20 9 21 6 22 8 23 7 24
REMARK SMILES IDX 11 25 102 26 12 27 100 28 101 29 20 30 21 31 22 32 29 33
REMARK SMILES IDX 23 34 24 35 28 36 25 38 27 39 26 40 35 41 36 42 37 43 38 44
REMARK SMILES IDX 39 46 40 47 41 48 99 49 42 50 98 51 43 52 44 53 45 54 92 55
REMARK SMILES IDX 46 56 97 57 91 58 93 59 47 60 96 61 90 62 89 63 48 65 78 66
REMARK SMILES IDX 59 67 77 68 60 69 63 70 76 71 94 72 61 73 62 74 75 76 95 77
REMARK SMILES IDX 64 78 49 79 50 80 58 81 51 82 57 83 52 84 53 85 54 86 55 87
REMARK SMILES IDX 56 88 79 89 80 90 88 91 81 92 87 93 82 94 83 95 84 96 85 97
REMARK SMILES IDX 86 98 65 99 66 100 74 101 67 102 73 103 68 104 69 105 70 106
REMARK SMILES IDX 71 107 72 108
REMARK H PARENT 32 6 18 11 23 37 37 45 93 64 63 75
REMARK Flexibility Score: inf
ROOT
ATOM      1  C   UNL     1       1.231   1.379   9.402  1.00  0.00     0.023 C 
ENDROOT
BRANCH   1   2
ATOM      2  C   UNL     1       0.980   0.052   8.729  1.00  0.00     0.116 C 
BRANCH   2   3
ATOM      3  N   UNL     1       0.363  -0.943   9.574  1.00  0.00    -0.354 N 
ATOM      4  C   UNL     1      -0.280  -2.085   9.198  1.00  0.00     0.242 C 
ATOM      5  O   UNL     1      -0.484  -2.941  10.064  1.00  0.00    -0.273 OA
ATOM      6  H   UNL     1       0.412  -0.776  10.543  1.00  0.00     0.163 HD
BRANCH   4   7
ATOM      7  C   UNL     1      -0.619  -2.368   7.719  1.00  0.00     0.175 C 
BRANCH   7   8
ATOM      8  N   UNL     1      -1.556  -1.350   7.145  1.00  0.00    -0.344 N 
ATOM      9  C   UNL     1      -2.782  -1.367   6.521  1.00  0.00     0.220 C 
ATOM     10  O   UNL     1      -3.277  -0.258   6.279  1.00  0.00    -0.275 OA
ATOM     11  H   UNL     1      -1.205  -0.435   7.238  1.00  0.00     0.164 HD
BRANCH   9  12
ATOM     12  C   UNL     1      -3.568  -2.628   6.064  1.00  0.00     0.101 C 
BRANCH  12  13
ATOM     13  C   UNL     1      -3.598  -2.984   4.499  1.00  0.00     0.026 C 
BRANCH  13  14
ATOM     14  C   UNL     1      -2.478  -3.968   3.979  1.00  0.00     0.107 C 
ATOM     15  C   UNL     1       1.213   0.237  -0.598  1.00  0.00     0.048 C 
ATOM     16  C   UNL     1       0.538   0.507   0.689  1.00  0.00    -0.005 A 
ATOM     17  C   UNL     1       0.538   1.708   1.373  1.00  0.00     0.199 A 
ATOM     18  C   UNL     1      -0.172  -0.416   1.515  1.00  0.00     0.024 A 
ATOM     19  O   UNL     1      -0.042   1.572   2.590  1.00  0.00    -0.464 OA
ATOM     20  C   UNL     1      -0.417   0.273   2.700  1.00  0.00     0.137 A 
ATOM     21  C   UNL     1      -0.588  -1.768   1.419  1.00  0.00     0.020 A 
ATOM     22  C   UNL     1      -0.880  -0.321   3.859  1.00  0.00     0.095 A 
ATOM     23  C   UNL     1      -1.091  -2.389   2.565  1.00  0.00    -0.001 A 
ATOM     24  C   UNL     1      -1.021  -1.698   3.761  1.00  0.00     0.138 A 
ATOM     25  C   UNL     1      -1.622  -3.797   2.663  1.00  0.00     0.034 C 
ATOM     26  O   UNL     1      -0.921  -2.496   4.926  1.00  0.00    -0.426 OA
ATOM     27  C   UNL     1      -0.388  -4.747   2.676  1.00  0.00     0.014 C 
ATOM     28  C   UNL     1      -1.439  -3.804   4.999  1.00  0.00     0.314 C 
ATOM     29  O   UNL     1      -1.187  -4.648   5.832  1.00  0.00    -0.251 OA
ENDBRANCH  13  14
ENDBRANCH  12  13
ENDBRANCH   9  12
ENDBRANCH   7   8
BRANCH   7  30
ATOM     30  C   UNL     1       0.732  -2.807   7.019  1.00  0.00     0.072 C 
BRANCH  30  31
ATOM     31  C   UNL     1       1.848  -1.903   6.542  1.00  0.00    -0.020 A 
ATOM     32  C   UNL     1       1.846  -0.732   5.809  1.00  0.00     0.087 A 
ATOM     33  C   UNL     1       3.239  -2.201   6.772  1.00  0.00     0.003 A 
ATOM     34  N   UNL     1       3.135  -0.274   5.674  1.00  0.00    -0.361 N 
ATOM     35  C   UNL     1       3.999  -1.130   6.309  1.00  0.00     0.046 A 
ATOM     36  C   UNL     1       3.902  -3.271   7.403  1.00  0.00     0.010 A 
ATOM     37  H   UNL     1       3.399   0.544   5.194  1.00  0.00     0.166 HD
ATOM     38  C   UNL     1       5.375  -1.022   6.546  1.00  0.00     0.026 A 
ATOM     39  C   UNL     1       5.271  -3.177   7.661  1.00  0.00     0.001 A 
ATOM     40  C   UNL     1       5.987  -2.050   7.268  1.00  0.00     0.002 A 
ENDBRANCH  30  31
ENDBRANCH   7  30
ENDBRANCH   4   7
ENDBRANCH   2   3
ENDBRANCH   1   2
BRANCH   1  41
ATOM     41  C   UNL     1       2.277   1.303  10.511  1.00  0.00     0.023 C 
BRANCH  41  42
ATOM     42  C   UNL     1       3.601   0.615  10.141  1.00  0.00     0.116 C 
BRANCH  42  43
ATOM     43  N   UNL     1       4.271   1.137   8.965  1.00  0.00    -0.352 N 
ATOM     44  C   UNL     1       5.109   2.190   8.718  1.00  0.00     0.251 C 
ATOM     45  H   UNL     1       4.077   0.611   8.156  1.00  0.00     0.163 HD
ATOM     46  O   UNL     1       5.663   2.223   7.617  1.00  0.00    -0.269 OA
BRANCH  44  47
ATOM     47  C   UNL     1       5.296   3.325   9.654  1.00  0.00     0.039 A 
ATOM     48  C   UNL     1       4.813   3.349  10.957  1.00  0.00     0.014 A 
ATOM     49  C   UNL     1       5.915   4.479   9.142  1.00  0.00     0.014 A 
ATOM     50  C   UNL     1       4.749   4.537  11.658  1.00  0.00     0.010 A 
ATOM     51  C   UNL     1       5.927   5.662   9.873  1.00  0.00     0.010 A 
ATOM     52  C   UNL     1       5.279   5.701  11.102  1.00  0.00    -0.014 A 
BRANCH  52  53
ATOM     53  C   UNL     1       5.224   6.892  11.936  1.00  0.00     0.031 A 
ATOM     54  C   UNL     1       5.855   6.732  13.274  1.00  0.00     0.074 A 
ATOM     55  C   UNL     1       4.690   8.064  11.549  1.00  0.00     0.049 A 
ATOM     56  N   UNL     1       5.280   6.766  14.431  1.00  0.00    -0.248 NA
ATOM     57  C   UNL     1       7.270   6.336  13.314  1.00  0.00     0.031 C 
ATOM     58  C   UNL     1       4.244   8.466  10.214  1.00  0.00     0.029 A 
ATOM     59  N   UNL     1       4.529   9.197  12.285  1.00  0.00    -0.354 N 
ATOM     60  C   UNL     1       6.291   6.574  15.367  1.00  0.00     0.074 A 
ATOM     61  C   UNL     1       7.460   6.174  14.623  1.00  0.00     0.031 C 
ATOM     62  C   UNL     1       4.099   9.811  10.183  1.00  0.00     0.029 A 
ATOM     63  C   UNL     1       4.282  10.332  11.527  1.00  0.00     0.049 A 
ATOM     64  H   UNL     1       4.582   9.209  13.268  1.00  0.00     0.167 HD
ATOM     65  C   UNL     1       6.152   6.937  16.671  1.00  0.00     0.031 A 
ATOM     66  C   UNL     1       4.298  11.611  11.973  1.00  0.00     0.031 A 
ATOM     67  C   UNL     1       4.773   7.130  17.033  1.00  0.00     0.049 A 
ATOM     68  C   UNL     1       4.073  11.572  13.437  1.00  0.00     0.074 A 
ATOM     69  C   UNL     1       3.664   6.312  17.105  1.00  0.00     0.029 A 
ATOM     70  N   UNL     1       4.298   8.418  17.046  1.00  0.00    -0.354 N 
ATOM     71  N   UNL     1       2.951  11.197  13.983  1.00  0.00    -0.248 NA
ATOM     72  C   UNL     1       5.226  11.573  14.322  1.00  0.00     0.031 C 
ATOM     73  C   UNL     1       2.573   7.131  16.694  1.00  0.00     0.029 A 
ATOM     74  C   UNL     1       3.064   8.415  16.446  1.00  0.00     0.049 A 
ATOM     75  H   UNL     1       4.760   9.203  17.419  1.00  0.00     0.167 HD
ATOM     76  C   UNL     1       3.325  10.507  15.125  1.00  0.00     0.074 A 
ATOM     77  C   UNL     1       4.722  10.877  15.345  1.00  0.00     0.031 C 
ATOM     78  C   UNL     1       2.554   9.497  15.625  1.00  0.00     0.031 A 
BRANCH  65  79
ATOM     79  C   UNL     1       7.293   7.443  17.518  1.00  0.00    -0.014 A 
ATOM     80  C   UNL     1       8.532   7.840  16.973  1.00  0.00     0.010 A 
ATOM     81  C   UNL     1       7.060   7.773  18.869  1.00  0.00     0.010 A 
ATOM     82  C   UNL     1       9.496   8.512  17.725  1.00  0.00     0.020 A 
ATOM     83  C   UNL     1       8.003   8.489  19.622  1.00  0.00     0.020 A 
ATOM     84  C   UNL     1       9.219   8.848  19.043  1.00  0.00     0.054 A 
BRANCH  84  85
ATOM     85  S   UNL     1      10.447   9.823  19.945  1.00  0.00     0.124 S 
ATOM     86  O   UNL     1      11.537   8.862  20.098  1.00  0.00    -0.237 OA
ATOM     87  O   UNL     1      10.705  10.927  19.025  1.00  0.00    -0.237 OA
ATOM     88  O   UNL     1       9.756  10.188  21.178  1.00  0.00    -0.744 OA
ENDBRANCH  84  85
ENDBRANCH  65  79
BRANCH  66  89
ATOM     89  C   UNL     1       4.939  12.775  11.314  1.00  0.00    -0.014 A 
ATOM     90  C   UNL     1       6.003  12.575  10.412  1.00  0.00     0.010 A 
ATOM     91  C   UNL     1       4.739  14.072  11.825  1.00  0.00     0.010 A 
ATOM     92  C   UNL     1       6.900  13.604  10.113  1.00  0.00     0.020 A 
ATOM     93  C   UNL     1       5.639  15.108  11.532  1.00  0.00     0.020 A 
ATOM     94  C   UNL     1       6.738  14.853  10.711  1.00  0.00     0.054 A 
BRANCH  94  95
ATOM     95  S   UNL     1       8.047  16.089  10.482  1.00  0.00     0.124 S 
ATOM     96  O   UNL     1       9.169  15.476  11.188  1.00  0.00    -0.237 OA
ATOM     97  O   UNL     1       8.177  16.145   9.028  1.00  0.00    -0.237 OA
ATOM     98  O   UNL     1       7.500  17.293  11.102  1.00  0.00    -0.744 OA
ENDBRANCH  94  95
ENDBRANCH  66  89
BRANCH  78  99
ATOM     99  C   UNL     1       1.142   9.331  15.093  1.00  0.00    -0.014 A 
ATOM    100  C   UNL     1       0.099   9.215  16.030  1.00  0.00     0.010 A 
ATOM    101  C   UNL     1       0.835   9.135  13.730  1.00  0.00     0.010 A 
ATOM    102  C   UNL     1      -1.201   8.896  15.630  1.00  0.00     0.020 A 
ATOM    103  C   UNL     1      -0.475   8.844  13.317  1.00  0.00     0.020 A 
ATOM    104  C   UNL     1      -1.481   8.707  14.275  1.00  0.00     0.054 A 
BRANCH 104 105
ATOM    105  S   UNL     1      -3.178   8.273  13.804  1.00  0.00     0.124 S 
ATOM    106  O   UNL     1      -3.294   6.902  14.296  1.00  0.00    -0.237 OA
ATOM    107  O   UNL     1      -3.977   9.262  14.525  1.00  0.00    -0.237 OA
ATOM    108  O   UNL     1      -3.190   8.412  12.350  1.00  0.00    -0.744 OA
ENDBRANCH 104 105
ENDBRANCH  78  99
ENDBRANCH  52  53
ENDBRANCH  44  47
ENDBRANCH  42  43
ENDBRANCH  41  42
ENDBRANCH   1  41
TORSDOF 20
