REMARK SMILES Cn1cc(C[C@@H](NC(=O)OCC2c3ccccc3-c3ccccc32)C(=O)NCCCCNC(=O)c2ccc(-c3c4nc(c(-c5ccc(S(=O)(=O)[O-])cc5)c5ccc([nH]5)c(-c5ccc(S(=O)(=O)[O-])cc5)c5nc(c(-c6ccc(S(=O)(=O)[O-])cc6)c6ccc3[nH]6)C=C5)C=C4)cc2)c2ccccc21
REMARK SMILES IDX 29 1 28 2 27 3 25 4 26 5 6 7 5 8 4 9 1 10 2 11 3 12 100 13
REMARK SMILES IDX 95 14 99 15 96 16 98 17 97 18 7 19 8 20 9 22 10 23 11 24
REMARK SMILES IDX 12 25 13 26 24 27 14 28 18 29 19 30 23 31 15 32 17 33 20 34
REMARK SMILES IDX 22 35 16 36 21 37 30 38 31 39 32 40 33 41 34 43 35 44 36 45
REMARK SMILES IDX 94 46 37 47 93 48 38 49 39 50 40 51 87 52 41 53 92 54 86 55
REMARK SMILES IDX 88 56 42 57 91 58 85 59 84 60 43 62 73 63 54 64 72 65 55 66
REMARK SMILES IDX 58 67 71 68 89 69 56 70 57 71 70 73 90 74 59 75 44 76 45 77
REMARK SMILES IDX 53 78 46 79 52 80 47 81 48 82 49 83 50 84 51 85 74 86 75 87
REMARK SMILES IDX 83 88 76 89 82 90 77 91 78 92 79 93 80 94 81 95 60 96 61 97
REMARK SMILES IDX 69 98 62 99 68 100 63 101 64 102 65 103 66 104 67 105
REMARK H PARENT 27 6 7 21 32 42 88 61 58 72
REMARK Flexibility Score: inf
ROOT
ATOM      1  C   UNL     1      -0.113  -5.763  -2.615  1.00  0.00     0.023 C 
ENDROOT
BRANCH   1   2
ATOM      2  C   UNL     1      -0.734  -5.595  -1.233  1.00  0.00     0.116 C 
BRANCH   2   3
ATOM      3  N   UNL     1       0.155  -6.052  -0.180  1.00  0.00    -0.354 N 
ATOM      4  C   UNL     1       0.612  -5.395   0.931  1.00  0.00     0.243 C 
ATOM      5  O   UNL     1       1.370  -6.006   1.690  1.00  0.00    -0.273 OA
ATOM      6  H   UNL     1       0.479  -6.977  -0.280  1.00  0.00     0.163 HD
BRANCH   4   7
ATOM      7  C   UNL     1       0.306  -3.899   1.158  1.00  0.00     0.179 C 
BRANCH   7   8
ATOM      8  C   UNL     1       1.009  -3.088   0.034  1.00  0.00     0.073 C 
BRANCH   8   9
ATOM      9  C   UNL     1       0.958  -1.586   0.131  1.00  0.00    -0.020 A 
ATOM     10  C   UNL     1       2.516   1.683   0.293  1.00  0.00     0.149 C 
ATOM     11  N   UNL     1       1.635   0.537   0.275  1.00  0.00    -0.350 N 
ATOM     12  C   UNL     1       2.045  -0.765   0.364  1.00  0.00     0.090 A 
ATOM     13  C   UNL     1       0.273   0.598   0.080  1.00  0.00     0.048 A 
ATOM     14  C   UNL     1      -0.164  -0.717  -0.105  1.00  0.00     0.003 A 
ATOM     15  C   UNL     1      -0.600   1.697   0.011  1.00  0.00     0.027 A 
ATOM     16  C   UNL     1      -1.517  -0.919  -0.457  1.00  0.00     0.010 A 
ATOM     17  C   UNL     1      -1.949   1.453  -0.257  1.00  0.00     0.002 A 
ATOM     18  C   UNL     1      -2.402   0.163  -0.501  1.00  0.00     0.001 A 
ENDBRANCH   8   9
ENDBRANCH   7   8
BRANCH   7  19
ATOM     19  N   UNL     1      -1.095  -3.520   1.355  1.00  0.00    -0.309 N 
ATOM     20  C   UNL     1      -2.240  -4.220   1.164  1.00  0.00     0.407 C 
ATOM     21  H   UNL     1      -1.228  -2.601   1.682  1.00  0.00     0.167 HD
ATOM     22  O   UNL     1      -3.241  -3.648   0.735  1.00  0.00    -0.225 OA
BRANCH  20  23
ATOM     23  O   UNL     1      -2.178  -5.530   1.501  1.00  0.00    -0.449 OA
BRANCH  23  24
ATOM     24  C   UNL     1      -3.430  -6.253   1.417  1.00  0.00     0.248 C 
BRANCH  24  25
ATOM     25  C   UNL     1      -4.199  -6.332   2.755  1.00  0.00     0.088 C 
ATOM     26  C   UNL     1      -3.599  -7.348   3.722  1.00  0.00    -0.029 A 
ATOM     27  C   UNL     1      -4.150  -5.056   3.586  1.00  0.00    -0.029 A 
ATOM     28  C   UNL     1      -3.529  -8.727   3.586  1.00  0.00     0.005 A 
ATOM     29  C   UNL     1      -3.158  -6.701   4.896  1.00  0.00    -0.014 A 
ATOM     30  C   UNL     1      -3.452  -5.288   4.790  1.00  0.00    -0.014 A 
ATOM     31  C   UNL     1      -4.643  -3.800   3.272  1.00  0.00     0.005 A 
ATOM     32  C   UNL     1      -2.995  -9.465   4.644  1.00  0.00     0.000 A 
ATOM     33  C   UNL     1      -2.620  -7.434   5.940  1.00  0.00     0.009 A 
ATOM     34  C   UNL     1      -3.165  -4.239   5.647  1.00  0.00     0.009 A 
ATOM     35  C   UNL     1      -4.342  -2.740   4.128  1.00  0.00     0.000 A 
ATOM     36  C   UNL     1      -2.541  -8.825   5.809  1.00  0.00     0.001 A 
ATOM     37  C   UNL     1      -3.598  -2.955   5.298  1.00  0.00     0.001 A 
ENDBRANCH  24  25
ENDBRANCH  23  24
ENDBRANCH  20  23
ENDBRANCH   7  19
ENDBRANCH   4   7
ENDBRANCH   2   3
ENDBRANCH   1   2
BRANCH   1  38
ATOM     38  C   UNL     1      -0.093  -7.207  -3.116  1.00  0.00     0.023 C 
BRANCH  38  39
ATOM     39  C   UNL     1      -1.456  -7.890  -3.172  1.00  0.00     0.116 C 
BRANCH  39  40
ATOM     40  N   UNL     1      -2.423  -7.182  -3.999  1.00  0.00    -0.352 N 
ATOM     41  C   UNL     1      -3.375  -7.723  -4.831  1.00  0.00     0.251 C 
ATOM     42  H   UNL     1      -2.393  -6.199  -3.956  1.00  0.00     0.163 HD
ATOM     43  O   UNL     1      -4.059  -7.008  -5.555  1.00  0.00    -0.269 OA
BRANCH  41  44
ATOM     44  C   UNL     1      -3.527  -9.190  -4.861  1.00  0.00     0.039 A 
ATOM     45  C   UNL     1      -3.366  -9.863  -6.073  1.00  0.00     0.014 A 
ATOM     46  C   UNL     1      -3.733  -9.894  -3.671  1.00  0.00     0.014 A 
ATOM     47  C   UNL     1      -3.337 -11.258  -6.081  1.00  0.00     0.010 A 
ATOM     48  C   UNL     1      -3.645 -11.281  -3.674  1.00  0.00     0.010 A 
ATOM     49  C   UNL     1      -3.436 -11.975  -4.877  1.00  0.00    -0.014 A 
BRANCH  49  50
ATOM     50  C   UNL     1      -3.300 -13.452  -4.848  1.00  0.00     0.031 A 
ATOM     51  C   UNL     1      -4.466 -14.306  -4.442  1.00  0.00     0.074 A 
ATOM     52  C   UNL     1      -2.103 -14.015  -5.107  1.00  0.00     0.049 A 
ATOM     53  N   UNL     1      -4.520 -15.603  -4.282  1.00  0.00    -0.248 NA
ATOM     54  C   UNL     1      -5.730 -13.610  -4.150  1.00  0.00     0.031 C 
ATOM     55  C   UNL     1      -0.881 -13.289  -5.462  1.00  0.00     0.029 A 
ATOM     56  N   UNL     1      -1.716 -15.332  -5.102  1.00  0.00    -0.354 N 
ATOM     57  C   UNL     1      -5.812 -15.876  -3.850  1.00  0.00     0.074 A 
ATOM     58  C   UNL     1      -6.497 -14.607  -3.734  1.00  0.00     0.031 C 
ATOM     59  C   UNL     1       0.113 -14.172  -5.661  1.00  0.00     0.029 A 
ATOM     60  C   UNL     1      -0.391 -15.520  -5.418  1.00  0.00     0.049 A 
ATOM     61  H   UNL     1      -2.329 -16.073  -4.891  1.00  0.00     0.167 HD
ATOM     62  C   UNL     1      -6.383 -17.076  -3.590  1.00  0.00     0.031 A 
ATOM     63  C   UNL     1       0.337 -16.649  -5.500  1.00  0.00     0.031 A 
ATOM     64  C   UNL     1      -5.708 -18.338  -3.729  1.00  0.00     0.049 A 
ATOM     65  C   UNL     1      -0.323 -17.972  -5.228  1.00  0.00     0.074 A 
ATOM     66  C   UNL     1      -6.220 -19.611  -3.553  1.00  0.00     0.029 A 
ATOM     67  N   UNL     1      -4.376 -18.486  -4.082  1.00  0.00    -0.354 N 
ATOM     68  N   UNL     1      -1.565 -18.214  -4.883  1.00  0.00    -0.248 NA
ATOM     69  C   UNL     1       0.512 -19.173  -5.364  1.00  0.00     0.031 C 
ATOM     70  C   UNL     1      -5.187 -20.530  -3.768  1.00  0.00     0.029 A 
ATOM     71  C   UNL     1      -4.043 -19.829  -4.115  1.00  0.00     0.049 A 
ATOM     72  H   UNL     1      -3.758 -17.746  -4.280  1.00  0.00     0.167 HD
ATOM     73  C   UNL     1      -1.666 -19.596  -4.782  1.00  0.00     0.074 A 
ATOM     74  C   UNL     1      -0.363 -20.137  -5.111  1.00  0.00     0.031 C 
ATOM     75  C   UNL     1      -2.742 -20.349  -4.448  1.00  0.00     0.031 A 
BRANCH  62  76
ATOM     76  C   UNL     1      -7.813 -17.072  -3.126  1.00  0.00    -0.014 A 
ATOM     77  C   UNL     1      -8.860 -16.771  -4.017  1.00  0.00     0.010 A 
ATOM     78  C   UNL     1      -8.118 -17.392  -1.791  1.00  0.00     0.010 A 
ATOM     79  C   UNL     1     -10.182 -16.743  -3.569  1.00  0.00     0.020 A 
ATOM     80  C   UNL     1      -9.442 -17.388  -1.345  1.00  0.00     0.020 A 
ATOM     81  C   UNL     1     -10.464 -17.043  -2.233  1.00  0.00     0.054 A 
BRANCH  81  82
ATOM     82  S   UNL     1     -12.190 -17.007  -1.676  1.00  0.00     0.124 S 
ATOM     83  O   UNL     1     -12.429 -15.573  -1.537  1.00  0.00    -0.237 OA
ATOM     84  O   UNL     1     -12.899 -17.657  -2.775  1.00  0.00    -0.237 OA
ATOM     85  O   UNL     1     -12.165 -17.760  -0.424  1.00  0.00    -0.744 OA
ENDBRANCH  81  82
ENDBRANCH  62  76
BRANCH  63  86
ATOM     86  C   UNL     1       1.772 -16.578  -5.882  1.00  0.00    -0.014 A 
ATOM     87  C   UNL     1       2.182 -16.967  -7.170  1.00  0.00     0.010 A 
ATOM     88  C   UNL     1       2.732 -16.101  -4.971  1.00  0.00     0.010 A 
ATOM     89  C   UNL     1       3.528 -16.891  -7.537  1.00  0.00     0.020 A 
ATOM     90  C   UNL     1       4.076 -16.005  -5.342  1.00  0.00     0.020 A 
ATOM     91  C   UNL     1       4.467 -16.410  -6.620  1.00  0.00     0.054 A 
BRANCH  91  92
ATOM     92  S   UNL     1       6.201 -16.262  -7.136  1.00  0.00     0.124 S 
ATOM     93  O   UNL     1       6.664 -17.642  -7.042  1.00  0.00    -0.237 OA
ATOM     94  O   UNL     1       6.086 -15.723  -8.489  1.00  0.00    -0.237 OA
ATOM     95  O   UNL     1       6.769 -15.339  -6.154  1.00  0.00    -0.744 OA
ENDBRANCH  91  92
ENDBRANCH  63  86
BRANCH  75  96
ATOM     96  C   UNL     1      -2.567 -21.842  -4.444  1.00  0.00    -0.014 A 
ATOM     97  C   UNL     1      -1.899 -22.488  -3.390  1.00  0.00     0.010 A 
ATOM     98  C   UNL     1      -3.143 -22.611  -5.471  1.00  0.00     0.010 A 
ATOM     99  C   UNL     1      -1.795 -23.881  -3.372  1.00  0.00     0.020 A 
ATOM    100  C   UNL     1      -3.058 -24.005  -5.446  1.00  0.00     0.020 A 
ATOM    101  C   UNL     1      -2.375 -24.631  -4.400  1.00  0.00     0.054 A 
BRANCH 101 102
ATOM    102  S   UNL     1      -2.284 -26.441  -4.324  1.00  0.00     0.124 S 
ATOM    103  O   UNL     1      -0.912 -26.694  -4.758  1.00  0.00    -0.237 OA
ATOM    104  O   UNL     1      -2.559 -26.720  -2.917  1.00  0.00    -0.237 OA
ATOM    105  O   UNL     1      -3.323 -26.879  -5.254  1.00  0.00    -0.744 OA
ENDBRANCH 101 102
ENDBRANCH  75  96
ENDBRANCH  49  50
ENDBRANCH  41  44
ENDBRANCH  39  40
ENDBRANCH  38  39
ENDBRANCH   1  38
TORSDOF 20
