REMARK SMILES Cc1ccc(C(=O)N2C[C@@H](C(=O)NCCCCNC(=O)c3ccc(-c4c5nc(c(-c6ccc(S(=O)(=O)[O-])cc6)c6ccc([nH]6)c(-c6ccc(S(=O)(=O)[O-])cc6)c6nc(c(-c7ccc(S(=O)(=O)[O-])cc7)c7ccc4[nH]7)C=C6)C=C5)cc3)C[C@H](C(=O)N3CCOCC3)C2)cc1F
REMARK SMILES IDX 16 1 15 2 14 3 13 4 11 5 12 6 10 8 8 9 9 10 91 11 82 12
REMARK SMILES IDX 81 13 6 14 7 15 5 16 1 17 2 18 3 19 93 20 4 21 92 22 94 23
REMARK SMILES IDX 83 24 84 25 85 26 86 27 90 28 87 29 89 30 88 31 17 32 18 33
REMARK SMILES IDX 19 34 20 36 21 37 22 38 80 39 23 40 79 41 24 42 25 43 26 44
REMARK SMILES IDX 73 45 27 46 78 47 72 48 74 49 28 50 77 51 71 52 70 53 29 55
REMARK SMILES IDX 59 56 40 57 58 58 41 59 44 60 57 61 75 62 42 63 43 64 56 66
REMARK SMILES IDX 76 67 45 68 30 69 31 70 39 71 32 72 38 73 33 74 34 75 35 76
REMARK SMILES IDX 36 77 37 78 60 79 61 80 69 81 62 82 68 83 63 84 64 85 65 86
REMARK SMILES IDX 66 87 67 88 46 89 47 90 55 91 48 92 54 93 49 94 50 95 51 96
REMARK SMILES IDX 52 97 53 98
REMARK H PARENT 13 7 18 35 74 54 44 65
REMARK Flexibility Score: inf
ROOT
ATOM      1  C   UNL     1     -10.300   1.716   1.964  1.00  0.00     0.023 C 
ENDROOT
BRANCH   1   2
ATOM      2  C   UNL     1      -9.161   1.447   0.983  1.00  0.00     0.023 C 
BRANCH   2   3
ATOM      3  C   UNL     1      -7.940   0.782   1.604  1.00  0.00     0.116 C 
BRANCH   3   4
ATOM      4  N   UNL     1      -8.258  -0.530   2.134  1.00  0.00    -0.356 N 
ATOM      5  C   UNL     1      -7.740  -1.750   1.849  1.00  0.00     0.224 C 
ATOM      6  O   UNL     1      -8.239  -2.736   2.395  1.00  0.00    -0.275 OA
ATOM      7  H   UNL     1      -8.970  -0.535   2.814  1.00  0.00     0.163 HD
BRANCH   5   8
ATOM      8  C   UNL     1      -6.585  -1.918   0.882  1.00  0.00     0.099 C 
ATOM      9  N   UNL     1      -4.279  -1.126   0.387  1.00  0.00    -0.337 N 
ATOM     10  C   UNL     1      -5.340  -1.203   1.379  1.00  0.00     0.133 C 
ATOM     11  C   UNL     1      -4.650  -0.676  -0.953  1.00  0.00     0.133 C 
ATOM     12  C   UNL     1      -5.821  -1.479  -1.548  1.00  0.00     0.099 C 
ATOM     13  C   UNL     1      -6.986  -1.654  -0.576  1.00  0.00     0.030 C 
BRANCH   9  14
ATOM     14  C   UNL     1      -2.982  -1.336   0.837  1.00  0.00     0.254 C 
ATOM     15  O   UNL     1      -2.722  -2.083   1.779  1.00  0.00    -0.269 OA
BRANCH  14  16
ATOM     16  C   UNL     1      -1.857  -0.553   0.275  1.00  0.00     0.042 A 
ATOM     17  C   UNL     1       1.692   1.806  -0.297  1.00  0.00     0.047 C 
ATOM     18  C   UNL     1       0.437   0.995  -0.186  1.00  0.00    -0.015 A 
ATOM     19  C   UNL     1      -0.821   1.606  -0.111  1.00  0.00     0.007 A 
ATOM     20  C   UNL     1       0.518  -0.397  -0.074  1.00  0.00     0.126 A 
ATOM     21  C   UNL     1      -1.965   0.837   0.125  1.00  0.00     0.014 A 
ATOM     22  C   UNL     1      -0.611  -1.172   0.162  1.00  0.00     0.053 A 
ATOM     23  F   UNL     1       1.715  -0.999  -0.134  1.00  0.00    -0.207 F 
ENDBRANCH  14  16
ENDBRANCH   9  14
BRANCH  12  24
ATOM     24  C   UNL     1      -5.259  -2.683  -2.320  1.00  0.00     0.227 C 
ATOM     25  O   UNL     1      -4.969  -2.522  -3.512  1.00  0.00    -0.275 OA
ATOM     26  N   UNL     1      -4.827  -3.802  -1.651  1.00  0.00    -0.338 N 
ATOM     27  C   UNL     1      -5.629  -4.679  -0.798  1.00  0.00     0.148 C 
ATOM     28  C   UNL     1      -3.577  -4.434  -2.068  1.00  0.00     0.148 C 
ATOM     29  C   UNL     1      -4.802  -5.119   0.417  1.00  0.00     0.181 C 
ATOM     30  C   UNL     1      -2.801  -4.899  -0.830  1.00  0.00     0.181 C 
ATOM     31  O   UNL     1      -3.598  -5.780  -0.018  1.00  0.00    -0.378 OA
ENDBRANCH  12  24
ENDBRANCH   5   8
ENDBRANCH   3   4
ENDBRANCH   2   3
ENDBRANCH   1   2
BRANCH   1  32
ATOM     32  C   UNL     1      -9.884   2.406   3.258  1.00  0.00     0.116 C 
BRANCH  32  33
ATOM     33  N   UNL     1      -9.152   3.644   3.031  1.00  0.00    -0.352 N 
ATOM     34  C   UNL     1      -9.299   4.849   3.673  1.00  0.00     0.251 C 
ATOM     35  H   UNL     1      -8.464   3.613   2.328  1.00  0.00     0.163 HD
ATOM     36  O   UNL     1      -8.681   5.837   3.292  1.00  0.00    -0.269 OA
BRANCH  34  37
ATOM     37  C   UNL     1     -10.245   4.936   4.801  1.00  0.00     0.039 A 
ATOM     38  C   UNL     1     -11.249   5.904   4.766  1.00  0.00     0.014 A 
ATOM     39  C   UNL     1     -10.182   4.006   5.843  1.00  0.00     0.014 A 
ATOM     40  C   UNL     1     -12.239   5.896   5.748  1.00  0.00     0.010 A 
ATOM     41  C   UNL     1     -11.211   3.953   6.774  1.00  0.00     0.010 A 
ATOM     42  C   UNL     1     -12.248   4.898   6.737  1.00  0.00    -0.014 A 
BRANCH  42  43
ATOM     43  C   UNL     1     -13.335   4.825   7.744  1.00  0.00     0.031 A 
ATOM     44  C   UNL     1     -13.020   5.018   9.201  1.00  0.00     0.074 A 
ATOM     45  C   UNL     1     -14.588   4.519   7.353  1.00  0.00     0.049 A 
ATOM     46  N   UNL     1     -13.818   4.938  10.233  1.00  0.00    -0.248 NA
ATOM     47  C   UNL     1     -11.618   5.310   9.545  1.00  0.00     0.031 C 
ATOM     48  C   UNL     1     -15.008   4.260   5.973  1.00  0.00     0.029 A 
ATOM     49  N   UNL     1     -15.740   4.367   8.083  1.00  0.00    -0.354 N 
ATOM     50  C   UNL     1     -13.015   5.150  11.348  1.00  0.00     0.074 A 
ATOM     51  C   UNL     1     -11.659   5.308  10.869  1.00  0.00     0.031 C 
ATOM     52  C   UNL     1     -16.328   4.011   5.954  1.00  0.00     0.029 A 
ATOM     53  C   UNL     1     -16.840   4.053   7.320  1.00  0.00     0.049 A 
ATOM     54  H   UNL     1     -15.775   4.473   9.061  1.00  0.00     0.167 HD
ATOM     55  C   UNL     1     -13.375   5.227  12.650  1.00  0.00     0.031 A 
ATOM     56  C   UNL     1     -18.118   3.823   7.680  1.00  0.00     0.031 A 
ATOM     57  C   UNL     1     -14.727   5.084  13.119  1.00  0.00     0.049 A 
ATOM     58  C   UNL     1     -18.497   3.921   9.132  1.00  0.00     0.074 A 
ATOM     59  C   UNL     1     -15.207   5.207  14.411  1.00  0.00     0.029 A 
ATOM     60  N   UNL     1     -15.816   4.786  12.313  1.00  0.00    -0.354 N 
ATOM     61  N   UNL     1     -17.734   4.193  10.165  1.00  0.00    -0.248 NA
ATOM     62  C   UNL     1     -19.909   3.693   9.466  1.00  0.00     0.031 C 
ATOM     63  C   UNL     1     -16.579   4.935  14.393  1.00  0.00     0.029 A 
ATOM     64  C   UNL     1     -16.963   4.699  13.082  1.00  0.00     0.049 A 
ATOM     65  H   UNL     1     -15.778   4.655  11.338  1.00  0.00     0.167 HD
ATOM     66  C   UNL     1     -18.580   4.194  11.269  1.00  0.00     0.074 A 
ATOM     67  C   UNL     1     -19.912   3.910  10.775  1.00  0.00     0.031 C 
ATOM     68  C   UNL     1     -18.281   4.413  12.573  1.00  0.00     0.031 A 
BRANCH  55  69
ATOM     69  C   UNL     1     -12.283   5.474  13.657  1.00  0.00    -0.014 A 
ATOM     70  C   UNL     1     -11.622   6.715  13.722  1.00  0.00     0.010 A 
ATOM     71  C   UNL     1     -11.927   4.461  14.565  1.00  0.00     0.010 A 
ATOM     72  C   UNL     1     -10.591   6.921  14.642  1.00  0.00     0.020 A 
ATOM     73  C   UNL     1     -10.916   4.674  15.508  1.00  0.00     0.020 A 
ATOM     74  C   UNL     1     -10.241   5.896  15.526  1.00  0.00     0.054 A 
BRANCH  74  75
ATOM     75  S   UNL     1      -8.908   6.195  16.718  1.00  0.00     0.124 S 
ATOM     76  O   UNL     1      -7.724   6.141  15.863  1.00  0.00    -0.237 OA
ATOM     77  O   UNL     1      -9.239   7.516  17.246  1.00  0.00    -0.237 OA
ATOM     78  O   UNL     1      -9.040   5.096  17.670  1.00  0.00    -0.744 OA
ENDBRANCH  74  75
ENDBRANCH  55  69
BRANCH  56  79
ATOM     79  C   UNL     1     -19.135   3.502   6.642  1.00  0.00    -0.014 A 
ATOM     80  C   UNL     1     -20.120   4.443   6.295  1.00  0.00     0.010 A 
ATOM     81  C   UNL     1     -19.109   2.263   5.978  1.00  0.00     0.010 A 
ATOM     82  C   UNL     1     -21.070   4.146   5.313  1.00  0.00     0.020 A 
ATOM     83  C   UNL     1     -20.041   1.972   4.977  1.00  0.00     0.020 A 
ATOM     84  C   UNL     1     -21.022   2.912   4.657  1.00  0.00     0.054 A 
BRANCH  84  85
ATOM     85  S   UNL     1     -22.226   2.572   3.343  1.00  0.00     0.124 S 
ATOM     86  O   UNL     1     -23.447   2.332   4.105  1.00  0.00    -0.237 OA
ATOM     87  O   UNL     1     -22.199   3.807   2.563  1.00  0.00    -0.237 OA
ATOM     88  O   UNL     1     -21.669   1.404   2.665  1.00  0.00    -0.744 OA
ENDBRANCH  84  85
ENDBRANCH  56  79
BRANCH  68  89
ATOM     89  C   UNL     1     -19.418   4.386  13.558  1.00  0.00    -0.014 A 
ATOM     90  C   UNL     1     -20.033   3.177  13.928  1.00  0.00     0.010 A 
ATOM     91  C   UNL     1     -19.837   5.584  14.165  1.00  0.00     0.010 A 
ATOM     92  C   UNL     1     -21.067   3.171  14.868  1.00  0.00     0.020 A 
ATOM     93  C   UNL     1     -20.852   5.579  15.124  1.00  0.00     0.020 A 
ATOM     94  C   UNL     1     -21.470   4.373  15.460  1.00  0.00     0.054 A 
BRANCH  94  95
ATOM     95  S   UNL     1     -22.783   4.333  16.710  1.00  0.00     0.124 S 
ATOM     96  O   UNL     1     -23.974   4.123  15.893  1.00  0.00    -0.237 OA
ATOM     97  O   UNL     1     -22.391   3.206  17.552  1.00  0.00    -0.237 OA
ATOM     98  O   UNL     1     -22.690   5.643  17.351  1.00  0.00    -0.744 OA
ENDBRANCH  94  95
ENDBRANCH  68  89
ENDBRANCH  42  43
ENDBRANCH  34  37
ENDBRANCH  32  33
ENDBRANCH   1  32
TORSDOF 17
