REMARK SMILES CC(C)[N@H+](C)Cc1cc2c(cc1Cl)C=C(C(=O)NCCCCNC(=O)c1ccc(-c3c4nc(c(-c5ccc(S(=O)(=O)[O-])cc5)c5ccc([nH]5)c(-c5ccc(S(=O)(=O)[O-])cc5)c5nc(c(-c6ccc(S(=O)(=O)[O-])cc6)c6ccc3[nH]6)C=C5)C=C4)cc1)[C@@H](C(F)(F)F)O2
REMARK SMILES IDX 20 1 19 2 18 3 16 4 17 5 15 7 7 8 8 9 12 10 9 11 11 12 13 13
REMARK SMILES IDX 10 14 91 15 14 16 86 17 6 18 4 19 5 20 2 22 1 23 3 24 87 25
REMARK SMILES IDX 88 26 89 27 90 28 21 29 22 30 23 31 24 32 25 34 26 35 27 36
REMARK SMILES IDX 85 37 28 38 84 39 29 40 30 41 31 42 78 43 32 44 83 45 77 46
REMARK SMILES IDX 79 47 33 48 82 49 76 50 75 51 34 53 64 54 45 55 63 56 46 57
REMARK SMILES IDX 49 58 62 59 80 60 47 61 48 62 61 64 81 65 50 66 35 67 36 68
REMARK SMILES IDX 44 69 37 70 43 71 38 72 39 73 40 74 41 75 42 76 65 77 66 78
REMARK SMILES IDX 74 79 67 80 73 81 68 82 69 83 70 84 71 85 72 86 51 87 52 88
REMARK SMILES IDX 60 89 53 90 59 91 54 92 55 93 56 94 57 95 58 96
REMARK H PARENT 18 6 4 21 23 33 79 52 49 63
REMARK Flexibility Score: inf
ROOT
ATOM      1  C   UNL     1      -3.254  10.736   1.785  1.00  0.00     0.023 C 
ENDROOT
BRANCH   1   2
ATOM      2  C   UNL     1      -1.914  10.495   1.099  1.00  0.00     0.116 C 
BRANCH   2   3
ATOM      3  N   UNL     1      -0.850  10.196   2.036  1.00  0.00    -0.352 N 
ATOM      4  C   UNL     1      -0.230   9.070   2.461  1.00  0.00     0.251 C 
ATOM      5  O   UNL     1       0.674   9.221   3.287  1.00  0.00    -0.270 OA
ATOM      6  H   UNL     1      -0.491  11.006   2.466  1.00  0.00     0.163 HD
BRANCH   4   7
ATOM      7  C   UNL     1      -0.589   7.695   2.007  1.00  0.00     0.067 C 
ATOM      8  C   UNL     1      -1.098   2.655   1.872  1.00  0.00     0.029 A 
ATOM      9  C   UNL     1      -1.366   3.708   0.974  1.00  0.00     0.058 A 
ATOM     10  C   UNL     1      -0.651   2.997   3.160  1.00  0.00     0.050 A 
ATOM     11  C   UNL     1      -1.128   5.038   1.323  1.00  0.00     0.128 A 
ATOM     12  C   UNL     1      -0.361   4.329   3.484  1.00  0.00     0.033 A 
ATOM     13  Cl  UNL     1      -0.476   1.860   4.452  1.00  0.00    -0.084 Cl
ATOM     14  C   UNL     1      -0.592   5.351   2.564  1.00  0.00     0.019 A 
ATOM     15  O   UNL     1      -1.473   5.968   0.394  1.00  0.00    -0.475 OA
ATOM     16  C   UNL     1      -0.307   6.733   2.901  1.00  0.00     0.025 C 
ATOM     17  C   UNL     1      -1.170   7.369   0.657  1.00  0.00     0.314 C 
BRANCH   8  18
ATOM     18  C   UNL     1      -1.411   1.252   1.389  1.00  0.00     0.300 C 
BRANCH  18  19
ATOM     19  N   UNL     1      -0.560   0.193   1.934  1.00  0.00    -0.332 N 
ATOM     20  C   UNL     1      -1.334  -0.994   2.278  1.00  0.00     0.333 C 
ATOM     21  H   UNL     1      -0.201   0.611   2.792  1.00  0.00     0.348 HD
BRANCH  19  22
ATOM     22  C   UNL     1       0.702  -0.109   1.241  1.00  0.00     0.177 C 
ATOM     23  C   UNL     1       0.557  -0.605  -0.202  1.00  0.00     0.075 C 
ATOM     24  C   UNL     1       1.693   1.060   1.290  1.00  0.00     0.075 C 
ENDBRANCH  19  22
ENDBRANCH  18  19
ENDBRANCH   8  18
BRANCH  17  25
ATOM     25  C   UNL     1      -0.323   7.861  -0.530  1.00  0.00     0.429 C 
ATOM     26  F   UNL     1      -1.083   7.894  -1.657  1.00  0.00    -0.167 F 
ATOM     27  F   UNL     1       0.167   9.107  -0.366  1.00  0.00    -0.167 F 
ATOM     28  F   UNL     1       0.728   7.047  -0.780  1.00  0.00    -0.167 F 
ENDBRANCH  17  25
ENDBRANCH   4   7
ENDBRANCH   2   3
ENDBRANCH   1   2
BRANCH   1  29
ATOM     29  C   UNL     1      -3.435  12.147   2.347  1.00  0.00     0.023 C 
BRANCH  29  30
ATOM     30  C   UNL     1      -3.126  13.281   1.374  1.00  0.00     0.116 C 
BRANCH  30  31
ATOM     31  N   UNL     1      -3.790  13.173   0.079  1.00  0.00    -0.352 N 
ATOM     32  C   UNL     1      -4.004  14.187  -0.831  1.00  0.00     0.251 C 
ATOM     33  H   UNL     1      -4.122  12.280  -0.172  1.00  0.00     0.163 HD
ATOM     34  O   UNL     1      -4.628  13.991  -1.868  1.00  0.00    -0.269 OA
BRANCH  32  35
ATOM     35  C   UNL     1      -3.512  15.534  -0.480  1.00  0.00     0.039 A 
ATOM     36  C   UNL     1      -2.172  15.703  -0.135  1.00  0.00     0.014 A 
ATOM     37  C   UNL     1      -4.432  16.571  -0.315  1.00  0.00     0.014 A 
ATOM     38  C   UNL     1      -1.798  16.836   0.574  1.00  0.00     0.010 A 
ATOM     39  C   UNL     1      -4.027  17.750   0.314  1.00  0.00     0.010 A 
ATOM     40  C   UNL     1      -2.727  17.860   0.833  1.00  0.00    -0.014 A 
BRANCH  40  41
ATOM     41  C   UNL     1      -2.317  19.003   1.692  1.00  0.00     0.031 A 
ATOM     42  C   UNL     1      -2.958  19.228   3.038  1.00  0.00     0.074 A 
ATOM     43  C   UNL     1      -1.286  19.777   1.299  1.00  0.00     0.049 A 
ATOM     44  N   UNL     1      -2.658  20.119   3.950  1.00  0.00    -0.248 NA
ATOM     45  C   UNL     1      -4.079  18.349   3.414  1.00  0.00     0.031 C 
ATOM     46  C   UNL     1      -0.572  19.637   0.028  1.00  0.00     0.029 A 
ATOM     47  N   UNL     1      -0.627  20.794   1.941  1.00  0.00    -0.354 N 
ATOM     48  C   UNL     1      -3.557  19.921   4.992  1.00  0.00     0.074 A 
ATOM     49  C   UNL     1      -4.436  18.846   4.591  1.00  0.00     0.031 C 
ATOM     50  C   UNL     1       0.475  20.473   0.021  1.00  0.00     0.029 A 
ATOM     51  C   UNL     1       0.469  21.257   1.252  1.00  0.00     0.049 A 
ATOM     52  H   UNL     1      -0.912  21.158   2.811  1.00  0.00     0.167 HD
ATOM     53  C   UNL     1      -3.636  20.569   6.179  1.00  0.00     0.031 A 
ATOM     54  C   UNL     1       1.378  22.200   1.570  1.00  0.00     0.031 A 
ATOM     55  C   UNL     1      -2.745  21.626   6.581  1.00  0.00     0.049 A 
ATOM     56  C   UNL     1       1.268  22.907   2.889  1.00  0.00     0.074 A 
ATOM     57  C   UNL     1      -2.751  22.349   7.761  1.00  0.00     0.029 A 
ATOM     58  N   UNL     1      -1.681  22.100   5.828  1.00  0.00    -0.354 N 
ATOM     59  N   UNL     1       0.394  22.721   3.848  1.00  0.00    -0.248 NA
ATOM     60  C   UNL     1       2.266  23.946   3.174  1.00  0.00     0.031 C 
ATOM     61  C   UNL     1      -1.722  23.292   7.703  1.00  0.00     0.029 A 
ATOM     62  C   UNL     1      -1.030  23.111   6.516  1.00  0.00     0.049 A 
ATOM     63  H   UNL     1      -1.426  21.768   4.938  1.00  0.00     0.167 HD
ATOM     64  C   UNL     1       0.745  23.608   4.858  1.00  0.00     0.074 A 
ATOM     65  C   UNL     1       1.921  24.319   4.400  1.00  0.00     0.031 C 
ATOM     66  C   UNL     1       0.142  23.811   6.055  1.00  0.00     0.031 A 
BRANCH  53  67
ATOM     67  C   UNL     1      -4.722  20.166   7.143  1.00  0.00    -0.014 A 
ATOM     68  C   UNL     1      -5.771  21.061   7.426  1.00  0.00     0.010 A 
ATOM     69  C   UNL     1      -4.652  18.953   7.851  1.00  0.00     0.010 A 
ATOM     70  C   UNL     1      -6.715  20.765   8.414  1.00  0.00     0.020 A 
ATOM     71  C   UNL     1      -5.610  18.640   8.821  1.00  0.00     0.020 A 
ATOM     72  C   UNL     1      -6.623  19.558   9.111  1.00  0.00     0.054 A 
BRANCH  72  73
ATOM     73  S   UNL     1      -7.852  19.188  10.394  1.00  0.00     0.124 S 
ATOM     74  O   UNL     1      -7.381  19.997  11.514  1.00  0.00    -0.237 OA
ATOM     75  O   UNL     1      -9.102  19.628   9.778  1.00  0.00    -0.237 OA
ATOM     76  O   UNL     1      -7.734  17.742  10.571  1.00  0.00    -0.744 OA
ENDBRANCH  72  73
ENDBRANCH  53  67
BRANCH  54  77
ATOM     77  C   UNL     1       2.487  22.476   0.618  1.00  0.00    -0.014 A 
ATOM     78  C   UNL     1       2.219  23.058  -0.635  1.00  0.00     0.010 A 
ATOM     79  C   UNL     1       3.796  22.055   0.911  1.00  0.00     0.010 A 
ATOM     80  C   UNL     1       3.220  23.152  -1.603  1.00  0.00     0.020 A 
ATOM     81  C   UNL     1       4.810  22.177  -0.045  1.00  0.00     0.020 A 
ATOM     82  C   UNL     1       4.506  22.694  -1.307  1.00  0.00     0.054 A 
BRANCH  82  83
ATOM     83  S   UNL     1       5.776  22.763  -2.601  1.00  0.00     0.124 S 
ATOM     84  O   UNL     1       5.424  21.610  -3.425  1.00  0.00    -0.237 OA
ATOM     85  O   UNL     1       5.540  24.069  -3.212  1.00  0.00    -0.237 OA
ATOM     86  O   UNL     1       7.027  22.644  -1.857  1.00  0.00    -0.744 OA
ENDBRANCH  82  83
ENDBRANCH  54  77
BRANCH  66  87
ATOM     87  C   UNL     1       0.740  24.833   6.985  1.00  0.00    -0.014 A 
ATOM     88  C   UNL     1       1.341  24.410   8.185  1.00  0.00     0.010 A 
ATOM     89  C   UNL     1       0.600  26.210   6.736  1.00  0.00     0.010 A 
ATOM     90  C   UNL     1       1.767  25.342   9.133  1.00  0.00     0.020 A 
ATOM     91  C   UNL     1       1.050  27.147   7.670  1.00  0.00     0.020 A 
ATOM     92  C   UNL     1       1.609  26.706   8.873  1.00  0.00     0.054 A 
BRANCH  92  93
ATOM     93  S   UNL     1       2.150  27.905  10.123  1.00  0.00     0.124 S 
ATOM     94  O   UNL     1       1.045  27.872  11.077  1.00  0.00    -0.237 OA
ATOM     95  O   UNL     1       3.409  27.334  10.596  1.00  0.00    -0.237 OA
ATOM     96  O   UNL     1       2.285  29.148   9.366  1.00  0.00    -0.744 OA
ENDBRANCH  92  93
ENDBRANCH  66  87
ENDBRANCH  40  41
ENDBRANCH  32  35
ENDBRANCH  30  31
ENDBRANCH  29  30
ENDBRANCH   1  29
TORSDOF 18
