REMARK SMILES C[C@H]1CN(CCC(=O)NCCCCNC(=O)c2ccc(-c3c4nc(c(-c5ccc(S(=O)(=O)[O-])cc5)c5ccc([nH]5)c(-c5ccc(S(=O)(=O)[O-])cc5)c5nc(c(-c6ccc(S(=O)(=O)[O-])cc6)c6ccc3[nH]6)C=C5)C=C4)cc2)S(=O)(=O)C1
REMARK SMILES IDX 12 1 11 2 10 3 9 4 7 5 8 6 6 8 5 9 4 10 1 11 2 12 3 13 80 14
REMARK SMILES IDX 77 15 78 16 79 17 13 18 14 19 15 20 16 22 17 23 18 24 76 25
REMARK SMILES IDX 19 26 75 27 20 28 21 29 22 30 69 31 23 32 74 33 68 34 70 35
REMARK SMILES IDX 24 36 73 37 67 38 66 39 25 41 55 42 36 43 54 44 37 45 40 46
REMARK SMILES IDX 53 47 71 48 38 49 39 50 52 52 72 53 41 54 26 55 27 56 35 57
REMARK SMILES IDX 28 58 34 59 29 60 30 61 31 62 32 63 33 64 56 65 57 66 65 67
REMARK SMILES IDX 58 68 64 69 59 70 60 71 61 72 62 73 63 74 42 75 43 76 51 77
REMARK SMILES IDX 44 78 50 79 45 80 46 81 47 82 48 83 49 84
REMARK H PARENT 9 7 14 21 70 40 40 51
REMARK Flexibility Score: inf
ROOT
ATOM      1  C   UNL     1       3.368  -4.500  -1.107  1.00  0.00     0.023 C 
ENDROOT
BRANCH   1   2
ATOM      2  C   UNL     1       1.933  -4.648  -0.609  1.00  0.00     0.023 C 
BRANCH   2   3
ATOM      3  C   UNL     1       0.833  -3.973  -1.445  1.00  0.00     0.116 C 
BRANCH   3   4
ATOM      4  N   UNL     1      -0.310  -4.838  -1.681  1.00  0.00    -0.356 N 
ATOM      5  C   UNL     1      -1.647  -4.663  -1.508  1.00  0.00     0.221 C 
ATOM      6  O   UNL     1      -2.394  -5.548  -1.935  1.00  0.00    -0.275 OA
ATOM      7  H   UNL     1      -0.069  -5.724  -2.035  1.00  0.00     0.163 HD
BRANCH   5   8
ATOM      8  C   UNL     1      -2.248  -3.421  -0.877  1.00  0.00     0.116 C 
BRANCH   8   9
ATOM      9  C   UNL     1      -2.352  -3.447   0.642  1.00  0.00     0.112 C 
BRANCH   9  10
ATOM     10  N   UNL     1      -1.504  -2.470   1.337  1.00  0.00    -0.201 NA
ATOM     11  C   UNL     1       0.131  -0.428  -0.723  1.00  0.00     0.010 C 
ATOM     12  C   UNL     1      -0.090  -0.622   0.782  1.00  0.00     0.017 C 
ATOM     13  C   UNL     1      -1.546  -1.030   1.108  1.00  0.00     0.106 C 
ATOM     14  C   UNL     1       0.868  -1.654   1.426  1.00  0.00     0.158 C 
ATOM     15  S   UNL     1      -0.147  -2.898   2.219  1.00  0.00     0.214 S 
ATOM     16  O   UNL     1      -0.357  -2.497   3.589  1.00  0.00    -0.212 OA
ATOM     17  O   UNL     1       0.236  -4.240   1.854  1.00  0.00    -0.212 OA
ENDBRANCH   9  10
ENDBRANCH   8   9
ENDBRANCH   5   8
ENDBRANCH   3   4
ENDBRANCH   2   3
ENDBRANCH   1   2
BRANCH   1  18
ATOM     18  C   UNL     1       3.815  -3.097  -1.500  1.00  0.00     0.116 C 
BRANCH  18  19
ATOM     19  N   UNL     1       4.231  -2.223  -0.406  1.00  0.00    -0.352 N 
ATOM     20  C   UNL     1       5.432  -1.567  -0.208  1.00  0.00     0.251 C 
ATOM     21  H   UNL     1       3.555  -2.079   0.295  1.00  0.00     0.163 HD
ATOM     22  O   UNL     1       5.576  -0.808   0.745  1.00  0.00    -0.269 OA
BRANCH  20  23
ATOM     23  C   UNL     1       6.568  -1.866  -1.105  1.00  0.00     0.039 A 
ATOM     24  C   UNL     1       7.740  -2.380  -0.546  1.00  0.00     0.014 A 
ATOM     25  C   UNL     1       6.401  -1.827  -2.488  1.00  0.00     0.014 A 
ATOM     26  C   UNL     1       8.669  -3.015  -1.373  1.00  0.00     0.010 A 
ATOM     27  C   UNL     1       7.256  -2.577  -3.286  1.00  0.00     0.010 A 
ATOM     28  C   UNL     1       8.385  -3.204  -2.735  1.00  0.00    -0.014 A 
BRANCH  28  29
ATOM     29  C   UNL     1       9.224  -4.088  -3.589  1.00  0.00     0.031 A 
ATOM     30  C   UNL     1       9.855  -3.541  -4.841  1.00  0.00     0.074 A 
ATOM     31  C   UNL     1       9.342  -5.401  -3.287  1.00  0.00     0.049 A 
ATOM     32  N   UNL     1      10.552  -4.168  -5.753  1.00  0.00    -0.248 NA
ATOM     33  C   UNL     1       9.648  -2.110  -5.128  1.00  0.00     0.031 C 
ATOM     34  C   UNL     1       8.729  -6.071  -2.134  1.00  0.00     0.029 A 
ATOM     35  N   UNL     1      10.017  -6.414  -3.926  1.00  0.00    -0.354 N 
ATOM     36  C   UNL     1      10.836  -3.220  -6.729  1.00  0.00     0.074 A 
ATOM     37  C   UNL     1      10.196  -1.989  -6.328  1.00  0.00     0.031 C 
ATOM     38  C   UNL     1       9.093  -7.364  -2.125  1.00  0.00     0.029 A 
ATOM     39  C   UNL     1       9.917  -7.636  -3.297  1.00  0.00     0.049 A 
ATOM     40  H   UNL     1      10.525  -6.279  -4.758  1.00  0.00     0.167 HD
ATOM     41  C   UNL     1      11.584  -3.356  -7.847  1.00  0.00     0.031 A 
ATOM     42  C   UNL     1      10.422  -8.842  -3.630  1.00  0.00     0.031 A 
ATOM     43  C   UNL     1      12.253  -4.572  -8.220  1.00  0.00     0.049 A 
ATOM     44  C   UNL     1      11.245  -8.961  -4.887  1.00  0.00     0.074 A 
ATOM     45  C   UNL     1      13.114  -4.782  -9.283  1.00  0.00     0.029 A 
ATOM     46  N   UNL     1      12.135  -5.779  -7.551  1.00  0.00    -0.354 N 
ATOM     47  N   UNL     1      11.595  -8.022  -5.734  1.00  0.00    -0.248 NA
ATOM     48  C   UNL     1      11.744 -10.300  -5.233  1.00  0.00     0.031 C 
ATOM     49  C   UNL     1      13.457  -6.136  -9.300  1.00  0.00     0.029 A 
ATOM     50  C   UNL     1      12.869  -6.752  -8.207  1.00  0.00     0.049 A 
ATOM     51  H   UNL     1      11.609  -5.923  -6.732  1.00  0.00     0.167 HD
ATOM     52  C   UNL     1      12.375  -8.654  -6.697  1.00  0.00     0.074 A 
ATOM     53  C   UNL     1      12.468 -10.047  -6.314  1.00  0.00     0.031 C 
ATOM     54  C   UNL     1      12.957  -8.131  -7.803  1.00  0.00     0.031 A 
BRANCH  41  55
ATOM     55  C   UNL     1      11.722  -2.166  -8.758  1.00  0.00    -0.014 A 
ATOM     56  C   UNL     1      12.477  -1.041  -8.380  1.00  0.00     0.010 A 
ATOM     57  C   UNL     1      11.158  -2.212 -10.046  1.00  0.00     0.010 A 
ATOM     58  C   UNL     1      12.652   0.023  -9.269  1.00  0.00     0.020 A 
ATOM     59  C   UNL     1      11.355  -1.164 -10.948  1.00  0.00     0.020 A 
ATOM     60  C   UNL     1      12.096  -0.050 -10.551  1.00  0.00     0.054 A 
BRANCH  60  61
ATOM     61  S   UNL     1      12.403   1.314 -11.706  1.00  0.00     0.124 S 
ATOM     62  O   UNL     1      11.608   2.390 -11.119  1.00  0.00    -0.237 OA
ATOM     63  O   UNL     1      13.851   1.484 -11.619  1.00  0.00    -0.237 OA
ATOM     64  O   UNL     1      11.912   0.804 -12.984  1.00  0.00    -0.744 OA
ENDBRANCH  60  61
ENDBRANCH  41  55
BRANCH  42  65
ATOM     65  C   UNL     1      10.168 -10.043  -2.780  1.00  0.00    -0.014 A 
ATOM     66  C   UNL     1      11.229 -10.692  -2.122  1.00  0.00     0.010 A 
ATOM     67  C   UNL     1       8.871 -10.576  -2.663  1.00  0.00     0.010 A 
ATOM     68  C   UNL     1      11.007 -11.872  -1.404  1.00  0.00     0.020 A 
ATOM     69  C   UNL     1       8.638 -11.736  -1.917  1.00  0.00     0.020 A 
ATOM     70  C   UNL     1       9.712 -12.389  -1.310  1.00  0.00     0.054 A 
BRANCH  70  71
ATOM     71  S   UNL     1       9.447 -13.922  -0.375  1.00  0.00     0.124 S 
ATOM     72  O   UNL     1      10.047 -14.921  -1.254  1.00  0.00    -0.237 OA
ATOM     73  O   UNL     1      10.167 -13.660   0.869  1.00  0.00    -0.237 OA
ATOM     74  O   UNL     1       7.994 -13.995  -0.243  1.00  0.00    -0.744 OA
ENDBRANCH  70  71
ENDBRANCH  42  65
BRANCH  54  75
ATOM     75  C   UNL     1      13.769  -9.056  -8.669  1.00  0.00    -0.014 A 
ATOM     76  C   UNL     1      13.150 -10.039  -9.461  1.00  0.00     0.010 A 
ATOM     77  C   UNL     1      15.163  -8.884  -8.753  1.00  0.00     0.010 A 
ATOM     78  C   UNL     1      13.914 -10.848 -10.305  1.00  0.00     0.020 A 
ATOM     79  C   UNL     1      15.926  -9.668  -9.621  1.00  0.00     0.020 A 
ATOM     80  C   UNL     1      15.296 -10.652 -10.384  1.00  0.00     0.054 A 
BRANCH  80  81
ATOM     81  S   UNL     1      16.253 -11.671 -11.540  1.00  0.00     0.124 S 
ATOM     82  O   UNL     1      16.214 -12.981 -10.895  1.00  0.00    -0.237 OA
ATOM     83  O   UNL     1      15.484 -11.556 -12.777  1.00  0.00    -0.237 OA
ATOM     84  O   UNL     1      17.565 -11.028 -11.566  1.00  0.00    -0.744 OA
ENDBRANCH  80  81
ENDBRANCH  54  75
ENDBRANCH  28  29
ENDBRANCH  20  23
ENDBRANCH  18  19
ENDBRANCH   1  18
TORSDOF 16
