REMARK SMILES C[C@@H](C(=O)NCCCCNC(=O)c1ccc(-c2c3nc(c(-c4ccc(S(=O)(=O)[O-])cc4)c4ccc([nH]4)c(-c4ccc(S(=O)(=O)[O-])cc4)c4nc(c(-c5ccc(S(=O)(=O)[O-])cc5)c5ccc2[nH]5)C=C4)C=C3)cc1)c1ccc(Cc2ccsc2)cc1F
REMARK SMILES IDX 7 1 6 2 5 3 3 4 4 5 2 7 1 8 73 9 74 10 84 11 75 12 83 13
REMARK SMILES IDX 85 14 76 15 77 16 78 17 79 18 82 19 80 20 81 21 8 22 9 23
REMARK SMILES IDX 10 24 11 25 12 27 13 28 14 29 72 30 15 31 71 32 16 33 17 34
REMARK SMILES IDX 18 35 65 36 19 37 70 38 64 39 66 40 20 41 69 42 63 43 62 44
REMARK SMILES IDX 21 46 51 47 32 48 50 49 33 50 36 51 49 52 67 53 34 54 35 55
REMARK SMILES IDX 48 57 68 58 37 59 22 60 23 61 31 62 24 63 30 64 25 65 26 66
REMARK SMILES IDX 27 67 28 68 29 69 52 70 53 71 61 72 54 73 60 74 55 75 56 76
REMARK SMILES IDX 57 77 58 78 59 79 38 80 39 81 47 82 40 83 46 84 41 85 42 86
REMARK SMILES IDX 43 87 44 88 45 89
REMARK H PARENT 5 6 10 26 66 45 36 56
REMARK Flexibility Score: inf
ROOT
ATOM      1  C   UNL     1       4.291  -1.135   0.781  1.00  0.00     0.023 C 
ENDROOT
BRANCH   1   2
ATOM      2  C   UNL     1       3.444  -2.011  -0.150  1.00  0.00     0.116 C 
BRANCH   2   3
ATOM      3  N   UNL     1       2.362  -2.635   0.587  1.00  0.00    -0.356 N 
ATOM      4  C   UNL     1       1.061  -2.234   0.732  1.00  0.00     0.227 C 
ATOM      5  O   UNL     1       0.431  -2.715   1.676  1.00  0.00    -0.274 OA
ATOM      6  H   UNL     1       2.597  -3.471   1.051  1.00  0.00     0.163 HD
BRANCH   4   7
ATOM      7  C   UNL     1       0.457  -1.220  -0.261  1.00  0.00     0.108 C 
ATOM      8  C   UNL     1       0.973   0.183   0.099  1.00  0.00     0.023 C 
BRANCH   7   9
ATOM      9  C   UNL     1      -1.074  -1.272  -0.335  1.00  0.00    -0.000 A 
ATOM     10  C   UNL     1      -1.851  -0.106  -0.430  1.00  0.00     0.008 A 
ATOM     11  C   UNL     1      -1.766  -2.490  -0.358  1.00  0.00     0.127 A 
ATOM     12  C   UNL     1      -3.246  -0.160  -0.463  1.00  0.00     0.004 A 
ATOM     13  C   UNL     1      -3.165  -2.550  -0.335  1.00  0.00     0.043 A 
ATOM     14  F   UNL     1      -1.089  -3.647  -0.427  1.00  0.00    -0.207 F 
ATOM     15  C   UNL     1      -3.929  -1.376  -0.359  1.00  0.00    -0.041 A 
BRANCH  15  16
ATOM     16  C   UNL     1      -5.438  -1.416  -0.351  1.00  0.00     0.072 C 
BRANCH  16  17
ATOM     17  C   UNL     1      -5.924  -0.912   0.984  1.00  0.00    -0.033 A 
ATOM     18  C   UNL     1      -5.851   0.448   1.457  1.00  0.00     0.015 A 
ATOM     19  C   UNL     1      -6.592  -1.693   1.913  1.00  0.00     0.068 A 
ATOM     20  C   UNL     1      -6.408   0.622   2.704  1.00  0.00     0.065 A 
ATOM     21  S   UNL     1      -7.076  -0.826   3.307  1.00  0.00    -0.152 S 
ENDBRANCH  16  17
ENDBRANCH  15  16
ENDBRANCH   7   9
ENDBRANCH   4   7
ENDBRANCH   2   3
ENDBRANCH   1   2
BRANCH   1  22
ATOM     22  C   UNL     1       5.102  -1.904   1.826  1.00  0.00     0.023 C 
BRANCH  22  23
ATOM     23  C   UNL     1       6.102  -2.903   1.259  1.00  0.00     0.116 C 
BRANCH  23  24
ATOM     24  N   UNL     1       7.051  -2.287   0.347  1.00  0.00    -0.352 N 
ATOM     25  C   UNL     1       8.400  -2.497   0.223  1.00  0.00     0.251 C 
ATOM     26  H   UNL     1       6.670  -1.622  -0.272  1.00  0.00     0.163 HD
ATOM     27  O   UNL     1       9.058  -1.765  -0.517  1.00  0.00    -0.269 OA
BRANCH  25  28
ATOM     28  C   UNL     1       9.066  -3.570   0.992  1.00  0.00     0.039 A 
ATOM     29  C   UNL     1      10.307  -3.299   1.573  1.00  0.00     0.014 A 
ATOM     30  C   UNL     1       8.488  -4.835   1.138  1.00  0.00     0.014 A 
ATOM     31  C   UNL     1      10.939  -4.277   2.342  1.00  0.00     0.010 A 
ATOM     32  C   UNL     1       9.083  -5.782   1.970  1.00  0.00     0.010 A 
ATOM     33  C   UNL     1      10.317  -5.515   2.576  1.00  0.00    -0.014 A 
BRANCH  33  34
ATOM     34  C   UNL     1      10.954  -6.517   3.469  1.00  0.00     0.031 A 
ATOM     35  C   UNL     1      11.414  -7.846   2.934  1.00  0.00     0.074 A 
ATOM     36  C   UNL     1      11.103  -6.227   4.777  1.00  0.00     0.049 A 
ATOM     37  N   UNL     1      12.032  -8.815   3.562  1.00  0.00    -0.248 NA
ATOM     38  C   UNL     1      11.130  -8.136   1.519  1.00  0.00     0.031 C 
ATOM     39  C   UNL     1      10.639  -5.000   5.431  1.00  0.00     0.029 A 
ATOM     40  N   UNL     1      11.695  -6.937   5.792  1.00  0.00    -0.354 N 
ATOM     41  C   UNL     1      12.215  -9.822   2.621  1.00  0.00     0.074 A 
ATOM     42  C   UNL     1      11.586  -9.374   1.397  1.00  0.00     0.031 C 
ATOM     43  C   UNL     1      10.997  -5.026   6.724  1.00  0.00     0.029 A 
ATOM     44  C   UNL     1      11.686  -6.282   7.001  1.00  0.00     0.049 A 
ATOM     45  H   UNL     1      12.088  -7.831   5.665  1.00  0.00     0.167 HD
ATOM     46  C   UNL     1      12.871 -11.000   2.754  1.00  0.00     0.031 A 
ATOM     47  C   UNL     1      12.181  -6.647   8.199  1.00  0.00     0.031 A 
ATOM     48  C   UNL     1      13.491 -11.445   3.974  1.00  0.00     0.049 A 
ATOM     49  C   UNL     1      12.910  -7.957   8.318  1.00  0.00     0.074 A 
ATOM     50  C   UNL     1      14.210 -12.607   4.201  1.00  0.00     0.029 A 
ATOM     51  N   UNL     1      13.468 -10.751   5.175  1.00  0.00    -0.354 N 
ATOM     52  N   UNL     1      13.134  -8.863   7.396  1.00  0.00    -0.248 NA
ATOM     53  C   UNL     1      13.471  -8.283   9.636  1.00  0.00     0.031 C 
ATOM     54  C   UNL     1      14.580 -12.637   5.550  1.00  0.00     0.029 A 
ATOM     55  C   UNL     1      14.144 -11.467   6.150  1.00  0.00     0.049 A 
ATOM     56  H   UNL     1      13.035  -9.878   5.314  1.00  0.00     0.167 HD
ATOM     57  C   UNL     1      13.876  -9.860   8.019  1.00  0.00     0.074 A 
ATOM     58  C   UNL     1      14.091  -9.427   9.385  1.00  0.00     0.031 C 
ATOM     59  C   UNL     1      14.334 -11.032   7.510  1.00  0.00     0.031 A 
BRANCH  46  60
ATOM     60  C   UNL     1      12.963 -11.887   1.539  1.00  0.00    -0.014 A 
ATOM     61  C   UNL     1      13.762 -11.521   0.439  1.00  0.00     0.010 A 
ATOM     62  C   UNL     1      12.292 -13.123   1.513  1.00  0.00     0.010 A 
ATOM     63  C   UNL     1      13.863 -12.359  -0.674  1.00  0.00     0.020 A 
ATOM     64  C   UNL     1      12.413 -13.977   0.412  1.00  0.00     0.020 A 
ATOM     65  C   UNL     1      13.188 -13.583  -0.681  1.00  0.00     0.054 A 
BRANCH  65  66
ATOM     66  S   UNL     1      13.371 -14.666  -2.124  1.00  0.00     0.124 S 
ATOM     67  O   UNL     1      12.599 -13.951  -3.137  1.00  0.00    -0.237 OA
ATOM     68  O   UNL     1      14.817 -14.680  -2.332  1.00  0.00    -0.237 OA
ATOM     69  O   UNL     1      12.796 -15.934  -1.683  1.00  0.00    -0.744 OA
ENDBRANCH  65  66
ENDBRANCH  46  60
BRANCH  47  70
ATOM     70  C   UNL     1      12.012  -5.754   9.378  1.00  0.00    -0.014 A 
ATOM     71  C   UNL     1      13.116  -5.098   9.952  1.00  0.00     0.010 A 
ATOM     72  C   UNL     1      10.735  -5.556   9.935  1.00  0.00     0.010 A 
ATOM     73  C   UNL     1      12.950  -4.286  11.078  1.00  0.00     0.020 A 
ATOM     74  C   UNL     1      10.561  -4.719  11.040  1.00  0.00     0.020 A 
ATOM     75  C   UNL     1      11.673  -4.102  11.615  1.00  0.00     0.054 A 
BRANCH  75  76
ATOM     76  S   UNL     1      11.474  -3.015  13.054  1.00  0.00     0.124 S 
ATOM     77  O   UNL     1      12.014  -3.838  14.132  1.00  0.00    -0.237 OA
ATOM     78  O   UNL     1      12.274  -1.851  12.684  1.00  0.00    -0.237 OA
ATOM     79  O   UNL     1      10.033  -2.780  13.107  1.00  0.00    -0.744 OA
ENDBRANCH  75  76
ENDBRANCH  47  70
BRANCH  59  80
ATOM     80  C   UNL     1      15.126 -11.915   8.438  1.00  0.00    -0.014 A 
ATOM     81  C   UNL     1      14.511 -12.574   9.518  1.00  0.00     0.010 A 
ATOM     82  C   UNL     1      16.504 -12.093   8.223  1.00  0.00     0.010 A 
ATOM     83  C   UNL     1      15.271 -13.345  10.401  1.00  0.00     0.020 A 
ATOM     84  C   UNL     1      17.262 -12.891   9.084  1.00  0.00     0.020 A 
ATOM     85  C   UNL     1      16.644 -13.492  10.183  1.00  0.00     0.054 A 
BRANCH  85  86
ATOM     86  S   UNL     1      17.611 -14.494  11.344  1.00  0.00     0.124 S 
ATOM     87  O   UNL     1      17.698 -13.613  12.505  1.00  0.00    -0.237 OA
ATOM     88  O   UNL     1      16.776 -15.681  11.517  1.00  0.00    -0.237 OA
ATOM     89  O   UNL     1      18.870 -14.723  10.639  1.00  0.00    -0.744 OA
ENDBRANCH  85  86
ENDBRANCH  59  80
ENDBRANCH  33  34
ENDBRANCH  25  28
ENDBRANCH  23  24
ENDBRANCH  22  23
ENDBRANCH   1  22
TORSDOF 17
