REMARK SMILES COc1ccc(-c2ncn(CC(=O)NCCCCNC(=O)c3ccc(-c4c5nc(c(-c6ccc(S(=O)(=O)[O-])cc6)c6ccc([nH]6)c(-c6ccc(S(=O)(=O)[O-])cc6)c6nc(c(-c7ccc(S(=O)(=O)[O-])cc7)c7ccc4[nH]7)C=C6)C=C5)cc3)c2-c2ccc(OC)cc2)cc1
REMARK SMILES IDX 16 1 15 2 14 3 12 4 13 5 11 7 10 8 7 9 8 10 82 11 9 12 6 13
REMARK SMILES IDX 3 14 4 15 92 16 5 17 91 18 2 19 1 20 83 21 84 22 90 23 85 24
REMARK SMILES IDX 89 25 86 26 87 27 88 28 17 29 18 30 19 31 20 32 21 34 22 35
REMARK SMILES IDX 23 36 81 37 24 38 80 39 25 40 26 41 27 42 74 43 28 44 79 45
REMARK SMILES IDX 73 46 75 47 29 48 78 49 72 50 71 51 30 53 60 54 41 55 59 56
REMARK SMILES IDX 42 57 45 58 58 59 76 60 43 61 44 62 57 64 77 65 46 66 31 67
REMARK SMILES IDX 32 68 40 69 33 70 39 71 34 72 35 73 36 74 37 75 38 76 61 77
REMARK SMILES IDX 62 78 70 79 63 80 69 81 64 82 65 83 66 84 67 85 68 86 47 87
REMARK SMILES IDX 48 88 56 89 49 90 55 91 50 92 51 93 52 94 53 95 54 96
REMARK H PARENT 14 6 19 33 75 52 45 63
REMARK Flexibility Score: inf
ROOT
ATOM      1  C   UNL     1       0.845   9.371  -0.611  1.00  0.00     0.023 C 
ENDROOT
BRANCH   1   2
ATOM      2  C   UNL     1       1.290  10.465   0.367  1.00  0.00     0.116 C 
BRANCH   2   3
ATOM      3  N   UNL     1       0.520  10.490   1.596  1.00  0.00    -0.355 N 
ATOM      4  C   UNL     1       0.839  10.030   2.841  1.00  0.00     0.239 C 
ATOM      5  O   UNL     1       0.048  10.278   3.755  1.00  0.00    -0.273 OA
ATOM      6  H   UNL     1      -0.371  10.903   1.520  1.00  0.00     0.163 HD
BRANCH   4   7
ATOM      7  C   UNL     1       2.134   9.294   3.121  1.00  0.00     0.223 C 
BRANCH   7   8
ATOM      8  N   UNL     1       2.361   8.126   2.286  1.00  0.00    -0.321 N 
ATOM      9  C   UNL     1       2.258   6.228   1.224  1.00  0.00     0.096 A 
ATOM     10  N   UNL     1       3.397   6.856   0.785  1.00  0.00    -0.236 NA
ATOM     11  C   UNL     1       1.625   6.960   2.222  1.00  0.00     0.076 A 
ATOM     12  C   UNL     1       3.447   7.978   1.462  1.00  0.00     0.201 A 
BRANCH   9  13
ATOM     13  C   UNL     1       1.835   4.931   0.735  1.00  0.00     0.003 A 
ATOM     14  C   UNL     1       1.014   2.382  -0.100  1.00  0.00     0.118 A 
ATOM     15  C   UNL     1       0.118   3.451  -0.122  1.00  0.00     0.047 A 
ATOM     16  C   UNL     1       2.334   2.598   0.299  1.00  0.00     0.047 A 
ATOM     17  C   UNL     1       0.521   4.719   0.300  1.00  0.00     0.014 A 
ATOM     18  C   UNL     1       2.744   3.871   0.708  1.00  0.00     0.014 A 
BRANCH  14  19
ATOM     19  O   UNL     1       0.509   1.187  -0.535  1.00  0.00    -0.497 OA
ATOM     20  C   UNL     1       1.107   0.028   0.032  1.00  0.00     0.278 C 
ENDBRANCH  14  19
ENDBRANCH   9  13
BRANCH  11  21
ATOM     21  C   UNL     1       0.522   6.593   3.105  1.00  0.00     0.001 A 
ATOM     22  C   UNL     1      -0.713   7.239   3.059  1.00  0.00     0.014 A 
ATOM     23  C   UNL     1       0.699   5.536   4.005  1.00  0.00     0.014 A 
ATOM     24  C   UNL     1      -1.731   6.874   3.944  1.00  0.00     0.047 A 
ATOM     25  C   UNL     1      -0.330   5.151   4.870  1.00  0.00     0.047 A 
ATOM     26  C   UNL     1      -1.548   5.828   4.850  1.00  0.00     0.118 A 
BRANCH  26  27
ATOM     27  O   UNL     1      -2.623   5.568   5.653  1.00  0.00    -0.497 OA
ATOM     28  C   UNL     1      -2.531   4.423   6.489  1.00  0.00     0.278 C 
ENDBRANCH  26  27
ENDBRANCH  11  21
ENDBRANCH   7   8
ENDBRANCH   4   7
ENDBRANCH   2   3
ENDBRANCH   1   2
BRANCH   1  29
ATOM     29  C   UNL     1      -0.549   9.521  -1.233  1.00  0.00     0.023 C 
BRANCH  29  30
ATOM     30  C   UNL     1      -0.750  10.782  -2.059  1.00  0.00     0.116 C 
BRANCH  30  31
ATOM     31  N   UNL     1       0.150  10.870  -3.213  1.00  0.00    -0.352 N 
ATOM     32  C   UNL     1       0.281  11.916  -4.118  1.00  0.00     0.251 C 
ATOM     33  H   UNL     1       0.733  10.092  -3.366  1.00  0.00     0.163 HD
ATOM     34  O   UNL     1       0.755  11.739  -5.226  1.00  0.00    -0.269 OA
BRANCH  32  35
ATOM     35  C   UNL     1      -0.143  13.262  -3.685  1.00  0.00     0.039 A 
ATOM     36  C   UNL     1      -0.809  14.160  -4.526  1.00  0.00     0.014 A 
ATOM     37  C   UNL     1       0.128  13.594  -2.364  1.00  0.00     0.014 A 
ATOM     38  C   UNL     1      -1.259  15.370  -3.993  1.00  0.00     0.010 A 
ATOM     39  C   UNL     1      -0.495  14.664  -1.796  1.00  0.00     0.010 A 
ATOM     40  C   UNL     1      -1.100  15.604  -2.621  1.00  0.00    -0.014 A 
BRANCH  40  41
ATOM     41  C   UNL     1      -1.609  16.789  -1.946  1.00  0.00     0.031 A 
ATOM     42  C   UNL     1      -3.095  16.855  -1.873  1.00  0.00     0.074 A 
ATOM     43  C   UNL     1      -0.793  17.526  -1.156  1.00  0.00     0.049 A 
ATOM     44  N   UNL     1      -3.889  17.689  -2.458  1.00  0.00    -0.248 NA
ATOM     45  C   UNL     1      -3.798  15.745  -1.200  1.00  0.00     0.031 C 
ATOM     46  C   UNL     1       0.626  17.281  -0.844  1.00  0.00     0.029 A 
ATOM     47  N   UNL     1      -1.091  18.559  -0.328  1.00  0.00    -0.354 N 
ATOM     48  C   UNL     1      -5.170  17.357  -2.020  1.00  0.00     0.074 A 
ATOM     49  C   UNL     1      -5.071  16.027  -1.478  1.00  0.00     0.031 C 
ATOM     50  C   UNL     1       0.971  17.958   0.274  1.00  0.00     0.029 A 
ATOM     51  C   UNL     1      -0.137  18.814   0.657  1.00  0.00     0.049 A 
ATOM     52  H   UNL     1      -1.916  19.087  -0.415  1.00  0.00     0.167 HD
ATOM     53  C   UNL     1      -6.138  18.302  -1.850  1.00  0.00     0.031 A 
ATOM     54  C   UNL     1      -0.275  19.633   1.733  1.00  0.00     0.031 A 
ATOM     55  C   UNL     1      -5.744  19.560  -2.434  1.00  0.00     0.049 A 
ATOM     56  C   UNL     1      -1.440  20.509   1.450  1.00  0.00     0.074 A 
ATOM     57  C   UNL     1      -5.403  19.983  -3.701  1.00  0.00     0.029 A 
ATOM     58  N   UNL     1      -5.251  20.506  -1.565  1.00  0.00    -0.354 N 
ATOM     59  N   UNL     1      -1.471  21.376   0.475  1.00  0.00    -0.248 NA
ATOM     60  C   UNL     1      -2.740  20.074   1.940  1.00  0.00     0.031 C 
ATOM     61  C   UNL     1      -4.324  20.893  -3.501  1.00  0.00     0.029 A 
ATOM     62  C   UNL     1      -4.125  21.046  -2.126  1.00  0.00     0.049 A 
ATOM     63  H   UNL     1      -5.639  20.752  -0.694  1.00  0.00     0.167 HD
ATOM     64  C   UNL     1      -2.751  21.271  -0.054  1.00  0.00     0.074 A 
ATOM     65  C   UNL     1      -3.511  20.516   0.943  1.00  0.00     0.031 C 
ATOM     66  C   UNL     1      -2.996  21.547  -1.369  1.00  0.00     0.031 A 
BRANCH  53  67
ATOM     67  C   UNL     1      -7.222  18.235  -0.794  1.00  0.00    -0.014 A 
ATOM     68  C   UNL     1      -8.157  19.289  -0.722  1.00  0.00     0.010 A 
ATOM     69  C   UNL     1      -7.199  17.336   0.292  1.00  0.00     0.010 A 
ATOM     70  C   UNL     1      -8.960  19.479   0.410  1.00  0.00     0.020 A 
ATOM     71  C   UNL     1      -8.027  17.489   1.406  1.00  0.00     0.020 A 
ATOM     72  C   UNL     1      -8.877  18.583   1.474  1.00  0.00     0.054 A 
BRANCH  72  73
ATOM     73  S   UNL     1      -9.840  18.891   2.974  1.00  0.00     0.124 S 
ATOM     74  O   UNL     1      -9.229  20.117   3.475  1.00  0.00    -0.237 OA
ATOM     75  O   UNL     1     -11.195  19.025   2.447  1.00  0.00    -0.237 OA
ATOM     76  O   UNL     1      -9.605  17.696   3.781  1.00  0.00    -0.744 OA
ENDBRANCH  72  73
ENDBRANCH  53  67
BRANCH  54  77
ATOM     77  C   UNL     1       0.301  19.491   3.099  1.00  0.00    -0.014 A 
ATOM     78  C   UNL     1       0.307  20.570   4.006  1.00  0.00     0.010 A 
ATOM     79  C   UNL     1       0.585  18.210   3.616  1.00  0.00     0.010 A 
ATOM     80  C   UNL     1       0.532  20.367   5.382  1.00  0.00     0.020 A 
ATOM     81  C   UNL     1       0.811  18.000   4.985  1.00  0.00     0.020 A 
ATOM     82  C   UNL     1       0.763  19.077   5.866  1.00  0.00     0.054 A 
BRANCH  82  83
ATOM     83  S   UNL     1       0.881  18.796   7.662  1.00  0.00     0.124 S 
ATOM     84  O   UNL     1       2.155  19.427   7.993  1.00  0.00    -0.237 OA
ATOM     85  O   UNL     1      -0.309  19.472   8.169  1.00  0.00    -0.237 OA
ATOM     86  O   UNL     1       0.862  17.340   7.784  1.00  0.00    -0.744 OA
ENDBRANCH  82  83
ENDBRANCH  54  77
BRANCH  66  87
ATOM     87  C   UNL     1      -1.932  22.251  -2.178  1.00  0.00    -0.014 A 
ATOM     88  C   UNL     1      -0.688  21.684  -2.519  1.00  0.00     0.010 A 
ATOM     89  C   UNL     1      -2.310  23.459  -2.789  1.00  0.00     0.010 A 
ATOM     90  C   UNL     1       0.152  22.317  -3.452  1.00  0.00     0.020 A 
ATOM     91  C   UNL     1      -1.489  24.082  -3.728  1.00  0.00     0.020 A 
ATOM     92  C   UNL     1      -0.260  23.510  -4.055  1.00  0.00     0.054 A 
BRANCH  92  93
ATOM     93  S   UNL     1       0.783  24.288  -5.322  1.00  0.00     0.124 S 
ATOM     94  O   UNL     1       1.919  24.773  -4.544  1.00  0.00    -0.237 OA
ATOM     95  O   UNL     1       1.069  23.181  -6.233  1.00  0.00    -0.237 OA
ATOM     96  O   UNL     1      -0.073  25.333  -5.884  1.00  0.00    -0.744 OA
ENDBRANCH  92  93
ENDBRANCH  66  87
ENDBRANCH  40  41
ENDBRANCH  32  35
ENDBRANCH  30  31
ENDBRANCH  29  30
ENDBRANCH   1  29
TORSDOF 19
