REMARK SMILES O=C(NCCCCNC(=O)c1ccc(-c2c3nc(c(-c4ccc(S(=O)(=O)[O-])cc4)c4ccc([nH]4)c(-c4ccc(S(=O)(=O)[O-])cc4)c4nc(c(-c5ccc(S(=O)(=O)[O-])cc5)c5ccc2[nH]5)C=C4)C=C3)cc1)C1=Cc2c(Cl)cc(Cl)cc2O[C@@H]1C(F)(F)F
REMARK SMILES IDX 6 1 5 2 4 3 3 4 1 5 2 6 71 8 72 9 82 10 73 11 81 12 74 13
REMARK SMILES IDX 80 14 75 15 76 16 79 17 77 18 78 19 83 20 84 21 85 22 86 23
REMARK SMILES IDX 7 24 8 25 9 26 10 28 11 29 12 30 70 31 13 32 69 33 14 34
REMARK SMILES IDX 15 35 16 36 63 37 17 38 68 39 62 40 64 41 18 42 67 43 61 44
REMARK SMILES IDX 60 45 19 47 49 48 30 49 48 50 31 51 34 52 47 53 65 54 32 55
REMARK SMILES IDX 33 56 46 58 66 59 35 60 20 61 21 62 29 63 22 64 28 65 23 66
REMARK SMILES IDX 24 67 25 68 26 69 27 70 50 71 51 72 59 73 52 74 58 75 53 76
REMARK SMILES IDX 54 77 55 78 56 79 57 80 36 81 37 82 45 83 38 84 44 85 39 86
REMARK SMILES IDX 40 87 41 88 42 89 43 90
REMARK H PARENT 3 7 8 27 64 46 34 57
REMARK Flexibility Score: inf
ROOT
ATOM      1  C   UNL     1       3.953   1.297  -4.299  1.00  0.00     0.023 C 
ENDROOT
BRANCH   1   2
ATOM      2  C   UNL     1       4.248   0.087  -3.417  1.00  0.00     0.023 C 
BRANCH   2   3
ATOM      3  C   UNL     1       3.897   0.232  -1.937  1.00  0.00     0.116 C 
BRANCH   3   4
ATOM      4  N   UNL     1       2.655  -0.421  -1.526  1.00  0.00    -0.352 N 
ATOM      5  O   UNL     1       1.131  -1.241  -0.066  1.00  0.00    -0.270 OA
ATOM      6  C   UNL     1       2.294  -0.928  -0.296  1.00  0.00     0.251 C 
ATOM      7  H   UNL     1       1.976  -0.512  -2.233  1.00  0.00     0.163 HD
BRANCH   6   8
ATOM      8  C   UNL     1       3.293  -0.892   0.803  1.00  0.00     0.067 C 
ATOM      9  C   UNL     1       4.479  -1.518   0.788  1.00  0.00     0.027 C 
ATOM     10  C   UNL     1       3.059   0.130   1.873  1.00  0.00     0.314 C 
ATOM     11  C   UNL     1       5.600  -0.544   0.878  1.00  0.00     0.036 A 
ATOM     12  O   UNL     1       4.098   1.137   1.866  1.00  0.00    -0.475 OA
ATOM     13  C   UNL     1       6.840  -0.756   0.233  1.00  0.00     0.053 A 
ATOM     14  C   UNL     1       5.315   0.756   1.348  1.00  0.00     0.130 A 
ATOM     15  Cl  UNL     1       7.249  -2.269  -0.504  1.00  0.00    -0.083 Cl
ATOM     16  C   UNL     1       7.742   0.299   0.048  1.00  0.00     0.042 A 
ATOM     17  C   UNL     1       6.228   1.799   1.188  1.00  0.00     0.067 A 
ATOM     18  C   UNL     1       7.427   1.570   0.522  1.00  0.00     0.046 A 
ATOM     19  Cl  UNL     1       8.495   2.884   0.226  1.00  0.00    -0.084 Cl
BRANCH  10  20
ATOM     20  C   UNL     1       2.948  -0.541   3.262  1.00  0.00     0.429 C 
ATOM     21  F   UNL     1       2.650   0.366   4.223  1.00  0.00    -0.167 F 
ATOM     22  F   UNL     1       1.977  -1.485   3.299  1.00  0.00    -0.167 F 
ATOM     23  F   UNL     1       4.101  -1.148   3.641  1.00  0.00    -0.167 F 
ENDBRANCH  10  20
ENDBRANCH   6   8
ENDBRANCH   3   4
ENDBRANCH   2   3
ENDBRANCH   1   2
BRANCH   1  24
ATOM     24  C   UNL     1       4.561   2.631  -3.863  1.00  0.00     0.116 C 
BRANCH  24  25
ATOM     25  N   UNL     1       6.010   2.622  -3.700  1.00  0.00    -0.352 N 
ATOM     26  C   UNL     1       6.965   3.474  -4.233  1.00  0.00     0.251 C 
ATOM     27  H   UNL     1       6.363   1.904  -3.127  1.00  0.00     0.163 HD
ATOM     28  O   UNL     1       8.144   3.294  -4.014  1.00  0.00    -0.269 OA
BRANCH  26  29
ATOM     29  C   UNL     1       6.523   4.568  -5.133  1.00  0.00     0.039 A 
ATOM     30  C   UNL     1       7.067   4.632  -6.418  1.00  0.00     0.014 A 
ATOM     31  C   UNL     1       5.497   5.434  -4.754  1.00  0.00     0.014 A 
ATOM     32  C   UNL     1       6.473   5.461  -7.373  1.00  0.00     0.010 A 
ATOM     33  C   UNL     1       4.857   6.197  -5.726  1.00  0.00     0.010 A 
ATOM     34  C   UNL     1       5.310   6.181  -7.055  1.00  0.00    -0.014 A 
BRANCH  34  35
ATOM     35  C   UNL     1       4.487   6.824  -8.113  1.00  0.00     0.031 A 
ATOM     36  C   UNL     1       4.242   8.305  -8.103  1.00  0.00     0.074 A 
ATOM     37  C   UNL     1       3.856   6.044  -9.015  1.00  0.00     0.049 A 
ATOM     38  N   UNL     1       3.472   9.016  -8.885  1.00  0.00    -0.248 NA
ATOM     39  C   UNL     1       4.927   9.082  -7.059  1.00  0.00     0.031 C 
ATOM     40  C   UNL     1       3.949   4.582  -9.085  1.00  0.00     0.029 A 
ATOM     41  N   UNL     1       2.992   6.366 -10.033  1.00  0.00    -0.354 N 
ATOM     42  C   UNL     1       3.563  10.321  -8.419  1.00  0.00     0.074 A 
ATOM     43  C   UNL     1       4.429  10.294  -7.258  1.00  0.00     0.031 C 
ATOM     44  C   UNL     1       3.187   4.139 -10.097  1.00  0.00     0.029 A 
ATOM     45  C   UNL     1       2.520   5.275 -10.724  1.00  0.00     0.049 A 
ATOM     46  H   UNL     1       2.735   7.292 -10.248  1.00  0.00     0.167 HD
ATOM     47  C   UNL     1       2.990  11.443  -8.918  1.00  0.00     0.031 A 
ATOM     48  C   UNL     1       1.638   5.188 -11.739  1.00  0.00     0.031 A 
ATOM     49  C   UNL     1       2.131  11.468 -10.071  1.00  0.00     0.049 A 
ATOM     50  C   UNL     1       1.025   6.443 -12.287  1.00  0.00     0.074 A 
ATOM     51  C   UNL     1       1.560  12.562 -10.697  1.00  0.00     0.029 A 
ATOM     52  N   UNL     1       1.708  10.345 -10.767  1.00  0.00    -0.354 N 
ATOM     53  N   UNL     1       1.196   7.681 -11.888  1.00  0.00    -0.248 NA
ATOM     54  C   UNL     1       0.106   6.294 -13.424  1.00  0.00     0.031 C 
ATOM     55  C   UNL     1       0.756  12.097 -11.744  1.00  0.00     0.029 A 
ATOM     56  C   UNL     1       0.862  10.716 -11.799  1.00  0.00     0.049 A 
ATOM     57  H   UNL     1       1.971   9.419 -10.558  1.00  0.00     0.167 HD
ATOM     58  C   UNL     1       0.412   8.460 -12.729  1.00  0.00     0.074 A 
ATOM     59  C   UNL     1      -0.218   7.557 -13.671  1.00  0.00     0.031 C 
ATOM     60  C   UNL     1       0.230   9.804 -12.719  1.00  0.00     0.031 A 
BRANCH  47  61
ATOM     61  C   UNL     1       3.275  12.734  -8.197  1.00  0.00    -0.014 A 
ATOM     62  C   UNL     1       4.553  13.322  -8.244  1.00  0.00     0.010 A 
ATOM     63  C   UNL     1       2.258  13.363  -7.458  1.00  0.00     0.010 A 
ATOM     64  C   UNL     1       4.826  14.478  -7.510  1.00  0.00     0.020 A 
ATOM     65  C   UNL     1       2.520  14.536  -6.743  1.00  0.00     0.020 A 
ATOM     66  C   UNL     1       3.811  15.070  -6.753  1.00  0.00     0.054 A 
BRANCH  66  67
ATOM     67  S   UNL     1       4.196  16.556  -5.787  1.00  0.00     0.124 S 
ATOM     68  O   UNL     1       4.913  15.992  -4.645  1.00  0.00    -0.237 OA
ATOM     69  O   UNL     1       5.010  17.341  -6.711  1.00  0.00    -0.237 OA
ATOM     70  O   UNL     1       2.884  17.120  -5.482  1.00  0.00    -0.744 OA
ENDBRANCH  66  67
ENDBRANCH  47  61
BRANCH  48  71
ATOM     71  C   UNL     1       1.294   3.852 -12.296  1.00  0.00    -0.014 A 
ATOM     72  C   UNL     1       1.820   3.438 -13.532  1.00  0.00     0.010 A 
ATOM     73  C   UNL     1       0.486   2.964 -11.563  1.00  0.00     0.010 A 
ATOM     74  C   UNL     1       1.548   2.158 -14.023  1.00  0.00     0.020 A 
ATOM     75  C   UNL     1       0.230   1.676 -12.040  1.00  0.00     0.020 A 
ATOM     76  C   UNL     1       0.760   1.282 -13.271  1.00  0.00     0.054 A 
BRANCH  76  77
ATOM     77  S   UNL     1       0.498  -0.408 -13.880  1.00  0.00     0.124 S 
ATOM     78  O   UNL     1      -0.503  -0.203 -14.922  1.00  0.00    -0.237 OA
ATOM     79  O   UNL     1       1.830  -0.787 -14.346  1.00  0.00    -0.237 OA
ATOM     80  O   UNL     1       0.035  -1.128 -12.696  1.00  0.00    -0.744 OA
ENDBRANCH  76  77
ENDBRANCH  48  71
BRANCH  60  81
ATOM     81  C   UNL     1      -0.689  10.383 -13.758  1.00  0.00    -0.014 A 
ATOM     82  C   UNL     1      -2.084  10.258 -13.637  1.00  0.00     0.010 A 
ATOM     83  C   UNL     1      -0.154  11.118 -14.832  1.00  0.00     0.010 A 
ATOM     84  C   UNL     1      -2.929  10.845 -14.582  1.00  0.00     0.020 A 
ATOM     85  C   UNL     1      -0.998  11.724 -15.767  1.00  0.00     0.020 A 
ATOM     86  C   UNL     1      -2.381  11.576 -15.640  1.00  0.00     0.054 A 
BRANCH  86  87
ATOM     87  S   UNL     1      -3.500  12.382 -16.819  1.00  0.00     0.124 S 
ATOM     88  O   UNL     1      -3.946  11.255 -17.633  1.00  0.00    -0.237 OA
ATOM     89  O   UNL     1      -4.516  12.970 -15.949  1.00  0.00    -0.237 OA
ATOM     90  O   UNL     1      -2.643  13.346 -17.505  1.00  0.00    -0.744 OA
ENDBRANCH  86  87
ENDBRANCH  60  81
ENDBRANCH  34  35
ENDBRANCH  26  29
ENDBRANCH  24  25
ENDBRANCH   1  24
TORSDOF 15
