REMARK SMILES O=C(NCCCCNC(=O)C1CCN(C2=[NH+]C(Cl)=[NH+]C3=[NH+]C=N[C@@H]32)CC1)c1ccc(-c2c3nc(c(-c4ccc(S(=O)(=O)[O-])cc4)c4ccc([nH]4)c(-c4ccc(S(=O)(=O)[O-])cc4)c4nc(c(-c5ccc(S(=O)(=O)[O-])cc5)c5ccc2[nH]5)C=C4)C=C3)cc1
REMARK SMILES IDX 4 1 3 2 1 3 2 4 27 6 28 7 86 8 29 9 85 10 30 11 31 12 32 13
REMARK SMILES IDX 79 14 33 15 84 16 78 17 80 18 34 19 83 20 77 21 76 22 35 24
REMARK SMILES IDX 65 25 46 26 64 27 47 28 50 29 63 30 81 31 48 32 49 33 62 35
REMARK SMILES IDX 82 36 51 37 36 38 37 39 45 40 38 41 44 42 39 43 40 44 41 45
REMARK SMILES IDX 42 46 43 47 66 48 67 49 75 50 68 51 74 52 69 53 70 54 71 55
REMARK SMILES IDX 72 56 73 57 52 58 53 59 61 60 54 61 60 62 55 63 56 64 57 65
REMARK SMILES IDX 58 66 59 67 5 68 6 69 7 70 8 71 9 72 10 74 11 75 12 76 26 77
REMARK SMILES IDX 13 78 25 79 14 80 15 81 16 82 24 83 17 84 20 86 23 87 18 88
REMARK SMILES IDX 19 89 21 90 22 91
REMARK H PARENT 3 5 80 23 50 34 8 73 16 85 19 92 21 93
REMARK Flexibility Score: inf
ROOT
ATOM      1  C   UNL     1       4.623   0.621  -0.991  1.00  0.00     0.116 C 
ENDROOT
BRANCH   1   2
ATOM      2  N   UNL     1       3.236   0.936  -0.725  1.00  0.00    -0.352 N 
ATOM      3  O   UNL     1       1.197   0.938   0.114  1.00  0.00    -0.269 OA
ATOM      4  C   UNL     1       2.216   0.276  -0.100  1.00  0.00     0.251 C 
ATOM      5  H   UNL     1       2.970   1.818  -1.070  1.00  0.00     0.163 HD
BRANCH   4   6
ATOM      6  C   UNL     1       2.225  -1.171   0.247  1.00  0.00     0.039 A 
ATOM      7  C   UNL     1       3.337  -2.015   0.213  1.00  0.00     0.014 A 
ATOM      8  C   UNL     1       0.971  -1.720   0.570  1.00  0.00     0.014 A 
ATOM      9  C   UNL     1       3.187  -3.387   0.376  1.00  0.00     0.010 A 
ATOM     10  C   UNL     1       0.816  -3.085   0.750  1.00  0.00     0.010 A 
ATOM     11  C   UNL     1       1.920  -3.920   0.600  1.00  0.00    -0.014 A 
BRANCH  11  12
ATOM     12  C   UNL     1       1.797  -5.358   0.812  1.00  0.00     0.031 A 
ATOM     13  C   UNL     1       2.420  -5.851   2.079  1.00  0.00     0.074 A 
ATOM     14  C   UNL     1       1.023  -6.123   0.016  1.00  0.00     0.049 A 
ATOM     15  N   UNL     1       3.296  -6.789   2.242  1.00  0.00    -0.248 NA
ATOM     16  C   UNL     1       2.103  -5.116   3.319  1.00  0.00     0.031 C 
ATOM     17  C   UNL     1       0.149  -5.677  -1.076  1.00  0.00     0.029 A 
ATOM     18  N   UNL     1       0.735  -7.451   0.106  1.00  0.00    -0.354 N 
ATOM     19  C   UNL     1       3.491  -6.899   3.620  1.00  0.00     0.074 A 
ATOM     20  C   UNL     1       2.854  -5.754   4.215  1.00  0.00     0.031 C 
ATOM     21  C   UNL     1      -0.751  -6.648  -1.350  1.00  0.00     0.029 A 
ATOM     22  C   UNL     1      -0.435  -7.821  -0.554  1.00  0.00     0.049 A 
ATOM     23  H   UNL     1       1.301  -8.091   0.595  1.00  0.00     0.167 HD
ATOM     24  C   UNL     1       3.960  -8.039   4.201  1.00  0.00     0.031 A 
ATOM     25  C   UNL     1      -1.143  -8.968  -0.383  1.00  0.00     0.031 A 
ATOM     26  C   UNL     1       4.629  -8.888   3.255  1.00  0.00     0.049 A 
ATOM     27  C   UNL     1      -0.241  -9.946   0.274  1.00  0.00     0.074 A 
ATOM     28  C   UNL     1       5.744  -8.761   2.453  1.00  0.00     0.029 A 
ATOM     29  N   UNL     1       3.923  -9.956   2.755  1.00  0.00    -0.354 N 
ATOM     30  N   UNL     1       0.829 -10.428  -0.293  1.00  0.00    -0.248 NA
ATOM     31  C   UNL     1      -0.266 -10.022   1.727  1.00  0.00     0.031 C 
ATOM     32  C   UNL     1       5.394  -9.419   1.238  1.00  0.00     0.029 A 
ATOM     33  C   UNL     1       4.120  -9.967   1.399  1.00  0.00     0.049 A 
ATOM     34  H   UNL     1       3.380 -10.593   3.273  1.00  0.00     0.167 HD
ATOM     35  C   UNL     1       1.779 -10.469   0.717  1.00  0.00     0.074 A 
ATOM     36  C   UNL     1       1.023 -10.284   1.956  1.00  0.00     0.031 C 
ATOM     37  C   UNL     1       3.113 -10.371   0.441  1.00  0.00     0.031 A 
BRANCH  24  38
ATOM     38  C   UNL     1       3.441  -8.564   5.522  1.00  0.00    -0.014 A 
ATOM     39  C   UNL     1       3.965  -9.773   6.026  1.00  0.00     0.010 A 
ATOM     40  C   UNL     1       2.255  -8.086   6.120  1.00  0.00     0.010 A 
ATOM     41  C   UNL     1       3.279 -10.514   6.999  1.00  0.00     0.020 A 
ATOM     42  C   UNL     1       1.587  -8.795   7.119  1.00  0.00     0.020 A 
ATOM     43  C   UNL     1       2.080 -10.028   7.520  1.00  0.00     0.054 A 
BRANCH  43  44
ATOM     44  S   UNL     1       1.125 -11.062   8.657  1.00  0.00     0.124 S 
ATOM     45  O   UNL     1       0.743 -12.177   7.800  1.00  0.00    -0.237 OA
ATOM     46  O   UNL     1       2.102 -11.362   9.697  1.00  0.00    -0.237 OA
ATOM     47  O   UNL     1       0.028 -10.185   9.074  1.00  0.00    -0.744 OA
ENDBRANCH  43  44
ENDBRANCH  24  38
BRANCH  25  48
ATOM     48  C   UNL     1      -2.624  -9.122  -0.391  1.00  0.00    -0.014 A 
ATOM     49  C   UNL     1      -3.237 -10.388  -0.458  1.00  0.00     0.010 A 
ATOM     50  C   UNL     1      -3.443  -8.023  -0.056  1.00  0.00     0.010 A 
ATOM     51  C   UNL     1      -4.604 -10.552  -0.156  1.00  0.00     0.020 A 
ATOM     52  C   UNL     1      -4.803  -8.176   0.240  1.00  0.00     0.020 A 
ATOM     53  C   UNL     1      -5.375  -9.444   0.208  1.00  0.00     0.054 A 
BRANCH  53  54
ATOM     54  S   UNL     1      -7.095  -9.678   0.754  1.00  0.00     0.124 S 
ATOM     55  O   UNL     1      -7.768 -10.048  -0.488  1.00  0.00    -0.237 OA
ATOM     56  O   UNL     1      -6.973 -10.741   1.748  1.00  0.00    -0.237 OA
ATOM     57  O   UNL     1      -7.466  -8.370   1.293  1.00  0.00    -0.744 OA
ENDBRANCH  53  54
ENDBRANCH  25  48
BRANCH  37  58
ATOM     58  C   UNL     1       3.563 -10.450  -1.000  1.00  0.00    -0.014 A 
ATOM     59  C   UNL     1       3.205  -9.506  -1.983  1.00  0.00     0.010 A 
ATOM     60  C   UNL     1       4.528 -11.420  -1.322  1.00  0.00     0.010 A 
ATOM     61  C   UNL     1       3.787  -9.545  -3.260  1.00  0.00     0.020 A 
ATOM     62  C   UNL     1       5.123 -11.453  -2.584  1.00  0.00     0.020 A 
ATOM     63  C   UNL     1       4.747 -10.520  -3.551  1.00  0.00     0.054 A 
BRANCH  63  64
ATOM     64  S   UNL     1       5.543 -10.534  -5.182  1.00  0.00     0.124 S 
ATOM     65  O   UNL     1       4.453 -10.936  -6.066  1.00  0.00    -0.237 OA
ATOM     66  O   UNL     1       5.999  -9.153  -5.333  1.00  0.00    -0.237 OA
ATOM     67  O   UNL     1       6.616 -11.517  -5.037  1.00  0.00    -0.744 OA
ENDBRANCH  63  64
ENDBRANCH  37  58
ENDBRANCH  11  12
ENDBRANCH   4   6
ENDBRANCH   1   2
BRANCH   1  68
ATOM     68  C   UNL     1       4.853  -0.136  -2.299  1.00  0.00     0.023 C 
BRANCH  68  69
ATOM     69  C   UNL     1       4.365   0.594  -3.557  1.00  0.00     0.023 C 
BRANCH  69  70
ATOM     70  C   UNL     1       4.836   2.041  -3.683  1.00  0.00     0.116 C 
BRANCH  70  71
ATOM     71  N   UNL     1       6.284   2.128  -3.782  1.00  0.00    -0.356 N 
ATOM     72  C   UNL     1       7.054   2.660  -4.772  1.00  0.00     0.223 C 
ATOM     73  H   UNL     1       6.780   1.747  -3.022  1.00  0.00     0.163 HD
ATOM     74  O   UNL     1       8.277   2.583  -4.669  1.00  0.00    -0.275 OA
BRANCH  72  75
ATOM     75  C   UNL     1       6.375   3.390  -5.923  1.00  0.00     0.087 C 
ATOM     76  C   UNL     1       7.251   3.411  -7.182  1.00  0.00     0.068 C 
ATOM     77  C   UNL     1       5.977   4.805  -5.469  1.00  0.00     0.068 C 
ATOM     78  C   UNL     1       8.366   4.446  -7.123  1.00  0.00     0.277 C 
ATOM     79  C   UNL     1       7.182   5.750  -5.408  1.00  0.00     0.277 C 
ATOM     80  N   UNL     1       7.834   5.738  -6.708  1.00  0.00    -0.230 N 
ATOM     81  C   UNL     1       7.917   6.870  -7.496  1.00  0.00     0.383 C 
ATOM     82  N   UNL     1       8.350   8.001  -7.012  1.00  0.00    -0.155 N 
ATOM     83  C   UNL     1       7.528   6.792  -8.960  1.00  0.00     0.523 C 
ATOM     84  C   UNL     1       8.500   9.068  -7.864  1.00  0.00     0.414 C 
ATOM     85  H   UNL     1       8.564   8.089  -6.055  1.00  0.00     0.367 HD
ATOM     86  C   UNL     1       7.149   8.170  -9.342  1.00  0.00     0.389 C 
ATOM     87  N   UNL     1       6.252   6.080  -9.206  1.00  0.00     0.003 NA
ATOM     88  Cl  UNL     1       9.549  10.308  -7.320  1.00  0.00     0.028 Cl
ATOM     89  N   UNL     1       7.944   9.212  -9.023  1.00  0.00    -0.155 N 
ATOM     90  N   UNL     1       5.980   8.262  -9.867  1.00  0.00    -0.169 N 
ATOM     91  C   UNL     1       5.491   6.985  -9.751  1.00  0.00     0.532 C 
ATOM     92  H   UNL     1       8.085   9.993  -9.605  1.00  0.00     0.367 HD
ATOM     93  H   UNL     1       5.543   9.054 -10.256  1.00  0.00     0.365 HD
ENDBRANCH  72  75
ENDBRANCH  70  71
ENDBRANCH  69  70
ENDBRANCH  68  69
ENDBRANCH   1  68
TORSDOF 14
