REMARK SMILES CC[C@H](C)[C@@H](C)NC(=O)N1CC[C@H](C(=O)NCCCCNC(=O)c2ccc(-c3c4nc(c(-c5ccc(S(=O)(=O)[O-])cc5)c5ccc([nH]5)c(-c5ccc(S(=O)(=O)[O-])cc5)c5nc(c(-c6ccc(S(=O)(=O)[O-])cc6)c6ccc3[nH]6)C=C5)C=C4)cc2)[C@@H]1C
REMARK SMILES IDX 18 1 17 2 16 3 14 4 15 5 13 7 10 8 11 9 84 10 12 11 85 12
REMARK SMILES IDX 8 13 7 14 9 16 5 17 6 18 3 19 4 20 2 21 1 22 19 23 20 24
REMARK SMILES IDX 21 25 22 26 23 28 24 29 25 30 83 31 26 32 82 33 27 34 28 35
REMARK SMILES IDX 29 36 76 37 30 38 81 39 75 40 77 41 31 42 80 43 74 44 73 45
REMARK SMILES IDX 32 47 62 48 43 49 61 50 44 51 47 52 60 53 78 54 45 55 46 56
REMARK SMILES IDX 59 58 79 59 48 60 33 61 34 62 42 63 35 64 41 65 36 66 37 67
REMARK SMILES IDX 38 68 39 69 40 70 63 71 64 72 72 73 65 74 71 75 66 76 67 77
REMARK SMILES IDX 68 78 69 79 70 80 49 81 50 82 58 83 51 84 57 85 52 86 53 87
REMARK SMILES IDX 54 88 55 89 56 90
REMARK H PARENT 16 6 7 15 21 27 77 46 47 57
REMARK Flexibility Score: inf
ROOT
ATOM      1  C   UNL     1      -5.861  -0.501   4.568  1.00  0.00     0.023 C 
ENDROOT
BRANCH   1   2
ATOM      2  C   UNL     1      -6.016   0.926   4.044  1.00  0.00     0.116 C 
BRANCH   2   3
ATOM      3  N   UNL     1      -5.744   1.913   5.074  1.00  0.00    -0.356 N 
ATOM      4  C   UNL     1      -4.662   2.714   5.278  1.00  0.00     0.225 C 
ATOM      5  O   UNL     1      -4.700   3.502   6.222  1.00  0.00    -0.275 OA
ATOM      6  H   UNL     1      -6.464   2.021   5.737  1.00  0.00     0.163 HD
BRANCH   4   7
ATOM      7  C   UNL     1      -3.500   2.679   4.305  1.00  0.00     0.102 C 
ATOM      8  N   UNL     1      -1.307   3.574   4.293  1.00  0.00    -0.321 N 
ATOM      9  C   UNL     1      -2.186   4.691   4.029  1.00  0.00     0.122 C 
ATOM     10  C   UNL     1      -2.089   2.494   4.906  1.00  0.00     0.096 C 
ATOM     11  C   UNL     1      -3.447   4.013   3.532  1.00  0.00     0.037 C 
ATOM     12  C   UNL     1      -1.964   2.520   6.429  1.00  0.00     0.032 C 
BRANCH   8  13
ATOM     13  C   UNL     1       0.038   3.741   4.205  1.00  0.00     0.317 C 
ATOM     14  N   UNL     1       0.850   2.680   3.997  1.00  0.00    -0.335 N 
ATOM     15  H   UNL     1       1.767   2.789   4.340  1.00  0.00     0.165 HD
ATOM     16  O   UNL     1       0.569   4.852   4.246  1.00  0.00    -0.249 OA
BRANCH  14  17
ATOM     17  C   UNL     1       0.590   1.398   3.345  1.00  0.00     0.083 C 
ATOM     18  C   UNL     1       1.210   0.300   4.208  1.00  0.00     0.031 C 
BRANCH  17  19
ATOM     19  C   UNL     1       1.079   1.389   1.863  1.00  0.00     0.008 C 
ATOM     20  C   UNL     1       0.770   0.037   1.203  1.00  0.00     0.010 C 
BRANCH  19  21
ATOM     21  C   UNL     1       0.439   2.568   1.082  1.00  0.00     0.002 C 
ATOM     22  C   UNL     1       0.558   2.495  -0.433  1.00  0.00     0.004 C 
ENDBRANCH  19  21
ENDBRANCH  17  19
ENDBRANCH  14  17
ENDBRANCH   8  13
ENDBRANCH   4   7
ENDBRANCH   2   3
ENDBRANCH   1   2
BRANCH   1  23
ATOM     23  C   UNL     1      -6.831  -0.878   5.694  1.00  0.00     0.023 C 
BRANCH  23  24
ATOM     24  C   UNL     1      -8.308  -0.639   5.396  1.00  0.00     0.116 C 
BRANCH  24  25
ATOM     25  N   UNL     1      -8.794  -1.395   4.252  1.00  0.00    -0.352 N 
ATOM     26  C   UNL     1     -10.024  -1.994   4.095  1.00  0.00     0.251 C 
ATOM     27  H   UNL     1      -8.168  -1.490   3.499  1.00  0.00     0.163 HD
ATOM     28  O   UNL     1     -10.256  -2.691   3.113  1.00  0.00    -0.269 OA
BRANCH  26  29
ATOM     29  C   UNL     1     -11.045  -1.816   5.149  1.00  0.00     0.039 A 
ATOM     30  C   UNL     1     -11.626  -2.946   5.730  1.00  0.00     0.014 A 
ATOM     31  C   UNL     1     -11.377  -0.536   5.598  1.00  0.00     0.014 A 
ATOM     32  C   UNL     1     -12.487  -2.795   6.821  1.00  0.00     0.010 A 
ATOM     33  C   UNL     1     -12.191  -0.392   6.717  1.00  0.00     0.010 A 
ATOM     34  C   UNL     1     -12.745  -1.519   7.346  1.00  0.00    -0.014 A 
BRANCH  34  35
ATOM     35  C   UNL     1     -13.594  -1.318   8.548  1.00  0.00     0.031 A 
ATOM     36  C   UNL     1     -14.884  -0.554   8.421  1.00  0.00     0.074 A 
ATOM     37  C   UNL     1     -13.167  -1.730   9.759  1.00  0.00     0.049 A 
ATOM     38  N   UNL     1     -15.664  -0.090   9.361  1.00  0.00    -0.248 NA
ATOM     39  C   UNL     1     -15.339  -0.251   7.054  1.00  0.00     0.031 C 
ATOM     40  C   UNL     1     -11.932  -2.473  10.020  1.00  0.00     0.029 A 
ATOM     41  N   UNL     1     -13.719  -1.559  11.005  1.00  0.00    -0.354 N 
ATOM     42  C   UNL     1     -16.689   0.580   8.703  1.00  0.00     0.074 A 
ATOM     43  C   UNL     1     -16.413   0.491   7.286  1.00  0.00     0.031 C 
ATOM     44  C   UNL     1     -11.822  -2.696  11.341  1.00  0.00     0.029 A 
ATOM     45  C   UNL     1     -12.951  -2.073  12.025  1.00  0.00     0.049 A 
ATOM     46  H   UNL     1     -14.582  -1.111  11.154  1.00  0.00     0.167 HD
ATOM     47  C   UNL     1     -17.770   1.201   9.231  1.00  0.00     0.031 A 
ATOM     48  C   UNL     1     -13.124  -2.025  13.361  1.00  0.00     0.031 A 
ATOM     49  C   UNL     1     -18.053   1.272  10.638  1.00  0.00     0.049 A 
ATOM     50  C   UNL     1     -14.328  -1.315  13.922  1.00  0.00     0.074 A 
ATOM     51  C   UNL     1     -19.124   1.879  11.271  1.00  0.00     0.029 A 
ATOM     52  N   UNL     1     -17.273   0.700  11.629  1.00  0.00    -0.354 N 
ATOM     53  N   UNL     1     -15.285  -0.685  13.283  1.00  0.00    -0.248 NA
ATOM     54  C   UNL     1     -14.480  -1.314  15.385  1.00  0.00     0.031 C 
ATOM     55  C   UNL     1     -18.981   1.689  12.648  1.00  0.00     0.029 A 
ATOM     56  C   UNL     1     -17.844   0.929  12.868  1.00  0.00     0.049 A 
ATOM     57  H   UNL     1     -16.436   0.203  11.475  1.00  0.00     0.167 HD
ATOM     58  C   UNL     1     -16.170  -0.250  14.263  1.00  0.00     0.074 A 
ATOM     59  C   UNL     1     -15.639  -0.687  15.536  1.00  0.00     0.031 C 
ATOM     60  C   UNL     1     -17.321   0.450  14.120  1.00  0.00     0.031 A 
BRANCH  47  61
ATOM     61  C   UNL     1     -18.735   1.847   8.276  1.00  0.00    -0.014 A 
ATOM     62  C   UNL     1     -19.596   1.063   7.488  1.00  0.00     0.010 A 
ATOM     63  C   UNL     1     -18.823   3.249   8.204  1.00  0.00     0.010 A 
ATOM     64  C   UNL     1     -20.508   1.669   6.621  1.00  0.00     0.020 A 
ATOM     65  C   UNL     1     -19.751   3.859   7.356  1.00  0.00     0.020 A 
ATOM     66  C   UNL     1     -20.578   3.064   6.559  1.00  0.00     0.054 A 
BRANCH  66  67
ATOM     67  S   UNL     1     -21.797   3.824   5.452  1.00  0.00     0.124 S 
ATOM     68  O   UNL     1     -21.181   3.619   4.143  1.00  0.00    -0.237 OA
ATOM     69  O   UNL     1     -23.000   3.037   5.709  1.00  0.00    -0.237 OA
ATOM     70  O   UNL     1     -21.856   5.212   5.902  1.00  0.00    -0.744 OA
ENDBRANCH  66  67
ENDBRANCH  47  61
BRANCH  48  71
ATOM     71  C   UNL     1     -12.134  -2.658  14.274  1.00  0.00    -0.014 A 
ATOM     72  C   UNL     1     -12.471  -3.816  14.997  1.00  0.00     0.010 A 
ATOM     73  C   UNL     1     -10.862  -2.085  14.454  1.00  0.00     0.010 A 
ATOM     74  C   UNL     1     -11.571  -4.366  15.914  1.00  0.00     0.020 A 
ATOM     75  C   UNL     1      -9.949  -2.648  15.351  1.00  0.00     0.020 A 
ATOM     76  C   UNL     1     -10.318  -3.773  16.091  1.00  0.00     0.054 A 
BRANCH  76  77
ATOM     77  S   UNL     1      -9.159  -4.505  17.280  1.00  0.00     0.124 S 
ATOM     78  O   UNL     1      -9.678  -4.010  18.551  1.00  0.00    -0.237 OA
ATOM     79  O   UNL     1      -9.320  -5.937  17.044  1.00  0.00    -0.237 OA
ATOM     80  O   UNL     1      -7.867  -3.957  16.873  1.00  0.00    -0.744 OA
ENDBRANCH  76  77
ENDBRANCH  48  71
BRANCH  60  81
ATOM     81  C   UNL     1     -18.133   0.723  15.355  1.00  0.00    -0.014 A 
ATOM     82  C   UNL     1     -17.765   1.730  16.263  1.00  0.00     0.010 A 
ATOM     83  C   UNL     1     -19.336   0.020  15.553  1.00  0.00     0.010 A 
ATOM     84  C   UNL     1     -18.585   2.023  17.357  1.00  0.00     0.020 A 
ATOM     85  C   UNL     1     -20.167   0.325  16.633  1.00  0.00     0.020 A 
ATOM     86  C   UNL     1     -19.783   1.321  17.532  1.00  0.00     0.054 A 
BRANCH  86  87
ATOM     87  S   UNL     1     -20.871   1.776  18.911  1.00  0.00     0.124 S 
ATOM     88  O   UNL     1     -20.187   1.171  20.050  1.00  0.00    -0.237 OA
ATOM     89  O   UNL     1     -20.851   3.236  18.869  1.00  0.00    -0.237 OA
ATOM     90  O   UNL     1     -22.151   1.167  18.557  1.00  0.00    -0.744 OA
ENDBRANCH  86  87
ENDBRANCH  60  81
ENDBRANCH  34  35
ENDBRANCH  26  29
ENDBRANCH  24  25
ENDBRANCH  23  24
ENDBRANCH   1  23
TORSDOF 18
