REMARK SMILES N#Cc1cc2c(nc1N(CC(=O)NCCCCNC(=O)c1ccc(-c3c4nc(c(-c5ccc(S(=O)(=O)[O-])cc5)c5ccc([nH]5)c(-c5ccc(S(=O)(=O)[O-])cc5)c5nc(c(-c6ccc(S(=O)(=O)[O-])cc6)c6ccc3[nH]6)C=C5)C=C4)cc1)CC(F)(F)F)CCC2
REMARK SMILES IDX 15 1 14 2 13 3 11 4 12 5 10 7 9 8 8 9 3 10 4 11 5 12 7 13
REMARK SMILES IDX 6 14 88 15 86 16 87 17 2 18 1 19 81 20 82 21 83 22 84 23
REMARK SMILES IDX 85 24 16 25 17 26 18 27 19 28 20 30 21 31 22 32 80 33 23 34
REMARK SMILES IDX 79 35 24 36 25 37 26 38 73 39 27 40 78 41 72 42 74 43 28 44
REMARK SMILES IDX 77 45 71 46 70 47 29 49 59 50 40 51 58 52 41 53 44 54 57 55
REMARK SMILES IDX 75 56 42 57 43 58 56 60 76 61 45 62 30 63 31 64 39 65 32 66
REMARK SMILES IDX 38 67 33 68 34 69 35 70 36 71 37 72 60 73 61 74 69 75 62 76
REMARK SMILES IDX 68 77 63 78 64 79 65 80 66 81 67 82 46 83 47 84 55 85 48 86
REMARK SMILES IDX 54 87 49 88 50 89 51 90 52 91 53 92
REMARK H PARENT 13 6 18 29 74 48 44 59
REMARK Flexibility Score: inf
ROOT
ATOM      1  C   UNL     1       4.380  -1.879   3.418  1.00  0.00     0.023 C 
ENDROOT
BRANCH   1   2
ATOM      2  C   UNL     1       5.302  -2.888   2.739  1.00  0.00     0.116 C 
BRANCH   2   3
ATOM      3  N   UNL     1       4.597  -4.088   2.340  1.00  0.00    -0.355 N 
ATOM      4  C   UNL     1       4.176  -4.441   1.090  1.00  0.00     0.239 C 
ATOM      5  O   UNL     1       3.551  -5.494   0.947  1.00  0.00    -0.273 OA
ATOM      6  H   UNL     1       4.396  -4.729   3.059  1.00  0.00     0.163 HD
BRANCH   4   7
ATOM      7  C   UNL     1       4.477  -3.532  -0.109  1.00  0.00     0.218 C 
BRANCH   7   8
ATOM      8  N   UNL     1       3.636  -2.303  -0.131  1.00  0.00    -0.337 N 
BRANCH   8   9
ATOM      9  C   UNL     1       4.278  -1.074  -0.190  1.00  0.00     0.147 A 
ATOM     10  C   UNL     1       3.672   0.200  -0.285  1.00  0.00     0.095 A 
ATOM     11  C   UNL     1       4.447   1.377  -0.174  1.00  0.00     0.029 A 
ATOM     12  C   UNL     1       5.810   1.264  -0.051  1.00  0.00    -0.025 A 
ATOM     13  N   UNL     1       5.640  -1.133  -0.117  1.00  0.00    -0.234 NA
ATOM     14  C   UNL     1       6.356   0.002  -0.056  1.00  0.00     0.046 A 
ATOM     15  C   UNL     1       6.855   2.312   0.120  1.00  0.00     0.038 C 
ATOM     16  C   UNL     1       7.853   0.061   0.075  1.00  0.00     0.057 C 
ATOM     17  C   UNL     1       8.117   1.532  -0.282  1.00  0.00     0.011 C 
BRANCH  10  18
ATOM     18  C   UNL     1       2.285   0.414  -0.560  1.00  0.00     0.103 C 
ATOM     19  N   UNL     1       1.172   0.607  -0.819  1.00  0.00    -0.192 NA
ENDBRANCH  10  18
ENDBRANCH   8   9
BRANCH   8  20
ATOM     20  C   UNL     1       2.164  -2.549  -0.139  1.00  0.00     0.234 C 
BRANCH  20  21
ATOM     21  C   UNL     1       1.388  -2.279   1.167  1.00  0.00     0.405 C 
ATOM     22  F   UNL     1       1.633  -1.049   1.671  1.00  0.00    -0.169 F 
ATOM     23  F   UNL     1       0.055  -2.364   0.947  1.00  0.00    -0.169 F 
ATOM     24  F   UNL     1       1.690  -3.178   2.129  1.00  0.00    -0.169 F 
ENDBRANCH  20  21
ENDBRANCH   8  20
ENDBRANCH   7   8
ENDBRANCH   4   7
ENDBRANCH   2   3
ENDBRANCH   1   2
BRANCH   1  25
ATOM     25  C   UNL     1       3.860  -2.341   4.777  1.00  0.00     0.023 C 
BRANCH  25  26
ATOM     26  C   UNL     1       4.964  -2.631   5.780  1.00  0.00     0.116 C 
BRANCH  26  27
ATOM     27  N   UNL     1       5.797  -1.462   6.039  1.00  0.00    -0.352 N 
ATOM     28  C   UNL     1       6.085  -0.872   7.245  1.00  0.00     0.251 C 
ATOM     29  H   UNL     1       6.207  -1.043   5.247  1.00  0.00     0.163 HD
ATOM     30  O   UNL     1       6.651   0.214   7.294  1.00  0.00    -0.269 OA
BRANCH  28  31
ATOM     31  C   UNL     1       5.666  -1.567   8.475  1.00  0.00     0.039 A 
ATOM     32  C   UNL     1       4.921  -0.876   9.429  1.00  0.00     0.014 A 
ATOM     33  C   UNL     1       5.934  -2.932   8.622  1.00  0.00     0.014 A 
ATOM     34  C   UNL     1       4.395  -1.577  10.513  1.00  0.00     0.010 A 
ATOM     35  C   UNL     1       5.315  -3.643   9.639  1.00  0.00     0.010 A 
ATOM     36  C   UNL     1       4.559  -2.970  10.609  1.00  0.00    -0.014 A 
BRANCH  36  37
ATOM     37  C   UNL     1       3.988  -3.723  11.751  1.00  0.00     0.031 A 
ATOM     38  C   UNL     1       4.910  -4.425  12.711  1.00  0.00     0.074 A 
ATOM     39  C   UNL     1       2.652  -3.772  11.925  1.00  0.00     0.049 A 
ATOM     40  N   UNL     1       4.613  -5.082  13.801  1.00  0.00    -0.248 NA
ATOM     41  C   UNL     1       6.351  -4.405  12.400  1.00  0.00     0.031 C 
ATOM     42  C   UNL     1       1.659  -3.166  11.034  1.00  0.00     0.029 A 
ATOM     43  N   UNL     1       1.899  -4.340  12.922  1.00  0.00    -0.354 N 
ATOM     44  C   UNL     1       5.824  -5.543  14.302  1.00  0.00     0.074 A 
ATOM     45  C   UNL     1       6.850  -5.168  13.359  1.00  0.00     0.031 C 
ATOM     46  C   UNL     1       0.434  -3.342  11.558  1.00  0.00     0.029 A 
ATOM     47  C   UNL     1       0.549  -4.105  12.797  1.00  0.00     0.049 A 
ATOM     48  H   UNL     1       2.288  -4.865  13.658  1.00  0.00     0.167 HD
ATOM     49  C   UNL     1       6.068  -6.182  15.468  1.00  0.00     0.031 A 
ATOM     50  C   UNL     1      -0.478  -4.455  13.598  1.00  0.00     0.031 A 
ATOM     51  C   UNL     1       5.046  -6.540  16.410  1.00  0.00     0.049 A 
ATOM     52  C   UNL     1      -0.186  -5.211  14.867  1.00  0.00     0.074 A 
ATOM     53  C   UNL     1       5.192  -7.153  17.640  1.00  0.00     0.029 A 
ATOM     54  N   UNL     1       3.689  -6.320  16.225  1.00  0.00    -0.354 N 
ATOM     55  N   UNL     1       0.976  -5.561  15.367  1.00  0.00    -0.248 NA
ATOM     56  C   UNL     1      -1.339  -5.618  15.682  1.00  0.00     0.031 C 
ATOM     57  C   UNL     1       3.918  -7.365  18.171  1.00  0.00     0.029 A 
ATOM     58  C   UNL     1       2.983  -6.823  17.302  1.00  0.00     0.049 A 
ATOM     59  H   UNL     1       3.289  -5.874  15.444  1.00  0.00     0.167 HD
ATOM     60  C   UNL     1       0.694  -6.213  16.562  1.00  0.00     0.074 A 
ATOM     61  C   UNL     1      -0.746  -6.190  16.722  1.00  0.00     0.031 C 
ATOM     62  C   UNL     1       1.549  -6.787  17.444  1.00  0.00     0.031 A 
BRANCH  49  63
ATOM     63  C   UNL     1       7.497  -6.518  15.796  1.00  0.00    -0.014 A 
ATOM     64  C   UNL     1       8.423  -5.503  16.102  1.00  0.00     0.010 A 
ATOM     65  C   UNL     1       7.908  -7.861  15.856  1.00  0.00     0.010 A 
ATOM     66  C   UNL     1       9.741  -5.824  16.431  1.00  0.00     0.020 A 
ATOM     67  C   UNL     1       9.218  -8.188  16.217  1.00  0.00     0.020 A 
ATOM     68  C   UNL     1      10.129  -7.166  16.491  1.00  0.00     0.054 A 
BRANCH  68  69
ATOM     69  S   UNL     1      11.838  -7.548  16.962  1.00  0.00     0.124 S 
ATOM     70  O   UNL     1      12.588  -7.031  15.820  1.00  0.00    -0.237 OA
ATOM     71  O   UNL     1      11.997  -6.802  18.207  1.00  0.00    -0.237 OA
ATOM     72  O   UNL     1      11.844  -9.002  17.102  1.00  0.00    -0.744 OA
ENDBRANCH  68  69
ENDBRANCH  49  63
BRANCH  50  73
ATOM     73  C   UNL     1      -1.871  -4.068  13.236  1.00  0.00    -0.014 A 
ATOM     74  C   UNL     1      -2.575  -3.125  14.007  1.00  0.00     0.010 A 
ATOM     75  C   UNL     1      -2.499  -4.628  12.107  1.00  0.00     0.010 A 
ATOM     76  C   UNL     1      -3.880  -2.759  13.664  1.00  0.00     0.020 A 
ATOM     77  C   UNL     1      -3.793  -4.242  11.743  1.00  0.00     0.020 A 
ATOM     78  C   UNL     1      -4.479  -3.316  12.530  1.00  0.00     0.054 A 
BRANCH  78  79
ATOM     79  S   UNL     1      -6.156  -2.787  12.081  1.00  0.00     0.124 S 
ATOM     80  O   UNL     1      -6.951  -3.332  13.177  1.00  0.00    -0.237 OA
ATOM     81  O   UNL     1      -6.027  -1.332  12.055  1.00  0.00    -0.237 OA
ATOM     82  O   UNL     1      -6.376  -3.411  10.778  1.00  0.00    -0.744 OA
ENDBRANCH  78  79
ENDBRANCH  50  73
BRANCH  62  83
ATOM     83  C   UNL     1       0.970  -7.446  18.666  1.00  0.00    -0.014 A 
ATOM     84  C   UNL     1       0.307  -8.681  18.567  1.00  0.00     0.010 A 
ATOM     85  C   UNL     1       1.218  -6.898  19.939  1.00  0.00     0.010 A 
ATOM     86  C   UNL     1      -0.095  -9.359  19.719  1.00  0.00     0.020 A 
ATOM     87  C   UNL     1       0.843  -7.587  21.094  1.00  0.00     0.020 A 
ATOM     88  C   UNL     1       0.188  -8.815  20.976  1.00  0.00     0.054 A 
BRANCH  88  89
ATOM     89  S   UNL     1      -0.257  -9.769  22.452  1.00  0.00     0.124 S 
ATOM     90  O   UNL     1      -1.716  -9.743  22.405  1.00  0.00    -0.237 OA
ATOM     91  O   UNL     1       0.358 -11.068  22.186  1.00  0.00    -0.237 OA
ATOM     92  O   UNL     1       0.343  -9.014  23.550  1.00  0.00    -0.744 OA
ENDBRANCH  88  89
ENDBRANCH  62  83
ENDBRANCH  36  37
ENDBRANCH  28  31
ENDBRANCH  26  27
ENDBRANCH  25  26
ENDBRANCH   1  25
TORSDOF 19
