REMARK SMILES O=C(NCCCCNC(=O)[C@H](NC(=O)c1ccc(Br)nc1)c1ccccc1)c1ccc(-c2c3nc(c(-c4ccc(S(=O)(=O)[O-])cc4)c4ccc([nH]4)c(-c4ccc(S(=O)(=O)[O-])cc4)c4nc(c(-c5ccc(S(=O)(=O)[O-])cc5)c5ccc2[nH]5)C=C4)C=C3)cc1
REMARK SMILES IDX 5 1 4 2 3 3 1 4 2 5 28 7 29 8 87 9 30 10 86 11 31 12 32 13
REMARK SMILES IDX 33 14 80 15 34 16 85 17 79 18 81 19 35 20 84 21 78 22 77 23
REMARK SMILES IDX 36 25 66 26 47 27 65 28 48 29 51 30 64 31 82 32 49 33 50 34
REMARK SMILES IDX 63 36 83 37 52 38 37 39 38 40 46 41 39 42 45 43 40 44 41 45
REMARK SMILES IDX 42 46 43 47 44 48 67 49 68 50 76 51 69 52 75 53 70 54 71 55
REMARK SMILES IDX 72 56 73 57 74 58 53 59 54 60 62 61 55 62 61 63 56 64 57 65
REMARK SMILES IDX 58 66 59 67 60 68 6 69 7 70 8 71 9 72 10 74 11 75 22 76
REMARK SMILES IDX 23 77 27 78 24 79 26 80 25 81 12 82 13 83 14 85 15 86 16 87
REMARK SMILES IDX 21 88 17 89 20 90 18 91 19 92
REMARK H PARENT 3 6 81 24 51 35 8 73 12 84
REMARK Flexibility Score: inf
ROOT
ATOM      1  C   UNL     1       4.772   5.993  -9.396  1.00  0.00     0.023 C 
ENDROOT
BRANCH   1   2
ATOM      2  C   UNL     1       3.302   6.378  -9.335  1.00  0.00     0.116 C 
BRANCH   2   3
ATOM      3  N   UNL     1       3.061   7.809  -9.415  1.00  0.00    -0.352 N 
ATOM      4  O   UNL     1       2.130   9.709 -10.207  1.00  0.00    -0.269 OA
ATOM      5  C   UNL     1       2.153   8.485 -10.205  1.00  0.00     0.251 C 
ATOM      6  H   UNL     1       3.618   8.370  -8.829  1.00  0.00     0.163 HD
BRANCH   5   7
ATOM      7  C   UNL     1       1.242   7.713 -11.082  1.00  0.00     0.039 A 
ATOM      8  C   UNL     1       0.563   6.598 -10.590  1.00  0.00     0.014 A 
ATOM      9  C   UNL     1       1.110   8.078 -12.425  1.00  0.00     0.014 A 
ATOM     10  C   UNL     1      -0.091   5.749 -11.473  1.00  0.00     0.010 A 
ATOM     11  C   UNL     1       0.362   7.274 -13.294  1.00  0.00     0.010 A 
ATOM     12  C   UNL     1      -0.209   6.079 -12.834  1.00  0.00    -0.014 A 
BRANCH  12  13
ATOM     13  C   UNL     1      -0.987   5.172 -13.720  1.00  0.00     0.031 A 
ATOM     14  C   UNL     1      -0.340   4.428 -14.858  1.00  0.00     0.074 A 
ATOM     15  C   UNL     1      -2.286   4.963 -13.428  1.00  0.00     0.049 A 
ATOM     16  N   UNL     1      -0.868   3.532 -15.654  1.00  0.00    -0.248 NA
ATOM     17  C   UNL     1       1.071   4.727 -15.149  1.00  0.00     0.031 C 
ATOM     18  C   UNL     1      -3.029   5.642 -12.362  1.00  0.00     0.029 A 
ATOM     19  N   UNL     1      -3.200   4.093 -13.965  1.00  0.00    -0.354 N 
ATOM     20  C   UNL     1       0.135   3.171 -16.547  1.00  0.00     0.074 A 
ATOM     21  C   UNL     1       1.300   3.962 -16.209  1.00  0.00     0.031 C 
ATOM     22  C   UNL     1      -4.257   5.112 -12.274  1.00  0.00     0.029 A 
ATOM     23  C   UNL     1      -4.410   4.102 -13.314  1.00  0.00     0.049 A 
ATOM     24  H   UNL     1      -3.008   3.519 -14.741  1.00  0.00     0.167 HD
ATOM     25  C   UNL     1       0.091   2.261 -17.551  1.00  0.00     0.031 A 
ATOM     26  C   UNL     1      -5.528   3.383 -13.527  1.00  0.00     0.031 A 
ATOM     27  C   UNL     1      -1.069   1.474 -17.884  1.00  0.00     0.049 A 
ATOM     28  C   UNL     1      -5.541   2.370 -14.631  1.00  0.00     0.074 A 
ATOM     29  C   UNL     1      -1.212   0.529 -18.886  1.00  0.00     0.029 A 
ATOM     30  N   UNL     1      -2.284   1.533 -17.218  1.00  0.00    -0.354 N 
ATOM     31  N   UNL     1      -4.578   2.047 -15.460  1.00  0.00    -0.248 NA
ATOM     32  C   UNL     1      -6.791   1.627 -14.830  1.00  0.00     0.031 C 
ATOM     33  C   UNL     1      -2.523   0.040 -18.847  1.00  0.00     0.029 A 
ATOM     34  C   UNL     1      -3.183   0.649 -17.793  1.00  0.00     0.049 A 
ATOM     35  H   UNL     1      -2.479   2.117 -16.450  1.00  0.00     0.167 HD
ATOM     36  C   UNL     1      -5.109   1.067 -16.287  1.00  0.00     0.074 A 
ATOM     37  C   UNL     1      -6.463   0.822 -15.831  1.00  0.00     0.031 C 
ATOM     38  C   UNL     1      -4.533   0.435 -17.339  1.00  0.00     0.031 A 
BRANCH  25  39
ATOM     39  C   UNL     1       1.334   2.072 -18.381  1.00  0.00    -0.014 A 
ATOM     40  C   UNL     1       2.442   1.370 -17.876  1.00  0.00     0.010 A 
ATOM     41  C   UNL     1       1.371   2.545 -19.706  1.00  0.00     0.010 A 
ATOM     42  C   UNL     1       3.575   1.166 -18.670  1.00  0.00     0.020 A 
ATOM     43  C   UNL     1       2.493   2.325 -20.511  1.00  0.00     0.020 A 
ATOM     44  C   UNL     1       3.595   1.648 -19.983  1.00  0.00     0.054 A 
BRANCH  44  45
ATOM     45  S   UNL     1       5.064   1.343 -21.003  1.00  0.00     0.124 S 
ATOM     46  O   UNL     1       6.018   2.300 -20.449  1.00  0.00    -0.237 OA
ATOM     47  O   UNL     1       5.357  -0.062 -20.734  1.00  0.00    -0.237 OA
ATOM     48  O   UNL     1       4.609   1.632 -22.361  1.00  0.00    -0.744 OA
ENDBRANCH  44  45
ENDBRANCH  25  39
BRANCH  26  49
ATOM     49  C   UNL     1      -6.727   3.623 -12.682  1.00  0.00    -0.014 A 
ATOM     50  C   UNL     1      -7.147   2.671 -11.738  1.00  0.00     0.010 A 
ATOM     51  C   UNL     1      -7.437   4.832 -12.801  1.00  0.00     0.010 A 
ATOM     52  C   UNL     1      -8.265   2.919 -10.936  1.00  0.00     0.020 A 
ATOM     53  C   UNL     1      -8.536   5.095 -11.983  1.00  0.00     0.020 A 
ATOM     54  C   UNL     1      -8.952   4.130 -11.064  1.00  0.00     0.054 A 
BRANCH  54  55
ATOM     55  S   UNL     1     -10.365   4.466  -9.976  1.00  0.00     0.124 S 
ATOM     56  O   UNL     1     -11.440   3.742 -10.646  1.00  0.00    -0.237 OA
ATOM     57  O   UNL     1      -9.926   3.910  -8.698  1.00  0.00    -0.237 OA
ATOM     58  O   UNL     1     -10.473   5.923 -10.006  1.00  0.00    -0.744 OA
ENDBRANCH  54  55
ENDBRANCH  26  49
BRANCH  38  59
ATOM     59  C   UNL     1      -5.379  -0.574 -18.063  1.00  0.00    -0.014 A 
ATOM     60  C   UNL     1      -6.430  -0.162 -18.903  1.00  0.00     0.010 A 
ATOM     61  C   UNL     1      -5.123  -1.947 -17.902  1.00  0.00     0.010 A 
ATOM     62  C   UNL     1      -7.242  -1.108 -19.532  1.00  0.00     0.020 A 
ATOM     63  C   UNL     1      -5.920  -2.896 -18.548  1.00  0.00     0.020 A 
ATOM     64  C   UNL     1      -6.988  -2.470 -19.342  1.00  0.00     0.054 A 
BRANCH  64  65
ATOM     65  S   UNL     1      -8.052  -3.683 -20.169  1.00  0.00     0.124 S 
ATOM     66  O   UNL     1      -9.235  -3.681 -19.314  1.00  0.00    -0.237 OA
ATOM     67  O   UNL     1      -8.235  -3.102 -21.497  1.00  0.00    -0.237 OA
ATOM     68  O   UNL     1      -7.261  -4.912 -20.138  1.00  0.00    -0.744 OA
ENDBRANCH  64  65
ENDBRANCH  38  59
ENDBRANCH  12  13
ENDBRANCH   5   7
ENDBRANCH   2   3
ENDBRANCH   1   2
BRANCH   1  69
ATOM     69  C   UNL     1       5.643   6.510  -8.258  1.00  0.00     0.023 C 
BRANCH  69  70
ATOM     70  C   UNL     1       5.081   6.322  -6.854  1.00  0.00     0.116 C 
BRANCH  70  71
ATOM     71  N   UNL     1       4.709   4.954  -6.540  1.00  0.00    -0.354 N 
ATOM     72  C   UNL     1       5.038   4.214  -5.432  1.00  0.00     0.247 C 
ATOM     73  H   UNL     1       4.147   4.498  -7.208  1.00  0.00     0.163 HD
ATOM     74  O   UNL     1       4.362   3.215  -5.181  1.00  0.00    -0.272 OA
BRANCH  72  75
ATOM     75  C   UNL     1       6.235   4.668  -4.546  1.00  0.00     0.202 C 
BRANCH  75  76
ATOM     76  C   UNL     1       5.723   5.692  -3.534  1.00  0.00    -0.016 A 
ATOM     77  C   UNL     1       6.190   7.014  -3.532  1.00  0.00     0.006 A 
ATOM     78  C   UNL     1       4.717   5.330  -2.619  1.00  0.00     0.006 A 
ATOM     79  C   UNL     1       5.615   7.965  -2.686  1.00  0.00     0.000 A 
ATOM     80  C   UNL     1       4.157   6.279  -1.765  1.00  0.00     0.000 A 
ATOM     81  C   UNL     1       4.596   7.599  -1.810  1.00  0.00     0.000 A 
ENDBRANCH  75  76
BRANCH  75  82
ATOM     82  N   UNL     1       6.937   3.606  -3.818  1.00  0.00    -0.336 N 
ATOM     83  C   UNL     1       7.465   2.419  -4.248  1.00  0.00     0.253 C 
ATOM     84  H   UNL     1       7.047   3.775  -2.855  1.00  0.00     0.165 HD
ATOM     85  O   UNL     1       8.265   1.813  -3.540  1.00  0.00    -0.269 OA
BRANCH  83  86
ATOM     86  C   UNL     1       7.001   1.783  -5.487  1.00  0.00     0.058 A 
ATOM     87  C   UNL     1       7.195   2.318  -6.758  1.00  0.00     0.018 A 
ATOM     88  C   UNL     1       6.331   0.571  -5.371  1.00  0.00     0.126 A 
ATOM     89  C   UNL     1       6.652   1.645  -7.855  1.00  0.00     0.037 A 
ATOM     90  N   UNL     1       5.814  -0.110  -6.421  1.00  0.00    -0.249 NA
ATOM     91  C   UNL     1       5.965   0.453  -7.639  1.00  0.00     0.106 A 
ATOM     92  Br  UNL     1       5.190  -0.441  -9.120  1.00  0.00    -0.029 Br
ENDBRANCH  83  86
ENDBRANCH  75  82
ENDBRANCH  72  75
ENDBRANCH  70  71
ENDBRANCH  69  70
ENDBRANCH   1  69
TORSDOF 17
