REMARK SMILES O=C(NCCCCNC(=O)c1ccc(-c2c3nc(c(-c4ccc(S(=O)(=O)[O-])cc4)c4ccc([nH]4)c(-c4ccc(S(=O)(=O)[O-])cc4)c4nc(c(-c5ccc(S(=O)(=O)[O-])cc5)c5ccc2[nH]5)C=C4)C=C3)cc1)C1=Cc2cc(Cl)cc(Cl)c2O[C@@H]1C(F)(F)F
REMARK SMILES IDX 6 1 5 2 4 3 3 4 1 5 2 6 71 8 72 9 82 10 73 11 81 12 74 13
REMARK SMILES IDX 80 14 75 15 78 16 76 17 77 18 79 19 83 20 84 21 85 22 86 23
REMARK SMILES IDX 7 24 8 25 9 26 10 28 11 29 12 30 70 31 13 32 69 33 14 34
REMARK SMILES IDX 15 35 16 36 63 37 17 38 68 39 62 40 64 41 18 42 67 43 61 44
REMARK SMILES IDX 60 45 19 47 49 48 30 49 48 50 31 51 34 52 47 53 65 54 32 55
REMARK SMILES IDX 33 56 46 58 66 59 35 60 20 61 21 62 29 63 22 64 28 65 23 66
REMARK SMILES IDX 24 67 25 68 26 69 27 70 50 71 51 72 59 73 52 74 58 75 53 76
REMARK SMILES IDX 54 77 55 78 56 79 57 80 36 81 37 82 45 83 38 84 44 85 39 86
REMARK SMILES IDX 40 87 41 88 42 89 43 90
REMARK H PARENT 3 7 8 27 64 46 34 57
REMARK Flexibility Score: inf
ROOT
ATOM      1  C   UNL     1       3.936   4.105   1.902  1.00  0.00     0.023 C 
ENDROOT
BRANCH   1   2
ATOM      2  C   UNL     1       4.277   3.415   0.587  1.00  0.00     0.023 C 
BRANCH   2   3
ATOM      3  C   UNL     1       3.947   1.931   0.497  1.00  0.00     0.116 C 
BRANCH   3   4
ATOM      4  N   UNL     1       2.655   1.611  -0.086  1.00  0.00    -0.352 N 
ATOM      5  O   UNL     1       1.050   0.328  -0.999  1.00  0.00    -0.270 OA
ATOM      6  C   UNL     1       2.238   0.467  -0.712  1.00  0.00     0.251 C 
ATOM      7  H   UNL     1       1.979   2.323  -0.022  1.00  0.00     0.163 HD
BRANCH   6   8
ATOM      8  C   UNL     1       3.163  -0.671  -0.990  1.00  0.00     0.067 C 
ATOM      9  C   UNL     1       4.410  -0.479  -1.454  1.00  0.00     0.025 C 
ATOM     10  C   UNL     1       2.870  -1.896  -0.156  1.00  0.00     0.314 C 
ATOM     11  C   UNL     1       5.427  -0.795  -0.418  1.00  0.00     0.020 A 
ATOM     12  O   UNL     1       3.821  -2.034   0.933  1.00  0.00    -0.474 OA
ATOM     13  C   UNL     1       6.679  -0.177  -0.522  1.00  0.00     0.032 A 
ATOM     14  C   UNL     1       5.056  -1.452   0.768  1.00  0.00     0.146 A 
ATOM     15  C   UNL     1       7.520  -0.139   0.588  1.00  0.00     0.043 A 
ATOM     16  C   UNL     1       5.927  -1.424   1.865  1.00  0.00     0.085 A 
ATOM     17  Cl  UNL     1       8.987   0.753   0.502  1.00  0.00    -0.084 Cl
ATOM     18  C   UNL     1       7.146  -0.747   1.784  1.00  0.00     0.045 A 
ATOM     19  Cl  UNL     1       5.479  -2.128   3.376  1.00  0.00    -0.080 Cl
BRANCH  10  20
ATOM     20  C   UNL     1       2.808  -3.175  -1.008  1.00  0.00     0.429 C 
ATOM     21  F   UNL     1       2.429  -4.246  -0.272  1.00  0.00    -0.167 F 
ATOM     22  F   UNL     1       1.920  -3.060  -2.023  1.00  0.00    -0.167 F 
ATOM     23  F   UNL     1       4.007  -3.478  -1.565  1.00  0.00    -0.167 F 
ENDBRANCH  10  20
ENDBRANCH   6   8
ENDBRANCH   3   4
ENDBRANCH   2   3
ENDBRANCH   1   2
BRANCH   1  24
ATOM     24  C   UNL     1       4.502   3.481   3.177  1.00  0.00     0.116 C 
BRANCH  24  25
ATOM     25  N   UNL     1       5.941   3.253   3.170  1.00  0.00    -0.352 N 
ATOM     26  C   UNL     1       6.875   3.510   4.154  1.00  0.00     0.251 C 
ATOM     27  H   UNL     1       6.299   2.858   2.342  1.00  0.00     0.163 HD
ATOM     28  O   UNL     1       8.053   3.245   3.959  1.00  0.00    -0.269 OA
BRANCH  26  29
ATOM     29  C   UNL     1       6.457   4.160   5.420  1.00  0.00     0.039 A 
ATOM     30  C   UNL     1       7.171   5.276   5.865  1.00  0.00     0.014 A 
ATOM     31  C   UNL     1       5.340   3.717   6.131  1.00  0.00     0.014 A 
ATOM     32  C   UNL     1       6.696   6.012   6.954  1.00  0.00     0.010 A 
ATOM     33  C   UNL     1       4.822   4.498   7.164  1.00  0.00     0.010 A 
ATOM     34  C   UNL     1       5.484   5.665   7.575  1.00  0.00    -0.014 A 
BRANCH  34  35
ATOM     35  C   UNL     1       4.878   6.549   8.607  1.00  0.00     0.031 A 
ATOM     36  C   UNL     1       4.680   6.072  10.020  1.00  0.00     0.074 A 
ATOM     37  C   UNL     1       4.452   7.779   8.251  1.00  0.00     0.049 A 
ATOM     38  N   UNL     1       4.212   6.729  11.051  1.00  0.00    -0.248 NA
ATOM     39  C   UNL     1       5.026   4.672  10.307  1.00  0.00     0.031 C 
ATOM     40  C   UNL     1       4.513   8.340   6.898  1.00  0.00     0.029 A 
ATOM     41  N   UNL     1       3.890   8.785   8.998  1.00  0.00    -0.354 N 
ATOM     42  C   UNL     1       4.192   5.820  12.103  1.00  0.00     0.074 A 
ATOM     43  C   UNL     1       4.648   4.554  11.571  1.00  0.00     0.031 C 
ATOM     44  C   UNL     1       4.062   9.604   6.923  1.00  0.00     0.029 A 
ATOM     45  C   UNL     1       3.653   9.936   8.283  1.00  0.00     0.049 A 
ATOM     46  H   UNL     1       3.678   8.692   9.955  1.00  0.00     0.167 HD
ATOM     47  C   UNL     1       3.845   6.023  13.397  1.00  0.00     0.031 A 
ATOM     48  C   UNL     1       3.179  11.134   8.679  1.00  0.00     0.031 A 
ATOM     49  C   UNL     1       3.403   7.285  13.930  1.00  0.00     0.049 A 
ATOM     50  C   UNL     1       2.838  11.347  10.127  1.00  0.00     0.074 A 
ATOM     51  C   UNL     1       3.105   7.610  15.242  1.00  0.00     0.029 A 
ATOM     52  N   UNL     1       3.188   8.429  13.177  1.00  0.00    -0.354 N 
ATOM     53  N   UNL     1       2.918  10.501  11.126  1.00  0.00    -0.248 NA
ATOM     54  C   UNL     1       2.361  12.684  10.502  1.00  0.00     0.031 C 
ATOM     55  C   UNL     1       2.667   8.940  15.275  1.00  0.00     0.029 A 
ATOM     56  C   UNL     1       2.740   9.456  13.991  1.00  0.00     0.049 A 
ATOM     57  H   UNL     1       3.332   8.501  12.206  1.00  0.00     0.167 HD
ATOM     58  C   UNL     1       2.527  11.212  12.255  1.00  0.00     0.074 A 
ATOM     59  C   UNL     1       2.226  12.560  11.815  1.00  0.00     0.031 C 
ATOM     60  C   UNL     1       2.429  10.789  13.540  1.00  0.00     0.031 A 
BRANCH  47  61
ATOM     61  C   UNL     1       3.929   4.839  14.326  1.00  0.00    -0.014 A 
ATOM     62  C   UNL     1       5.171   4.298  14.705  1.00  0.00     0.010 A 
ATOM     63  C   UNL     1       2.750   4.266  14.835  1.00  0.00     0.010 A 
ATOM     64  C   UNL     1       5.232   3.173  15.530  1.00  0.00     0.020 A 
ATOM     65  C   UNL     1       2.807   3.156  15.684  1.00  0.00     0.020 A 
ATOM     66  C   UNL     1       4.048   2.603  16.007  1.00  0.00     0.054 A 
BRANCH  66  67
ATOM     67  S   UNL     1       4.152   1.139  17.074  1.00  0.00     0.124 S 
ATOM     68  O   UNL     1       4.461   0.087  16.109  1.00  0.00    -0.237 OA
ATOM     69  O   UNL     1       5.234   1.486  17.992  1.00  0.00    -0.237 OA
ATOM     70  O   UNL     1       2.826   1.059  17.681  1.00  0.00    -0.744 OA
ENDBRANCH  66  67
ENDBRANCH  47  61
BRANCH  48  71
ATOM     71  C   UNL     1       3.063  12.247   7.699  1.00  0.00    -0.014 A 
ATOM     72  C   UNL     1       3.973  13.318   7.736  1.00  0.00     0.010 A 
ATOM     73  C   UNL     1       2.059  12.235   6.714  1.00  0.00     0.010 A 
ATOM     74  C   UNL     1       3.874  14.365   6.816  1.00  0.00     0.020 A 
ATOM     75  C   UNL     1       1.973  13.268   5.776  1.00  0.00     0.020 A 
ATOM     76  C   UNL     1       2.876  14.332   5.839  1.00  0.00     0.054 A 
BRANCH  76  77
ATOM     77  S   UNL     1       2.806  15.668   4.613  1.00  0.00     0.124 S 
ATOM     78  O   UNL     1       2.224  16.760   5.386  1.00  0.00    -0.237 OA
ATOM     79  O   UNL     1       4.210  15.832   4.242  1.00  0.00    -0.237 OA
ATOM     80  O   UNL     1       1.953  15.120   3.561  1.00  0.00    -0.744 OA
ENDBRANCH  76  77
ENDBRANCH  48  71
BRANCH  60  81
ATOM     81  C   UNL     1       2.002  11.808  14.562  1.00  0.00    -0.014 A 
ATOM     82  C   UNL     1       0.679  12.282  14.611  1.00  0.00     0.010 A 
ATOM     83  C   UNL     1       2.941  12.296  15.489  1.00  0.00     0.010 A 
ATOM     84  C   UNL     1       0.316  13.267  15.534  1.00  0.00     0.020 A 
ATOM     85  C   UNL     1       2.575  13.261  16.430  1.00  0.00     0.020 A 
ATOM     86  C   UNL     1       1.270  13.758  16.430  1.00  0.00     0.054 A 
BRANCH  86  87
ATOM     87  S   UNL     1       0.781  15.038  17.619  1.00  0.00     0.124 S 
ATOM     88  O   UNL     1       0.784  16.239  16.788  1.00  0.00    -0.237 OA
ATOM     89  O   UNL     1      -0.535  14.584  18.062  1.00  0.00    -0.237 OA
ATOM     90  O   UNL     1       1.827  14.980  18.637  1.00  0.00    -0.744 OA
ENDBRANCH  86  87
ENDBRANCH  60  81
ENDBRANCH  34  35
ENDBRANCH  26  29
ENDBRANCH  24  25
ENDBRANCH   1  24
TORSDOF 15
