REMARK SMILES Cc1[nH]c2ccccc2c1/C=C1/SC(=S)N(c2cccc(C(=O)NCCCCNC(=O)c3ccc(-c4c5nc(c(-c6ccc(S(=O)(=O)[O-])cc6)c6ccc([nH]6)c(-c6ccc(S(=O)(=O)[O-])cc6)c6nc(c(-c7ccc(S(=O)(=O)[O-])cc7)c7ccc4[nH]7)C=C6)C=C5)cc3)c2)C1=O
REMARK SMILES IDX 27 1 26 2 25 3 24 4 22 5 23 6 21 8 17 9 18 10 92 11 19 12
REMARK SMILES IDX 20 13 16 14 11 15 12 16 13 17 93 18 14 19 94 20 15 21 10 22
REMARK SMILES IDX 1 23 2 24 3 25 4 26 9 28 5 29 8 30 6 31 7 32 28 33 29 34
REMARK SMILES IDX 30 35 31 37 32 38 33 39 91 40 34 41 90 42 35 43 36 44 37 45
REMARK SMILES IDX 84 46 38 47 89 48 83 49 85 50 39 51 88 52 82 53 81 54 40 56
REMARK SMILES IDX 70 57 51 58 69 59 52 60 55 61 68 62 86 63 53 64 54 65 67 67
REMARK SMILES IDX 87 68 56 69 41 70 42 71 50 72 43 73 49 74 44 75 45 76 46 77
REMARK SMILES IDX 47 78 48 79 71 80 72 81 80 82 73 83 79 84 74 85 75 86 76 87
REMARK SMILES IDX 77 88 78 89 57 90 58 91 66 92 59 93 65 94 60 95 61 96 62 97
REMARK SMILES IDX 63 98 64 99
REMARK H PARENT 24 7 3 27 29 36 85 55 55 66
REMARK Flexibility Score: inf
ROOT
ATOM      1  C   UNL     1      -9.952  -1.385  -2.461  1.00  0.00     0.023 C 
ENDROOT
BRANCH   1   2
ATOM      2  C   UNL     1      -8.431  -1.299  -2.432  1.00  0.00     0.023 C 
BRANCH   2   3
ATOM      3  C   UNL     1      -7.676  -2.204  -3.398  1.00  0.00     0.116 C 
BRANCH   3   4
ATOM      4  N   UNL     1      -7.960  -1.967  -4.803  1.00  0.00    -0.352 N 
ATOM      5  C   UNL     1      -7.125  -1.893  -5.897  1.00  0.00     0.251 C 
ATOM      6  O   UNL     1      -7.612  -1.666  -7.003  1.00  0.00    -0.269 OA
ATOM      7  H   UNL     1      -8.914  -1.837  -5.010  1.00  0.00     0.163 HD
BRANCH   5   8
ATOM      8  C   UNL     1      -5.647  -2.004  -5.771  1.00  0.00     0.041 A 
ATOM      9  C   UNL     1      -3.664  -2.728  -4.567  1.00  0.00     0.051 A 
ATOM     10  C   UNL     1      -2.896  -1.867  -5.366  1.00  0.00     0.027 A 
ATOM     11  C   UNL     1      -5.030  -2.857  -4.850  1.00  0.00     0.040 A 
ATOM     12  C   UNL     1      -3.482  -1.121  -6.388  1.00  0.00     0.003 A 
ATOM     13  C   UNL     1      -4.862  -1.169  -6.573  1.00  0.00     0.014 A 
BRANCH   9  14
ATOM     14  N   UNL     1      -3.127  -3.279  -3.357  1.00  0.00    -0.261 N 
ATOM     15  C   UNL     1      -1.647  -2.533  -0.093  1.00  0.00     0.032 C 
ATOM     16  C   UNL     1      -2.178  -3.093  -1.191  1.00  0.00     0.081 C 
ATOM     17  S   UNL     1      -2.764  -4.710  -1.232  1.00  0.00    -0.054 SA
ATOM     18  C   UNL     1      -2.400  -2.435  -2.511  1.00  0.00     0.270 C 
ATOM     19  C   UNL     1      -3.377  -4.556  -2.878  1.00  0.00     0.152 C 
ATOM     20  O   UNL     1      -2.030  -1.296  -2.764  1.00  0.00    -0.268 OA
ATOM     21  S   UNL     1      -4.053  -5.875  -3.654  1.00  0.00    -0.051 S 
BRANCH  15  22
ATOM     22  C   UNL     1      -1.183  -1.190   0.027  1.00  0.00     0.004 A 
ATOM     23  C   UNL     1      -3.462   0.112   0.140  1.00  0.00     0.065 C 
ATOM     24  C   UNL     1      -1.987  -0.070   0.123  1.00  0.00     0.020 A 
ATOM     25  N   UNL     1      -1.147   1.019   0.157  1.00  0.00    -0.358 N 
ATOM     26  C   UNL     1       0.170   0.623   0.119  1.00  0.00     0.046 A 
ATOM     27  H   UNL     1      -1.448   1.956   0.202  1.00  0.00     0.166 HD
ATOM     28  C   UNL     1       0.179  -0.770   0.056  1.00  0.00     0.007 A 
ATOM     29  C   UNL     1       1.342   1.389   0.121  1.00  0.00     0.027 A 
ATOM     30  C   UNL     1       1.422  -1.434   0.005  1.00  0.00     0.011 A 
ATOM     31  C   UNL     1       2.561   0.707   0.066  1.00  0.00     0.002 A 
ATOM     32  C   UNL     1       2.603  -0.684   0.013  1.00  0.00     0.001 A 
ENDBRANCH  15  22
ENDBRANCH   9  14
ENDBRANCH   5   8
ENDBRANCH   3   4
ENDBRANCH   2   3
ENDBRANCH   1   2
BRANCH   1  33
ATOM     33  C   UNL     1     -10.551  -2.784  -2.374  1.00  0.00     0.116 C 
BRANCH  33  34
ATOM     34  N   UNL     1     -10.135  -3.533  -1.197  1.00  0.00    -0.352 N 
ATOM     35  C   UNL     1     -10.895  -4.191  -0.255  1.00  0.00     0.251 C 
ATOM     36  H   UNL     1      -9.162  -3.576  -1.053  1.00  0.00     0.163 HD
ATOM     37  O   UNL     1     -10.351  -4.704   0.714  1.00  0.00    -0.269 OA
BRANCH  35  38
ATOM     38  C   UNL     1     -12.370  -4.232  -0.390  1.00  0.00     0.039 A 
ATOM     39  C   UNL     1     -13.156  -3.921   0.723  1.00  0.00     0.014 A 
ATOM     40  C   UNL     1     -12.976  -4.543  -1.609  1.00  0.00     0.014 A 
ATOM     41  C   UNL     1     -14.544  -3.824   0.587  1.00  0.00     0.010 A 
ATOM     42  C   UNL     1     -14.350  -4.369  -1.762  1.00  0.00     0.010 A 
ATOM     43  C   UNL     1     -15.148  -3.997  -0.669  1.00  0.00    -0.014 A 
BRANCH  43  44
ATOM     44  C   UNL     1     -16.603  -3.769  -0.869  1.00  0.00     0.031 A 
ATOM     45  C   UNL     1     -17.493  -4.898  -1.315  1.00  0.00     0.074 A 
ATOM     46  C   UNL     1     -17.110  -2.526  -0.732  1.00  0.00     0.049 A 
ATOM     47  N   UNL     1     -18.765  -4.873  -1.620  1.00  0.00    -0.248 NA
ATOM     48  C   UNL     1     -16.866  -6.222  -1.464  1.00  0.00     0.031 C 
ATOM     49  C   UNL     1     -16.346  -1.334  -0.354  1.00  0.00     0.029 A 
ATOM     50  N   UNL     1     -18.388  -2.055  -0.908  1.00  0.00    -0.354 N 
ATOM     51  C   UNL     1     -19.083  -6.164  -2.026  1.00  0.00     0.074 A 
ATOM     52  C   UNL     1     -17.863  -6.939  -1.964  1.00  0.00     0.031 C 
ATOM     53  C   UNL     1     -17.174  -0.277  -0.301  1.00  0.00     0.029 A 
ATOM     54  C   UNL     1     -18.517  -0.705  -0.680  1.00  0.00     0.049 A 
ATOM     55  H   UNL     1     -19.141  -2.631  -1.172  1.00  0.00     0.167 HD
ATOM     56  C   UNL     1     -20.284  -6.665  -2.401  1.00  0.00     0.031 A 
ATOM     57  C   UNL     1     -19.592   0.102  -0.771  1.00  0.00     0.031 A 
ATOM     58  C   UNL     1     -21.503  -5.902  -2.434  1.00  0.00     0.049 A 
ATOM     59  C   UNL     1     -20.918  -0.483  -1.174  1.00  0.00     0.074 A 
ATOM     60  C   UNL     1     -22.784  -6.341  -2.722  1.00  0.00     0.029 A 
ATOM     61  N   UNL     1     -21.595  -4.545  -2.168  1.00  0.00    -0.354 N 
ATOM     62  N   UNL     1     -21.212  -1.724  -1.479  1.00  0.00    -0.248 NA
ATOM     63  C   UNL     1     -22.059   0.441  -1.237  1.00  0.00     0.031 C 
ATOM     64  C   UNL     1     -23.644  -5.239  -2.674  1.00  0.00     0.029 A 
ATOM     65  C   UNL     1     -22.907  -4.125  -2.308  1.00  0.00     0.049 A 
ATOM     66  H   UNL     1     -20.840  -3.966  -1.918  1.00  0.00     0.167 HD
ATOM     67  C   UNL     1     -22.577  -1.735  -1.740  1.00  0.00     0.074 A 
ATOM     68  C   UNL     1     -23.053  -0.381  -1.548  1.00  0.00     0.031 C 
ATOM     69  C   UNL     1     -23.366  -2.775  -2.106  1.00  0.00     0.031 A 
BRANCH  56  70
ATOM     70  C   UNL     1     -20.338  -8.112  -2.812  1.00  0.00    -0.014 A 
ATOM     71  C   UNL     1     -20.201  -9.142  -1.864  1.00  0.00     0.010 A 
ATOM     72  C   UNL     1     -20.574  -8.447  -4.158  1.00  0.00     0.010 A 
ATOM     73  C   UNL     1     -20.258 -10.481  -2.260  1.00  0.00     0.020 A 
ATOM     74  C   UNL     1     -20.658  -9.785  -4.554  1.00  0.00     0.020 A 
ATOM     75  C   UNL     1     -20.482 -10.794  -3.605  1.00  0.00     0.054 A 
BRANCH  75  76
ATOM     76  S   UNL     1     -20.577 -12.539  -4.088  1.00  0.00     0.124 S 
ATOM     77  O   UNL     1     -19.173 -12.940  -4.041  1.00  0.00    -0.237 OA
ATOM     78  O   UNL     1     -21.429 -13.115  -3.050  1.00  0.00    -0.237 OA
ATOM     79  O   UNL     1     -21.169 -12.498  -5.423  1.00  0.00    -0.744 OA
ENDBRANCH  75  76
ENDBRANCH  56  70
BRANCH  57  80
ATOM     80  C   UNL     1     -19.469   1.552  -0.456  1.00  0.00    -0.014 A 
ATOM     81  C   UNL     1     -20.040   2.074   0.718  1.00  0.00     0.010 A 
ATOM     82  C   UNL     1     -18.786   2.418  -1.328  1.00  0.00     0.010 A 
ATOM     83  C   UNL     1     -19.953   3.440   1.003  1.00  0.00     0.020 A 
ATOM     84  C   UNL     1     -18.675   3.781  -1.034  1.00  0.00     0.020 A 
ATOM     85  C   UNL     1     -19.272   4.285   0.123  1.00  0.00     0.054 A 
BRANCH  85  86
ATOM     86  S   UNL     1     -19.136   6.048   0.530  1.00  0.00     0.124 S 
ATOM     87  O   UNL     1     -20.470   6.539   0.198  1.00  0.00    -0.237 OA
ATOM     88  O   UNL     1     -18.807   6.022   1.953  1.00  0.00    -0.237 OA
ATOM     89  O   UNL     1     -18.060   6.516  -0.341  1.00  0.00    -0.744 OA
ENDBRANCH  85  86
ENDBRANCH  57  80
BRANCH  69  90
ATOM     90  C   UNL     1     -24.835  -2.501  -2.284  1.00  0.00    -0.014 A 
ATOM     91  C   UNL     1     -25.314  -1.800  -3.404  1.00  0.00     0.010 A 
ATOM     92  C   UNL     1     -25.752  -3.002  -1.342  1.00  0.00     0.010 A 
ATOM     93  C   UNL     1     -26.685  -1.580  -3.565  1.00  0.00     0.020 A 
ATOM     94  C   UNL     1     -27.124  -2.806  -1.512  1.00  0.00     0.020 A 
ATOM     95  C   UNL     1     -27.581  -2.084  -2.616  1.00  0.00     0.054 A 
BRANCH  95  96
ATOM     96  S   UNL     1     -29.359  -1.828  -2.870  1.00  0.00     0.124 S 
ATOM     97  O   UNL     1     -29.520  -0.426  -2.496  1.00  0.00    -0.237 OA
ATOM     98  O   UNL     1     -29.528  -2.123  -4.291  1.00  0.00    -0.237 OA
ATOM     99  O   UNL     1     -29.980  -2.790  -1.962  1.00  0.00    -0.744 OA
ENDBRANCH  95  96
ENDBRANCH  69  90
ENDBRANCH  43  44
ENDBRANCH  35  38
ENDBRANCH  33  34
ENDBRANCH   1  33
TORSDOF 16
