REMARK SMILES O=CN1CC[NH+](C[C@@H](CC(=O)Nc2ccc(C(F)(F)F)nc2)C(=O)NCCCCNC(=O)c2ccc(-c3c4nc(c(-c5ccc(S(=O)(=O)[O-])cc5)c5ccc([nH]5)c(-c5ccc(S(=O)(=O)[O-])cc5)c5nc(c(-c6ccc(S(=O)(=O)[O-])cc6)c6ccc3[nH]6)C=C5)C=C4)cc2)CC1
REMARK SMILES IDX 27 1 26 2 25 3 23 4 24 5 8 7 7 8 6 9 1 10 2 11 3 12 4 13
REMARK SMILES IDX 94 14 5 15 93 16 9 18 10 19 11 20 12 21 13 23 14 24 22 25
REMARK SMILES IDX 15 26 21 27 16 28 17 29 18 30 19 31 20 32 28 33 29 34 30 35
REMARK SMILES IDX 31 36 32 38 33 39 34 40 92 41 35 42 91 43 36 44 37 45 38 46
REMARK SMILES IDX 85 47 39 48 90 49 84 50 86 51 40 52 89 53 83 54 82 55 41 57
REMARK SMILES IDX 71 58 52 59 70 60 53 61 56 62 69 63 87 64 54 65 55 66 68 68
REMARK SMILES IDX 88 69 57 70 42 71 43 72 51 73 44 74 50 75 45 76 46 77 47 78
REMARK SMILES IDX 48 79 49 80 72 81 73 82 81 83 74 84 80 85 75 86 76 87 77 88
REMARK SMILES IDX 78 89 79 90 58 91 59 92 67 93 60 94 66 95 61 96 62 97 63 98
REMARK SMILES IDX 64 99 65 100
REMARK H PARENT 25 6 6 17 12 22 30 37 86 56 56 67
REMARK Flexibility Score: inf
ROOT
ATOM      1  C   UNL     1       8.621   2.213  -5.293  1.00  0.00     0.023 C 
ENDROOT
BRANCH   1   2
ATOM      2  C   UNL     1       8.051   1.930  -3.918  1.00  0.00     0.116 C 
BRANCH   2   3
ATOM      3  N   UNL     1       7.475   3.024  -3.199  1.00  0.00    -0.356 N 
ATOM      4  C   UNL     1       6.440   2.947  -2.311  1.00  0.00     0.229 C 
ATOM      5  O   UNL     1       6.164   3.964  -1.669  1.00  0.00    -0.275 OA
ATOM      6  H   UNL     1       7.860   3.916  -3.359  1.00  0.00     0.163 HD
BRANCH   4   7
ATOM      7  C   UNL     1       5.548   1.684  -2.176  1.00  0.00     0.142 C 
BRANCH   7   8
ATOM      8  C   UNL     1       4.311   1.885  -3.066  1.00  0.00     0.276 C 
BRANCH   8   9
ATOM      9  N   UNL     1       3.187   0.942  -3.186  1.00  0.00    -0.331 N 
ATOM     10  O   UNL     1       0.033   0.997   0.841  1.00  0.00    -0.279 OA
ATOM     11  C   UNL     1       0.943   0.300   0.431  1.00  0.00     0.340 C 
ATOM     12  N   UNL     1       1.701   0.538  -0.696  1.00  0.00    -0.334 N 
ATOM     13  C   UNL     1       2.887  -0.252  -0.969  1.00  0.00     0.180 C 
ATOM     14  C   UNL     1       1.527   1.771  -1.464  1.00  0.00     0.180 C 
ATOM     15  C   UNL     1       3.202  -0.334  -2.468  1.00  0.00     0.284 C 
ATOM     16  C   UNL     1       1.874   1.591  -2.957  1.00  0.00     0.284 C 
ATOM     17  H   UNL     1       3.337   0.664  -4.156  1.00  0.00     0.348 HD
ENDBRANCH   8   9
ENDBRANCH   7   8
BRANCH   7  18
ATOM     18  C   UNL     1       6.288   0.353  -1.983  1.00  0.00     0.119 C 
BRANCH  18  19
ATOM     19  C   UNL     1       6.945  -0.650  -2.949  1.00  0.00     0.225 C 
ATOM     20  O   UNL     1       8.016  -1.154  -2.569  1.00  0.00    -0.275 OA
ATOM     21  N   UNL     1       6.460  -1.203  -4.086  1.00  0.00    -0.325 N 
ATOM     22  H   UNL     1       6.955  -2.015  -4.341  1.00  0.00     0.169 HD
BRANCH  21  23
ATOM     23  C   UNL     1       5.434  -0.911  -4.989  1.00  0.00     0.059 A 
ATOM     24  C   UNL     1       5.283   0.298  -5.649  1.00  0.00     0.030 A 
ATOM     25  C   UNL     1       4.570  -1.932  -5.367  1.00  0.00     0.137 A 
ATOM     26  C   UNL     1       4.184   0.512  -6.481  1.00  0.00     0.035 A 
ATOM     27  N   UNL     1       3.485  -1.762  -6.160  1.00  0.00    -0.250 NA
ATOM     28  C   UNL     1       3.260  -0.512  -6.658  1.00  0.00     0.144 A 
BRANCH  28  29
ATOM     29  C   UNL     1       1.973  -0.212  -7.411  1.00  0.00     0.433 C 
ATOM     30  F   UNL     1       2.108  -0.325  -8.763  1.00  0.00    -0.165 F 
ATOM     31  F   UNL     1       0.930  -1.020  -7.065  1.00  0.00    -0.165 F 
ATOM     32  F   UNL     1       1.525   1.063  -7.197  1.00  0.00    -0.165 F 
ENDBRANCH  28  29
ENDBRANCH  21  23
ENDBRANCH  18  19
ENDBRANCH   7  18
ENDBRANCH   4   7
ENDBRANCH   2   3
ENDBRANCH   1   2
BRANCH   1  33
ATOM     33  C   UNL     1      10.079   2.626  -5.302  1.00  0.00     0.023 C 
BRANCH  33  34
ATOM     34  C   UNL     1      11.012   1.749  -4.477  1.00  0.00     0.116 C 
BRANCH  34  35
ATOM     35  N   UNL     1      11.012   0.337  -4.850  1.00  0.00    -0.352 N 
ATOM     36  C   UNL     1      12.100  -0.469  -5.122  1.00  0.00     0.251 C 
ATOM     37  H   UNL     1      10.129  -0.093  -4.915  1.00  0.00     0.163 HD
ATOM     38  O   UNL     1      11.956  -1.625  -5.500  1.00  0.00    -0.269 OA
BRANCH  36  39
ATOM     39  C   UNL     1      13.447   0.123  -4.990  1.00  0.00     0.039 A 
ATOM     40  C   UNL     1      14.298   0.137  -6.095  1.00  0.00     0.014 A 
ATOM     41  C   UNL     1      13.779   0.812  -3.822  1.00  0.00     0.014 A 
ATOM     42  C   UNL     1      15.437   0.942  -6.065  1.00  0.00     0.010 A 
ATOM     43  C   UNL     1      14.845   1.701  -3.842  1.00  0.00     0.010 A 
ATOM     44  C   UNL     1      15.685   1.780  -4.964  1.00  0.00    -0.014 A 
BRANCH  44  45
ATOM     45  C   UNL     1      16.808   2.753  -4.959  1.00  0.00     0.031 A 
ATOM     46  C   UNL     1      17.869   2.664  -3.895  1.00  0.00     0.074 A 
ATOM     47  C   UNL     1      16.835   3.762  -5.854  1.00  0.00     0.049 A 
ATOM     48  N   UNL     1      18.891   3.452  -3.679  1.00  0.00    -0.248 NA
ATOM     49  C   UNL     1      17.740   1.568  -2.921  1.00  0.00     0.031 C 
ATOM     50  C   UNL     1      15.840   3.997  -6.904  1.00  0.00     0.029 A 
ATOM     51  N   UNL     1      17.737   4.784  -6.022  1.00  0.00    -0.354 N 
ATOM     52  C   UNL     1      19.508   2.960  -2.535  1.00  0.00     0.074 A 
ATOM     53  C   UNL     1      18.705   1.855  -2.063  1.00  0.00     0.031 C 
ATOM     54  C   UNL     1      16.214   5.059  -7.636  1.00  0.00     0.029 A 
ATOM     55  C   UNL     1      17.448   5.609  -7.084  1.00  0.00     0.049 A 
ATOM     56  H   UNL     1      18.519   4.913  -5.438  1.00  0.00     0.167 HD
ATOM     57  C   UNL     1      20.656   3.368  -1.944  1.00  0.00     0.031 A 
ATOM     58  C   UNL     1      18.104   6.684  -7.563  1.00  0.00     0.031 A 
ATOM     59  C   UNL     1      21.461   4.458  -2.423  1.00  0.00     0.049 A 
ATOM     60  C   UNL     1      19.374   7.128  -6.891  1.00  0.00     0.074 A 
ATOM     61  C   UNL     1      22.672   4.914  -1.936  1.00  0.00     0.029 A 
ATOM     62  N   UNL     1      21.132   5.267  -3.502  1.00  0.00    -0.354 N 
ATOM     63  N   UNL     1      19.980   6.607  -5.851  1.00  0.00    -0.248 NA
ATOM     64  C   UNL     1      20.052   8.298  -7.464  1.00  0.00     0.031 C 
ATOM     65  C   UNL     1      23.051   6.031  -2.688  1.00  0.00     0.029 A 
ATOM     66  C   UNL     1      22.105   6.235  -3.681  1.00  0.00     0.049 A 
ATOM     67  H   UNL     1      20.325   5.167  -4.057  1.00  0.00     0.167 HD
ATOM     68  C   UNL     1      21.127   7.369  -5.661  1.00  0.00     0.074 A 
ATOM     69  C   UNL     1      21.133   8.380  -6.699  1.00  0.00     0.031 C 
ATOM     70  C   UNL     1      22.091   7.240  -4.715  1.00  0.00     0.031 A 
BRANCH  57  71
ATOM     71  C   UNL     1      21.088   2.624  -0.707  1.00  0.00    -0.014 A 
ATOM     72  C   UNL     1      21.491   1.276  -0.772  1.00  0.00     0.010 A 
ATOM     73  C   UNL     1      21.064   3.270   0.542  1.00  0.00     0.010 A 
ATOM     74  C   UNL     1      21.787   0.568   0.395  1.00  0.00     0.020 A 
ATOM     75  C   UNL     1      21.395   2.574   1.709  1.00  0.00     0.020 A 
ATOM     76  C   UNL     1      21.724   1.220   1.630  1.00  0.00     0.054 A 
BRANCH  76  77
ATOM     77  S   UNL     1      22.084   0.270   3.132  1.00  0.00     0.124 S 
ATOM     78  O   UNL     1      20.868  -0.526   3.281  1.00  0.00    -0.237 OA
ATOM     79  O   UNL     1      23.282  -0.478   2.762  1.00  0.00    -0.237 OA
ATOM     80  O   UNL     1      22.284   1.298   4.151  1.00  0.00    -0.744 OA
ENDBRANCH  76  77
ENDBRANCH  57  71
BRANCH  58  81
ATOM     81  C   UNL     1      17.593   7.380  -8.777  1.00  0.00    -0.014 A 
ATOM     82  C   UNL     1      18.260   7.234 -10.006  1.00  0.00     0.010 A 
ATOM     83  C   UNL     1      16.419   8.153  -8.725  1.00  0.00     0.010 A 
ATOM     84  C   UNL     1      17.763   7.844 -11.161  1.00  0.00     0.020 A 
ATOM     85  C   UNL     1      15.905   8.746  -9.883  1.00  0.00     0.020 A 
ATOM     86  C   UNL     1      16.583   8.590 -11.094  1.00  0.00     0.054 A 
BRANCH  86  87
ATOM     87  S   UNL     1      15.910   9.299 -12.623  1.00  0.00     0.124 S 
ATOM     88  O   UNL     1      16.843  10.387 -12.891  1.00  0.00    -0.237 OA
ATOM     89  O   UNL     1      15.972   8.168 -13.546  1.00  0.00    -0.237 OA
ATOM     90  O   UNL     1      14.559   9.709 -12.244  1.00  0.00    -0.744 OA
ENDBRANCH  86  87
ENDBRANCH  58  81
BRANCH  70  91
ATOM     91  C   UNL     1      23.250   8.199  -4.771  1.00  0.00    -0.014 A 
ATOM     92  C   UNL     1      23.101   9.547  -4.405  1.00  0.00     0.010 A 
ATOM     93  C   UNL     1      24.523   7.724  -5.140  1.00  0.00     0.010 A 
ATOM     94  C   UNL     1      24.198  10.412  -4.434  1.00  0.00     0.020 A 
ATOM     95  C   UNL     1      25.627   8.579  -5.144  1.00  0.00     0.020 A 
ATOM     96  C   UNL     1      25.455   9.922  -4.803  1.00  0.00     0.054 A 
BRANCH  96  97
ATOM     97  S   UNL     1      26.873  11.053  -4.786  1.00  0.00     0.124 S 
ATOM     98  O   UNL     1      26.624  11.868  -5.971  1.00  0.00    -0.237 OA
ATOM     99  O   UNL     1      26.719  11.740  -3.506  1.00  0.00    -0.237 OA
ATOM    100  O   UNL     1      28.028  10.162  -4.873  1.00  0.00    -0.744 OA
ENDBRANCH  96  97
ENDBRANCH  70  91
ENDBRANCH  44  45
ENDBRANCH  36  39
ENDBRANCH  34  35
ENDBRANCH  33  34
ENDBRANCH   1  33
TORSDOF 20
