REMARK SMILES COc1ccc(-c2nc(C(C)C)cc3nn(CC(=O)NCCCCNC(=O)c4ccc(-c5c6nc(c(-c7ccc(S(=O)(=O)[O-])cc7)c7ccc([nH]7)c(-c7ccc(S(=O)(=O)[O-])cc7)c7nc(c(-c8ccc(S(=O)(=O)[O-])cc8)c8ccc5[nH]8)C=C7)C=C6)cc4)c(=O)n23)cc1
REMARK SMILES IDX 22 1 21 2 20 3 18 4 19 5 17 7 16 8 7 9 8 10 90 11 9 12 14 13
REMARK SMILES IDX 88 14 13 15 15 16 89 17 6 18 3 19 4 20 92 21 5 22 91 23 2 24
REMARK SMILES IDX 1 25 10 26 11 27 12 28 23 29 24 30 25 31 26 32 27 34 28 35
REMARK SMILES IDX 29 36 87 37 30 38 86 39 31 40 32 41 33 42 80 43 34 44 85 45
REMARK SMILES IDX 79 46 81 47 35 48 84 49 78 50 77 51 36 53 66 54 47 55 65 56
REMARK SMILES IDX 48 57 51 58 64 59 82 60 49 61 50 62 63 64 83 65 52 66 37 67
REMARK SMILES IDX 38 68 46 69 39 70 45 71 40 72 41 73 42 74 43 75 44 76 67 77
REMARK SMILES IDX 68 78 76 79 69 80 75 81 70 82 71 83 72 84 73 85 74 86 53 87
REMARK SMILES IDX 54 88 62 89 55 90 61 91 56 92 57 93 58 94 59 95 60 96
REMARK H PARENT 20 6 25 33 81 52 51 63
REMARK Flexibility Score: inf
ROOT
ATOM      1  C   UNL     1      -1.802  -5.013  -8.005  1.00  0.00     0.023 C 
ENDROOT
BRANCH   1   2
ATOM      2  C   UNL     1      -2.177  -3.894  -8.984  1.00  0.00     0.116 C 
BRANCH   2   3
ATOM      3  N   UNL     1      -2.778  -2.749  -8.327  1.00  0.00    -0.354 N 
ATOM      4  C   UNL     1      -2.257  -1.511  -8.075  1.00  0.00     0.241 C 
ATOM      5  O   UNL     1      -3.031  -0.650  -7.647  1.00  0.00    -0.273 OA
ATOM      6  H   UNL     1      -3.702  -2.885  -8.016  1.00  0.00     0.163 HD
BRANCH   4   7
ATOM      7  C   UNL     1      -0.811  -1.158  -8.426  1.00  0.00     0.249 C 
BRANCH   7   8
ATOM      8  N   UNL     1       0.119  -2.068  -7.806  1.00  0.00    -0.203 N 
ATOM      9  C   UNL     1       1.896  -3.798  -5.216  1.00  0.00     0.150 A 
ATOM     10  N   UNL     1       2.742  -4.780  -5.356  1.00  0.00    -0.234 NA
ATOM     11  N   UNL     1       1.287  -3.188  -6.303  1.00  0.00    -0.226 N 
ATOM     12  C   UNL     1       3.010  -5.231  -6.637  1.00  0.00     0.049 A 
ATOM     13  C   UNL     1       1.529  -3.601  -7.564  1.00  0.00     0.165 A 
ATOM     14  C   UNL     1       0.390  -2.127  -6.431  1.00  0.00     0.352 A 
ATOM     15  C   UNL     1       2.463  -4.703  -7.744  1.00  0.00     0.073 A 
ATOM     16  N   UNL     1       0.885  -2.975  -8.500  1.00  0.00    -0.149 NA
ATOM     17  O   UNL     1      -0.069  -1.404  -5.574  1.00  0.00    -0.245 OA
BRANCH   9  18
ATOM     18  C   UNL     1       1.580  -3.266  -3.876  1.00  0.00     0.018 A 
ATOM     19  C   UNL     1       0.988  -2.029  -1.452  1.00  0.00     0.118 A 
ATOM     20  C   UNL     1      -0.008  -2.724  -2.140  1.00  0.00     0.047 A 
ATOM     21  C   UNL     1       2.296  -2.011  -1.941  1.00  0.00     0.047 A 
ATOM     22  C   UNL     1       0.283  -3.344  -3.358  1.00  0.00     0.016 A 
ATOM     23  C   UNL     1       2.595  -2.632  -3.156  1.00  0.00     0.016 A 
BRANCH  19  24
ATOM     24  O   UNL     1       0.619  -1.436  -0.274  1.00  0.00    -0.497 OA
ATOM     25  C   UNL     1       1.073  -0.088  -0.160  1.00  0.00     0.278 C 
ENDBRANCH  19  24
ENDBRANCH   9  18
BRANCH  12  26
ATOM     26  C   UNL     1       3.998  -6.389  -6.732  1.00  0.00     0.032 C 
ATOM     27  C   UNL     1       3.370  -7.634  -7.369  1.00  0.00     0.014 C 
ATOM     28  C   UNL     1       5.265  -5.980  -7.491  1.00  0.00     0.014 C 
ENDBRANCH  12  26
ENDBRANCH   7   8
ENDBRANCH   4   7
ENDBRANCH   2   3
ENDBRANCH   1   2
BRANCH   1  29
ATOM     29  C   UNL     1      -2.965  -5.698  -7.273  1.00  0.00     0.023 C 
BRANCH  29  30
ATOM     30  C   UNL     1      -3.966  -6.411  -8.171  1.00  0.00     0.116 C 
BRANCH  30  31
ATOM     31  N   UNL     1      -3.385  -7.534  -8.912  1.00  0.00    -0.352 N 
ATOM     32  C   UNL     1      -3.986  -8.299  -9.900  1.00  0.00     0.251 C 
ATOM     33  H   UNL     1      -2.459  -7.774  -8.680  1.00  0.00     0.163 HD
ATOM     34  O   UNL     1      -3.579  -9.426 -10.158  1.00  0.00    -0.269 OA
BRANCH  32  35
ATOM     35  C   UNL     1      -5.117  -7.717 -10.643  1.00  0.00     0.039 A 
ATOM     36  C   UNL     1      -6.264  -8.448 -10.969  1.00  0.00     0.014 A 
ATOM     37  C   UNL     1      -5.020  -6.369 -10.966  1.00  0.00     0.014 A 
ATOM     38  C   UNL     1      -7.347  -7.778 -11.541  1.00  0.00     0.010 A 
ATOM     39  C   UNL     1      -6.140  -5.683 -11.344  1.00  0.00     0.010 A 
ATOM     40  C   UNL     1      -7.283  -6.387 -11.706  1.00  0.00    -0.014 A 
BRANCH  40  41
ATOM     41  C   UNL     1      -8.420  -5.605 -12.180  1.00  0.00     0.031 A 
ATOM     42  C   UNL     1      -9.659  -5.727 -11.368  1.00  0.00     0.074 A 
ATOM     43  C   UNL     1      -8.280  -4.637 -13.114  1.00  0.00     0.049 A 
ATOM     44  N   UNL     1     -10.775  -6.279 -11.710  1.00  0.00    -0.248 NA
ATOM     45  C   UNL     1      -9.617  -5.297  -9.960  1.00  0.00     0.031 C 
ATOM     46  C   UNL     1      -7.047  -4.175 -13.770  1.00  0.00     0.029 A 
ATOM     47  N   UNL     1      -9.204  -3.754 -13.576  1.00  0.00    -0.354 N 
ATOM     48  C   UNL     1     -11.652  -6.066 -10.649  1.00  0.00     0.074 A 
ATOM     49  C   UNL     1     -10.836  -5.641  -9.539  1.00  0.00     0.031 C 
ATOM     50  C   UNL     1      -7.255  -2.962 -14.329  1.00  0.00     0.029 A 
ATOM     51  C   UNL     1      -8.669  -2.657 -14.244  1.00  0.00     0.049 A 
ATOM     52  H   UNL     1     -10.172  -3.880 -13.448  1.00  0.00     0.167 HD
ATOM     53  C   UNL     1     -13.001  -6.012 -10.836  1.00  0.00     0.031 A 
ATOM     54  C   UNL     1      -9.339  -1.564 -14.687  1.00  0.00     0.031 A 
ATOM     55  C   UNL     1     -13.369  -6.461 -12.156  1.00  0.00     0.049 A 
ATOM     56  C   UNL     1     -10.765  -1.953 -14.791  1.00  0.00     0.074 A 
ATOM     57  C   UNL     1     -13.232  -7.640 -12.860  1.00  0.00     0.029 A 
ATOM     58  N   UNL     1     -13.614  -5.482 -13.092  1.00  0.00    -0.354 N 
ATOM     59  N   UNL     1     -11.198  -2.858 -15.626  1.00  0.00    -0.248 NA
ATOM     60  C   UNL     1     -11.636  -1.687 -13.658  1.00  0.00     0.031 C 
ATOM     61  C   UNL     1     -12.928  -7.235 -14.194  1.00  0.00     0.029 A 
ATOM     62  C   UNL     1     -12.969  -5.839 -14.248  1.00  0.00     0.049 A 
ATOM     63  H   UNL     1     -14.157  -4.672 -12.957  1.00  0.00     0.167 HD
ATOM     64  C   UNL     1     -12.147  -3.576 -14.912  1.00  0.00     0.074 A 
ATOM     65  C   UNL     1     -12.453  -2.741 -13.751  1.00  0.00     0.031 C 
ATOM     66  C   UNL     1     -12.383  -4.896 -15.180  1.00  0.00     0.031 A 
BRANCH  53  67
ATOM     67  C   UNL     1     -13.948  -5.178 -10.003  1.00  0.00    -0.014 A 
ATOM     68  C   UNL     1     -15.330  -5.244 -10.281  1.00  0.00     0.010 A 
ATOM     69  C   UNL     1     -13.517  -4.133  -9.160  1.00  0.00     0.010 A 
ATOM     70  C   UNL     1     -16.217  -4.266  -9.812  1.00  0.00     0.020 A 
ATOM     71  C   UNL     1     -14.400  -3.179  -8.650  1.00  0.00     0.020 A 
ATOM     72  C   UNL     1     -15.739  -3.229  -9.013  1.00  0.00     0.054 A 
BRANCH  72  73
ATOM     73  S   UNL     1     -16.865  -1.902  -8.516  1.00  0.00     0.124 S 
ATOM     74  O   UNL     1     -17.166  -1.271  -9.797  1.00  0.00    -0.237 OA
ATOM     75  O   UNL     1     -17.962  -2.643  -7.899  1.00  0.00    -0.237 OA
ATOM     76  O   UNL     1     -16.064  -1.101  -7.594  1.00  0.00    -0.744 OA
ENDBRANCH  72  73
ENDBRANCH  53  67
BRANCH  54  77
ATOM     77  C   UNL     1      -8.866  -0.161 -14.761  1.00  0.00    -0.014 A 
ATOM     78  C   UNL     1      -9.531   0.798 -15.547  1.00  0.00     0.010 A 
ATOM     79  C   UNL     1      -7.909   0.303 -13.834  1.00  0.00     0.010 A 
ATOM     80  C   UNL     1      -9.286   2.173 -15.375  1.00  0.00     0.020 A 
ATOM     81  C   UNL     1      -7.657   1.671 -13.659  1.00  0.00     0.020 A 
ATOM     82  C   UNL     1      -8.363   2.602 -14.417  1.00  0.00     0.054 A 
BRANCH  82  83
ATOM     83  S   UNL     1      -8.171   4.381 -14.090  1.00  0.00     0.124 S 
ATOM     84  O   UNL     1      -7.524   4.854 -15.311  1.00  0.00    -0.237 OA
ATOM     85  O   UNL     1      -9.550   4.819 -13.896  1.00  0.00    -0.237 OA
ATOM     86  O   UNL     1      -7.336   4.423 -12.891  1.00  0.00    -0.744 OA
ENDBRANCH  82  83
ENDBRANCH  54  77
BRANCH  66  87
ATOM     87  C   UNL     1     -11.792  -5.490 -16.441  1.00  0.00    -0.014 A 
ATOM     88  C   UNL     1     -10.406  -5.612 -16.674  1.00  0.00     0.010 A 
ATOM     89  C   UNL     1     -12.676  -6.104 -17.344  1.00  0.00     0.010 A 
ATOM     90  C   UNL     1      -9.924  -6.317 -17.788  1.00  0.00     0.020 A 
ATOM     91  C   UNL     1     -12.203  -6.821 -18.445  1.00  0.00     0.020 A 
ATOM     92  C   UNL     1     -10.829  -6.920 -18.667  1.00  0.00     0.054 A 
BRANCH  92  93
ATOM     93  S   UNL     1     -10.204  -7.884 -20.073  1.00  0.00     0.124 S 
ATOM     94  O   UNL     1      -9.634  -6.854 -20.937  1.00  0.00    -0.237 OA
ATOM     95  O   UNL     1      -9.239  -8.785 -19.448  1.00  0.00    -0.237 OA
ATOM     96  O   UNL     1     -11.398  -8.542 -20.602  1.00  0.00    -0.744 OA
ENDBRANCH  92  93
ENDBRANCH  66  87
ENDBRANCH  40  41
ENDBRANCH  32  35
ENDBRANCH  30  31
ENDBRANCH  29  30
ENDBRANCH   1  29
TORSDOF 18
