REMARK SMILES [NH3+]C1CC[NH+](CC(=O)Nc2cc(Cl)ccc2C(=O)NCCCCNC(=O)c2ccc(-c3c4nc(c(-c5ccc(S(=O)(=O)[O-])cc5)c5ccc([nH]5)c(-c5ccc(S(=O)(=O)[O-])cc5)c5nc(c(-c6ccc(S(=O)(=O)[O-])cc6)c6ccc3[nH]6)C=C5)C=C4)cc2)CC1
REMARK SMILES IDX 21 1 20 2 19 3 17 4 18 5 16 7 10 8 11 9 12 10 15 11 13 12
REMARK SMILES IDX 14 13 9 14 7 15 8 16 6 18 5 19 2 20 3 21 88 22 4 23 87 24
REMARK SMILES IDX 1 26 22 30 23 31 24 32 25 33 26 35 27 36 28 37 86 38 29 39
REMARK SMILES IDX 85 40 30 41 31 42 32 43 79 44 33 45 84 46 78 47 80 48 34 49
REMARK SMILES IDX 83 50 77 51 76 52 35 54 65 55 46 56 64 57 47 58 50 59 63 60
REMARK SMILES IDX 81 61 48 62 49 63 62 65 82 66 51 67 36 68 37 69 45 70 38 71
REMARK SMILES IDX 44 72 39 73 40 74 41 75 42 76 43 77 66 78 67 79 75 80 68 81
REMARK SMILES IDX 74 82 69 83 70 84 71 85 72 86 73 87 52 88 53 89 61 90 54 91
REMARK SMILES IDX 60 92 55 93 56 94 57 95 58 96 59 97
REMARK H PARENT 19 6 9 17 5 25 1 27 1 28 1 29 24 34 80 53 50 64
REMARK Flexibility Score: inf
ROOT
ATOM      1  C   UNL     1      -1.653   5.276  -2.659  1.00  0.00     0.023 C 
ENDROOT
BRANCH   1   2
ATOM      2  C   UNL     1      -0.462   4.660  -3.407  1.00  0.00     0.116 C 
BRANCH   2   3
ATOM      3  N   UNL     1       0.554   5.676  -3.593  1.00  0.00    -0.352 N 
ATOM      4  C   UNL     1       1.719   6.039  -2.979  1.00  0.00     0.253 C 
ATOM      5  O   UNL     1       2.253   7.053  -3.443  1.00  0.00    -0.269 OA
ATOM      6  H   UNL     1       0.352   6.256  -4.362  1.00  0.00     0.163 HD
BRANCH   4   7
ATOM      7  C   UNL     1       2.460   5.329  -1.882  1.00  0.00     0.063 A 
ATOM      8  C   UNL     1       1.985   4.763  -0.667  1.00  0.00     0.055 A 
ATOM      9  C   UNL     1       2.933   4.340   0.273  1.00  0.00     0.047 A 
ATOM     10  C   UNL     1       4.306   4.431   0.043  1.00  0.00     0.043 A 
ATOM     11  C   UNL     1       3.864   5.400  -2.089  1.00  0.00     0.017 A 
ATOM     12  Cl  UNL     1       5.410   3.893   1.248  1.00  0.00    -0.084 Cl
ATOM     13  C   UNL     1       4.781   4.953  -1.143  1.00  0.00     0.021 A 
BRANCH   8  14
ATOM     14  N   UNL     1       0.610   4.610  -0.424  1.00  0.00    -0.320 N 
ATOM     15  C   UNL     1      -0.212   4.036   0.503  1.00  0.00     0.279 C 
ATOM     16  O   UNL     1      -1.400   3.926   0.160  1.00  0.00    -0.268 OA
ATOM     17  H   UNL     1       0.082   5.046  -1.132  1.00  0.00     0.170 HD
BRANCH  15  18
ATOM     18  C   UNL     1       0.178   3.603   1.909  1.00  0.00     0.363 C 
BRANCH  18  19
ATOM     19  N   UNL     1       0.274   2.159   2.172  1.00  0.00    -0.327 N 
ATOM     20  C   UNL     1       0.253   0.078   0.046  1.00  0.00     0.192 C 
ATOM     21  C   UNL     1      -1.048   0.699   0.570  1.00  0.00     0.126 C 
ATOM     22  C   UNL     1       1.440   1.007   0.306  1.00  0.00     0.126 C 
ATOM     23  C   UNL     1      -0.928   1.351   1.955  1.00  0.00     0.268 C 
ATOM     24  C   UNL     1       1.482   1.464   1.760  1.00  0.00     0.268 C 
ATOM     25  H   UNL     1       0.364   2.240   3.184  1.00  0.00     0.348 HD
BRANCH  20  26
ATOM     26  N   UNL     1       0.505  -1.239   0.642  1.00  0.00    -0.355 N 
ATOM     27  H   UNL     1      -0.291  -1.851   0.463  1.00  0.00     0.344 HD
ATOM     28  H   UNL     1       0.636  -1.137   1.649  1.00  0.00     0.344 HD
ATOM     29  H   UNL     1       1.345  -1.645   0.229  1.00  0.00     0.344 HD
ENDBRANCH  20  26
ENDBRANCH  18  19
ENDBRANCH  15  18
ENDBRANCH   8  14
ENDBRANCH   4   7
ENDBRANCH   2   3
ENDBRANCH   1   2
BRANCH   1  30
ATOM     30  C   UNL     1      -2.759   5.855  -3.528  1.00  0.00     0.023 C 
BRANCH  30  31
ATOM     31  C   UNL     1      -3.603   4.803  -4.228  1.00  0.00     0.116 C 
BRANCH  31  32
ATOM     32  N   UNL     1      -4.258   3.859  -3.324  1.00  0.00    -0.352 N 
ATOM     33  C   UNL     1      -5.498   3.269  -3.465  1.00  0.00     0.251 C 
ATOM     34  H   UNL     1      -3.752   3.614  -2.515  1.00  0.00     0.163 HD
ATOM     35  O   UNL     1      -5.946   2.513  -2.623  1.00  0.00    -0.269 OA
BRANCH  33  36
ATOM     36  C   UNL     1      -6.296   3.647  -4.649  1.00  0.00     0.039 A 
ATOM     37  C   UNL     1      -7.517   4.293  -4.451  1.00  0.00     0.014 A 
ATOM     38  C   UNL     1      -5.733   3.540  -5.922  1.00  0.00     0.014 A 
ATOM     39  C   UNL     1      -8.120   4.946  -5.525  1.00  0.00     0.010 A 
ATOM     40  C   UNL     1      -6.290   4.266  -6.966  1.00  0.00     0.010 A 
ATOM     41  C   UNL     1      -7.472   5.000  -6.770  1.00  0.00    -0.014 A 
BRANCH  41  42
ATOM     42  C   UNL     1      -7.971   5.862  -7.870  1.00  0.00     0.031 A 
ATOM     43  C   UNL     1      -8.359   5.246  -9.185  1.00  0.00     0.074 A 
ATOM     44  C   UNL     1      -7.965   7.204  -7.723  1.00  0.00     0.049 A 
ATOM     45  N   UNL     1      -8.693   5.836 -10.302  1.00  0.00    -0.248 NA
ATOM     46  C   UNL     1      -8.334   3.775  -9.264  1.00  0.00     0.031 C 
ATOM     47  C   UNL     1      -7.561   7.929  -6.514  1.00  0.00     0.029 A 
ATOM     48  N   UNL     1      -8.297   8.203  -8.606  1.00  0.00    -0.354 N 
ATOM     49  C   UNL     1      -8.883   4.814 -11.224  1.00  0.00     0.074 A 
ATOM     50  C   UNL     1      -8.594   3.570 -10.547  1.00  0.00     0.031 C 
ATOM     51  C   UNL     1      -7.695   9.250  -6.723  1.00  0.00     0.029 A 
ATOM     52  C   UNL     1      -8.145   9.471  -8.093  1.00  0.00     0.049 A 
ATOM     53  H   UNL     1      -8.614   8.028  -9.521  1.00  0.00     0.167 HD
ATOM     54  C   UNL     1      -9.280   4.905 -12.514  1.00  0.00     0.031 A 
ATOM     55  C   UNL     1      -8.332  10.677  -8.665  1.00  0.00     0.031 A 
ATOM     56  C   UNL     1      -9.611   6.140 -13.169  1.00  0.00     0.049 A 
ATOM     57  C   UNL     1      -8.768  10.746 -10.103  1.00  0.00     0.074 A 
ATOM     58  C   UNL     1     -10.129   6.324 -14.439  1.00  0.00     0.029 A 
ATOM     59  N   UNL     1      -9.456   7.399 -12.611  1.00  0.00    -0.354 N 
ATOM     60  N   UNL     1      -9.036   9.763 -10.929  1.00  0.00    -0.248 NA
ATOM     61  C   UNL     1      -8.922  12.086 -10.689  1.00  0.00     0.031 C 
ATOM     62  C   UNL     1     -10.237   7.698 -14.670  1.00  0.00     0.029 A 
ATOM     63  C   UNL     1      -9.830   8.367 -13.526  1.00  0.00     0.049 A 
ATOM     64  H   UNL     1      -9.128   7.577 -11.700  1.00  0.00     0.167 HD
ATOM     65  C   UNL     1      -9.409  10.366 -12.124  1.00  0.00     0.074 A 
ATOM     66  C   UNL     1      -9.348  11.797 -11.911  1.00  0.00     0.031 C 
ATOM     67  C   UNL     1      -9.767   9.787 -13.295  1.00  0.00     0.031 A 
BRANCH  54  68
ATOM     68  C   UNL     1      -9.382   3.633 -13.308  1.00  0.00    -0.014 A 
ATOM     69  C   UNL     1     -10.421   2.715 -13.078  1.00  0.00     0.010 A 
ATOM     70  C   UNL     1      -8.462   3.387 -14.343  1.00  0.00     0.010 A 
ATOM     71  C   UNL     1     -10.524   1.558 -13.853  1.00  0.00     0.020 A 
ATOM     72  C   UNL     1      -8.576   2.242 -15.137  1.00  0.00     0.020 A 
ATOM     73  C   UNL     1      -9.600   1.329 -14.878  1.00  0.00     0.054 A 
BRANCH  73  74
ATOM     74  S   UNL     1      -9.788  -0.157 -15.901  1.00  0.00     0.124 S 
ATOM     75  O   UNL     1      -9.335  -1.206 -14.991  1.00  0.00    -0.237 OA
ATOM     76  O   UNL     1     -11.217  -0.161 -16.202  1.00  0.00    -0.237 OA
ATOM     77  O   UNL     1      -8.914   0.096 -17.043  1.00  0.00    -0.744 OA
ENDBRANCH  73  74
ENDBRANCH  54  68
BRANCH  55  78
ATOM     78  C   UNL     1      -8.102  11.927  -7.888  1.00  0.00    -0.014 A 
ATOM     79  C   UNL     1      -9.187  12.742  -7.519  1.00  0.00     0.010 A 
ATOM     80  C   UNL     1      -6.799  12.323  -7.537  1.00  0.00     0.010 A 
ATOM     81  C   UNL     1      -8.971  13.945  -6.841  1.00  0.00     0.020 A 
ATOM     82  C   UNL     1      -6.581  13.513  -6.836  1.00  0.00     0.020 A 
ATOM     83  C   UNL     1      -7.668  14.326  -6.508  1.00  0.00     0.054 A 
BRANCH  83  84
ATOM     84  S   UNL     1      -7.411  15.881  -5.609  1.00  0.00     0.124 S 
ATOM     85  O   UNL     1      -7.581  16.872  -6.667  1.00  0.00    -0.237 OA
ATOM     86  O   UNL     1      -8.466  15.844  -4.600  1.00  0.00    -0.237 OA
ATOM     87  O   UNL     1      -6.053  15.749  -5.085  1.00  0.00    -0.744 OA
ENDBRANCH  83  84
ENDBRANCH  55  78
BRANCH  67  88
ATOM     88  C   UNL     1     -10.139  10.692 -14.436  1.00  0.00    -0.014 A 
ATOM     89  C   UNL     1      -9.150  11.379 -15.161  1.00  0.00     0.010 A 
ATOM     90  C   UNL     1     -11.483  10.786 -14.842  1.00  0.00     0.010 A 
ATOM     91  C   UNL     1      -9.501  12.155 -16.268  1.00  0.00     0.020 A 
ATOM     92  C   UNL     1     -11.834  11.541 -15.963  1.00  0.00     0.020 A 
ATOM     93  C   UNL     1     -10.840  12.226 -16.665  1.00  0.00     0.054 A 
BRANCH  93  94
ATOM     94  S   UNL     1     -11.259  13.176 -18.153  1.00  0.00     0.124 S 
ATOM     95  O   UNL     1     -11.146  14.552 -17.677  1.00  0.00    -0.237 OA
ATOM     96  O   UNL     1     -10.233  12.753 -19.103  1.00  0.00    -0.237 OA
ATOM     97  O   UNL     1     -12.615  12.736 -18.474  1.00  0.00    -0.744 OA
ENDBRANCH  93  94
ENDBRANCH  67  88
ENDBRANCH  41  42
ENDBRANCH  33  36
ENDBRANCH  31  32
ENDBRANCH  30  31
ENDBRANCH   1  30
TORSDOF 18
