REMARK SMILES O=C(NCCCCNC(=O)[C@@H]1[C@@H](C(=O)Nc2cccc([N+](=O)[O-])c2)[C@@H]2C=C[C@H]1O2)c1ccc(-c2c3nc(c(-c4ccc(S(=O)(=O)[O-])cc4)c4ccc([nH]4)c(-c4ccc(S(=O)(=O)[O-])cc4)c4nc(c(-c5ccc(S(=O)(=O)[O-])cc5)c5ccc2[nH]5)C=C4)C=C3)cc1
REMARK SMILES IDX 5 1 4 2 3 3 1 4 2 5 30 7 31 8 89 9 32 10 88 11 33 12 34 13
REMARK SMILES IDX 35 14 82 15 36 16 87 17 81 18 83 19 37 20 86 21 80 22 79 23
REMARK SMILES IDX 38 25 68 26 49 27 67 28 50 29 53 30 66 31 84 32 51 33 52 34
REMARK SMILES IDX 65 36 85 37 54 38 39 39 40 40 48 41 41 42 47 43 42 44 43 45
REMARK SMILES IDX 44 46 45 47 46 48 69 49 70 50 78 51 71 52 77 53 72 54 73 55
REMARK SMILES IDX 74 56 75 57 76 58 55 59 56 60 64 61 57 62 63 63 58 64 59 65
REMARK SMILES IDX 60 66 61 67 62 68 6 69 7 70 8 71 9 72 10 74 11 75 12 76
REMARK SMILES IDX 28 77 25 78 27 79 29 80 26 81 13 82 14 83 15 84 16 86 17 87
REMARK SMILES IDX 24 88 18 89 20 90 19 91 21 92 22 93 23 94
REMARK H PARENT 3 6 83 24 53 35 8 73 15 85
REMARK Flexibility Score: inf
ROOT
ATOM      1  C   UNL     1       4.992  -2.457   0.845  1.00  0.00     0.023 C 
ENDROOT
BRANCH   1   2
ATOM      2  C   UNL     1       4.670  -1.153   0.123  1.00  0.00     0.116 C 
BRANCH   2   3
ATOM      3  N   UNL     1       3.258  -1.002  -0.203  1.00  0.00    -0.352 N 
ATOM      4  O   UNL     1       1.264   0.060  -0.297  1.00  0.00    -0.269 OA
ATOM      5  C   UNL     1       2.470   0.118  -0.081  1.00  0.00     0.251 C 
ATOM      6  H   UNL     1       2.811  -1.805  -0.556  1.00  0.00     0.163 HD
BRANCH   5   7
ATOM      7  C   UNL     1       3.098   1.382   0.354  1.00  0.00     0.039 A 
ATOM      8  C   UNL     1       4.264   1.833  -0.267  1.00  0.00     0.014 A 
ATOM      9  C   UNL     1       2.555   2.075   1.438  1.00  0.00     0.014 A 
ATOM     10  C   UNL     1       4.974   2.885   0.295  1.00  0.00     0.010 A 
ATOM     11  C   UNL     1       3.229   3.186   1.950  1.00  0.00     0.010 A 
ATOM     12  C   UNL     1       4.467   3.571   1.411  1.00  0.00    -0.014 A 
BRANCH  12  13
ATOM     13  C   UNL     1       5.239   4.704   1.979  1.00  0.00     0.031 A 
ATOM     14  C   UNL     1       5.827   4.630   3.362  1.00  0.00     0.074 A 
ATOM     15  C   UNL     1       5.445   5.794   1.214  1.00  0.00     0.049 A 
ATOM     16  N   UNL     1       6.565   5.511   3.990  1.00  0.00    -0.248 NA
ATOM     17  C   UNL     1       5.546   3.417   4.147  1.00  0.00     0.031 C 
ATOM     18  C   UNL     1       4.928   5.978  -0.145  1.00  0.00     0.029 A 
ATOM     19  N   UNL     1       6.162   6.936   1.455  1.00  0.00    -0.354 N 
ATOM     20  C   UNL     1       6.811   4.976   5.249  1.00  0.00     0.074 A 
ATOM     21  C   UNL     1       6.130   3.700   5.303  1.00  0.00     0.031 C 
ATOM     22  C   UNL     1       5.395   7.133  -0.638  1.00  0.00     0.029 A 
ATOM     23  C   UNL     1       6.191   7.799   0.387  1.00  0.00     0.049 A 
ATOM     24  H   UNL     1       6.614   7.120   2.311  1.00  0.00     0.167 HD
ATOM     25  C   UNL     1       7.537   5.501   6.267  1.00  0.00     0.031 A 
ATOM     26  C   UNL     1       6.787   8.997   0.244  1.00  0.00     0.031 A 
ATOM     27  C   UNL     1       8.220   6.767   6.204  1.00  0.00     0.049 A 
ATOM     28  C   UNL     1       7.578   9.559   1.387  1.00  0.00     0.074 A 
ATOM     29  C   UNL     1       9.008   7.370   7.170  1.00  0.00     0.029 A 
ATOM     30  N   UNL     1       8.192   7.629   5.118  1.00  0.00    -0.354 N 
ATOM     31  N   UNL     1       7.816   9.028   2.562  1.00  0.00    -0.248 NA
ATOM     32  C   UNL     1       8.181  10.882   1.184  1.00  0.00     0.031 C 
ATOM     33  C   UNL     1       9.422   8.616   6.683  1.00  0.00     0.029 A 
ATOM     34  C   UNL     1       8.933   8.767   5.395  1.00  0.00     0.049 A 
ATOM     35  H   UNL     1       7.717   7.458   4.273  1.00  0.00     0.167 HD
ATOM     36  C   UNL     1       8.615   9.944   3.234  1.00  0.00     0.074 A 
ATOM     37  C   UNL     1       8.828  11.056   2.328  1.00  0.00     0.031 C 
ATOM     38  C   UNL     1       9.128   9.868   4.487  1.00  0.00     0.031 A 
BRANCH  25  39
ATOM     39  C   UNL     1       7.595   4.717   7.553  1.00  0.00    -0.014 A 
ATOM     40  C   UNL     1       8.340   3.529   7.655  1.00  0.00     0.010 A 
ATOM     41  C   UNL     1       6.904   5.191   8.684  1.00  0.00     0.010 A 
ATOM     42  C   UNL     1       8.349   2.800   8.849  1.00  0.00     0.020 A 
ATOM     43  C   UNL     1       6.931   4.478   9.886  1.00  0.00     0.020 A 
ATOM     44  C   UNL     1       7.635   3.275   9.954  1.00  0.00     0.054 A 
BRANCH  44  45
ATOM     45  S   UNL     1       7.651   2.307  11.489  1.00  0.00     0.124 S 
ATOM     46  O   UNL     1       6.728   1.221  11.167  1.00  0.00    -0.237 OA
ATOM     47  O   UNL     1       9.054   1.921  11.613  1.00  0.00    -0.237 OA
ATOM     48  O   UNL     1       7.176   3.250  12.498  1.00  0.00    -0.744 OA
ENDBRANCH  44  45
ENDBRANCH  25  39
BRANCH  26  49
ATOM     49  C   UNL     1       6.662   9.724  -1.046  1.00  0.00    -0.014 A 
ATOM     50  C   UNL     1       7.758   9.813  -1.920  1.00  0.00     0.010 A 
ATOM     51  C   UNL     1       5.427  10.279  -1.431  1.00  0.00     0.010 A 
ATOM     52  C   UNL     1       7.622  10.444  -3.159  1.00  0.00     0.020 A 
ATOM     53  C   UNL     1       5.282  10.888  -2.679  1.00  0.00     0.020 A 
ATOM     54  C   UNL     1       6.383  10.973  -3.533  1.00  0.00     0.054 A 
BRANCH  54  55
ATOM     55  S   UNL     1       6.207  11.713  -5.180  1.00  0.00     0.124 S 
ATOM     56  O   UNL     1       6.861  13.005  -5.002  1.00  0.00    -0.237 OA
ATOM     57  O   UNL     1       6.910  10.759  -6.034  1.00  0.00    -0.237 OA
ATOM     58  O   UNL     1       4.760  11.763  -5.378  1.00  0.00    -0.744 OA
ENDBRANCH  54  55
ENDBRANCH  26  49
BRANCH  38  59
ATOM     59  C   UNL     1       9.997  11.010   4.938  1.00  0.00    -0.014 A 
ATOM     60  C   UNL     1       9.444  12.257   5.279  1.00  0.00     0.010 A 
ATOM     61  C   UNL     1      11.387  10.820   5.048  1.00  0.00     0.010 A 
ATOM     62  C   UNL     1      10.271  13.306   5.688  1.00  0.00     0.020 A 
ATOM     63  C   UNL     1      12.213  11.859   5.480  1.00  0.00     0.020 A 
ATOM     64  C   UNL     1      11.652  13.102   5.781  1.00  0.00     0.054 A 
BRANCH  64  65
ATOM     65  S   UNL     1      12.705  14.468   6.341  1.00  0.00     0.124 S 
ATOM     66  O   UNL     1      12.781  15.302   5.145  1.00  0.00    -0.237 OA
ATOM     67  O   UNL     1      11.940  15.031   7.452  1.00  0.00    -0.237 OA
ATOM     68  O   UNL     1      13.951  13.809   6.723  1.00  0.00    -0.744 OA
ENDBRANCH  64  65
ENDBRANCH  38  59
ENDBRANCH  12  13
ENDBRANCH   5   7
ENDBRANCH   2   3
ENDBRANCH   1   2
BRANCH   1  69
ATOM     69  C   UNL     1       4.562  -3.722   0.107  1.00  0.00     0.023 C 
BRANCH  69  70
ATOM     70  C   UNL     1       5.130  -3.837  -1.301  1.00  0.00     0.116 C 
BRANCH  70  71
ATOM     71  N   UNL     1       6.531  -4.233  -1.294  1.00  0.00    -0.356 N 
ATOM     72  C   UNL     1       7.081  -5.398  -1.765  1.00  0.00     0.227 C 
ATOM     73  H   UNL     1       7.161  -3.585  -0.902  1.00  0.00     0.163 HD
ATOM     74  O   UNL     1       8.283  -5.610  -1.626  1.00  0.00    -0.275 OA
BRANCH  72  75
ATOM     75  C   UNL     1       6.156  -6.347  -2.473  1.00  0.00     0.127 C 
ATOM     76  C   UNL     1       6.694  -7.787  -2.783  1.00  0.00     0.127 C 
ATOM     77  C   UNL     1       5.808  -5.817  -3.870  1.00  0.00     0.155 C 
ATOM     78  C   UNL     1       6.312  -7.876  -4.276  1.00  0.00     0.155 C 
ATOM     79  C   UNL     1       6.990  -5.779  -4.793  1.00  0.00     0.004 C 
ATOM     80  O   UNL     1       5.152  -7.006  -4.370  1.00  0.00    -0.365 OA
ATOM     81  C   UNL     1       7.296  -7.055  -5.057  1.00  0.00     0.004 C 
BRANCH  76  82
ATOM     82  C   UNL     1       6.032  -8.757  -1.805  1.00  0.00     0.231 C 
ATOM     83  O   UNL     1       5.740  -8.389  -0.660  1.00  0.00    -0.274 OA
ATOM     84  N   UNL     1       5.730 -10.051  -2.103  1.00  0.00    -0.325 N 
ATOM     85  H   UNL     1       5.225 -10.524  -1.402  1.00  0.00     0.169 HD
BRANCH  84  86
ATOM     86  C   UNL     1       6.014 -10.819  -3.230  1.00  0.00     0.048 A 
ATOM     87  C   UNL     1       4.967 -11.586  -3.751  1.00  0.00     0.026 A 
ATOM     88  C   UNL     1       7.251 -10.784  -3.873  1.00  0.00     0.111 A 
ATOM     89  C   UNL     1       5.106 -12.213  -4.989  1.00  0.00     0.009 A 
ATOM     90  C   UNL     1       7.384 -11.417  -5.116  1.00  0.00     0.271 A 
ATOM     91  C   UNL     1       6.310 -12.114  -5.686  1.00  0.00     0.086 A 
BRANCH  90  92
ATOM     92  N   UNL     1       8.640 -11.285  -5.863  1.00  0.00     0.062 N 
ATOM     93  O   UNL     1       8.718 -11.848  -6.963  1.00  0.00    -0.258 OA
ATOM     94  O   UNL     1       9.542 -10.605  -5.354  1.00  0.00    -0.258 OA
ENDBRANCH  90  92
ENDBRANCH  84  86
ENDBRANCH  76  82
ENDBRANCH  72  75
ENDBRANCH  70  71
ENDBRANCH  69  70
ENDBRANCH   1  69
TORSDOF 17
