REMARK SMILES Cc1ccc(NC(=O)[C@@H]2[C@@H](C(=O)NCCCCNC(=O)c3ccc(-c4c5nc(c(-c6ccc(S(=O)(=O)[O-])cc6)c6ccc([nH]6)c(-c6ccc(S(=O)(=O)[O-])cc6)c6nc(c(-c7ccc(S(=O)(=O)[O-])cc7)c7ccc4[nH]7)C=C6)C=C5)cc3)[C@@H]3C=C[C@H]2C3)cc1NC(=O)c1ccc(Cl)cc1
REMARK SMILES IDX 15 1 14 2 13 3 11 4 12 5 10 7 9 8 84 9 81 10 83 11 85 12
REMARK SMILES IDX 82 13 7 14 6 15 8 17 5 18 1 19 2 20 3 21 87 22 4 23 86 24
REMARK SMILES IDX 88 25 89 26 90 28 91 29 92 30 97 31 93 32 96 33 94 34 95 35
REMARK SMILES IDX 16 36 17 37 18 38 19 39 20 41 21 42 22 43 80 44 23 45 79 46
REMARK SMILES IDX 24 47 25 48 26 49 73 50 27 51 78 52 72 53 74 54 28 55 77 56
REMARK SMILES IDX 71 57 70 58 29 60 59 61 40 62 58 63 41 64 44 65 57 66 75 67
REMARK SMILES IDX 42 68 43 69 56 71 76 72 45 73 30 74 31 75 39 76 32 77 38 78
REMARK SMILES IDX 33 79 34 80 35 81 36 82 37 83 60 84 61 85 69 86 62 87 68 88
REMARK SMILES IDX 63 89 64 90 65 91 66 92 67 93 46 94 47 95 55 96 48 97 54 98
REMARK SMILES IDX 49 99 50 100 51 101 52 102 53 103
REMARK H PARENT 13 6 6 16 88 27 18 40 74 59 44 70
REMARK Flexibility Score: inf
ROOT
ATOM      1  C   UNL     1      -0.137  -7.031  -0.723  1.00  0.00     0.023 C 
ENDROOT
BRANCH   1   2
ATOM      2  C   UNL     1      -0.457  -5.546  -0.560  1.00  0.00     0.116 C 
BRANCH   2   3
ATOM      3  N   UNL     1      -1.429  -5.066  -1.534  1.00  0.00    -0.356 N 
ATOM      4  C   UNL     1      -2.701  -4.599  -1.474  1.00  0.00     0.224 C 
ATOM      5  O   UNL     1      -3.239  -4.401  -2.573  1.00  0.00    -0.275 OA
ATOM      6  H   UNL     1      -1.080  -5.085  -2.454  1.00  0.00     0.163 HD
BRANCH   4   7
ATOM      7  C   UNL     1      -3.456  -4.157  -0.211  1.00  0.00     0.098 C 
ATOM      8  C   UNL     1      -3.045  -2.722   0.184  1.00  0.00     0.099 C 
ATOM      9  C   UNL     1      -2.979  -2.772   1.732  1.00  0.00     0.025 C 
ATOM     10  C   UNL     1      -3.193  -4.913   1.120  1.00  0.00     0.025 C 
ATOM     11  C   UNL     1      -4.278  -3.289   2.324  1.00  0.00    -0.027 C 
ATOM     12  C   UNL     1      -2.168  -4.040   1.887  1.00  0.00     0.017 C 
ATOM     13  C   UNL     1      -4.386  -4.586   1.993  1.00  0.00    -0.027 C 
BRANCH   8  14
ATOM     14  C   UNL     1      -3.753  -1.454  -0.199  1.00  0.00     0.228 C 
ATOM     15  N   UNL     1      -3.021  -0.276  -0.218  1.00  0.00    -0.326 N 
ATOM     16  H   UNL     1      -3.584   0.531  -0.195  1.00  0.00     0.169 HD
ATOM     17  O   UNL     1      -4.968  -1.408  -0.395  1.00  0.00    -0.274 OA
BRANCH  15  18
ATOM     18  C   UNL     1      -1.625   0.014  -0.263  1.00  0.00     0.043 A 
ATOM     19  C   UNL     1       2.266   0.955  -1.819  1.00  0.00     0.046 C 
ATOM     20  C   UNL     1       0.988   0.711  -1.070  1.00  0.00    -0.027 A 
ATOM     21  C   UNL     1       0.669  -0.596  -0.732  1.00  0.00     0.008 A 
ATOM     22  C   UNL     1       0.077   1.715  -0.719  1.00  0.00     0.046 A 
ATOM     23  C   UNL     1      -0.584  -0.907  -0.222  1.00  0.00     0.026 A 
ATOM     24  C   UNL     1      -1.253   1.354  -0.443  1.00  0.00     0.052 A 
BRANCH  22  25
ATOM     25  N   UNL     1       0.558   3.033  -0.647  1.00  0.00    -0.322 N 
ATOM     26  C   UNL     1       0.131   4.160   0.010  1.00  0.00     0.255 C 
ATOM     27  H   UNL     1       1.372   3.180  -1.181  1.00  0.00     0.170 HD
ATOM     28  O   UNL     1       0.718   5.225  -0.192  1.00  0.00    -0.269 OA
BRANCH  26  29
ATOM     29  C   UNL     1      -0.977   4.174   0.991  1.00  0.00     0.040 A 
ATOM     30  C   UNL     1      -1.864   5.257   0.923  1.00  0.00     0.015 A 
ATOM     31  C   UNL     1      -1.115   3.228   2.014  1.00  0.00     0.015 A 
ATOM     32  C   UNL     1      -2.922   5.361   1.825  1.00  0.00     0.021 A 
ATOM     33  C   UNL     1      -2.191   3.321   2.906  1.00  0.00     0.021 A 
ATOM     34  C   UNL     1      -3.091   4.383   2.804  1.00  0.00     0.041 A 
ATOM     35  Cl  UNL     1      -4.414   4.498   3.898  1.00  0.00    -0.084 Cl
ENDBRANCH  26  29
ENDBRANCH  22  25
ENDBRANCH  15  18
ENDBRANCH   8  14
ENDBRANCH   4   7
ENDBRANCH   2   3
ENDBRANCH   1   2
BRANCH   1  36
ATOM     36  C   UNL     1       0.782  -7.364  -1.891  1.00  0.00     0.023 C 
BRANCH  36  37
ATOM     37  C   UNL     1       2.225  -6.911  -1.700  1.00  0.00     0.116 C 
BRANCH  37  38
ATOM     38  N   UNL     1       3.137  -7.947  -1.218  1.00  0.00    -0.352 N 
ATOM     39  C   UNL     1       4.523  -7.963  -1.259  1.00  0.00     0.251 C 
ATOM     40  H   UNL     1       2.712  -8.736  -0.812  1.00  0.00     0.163 HD
ATOM     41  O   UNL     1       5.192  -8.963  -1.001  1.00  0.00    -0.269 OA
BRANCH  39  42
ATOM     42  C   UNL     1       5.216  -6.676  -1.460  1.00  0.00     0.039 A 
ATOM     43  C   UNL     1       5.974  -6.199  -0.383  1.00  0.00     0.014 A 
ATOM     44  C   UNL     1       4.793  -5.827  -2.475  1.00  0.00     0.014 A 
ATOM     45  C   UNL     1       6.060  -4.832  -0.186  1.00  0.00     0.010 A 
ATOM     46  C   UNL     1       4.718  -4.487  -2.190  1.00  0.00     0.010 A 
ATOM     47  C   UNL     1       5.312  -4.006  -1.023  1.00  0.00    -0.014 A 
BRANCH  47  48
ATOM     48  C   UNL     1       5.167  -2.588  -0.773  1.00  0.00     0.031 A 
ATOM     49  C   UNL     1       6.083  -1.706  -1.514  1.00  0.00     0.074 A 
ATOM     50  C   UNL     1       4.237  -2.150   0.101  1.00  0.00     0.049 A 
ATOM     51  N   UNL     1       6.482  -0.557  -1.108  1.00  0.00    -0.248 NA
ATOM     52  C   UNL     1       6.694  -2.115  -2.779  1.00  0.00     0.031 C 
ATOM     53  C   UNL     1       3.926  -0.765   0.433  1.00  0.00     0.029 A 
ATOM     54  N   UNL     1       3.507  -2.891   1.036  1.00  0.00    -0.354 N 
ATOM     55  C   UNL     1       7.167   0.030  -2.149  1.00  0.00     0.074 A 
ATOM     56  C   UNL     1       7.356  -1.011  -3.125  1.00  0.00     0.031 C 
ATOM     57  C   UNL     1       3.293  -0.730   1.618  1.00  0.00     0.029 A 
ATOM     58  C   UNL     1       3.372  -2.075   2.167  1.00  0.00     0.049 A 
ATOM     59  H   UNL     1       3.157  -3.805   0.922  1.00  0.00     0.167 HD
ATOM     60  C   UNL     1       7.359   1.377  -2.137  1.00  0.00     0.031 A 
ATOM     61  C   UNL     1       3.994  -2.370   3.346  1.00  0.00     0.031 A 
ATOM     62  C   UNL     1       6.860   1.946  -0.885  1.00  0.00     0.049 A 
ATOM     63  C   UNL     1       5.042  -1.315   3.671  1.00  0.00     0.074 A 
ATOM     64  C   UNL     1       5.682   2.594  -0.558  1.00  0.00     0.029 A 
ATOM     65  N   UNL     1       7.426   1.528   0.320  1.00  0.00    -0.354 N 
ATOM     66  N   UNL     1       5.679  -0.602   2.773  1.00  0.00    -0.248 NA
ATOM     67  C   UNL     1       5.352  -0.899   5.034  1.00  0.00     0.031 C 
ATOM     68  C   UNL     1       5.472   2.434   0.840  1.00  0.00     0.029 A 
ATOM     69  C   UNL     1       6.549   1.739   1.370  1.00  0.00     0.049 A 
ATOM     70  H   UNL     1       8.325   1.137   0.411  1.00  0.00     0.167 HD
ATOM     71  C   UNL     1       6.351   0.423   3.397  1.00  0.00     0.074 A 
ATOM     72  C   UNL     1       6.152   0.161   4.815  1.00  0.00     0.031 C 
ATOM     73  C   UNL     1       6.957   1.463   2.743  1.00  0.00     0.031 A 
BRANCH  60  74
ATOM     74  C   UNL     1       7.663   2.156  -3.398  1.00  0.00    -0.014 A 
ATOM     75  C   UNL     1       7.178   3.471  -3.538  1.00  0.00     0.010 A 
ATOM     76  C   UNL     1       8.351   1.630  -4.512  1.00  0.00     0.010 A 
ATOM     77  C   UNL     1       7.286   4.180  -4.745  1.00  0.00     0.020 A 
ATOM     78  C   UNL     1       8.430   2.308  -5.738  1.00  0.00     0.020 A 
ATOM     79  C   UNL     1       7.889   3.583  -5.849  1.00  0.00     0.054 A 
BRANCH  79  80
ATOM     80  S   UNL     1       7.976   4.494  -7.413  1.00  0.00     0.124 S 
ATOM     81  O   UNL     1       6.570   4.773  -7.694  1.00  0.00    -0.237 OA
ATOM     82  O   UNL     1       8.790   5.651  -7.054  1.00  0.00    -0.237 OA
ATOM     83  O   UNL     1       8.611   3.550  -8.331  1.00  0.00    -0.744 OA
ENDBRANCH  79  80
ENDBRANCH  60  74
BRANCH  61  84
ATOM     84  C   UNL     1       4.004  -3.822   3.693  1.00  0.00    -0.014 A 
ATOM     85  C   UNL     1       2.767  -4.399   4.065  1.00  0.00     0.010 A 
ATOM     86  C   UNL     1       5.034  -4.684   3.277  1.00  0.00     0.010 A 
ATOM     87  C   UNL     1       2.518  -5.767   3.891  1.00  0.00     0.020 A 
ATOM     88  C   UNL     1       4.785  -6.058   3.093  1.00  0.00     0.020 A 
ATOM     89  C   UNL     1       3.511  -6.577   3.346  1.00  0.00     0.054 A 
BRANCH  89  90
ATOM     90  S   UNL     1       3.083  -8.287   2.890  1.00  0.00     0.124 S 
ATOM     91  O   UNL     1       2.369  -8.762   4.072  1.00  0.00    -0.237 OA
ATOM     92  O   UNL     1       2.257  -8.086   1.700  1.00  0.00    -0.237 OA
ATOM     93  O   UNL     1       4.380  -8.908   2.652  1.00  0.00    -0.744 OA
ENDBRANCH  89  90
ENDBRANCH  61  84
BRANCH  73  94
ATOM     94  C   UNL     1       7.946   2.439   3.353  1.00  0.00    -0.014 A 
ATOM     95  C   UNL     1       8.656   2.203   4.537  1.00  0.00     0.010 A 
ATOM     96  C   UNL     1       8.319   3.588   2.605  1.00  0.00     0.010 A 
ATOM     97  C   UNL     1       9.656   3.085   4.972  1.00  0.00     0.020 A 
ATOM     98  C   UNL     1       9.351   4.439   2.998  1.00  0.00     0.020 A 
ATOM     99  C   UNL     1      10.003   4.191   4.195  1.00  0.00     0.054 A 
BRANCH  99 100
ATOM    100  S   UNL     1      11.371   5.254   4.710  1.00  0.00     0.124 S 
ATOM    101  O   UNL     1      10.706   6.173   5.629  1.00  0.00    -0.237 OA
ATOM    102  O   UNL     1      12.299   4.309   5.330  1.00  0.00    -0.237 OA
ATOM    103  O   UNL     1      11.839   5.843   3.458  1.00  0.00    -0.744 OA
ENDBRANCH  99 100
ENDBRANCH  73  94
ENDBRANCH  47  48
ENDBRANCH  39  42
ENDBRANCH  37  38
ENDBRANCH  36  37
ENDBRANCH   1  36
TORSDOF 18
