REMARK SMILES O=C(NCCCCNC(=O)[C@@H]1[C@H]2C=C[C@H]3C=C[C@@H]1[C@H]32)c1ccc(-c2c3nc(c(-c4ccc(S(=O)(=O)[O-])cc4)c4ccc([nH]4)c(-c4ccc(S(=O)(=O)[O-])cc4)c4nc(c(-c5ccc(S(=O)(=O)[O-])cc5)c5ccc2[nH]5)C=C4)C=C3)cc1
REMARK SMILES IDX 4 1 3 2 1 3 2 4 20 6 21 7 79 8 22 9 78 10 23 11 24 12 25 13
REMARK SMILES IDX 72 14 26 15 77 16 71 17 73 18 27 19 76 20 70 21 69 22 28 24
REMARK SMILES IDX 58 25 39 26 57 27 40 28 43 29 56 30 74 31 41 32 42 33 55 35
REMARK SMILES IDX 75 36 44 37 29 38 30 39 38 40 31 41 37 42 32 43 33 44 34 45
REMARK SMILES IDX 35 46 36 47 59 48 60 49 68 50 61 51 67 52 62 53 63 54 64 55
REMARK SMILES IDX 65 56 66 57 45 58 46 59 54 60 47 61 53 62 48 63 49 64 50 65
REMARK SMILES IDX 51 66 52 67 5 68 6 69 7 70 8 71 9 72 10 74 11 75 18 76 12 77
REMARK SMILES IDX 17 78 19 79 13 80 16 81 15 82 14 83
REMARK H PARENT 3 5 73 23 43 34 8 73
REMARK Flexibility Score: inf
ROOT
ATOM      1  C   UNL     1       4.647  -1.324   0.546  1.00  0.00     0.116 C 
ENDROOT
BRANCH   1   2
ATOM      2  N   UNL     1       3.211  -1.228   0.331  1.00  0.00    -0.352 N 
ATOM      3  O   UNL     1       1.217  -0.253  -0.035  1.00  0.00    -0.269 OA
ATOM      4  C   UNL     1       2.442  -0.154  -0.053  1.00  0.00     0.251 C 
ATOM      5  H   UNL     1       2.712  -2.062   0.485  1.00  0.00     0.163 HD
BRANCH   4   6
ATOM      6  C   UNL     1       3.073   1.125  -0.457  1.00  0.00     0.039 A 
ATOM      7  C   UNL     1       4.181   1.150  -1.306  1.00  0.00     0.014 A 
ATOM      8  C   UNL     1       2.528   2.326   0.007  1.00  0.00     0.014 A 
ATOM      9  C   UNL     1       4.837   2.353  -1.558  1.00  0.00     0.010 A 
ATOM     10  C   UNL     1       3.140   3.543  -0.316  1.00  0.00     0.010 A 
ATOM     11  C   UNL     1       4.324   3.564  -1.069  1.00  0.00    -0.014 A 
BRANCH  11  12
ATOM     12  C   UNL     1       5.015   4.842  -1.385  1.00  0.00     0.031 A 
ATOM     13  C   UNL     1       5.635   5.680  -0.296  1.00  0.00     0.074 A 
ATOM     14  C   UNL     1       5.100   5.244  -2.668  1.00  0.00     0.049 A 
ATOM     15  N   UNL     1       6.275   6.817  -0.398  1.00  0.00    -0.248 NA
ATOM     16  C   UNL     1       5.516   5.180   1.082  1.00  0.00     0.031 C 
ATOM     17  C   UNL     1       4.541   4.523  -3.815  1.00  0.00     0.029 A 
ATOM     18  N   UNL     1       5.695   6.346  -3.228  1.00  0.00    -0.354 N 
ATOM     19  C   UNL     1       6.617   7.181   0.900  1.00  0.00     0.074 A 
ATOM     20  C   UNL     1       6.092   6.154   1.775  1.00  0.00     0.031 C 
ATOM     21  C   UNL     1       4.851   5.181  -4.941  1.00  0.00     0.029 A 
ATOM     22  C   UNL     1       5.576   6.399  -4.596  1.00  0.00     0.049 A 
ATOM     23  H   UNL     1       6.162   7.033  -2.700  1.00  0.00     0.167 HD
ATOM     24  C   UNL     1       7.309   8.268   1.325  1.00  0.00     0.031 A 
ATOM     25  C   UNL     1       5.985   7.330  -5.479  1.00  0.00     0.031 A 
ATOM     26  C   UNL     1       7.828   9.290   0.453  1.00  0.00     0.049 A 
ATOM     27  C   UNL     1       6.720   8.541  -4.982  1.00  0.00     0.074 A 
ATOM     28  C   UNL     1       8.565  10.413   0.788  1.00  0.00     0.029 A 
ATOM     29  N   UNL     1       7.661   9.319  -0.923  1.00  0.00    -0.354 N 
ATOM     30  N   UNL     1       7.058   8.850  -3.753  1.00  0.00    -0.248 NA
ATOM     31  C   UNL     1       7.131   9.527  -5.990  1.00  0.00     0.031 C 
ATOM     32  C   UNL     1       8.800  11.148  -0.380  1.00  0.00     0.029 A 
ATOM     33  C   UNL     1       8.259  10.453  -1.450  1.00  0.00     0.049 A 
ATOM     34  H   UNL     1       7.186   8.636  -1.449  1.00  0.00     0.167 HD
ATOM     35  C   UNL     1       7.739  10.058  -3.842  1.00  0.00     0.074 A 
ATOM     36  C   UNL     1       7.778  10.414  -5.246  1.00  0.00     0.031 C 
ATOM     37  C   UNL     1       8.286  10.801  -2.849  1.00  0.00     0.031 A 
BRANCH  24  38
ATOM     38  C   UNL     1       7.516   8.425   2.810  1.00  0.00    -0.014 A 
ATOM     39  C   UNL     1       8.401   7.591   3.517  1.00  0.00     0.010 A 
ATOM     40  C   UNL     1       6.840   9.446   3.503  1.00  0.00     0.010 A 
ATOM     41  C   UNL     1       8.570   7.744   4.896  1.00  0.00     0.020 A 
ATOM     42  C   UNL     1       7.026   9.620   4.878  1.00  0.00     0.020 A 
ATOM     43  C   UNL     1       7.874   8.753   5.570  1.00  0.00     0.054 A 
BRANCH  43  44
ATOM     44  S   UNL     1       8.110   8.931   7.360  1.00  0.00     0.124 S 
ATOM     45  O   UNL     1       7.354   7.792   7.876  1.00  0.00    -0.237 OA
ATOM     46  O   UNL     1       9.561   8.838   7.505  1.00  0.00    -0.237 OA
ATOM     47  O   UNL     1       7.540  10.242   7.658  1.00  0.00    -0.744 OA
ENDBRANCH  43  44
ENDBRANCH  24  38
BRANCH  25  48
ATOM     48  C   UNL     1       5.692   7.143  -6.925  1.00  0.00    -0.014 A 
ATOM     49  C   UNL     1       6.720   6.825  -7.829  1.00  0.00     0.010 A 
ATOM     50  C   UNL     1       4.369   7.235  -7.396  1.00  0.00     0.010 A 
ATOM     51  C   UNL     1       6.430   6.605  -9.178  1.00  0.00     0.020 A 
ATOM     52  C   UNL     1       4.072   6.988  -8.738  1.00  0.00     0.020 A 
ATOM     53  C   UNL     1       5.107   6.682  -9.623  1.00  0.00     0.054 A 
BRANCH  53  54
ATOM     54  S   UNL     1       4.744   6.317 -11.363  1.00  0.00     0.124 S 
ATOM     55  O   UNL     1       5.218   7.524 -12.031  1.00  0.00    -0.237 OA
ATOM     56  O   UNL     1       5.530   5.109 -11.603  1.00  0.00    -0.237 OA
ATOM     57  O   UNL     1       3.296   6.120 -11.375  1.00  0.00    -0.744 OA
ENDBRANCH  53  54
ENDBRANCH  25  48
BRANCH  37  58
ATOM     58  C   UNL     1       9.002  12.064  -3.246  1.00  0.00    -0.014 A 
ATOM     59  C   UNL     1       8.293  13.204  -3.664  1.00  0.00     0.010 A 
ATOM     60  C   UNL     1      10.404  12.124  -3.150  1.00  0.00     0.010 A 
ATOM     61  C   UNL     1       8.977  14.374  -4.006  1.00  0.00     0.020 A 
ATOM     62  C   UNL     1      11.089  13.300  -3.467  1.00  0.00     0.020 A 
ATOM     63  C   UNL     1      10.372  14.414  -3.906  1.00  0.00     0.054 A 
BRANCH  63  64
ATOM     64  S   UNL     1      11.234  15.958  -4.311  1.00  0.00     0.124 S 
ATOM     65  O   UNL     1      11.164  15.971  -5.769  1.00  0.00    -0.237 OA
ATOM     66  O   UNL     1      10.423  16.966  -3.633  1.00  0.00    -0.237 OA
ATOM     67  O   UNL     1      12.570  15.764  -3.753  1.00  0.00    -0.744 OA
ENDBRANCH  63  64
ENDBRANCH  37  58
ENDBRANCH  11  12
ENDBRANCH   4   6
ENDBRANCH   1   2
BRANCH   1  68
ATOM     68  C   UNL     1       5.014  -1.647   1.991  1.00  0.00     0.023 C 
BRANCH  68  69
ATOM     69  C   UNL     1       4.567  -3.019   2.500  1.00  0.00     0.023 C 
BRANCH  69  70
ATOM     70  C   UNL     1       5.017  -4.217   1.669  1.00  0.00     0.116 C 
BRANCH  70  71
ATOM     71  N   UNL     1       6.454  -4.335   1.542  1.00  0.00    -0.356 N 
ATOM     72  C   UNL     1       7.193  -5.479   1.335  1.00  0.00     0.224 C 
ATOM     73  H   UNL     1       6.965  -3.497   1.612  1.00  0.00     0.163 HD
ATOM     74  O   UNL     1       8.411  -5.335   1.185  1.00  0.00    -0.275 OA
BRANCH  72  75
ATOM     75  C   UNL     1       6.475  -6.858   1.325  1.00  0.00     0.093 C 
ATOM     76  C   UNL     1       5.291  -7.073   0.328  1.00  0.00     0.029 C 
ATOM     77  C   UNL     1       7.251  -8.017   0.609  1.00  0.00     0.029 C 
ATOM     78  C   UNL     1       4.069  -7.705   0.889  1.00  0.00    -0.026 C 
ATOM     79  C   UNL     1       6.067  -8.208  -0.356  1.00  0.00     0.015 C 
ATOM     80  C   UNL     1       7.371  -9.305   1.341  1.00  0.00    -0.026 C 
ATOM     81  C   UNL     1       4.121  -9.037   0.743  1.00  0.00    -0.023 C 
ATOM     82  C   UNL     1       5.374  -9.516   0.066  1.00  0.00     0.038 C 
ATOM     83  C   UNL     1       6.351 -10.119   1.034  1.00  0.00    -0.023 C 
ENDBRANCH  72  75
ENDBRANCH  70  71
ENDBRANCH  69  70
ENDBRANCH  68  69
ENDBRANCH   1  68
TORSDOF 14
