REMARK SMILES CCN(CC)c1ncc(NC(=O)c2ccc(C)cc2)cc1C(=O)NCCCCNC(=O)c1ccc(-c2c3nc(c(-c4ccc(S(=O)(=O)[O-])cc4)c4ccc([nH]4)c(-c4ccc(S(=O)(=O)[O-])cc4)c4nc(c(-c5ccc(S(=O)(=O)[O-])cc5)c5ccc2[nH]5)C=C4)C=C3)cc1
REMARK SMILES IDX 27 1 26 2 25 3 24 4 22 5 23 6 21 8 6 9 7 10 8 11 20 12 9 13
REMARK SMILES IDX 3 14 2 15 1 16 4 17 5 18 10 19 11 20 12 22 13 23 14 24 19 25
REMARK SMILES IDX 15 26 18 27 16 28 17 29 28 30 29 31 30 32 31 34 32 35 33 36
REMARK SMILES IDX 91 37 34 38 90 39 35 40 36 41 37 42 84 43 38 44 89 45 83 46
REMARK SMILES IDX 85 47 39 48 88 49 82 50 81 51 40 53 70 54 51 55 69 56 52 57
REMARK SMILES IDX 55 58 68 59 86 60 53 61 54 62 67 64 87 65 56 66 41 67 42 68
REMARK SMILES IDX 50 69 43 70 49 71 44 72 45 73 46 74 47 75 48 76 71 77 72 78
REMARK SMILES IDX 80 79 73 80 79 81 74 82 75 83 76 84 77 85 78 86 57 87 58 88
REMARK SMILES IDX 66 89 59 90 65 91 60 92 61 93 62 94 63 95 64 96
REMARK H PARENT 24 7 10 21 29 33 85 52 55 63
REMARK Flexibility Score: inf
ROOT
ATOM      1  C   UNL     1       5.306  -0.451   2.967  1.00  0.00     0.023 C 
ENDROOT
BRANCH   1   2
ATOM      2  C   UNL     1       5.824  -0.500   1.523  1.00  0.00     0.023 C 
BRANCH   2   3
ATOM      3  C   UNL     1       5.386  -1.698   0.675  1.00  0.00     0.116 C 
BRANCH   3   4
ATOM      4  N   UNL     1       3.960  -1.764   0.350  1.00  0.00    -0.352 N 
ATOM      5  C   UNL     1       3.142  -1.428  -0.711  1.00  0.00     0.255 C 
ATOM      6  O   UNL     1       2.025  -1.952  -0.687  1.00  0.00    -0.269 OA
ATOM      7  H   UNL     1       3.443  -2.156   1.090  1.00  0.00     0.163 HD
BRANCH   5   8
ATOM      8  C   UNL     1       3.500  -0.517  -1.842  1.00  0.00     0.084 A 
ATOM      9  C   UNL     1       2.518   0.203  -2.565  1.00  0.00     0.141 A 
ATOM     10  N   UNL     1       2.851   0.908  -3.681  1.00  0.00    -0.236 NA
ATOM     11  C   UNL     1       4.136   0.945  -4.090  1.00  0.00     0.139 A 
ATOM     12  C   UNL     1       4.818  -0.450  -2.317  1.00  0.00     0.045 A 
ATOM     13  C   UNL     1       5.169   0.337  -3.413  1.00  0.00     0.060 A 
BRANCH   9  14
ATOM     14  N   UNL     1       1.173   0.276  -2.231  1.00  0.00    -0.357 N 
BRANCH  14  15
ATOM     15  C   UNL     1       0.768   1.238  -1.210  1.00  0.00     0.114 C 
ATOM     16  C   UNL     1       0.636   0.605   0.164  1.00  0.00     0.027 C 
ENDBRANCH  14  15
BRANCH  14  17
ATOM     17  C   UNL     1       0.202  -0.070  -3.276  1.00  0.00     0.114 C 
ATOM     18  C   UNL     1      -0.053   1.049  -4.285  1.00  0.00     0.027 C 
ENDBRANCH  14  17
ENDBRANCH   9  14
BRANCH  13  19
ATOM     19  N   UNL     1       6.530   0.399  -3.761  1.00  0.00    -0.321 N 
ATOM     20  C   UNL     1       7.244   1.236  -4.588  1.00  0.00     0.255 C 
ATOM     21  H   UNL     1       7.080  -0.292  -3.327  1.00  0.00     0.170 HD
ATOM     22  O   UNL     1       8.377   0.903  -4.936  1.00  0.00    -0.269 OA
BRANCH  20  23
ATOM     23  C   UNL     1       6.740   2.559  -5.030  1.00  0.00     0.040 A 
ATOM     24  C   UNL     1       7.097   2.999  -6.311  1.00  0.00     0.014 A 
ATOM     25  C   UNL     1       6.007   3.405  -4.193  1.00  0.00     0.014 A 
ATOM     26  C   UNL     1       6.658   4.240  -6.776  1.00  0.00     0.004 A 
ATOM     27  C   UNL     1       5.543   4.635  -4.671  1.00  0.00     0.004 A 
ATOM     28  C   UNL     1       5.851   5.052  -5.972  1.00  0.00    -0.051 A 
ATOM     29  C   UNL     1       5.375   6.380  -6.483  1.00  0.00     0.044 C 
ENDBRANCH  20  23
ENDBRANCH  13  19
ENDBRANCH   5   8
ENDBRANCH   3   4
ENDBRANCH   2   3
ENDBRANCH   1   2
BRANCH   1  30
ATOM     30  C   UNL     1       5.540  -1.703   3.800  1.00  0.00     0.116 C 
BRANCH  30  31
ATOM     31  N   UNL     1       6.886  -1.937   4.301  1.00  0.00    -0.352 N 
ATOM     32  C   UNL     1       7.090  -2.888   5.310  1.00  0.00     0.251 C 
ATOM     33  H   UNL     1       7.647  -1.432   3.934  1.00  0.00     0.163 HD
ATOM     34  O   UNL     1       7.407  -2.637   6.454  1.00  0.00    -0.269 OA
BRANCH  32  35
ATOM     35  C   UNL     1       6.790  -4.279   4.888  1.00  0.00     0.039 A 
ATOM     36  C   UNL     1       7.815  -5.157   4.532  1.00  0.00     0.014 A 
ATOM     37  C   UNL     1       5.457  -4.585   4.618  1.00  0.00     0.014 A 
ATOM     38  C   UNL     1       7.511  -6.267   3.740  1.00  0.00     0.010 A 
ATOM     39  C   UNL     1       5.177  -5.606   3.740  1.00  0.00     0.010 A 
ATOM     40  C   UNL     1       6.206  -6.429   3.273  1.00  0.00    -0.014 A 
BRANCH  40  41
ATOM     41  C   UNL     1       5.797  -7.392   2.259  1.00  0.00     0.031 A 
ATOM     42  C   UNL     1       5.035  -8.598   2.659  1.00  0.00     0.074 A 
ATOM     43  C   UNL     1       5.959  -7.096   0.949  1.00  0.00     0.049 A 
ATOM     44  N   UNL     1       4.963  -9.682   1.961  1.00  0.00    -0.248 NA
ATOM     45  C   UNL     1       4.295  -8.679   3.917  1.00  0.00     0.031 C 
ATOM     46  C   UNL     1       5.328  -7.766  -0.186  1.00  0.00     0.029 A 
ATOM     47  N   UNL     1       6.893  -6.245   0.352  1.00  0.00    -0.354 N 
ATOM     48  C   UNL     1       3.935 -10.435   2.487  1.00  0.00     0.074 A 
ATOM     49  C   UNL     1       3.615  -9.817   3.751  1.00  0.00     0.031 C 
ATOM     50  C   UNL     1       6.078  -7.555  -1.279  1.00  0.00     0.029 A 
ATOM     51  C   UNL     1       7.287  -6.880  -0.837  1.00  0.00     0.049 A 
ATOM     52  H   UNL     1       7.209  -5.378   0.695  1.00  0.00     0.167 HD
ATOM     53  C   UNL     1       3.342 -11.400   1.730  1.00  0.00     0.031 A 
ATOM     54  C   UNL     1       8.560  -7.319  -1.076  1.00  0.00     0.031 A 
ATOM     55  C   UNL     1       3.977 -11.526   0.421  1.00  0.00     0.049 A 
ATOM     56  C   UNL     1       8.627  -8.809  -1.348  1.00  0.00     0.074 A 
ATOM     57  C   UNL     1       3.634 -11.066  -0.839  1.00  0.00     0.029 A 
ATOM     58  N   UNL     1       5.303 -11.934   0.344  1.00  0.00    -0.354 N 
ATOM     59  N   UNL     1       7.668  -9.647  -1.063  1.00  0.00    -0.248 NA
ATOM     60  C   UNL     1       9.785  -9.479  -1.932  1.00  0.00     0.031 C 
ATOM     61  C   UNL     1       4.789 -11.132  -1.660  1.00  0.00     0.029 A 
ATOM     62  C   UNL     1       5.823 -11.655  -0.905  1.00  0.00     0.049 A 
ATOM     63  H   UNL     1       5.802 -12.362   1.077  1.00  0.00     0.167 HD
ATOM     64  C   UNL     1       8.037 -10.921  -1.413  1.00  0.00     0.074 A 
ATOM     65  C   UNL     1       9.373 -10.761  -1.959  1.00  0.00     0.031 C 
ATOM     66  C   UNL     1       7.207 -11.990  -1.219  1.00  0.00     0.031 A 
BRANCH  53  67
ATOM     67  C   UNL     1       1.995 -11.998   2.071  1.00  0.00    -0.014 A 
ATOM     68  C   UNL     1       1.109 -12.357   1.034  1.00  0.00     0.010 A 
ATOM     69  C   UNL     1       1.526 -12.191   3.385  1.00  0.00     0.010 A 
ATOM     70  C   UNL     1      -0.202 -12.787   1.286  1.00  0.00     0.020 A 
ATOM     71  C   UNL     1       0.204 -12.586   3.654  1.00  0.00     0.020 A 
ATOM     72  C   UNL     1      -0.657 -12.873   2.599  1.00  0.00     0.054 A 
BRANCH  72  73
ATOM     73  S   UNL     1      -2.377 -13.360   2.899  1.00  0.00     0.124 S 
ATOM     74  O   UNL     1      -3.125 -12.380   2.115  1.00  0.00    -0.237 OA
ATOM     75  O   UNL     1      -2.408 -14.728   2.391  1.00  0.00    -0.237 OA
ATOM     76  O   UNL     1      -2.526 -13.231   4.348  1.00  0.00    -0.744 OA
ENDBRANCH  72  73
ENDBRANCH  53  67
BRANCH  54  77
ATOM     77  C   UNL     1       9.617  -6.517  -0.395  1.00  0.00    -0.014 A 
ATOM     78  C   UNL     1       9.819  -5.198  -0.857  1.00  0.00     0.010 A 
ATOM     79  C   UNL     1      10.036  -6.853   0.904  1.00  0.00     0.010 A 
ATOM     80  C   UNL     1      10.226  -4.192   0.024  1.00  0.00     0.020 A 
ATOM     81  C   UNL     1      10.457  -5.845   1.786  1.00  0.00     0.020 A 
ATOM     82  C   UNL     1      10.460  -4.513   1.360  1.00  0.00     0.054 A 
BRANCH  82  83
ATOM     83  S   UNL     1      10.549  -3.148   2.561  1.00  0.00     0.124 S 
ATOM     84  O   UNL     1      11.585  -2.294   1.992  1.00  0.00    -0.237 OA
ATOM     85  O   UNL     1       9.185  -2.611   2.512  1.00  0.00    -0.237 OA
ATOM     86  O   UNL     1      10.900  -3.821   3.807  1.00  0.00    -0.744 OA
ENDBRANCH  82  83
ENDBRANCH  54  77
BRANCH  66  87
ATOM     87  C   UNL     1       7.556 -13.457  -1.372  1.00  0.00    -0.014 A 
ATOM     88  C   UNL     1       8.860 -13.969  -1.412  1.00  0.00     0.010 A 
ATOM     89  C   UNL     1       6.503 -14.409  -1.360  1.00  0.00     0.010 A 
ATOM     90  C   UNL     1       9.102 -15.350  -1.492  1.00  0.00     0.020 A 
ATOM     91  C   UNL     1       6.732 -15.788  -1.390  1.00  0.00     0.020 A 
ATOM     92  C   UNL     1       8.036 -16.251  -1.482  1.00  0.00     0.054 A 
BRANCH  92  93
ATOM     93  S   UNL     1       8.365 -18.030  -1.518  1.00  0.00     0.124 S 
ATOM     94  O   UNL     1       8.507 -18.281  -2.950  1.00  0.00    -0.237 OA
ATOM     95  O   UNL     1       9.595 -18.150  -0.737  1.00  0.00    -0.237 OA
ATOM     96  O   UNL     1       7.181 -18.612  -0.893  1.00  0.00    -0.744 OA
ENDBRANCH  92  93
ENDBRANCH  66  87
ENDBRANCH  40  41
ENDBRANCH  32  35
ENDBRANCH  30  31
ENDBRANCH   1  30
TORSDOF 19
