REMARK SMILES Cc1cc(C(=O)NCCCCNC(=O)c2ccc(-c3c4nc(c(-c5ccc(S(=O)(=O)[O-])cc5)c5ccc([nH]5)c(-c5ccc(S(=O)(=O)[O-])cc5)c5nc(c(-c6ccc(S(=O)(=O)[O-])cc6)c6ccc3[nH]6)C=C5)C=C4)cc2)ccc1NS(=O)(=O)c1c(F)cccc1F
REMARK SMILES IDX 9 1 8 2 7 3 5 4 6 5 4 7 1 8 2 9 3 10 77 11 76 12 75 13 78 14
REMARK SMILES IDX 79 16 80 17 81 18 82 19 83 20 88 21 84 22 85 23 87 24 89 25
REMARK SMILES IDX 86 26 10 27 11 28 12 29 13 30 14 32 15 33 16 34 74 35 17 36
REMARK SMILES IDX 73 37 18 38 19 39 20 40 67 41 21 42 72 43 66 44 68 45 22 46
REMARK SMILES IDX 71 47 65 48 64 49 23 51 53 52 34 53 52 54 35 55 38 56 51 57
REMARK SMILES IDX 69 58 36 59 37 60 50 62 70 63 39 64 24 65 25 66 33 67 26 68
REMARK SMILES IDX 32 69 27 70 28 71 29 72 30 73 31 74 54 75 55 76 63 77 56 78
REMARK SMILES IDX 62 79 57 80 58 81 59 82 60 83 61 84 40 85 41 86 49 87 42 88
REMARK SMILES IDX 48 89 43 90 44 91 45 92 46 93 47 94
REMARK H PARENT 7 6 78 15 12 31 68 50 38 61
REMARK Flexibility Score: inf
ROOT
ATOM      1  C   UNL     1      -4.723  -1.022  -1.387  1.00  0.00     0.023 C 
ENDROOT
BRANCH   1   2
ATOM      2  C   UNL     1      -4.163  -1.362   0.002  1.00  0.00     0.116 C 
BRANCH   2   3
ATOM      3  N   UNL     1      -3.141  -2.404   0.004  1.00  0.00    -0.352 N 
ATOM      4  C   UNL     1      -1.784  -2.402   0.224  1.00  0.00     0.251 C 
ATOM      5  O   UNL     1      -1.177  -3.470   0.129  1.00  0.00    -0.269 OA
ATOM      6  H   UNL     1      -3.500  -3.299  -0.195  1.00  0.00     0.163 HD
BRANCH   4   7
ATOM      7  C   UNL     1      -0.999  -1.162   0.469  1.00  0.00     0.040 A 
ATOM      8  C   UNL     1       2.463   0.058  -0.509  1.00  0.00     0.046 C 
ATOM      9  C   UNL     1       1.027   0.095  -0.062  1.00  0.00    -0.026 A 
ATOM     10  C   UNL     1       0.296  -1.104  -0.065  1.00  0.00     0.019 A 
ATOM     11  C   UNL     1       0.394   1.260   0.394  1.00  0.00     0.052 A 
ATOM     12  C   UNL     1      -0.745   1.134   1.189  1.00  0.00     0.028 A 
ATOM     13  C   UNL     1      -1.442  -0.082   1.226  1.00  0.00     0.016 A 
BRANCH  11  14
ATOM     14  N   UNL     1       0.882   2.509  -0.098  1.00  0.00    -0.279 N 
ATOM     15  H   UNL     1       1.718   2.480  -0.616  1.00  0.00     0.180 HD
BRANCH  14  16
ATOM     16  S   UNL     1       0.184   4.017   0.111  1.00  0.00     0.267 S 
ATOM     17  O   UNL     1       0.362   4.347   1.510  1.00  0.00    -0.201 OA
ATOM     18  O   UNL     1       0.762   4.846  -0.928  1.00  0.00    -0.201 OA
BRANCH  16  19
ATOM     19  C   UNL     1      -1.534   3.929  -0.216  1.00  0.00     0.158 A 
ATOM     20  C   UNL     1      -2.369   4.813   0.462  1.00  0.00     0.146 A 
ATOM     21  C   UNL     1      -2.099   2.955  -1.026  1.00  0.00     0.146 A 
ATOM     22  F   UNL     1      -1.867   5.831   1.174  1.00  0.00    -0.205 F 
ATOM     23  C   UNL     1      -3.754   4.673   0.407  1.00  0.00     0.041 A 
ATOM     24  C   UNL     1      -3.485   2.789  -1.068  1.00  0.00     0.041 A 
ATOM     25  F   UNL     1      -1.342   2.135  -1.767  1.00  0.00    -0.205 F 
ATOM     26  C   UNL     1      -4.316   3.637  -0.335  1.00  0.00     0.006 A 
ENDBRANCH  16  19
ENDBRANCH  14  16
ENDBRANCH  11  14
ENDBRANCH   4   7
ENDBRANCH   2   3
ENDBRANCH   1   2
BRANCH   1  27
ATOM     27  C   UNL     1      -5.566  -2.108  -2.061  1.00  0.00     0.023 C 
BRANCH  27  28
ATOM     28  C   UNL     1      -6.847  -2.461  -1.308  1.00  0.00     0.116 C 
BRANCH  28  29
ATOM     29  N   UNL     1      -8.083  -2.019  -1.936  1.00  0.00    -0.352 N 
ATOM     30  C   UNL     1      -9.387  -2.357  -1.575  1.00  0.00     0.251 C 
ATOM     31  H   UNL     1      -7.987  -1.412  -2.704  1.00  0.00     0.163 HD
ATOM     32  O   UNL     1     -10.326  -2.209  -2.320  1.00  0.00    -0.269 OA
BRANCH  30  33
ATOM     33  C   UNL     1      -9.599  -2.776  -0.166  1.00  0.00     0.039 A 
ATOM     34  C   UNL     1     -10.340  -1.912   0.650  1.00  0.00     0.014 A 
ATOM     35  C   UNL     1      -8.841  -3.803   0.384  1.00  0.00     0.014 A 
ATOM     36  C   UNL     1     -10.151  -1.942   2.030  1.00  0.00     0.010 A 
ATOM     37  C   UNL     1      -8.566  -3.756   1.734  1.00  0.00     0.010 A 
ATOM     38  C   UNL     1      -9.179  -2.792   2.549  1.00  0.00    -0.014 A 
BRANCH  38  39
ATOM     39  C   UNL     1      -8.659  -2.714   3.909  1.00  0.00     0.031 A 
ATOM     40  C   UNL     1      -8.978  -3.787   4.878  1.00  0.00     0.074 A 
ATOM     41  C   UNL     1      -7.743  -1.767   4.216  1.00  0.00     0.049 A 
ATOM     42  N   UNL     1      -8.814  -3.701   6.155  1.00  0.00    -0.248 NA
ATOM     43  C   UNL     1      -9.579  -5.053   4.465  1.00  0.00     0.031 C 
ATOM     44  C   UNL     1      -6.826  -1.773   5.352  1.00  0.00     0.029 A 
ATOM     45  N   UNL     1      -7.594  -0.487   3.674  1.00  0.00    -0.354 N 
ATOM     46  C   UNL     1      -8.947  -4.974   6.670  1.00  0.00     0.074 A 
ATOM     47  C   UNL     1      -9.542  -5.744   5.606  1.00  0.00     0.031 C 
ATOM     48  C   UNL     1      -6.453  -0.509   5.609  1.00  0.00     0.029 A 
ATOM     49  C   UNL     1      -7.247   0.351   4.748  1.00  0.00     0.049 A 
ATOM     50  H   UNL     1      -7.709  -0.225   2.732  1.00  0.00     0.167 HD
ATOM     51  C   UNL     1      -8.382  -5.270   7.877  1.00  0.00     0.031 A 
ATOM     52  C   UNL     1      -8.014   1.396   5.180  1.00  0.00     0.031 A 
ATOM     53  C   UNL     1      -7.885  -4.065   8.542  1.00  0.00     0.049 A 
ATOM     54  C   UNL     1      -8.431   1.260   6.630  1.00  0.00     0.074 A 
ATOM     55  C   UNL     1      -6.619  -3.531   8.714  1.00  0.00     0.029 A 
ATOM     56  N   UNL     1      -8.786  -3.065   8.894  1.00  0.00    -0.354 N 
ATOM     57  N   UNL     1      -8.355   0.145   7.302  1.00  0.00    -0.248 NA
ATOM     58  C   UNL     1      -8.997   2.347   7.425  1.00  0.00     0.031 C 
ATOM     59  C   UNL     1      -6.767  -2.163   9.066  1.00  0.00     0.029 A 
ATOM     60  C   UNL     1      -8.120  -1.880   9.145  1.00  0.00     0.049 A 
ATOM     61  H   UNL     1      -9.761  -3.184   8.956  1.00  0.00     0.167 HD
ATOM     62  C   UNL     1      -8.830   0.334   8.571  1.00  0.00     0.074 A 
ATOM     63  C   UNL     1      -9.218   1.733   8.602  1.00  0.00     0.031 C 
ATOM     64  C   UNL     1      -8.867  -0.677   9.488  1.00  0.00     0.031 A 
BRANCH  51  65
ATOM     65  C   UNL     1      -8.004  -6.679   8.308  1.00  0.00    -0.014 A 
ATOM     66  C   UNL     1      -7.008  -6.861   9.291  1.00  0.00     0.010 A 
ATOM     67  C   UNL     1      -8.509  -7.859   7.730  1.00  0.00     0.010 A 
ATOM     68  C   UNL     1      -6.481  -8.128   9.601  1.00  0.00     0.020 A 
ATOM     69  C   UNL     1      -7.981  -9.129   8.011  1.00  0.00     0.020 A 
ATOM     70  C   UNL     1      -6.954  -9.255   8.935  1.00  0.00     0.054 A 
BRANCH  70  71
ATOM     71  S   UNL     1      -6.214 -10.872   9.275  1.00  0.00     0.124 S 
ATOM     72  O   UNL     1      -4.813 -10.658   8.923  1.00  0.00    -0.237 OA
ATOM     73  O   UNL     1      -6.488 -11.050  10.698  1.00  0.00    -0.237 OA
ATOM     74  O   UNL     1      -6.940 -11.780   8.387  1.00  0.00    -0.744 OA
ENDBRANCH  70  71
ENDBRANCH  51  65
BRANCH  52  75
ATOM     75  C   UNL     1      -8.815   2.053   4.112  1.00  0.00    -0.014 A 
ATOM     76  C   UNL     1      -8.103   2.816   3.161  1.00  0.00     0.010 A 
ATOM     77  C   UNL     1     -10.090   1.562   3.778  1.00  0.00     0.010 A 
ATOM     78  C   UNL     1      -8.560   2.910   1.846  1.00  0.00     0.020 A 
ATOM     79  C   UNL     1     -10.552   1.661   2.457  1.00  0.00     0.020 A 
ATOM     80  C   UNL     1      -9.744   2.266   1.489  1.00  0.00     0.054 A 
BRANCH  80  81
ATOM     81  S   UNL     1     -10.076   2.037  -0.285  1.00  0.00     0.124 S 
ATOM     82  O   UNL     1     -10.072   3.408  -0.782  1.00  0.00    -0.237 OA
ATOM     83  O   UNL     1      -8.932   1.220  -0.692  1.00  0.00    -0.237 OA
ATOM     84  O   UNL     1     -11.368   1.361  -0.298  1.00  0.00    -0.744 OA
ENDBRANCH  80  81
ENDBRANCH  52  75
BRANCH  64  85
ATOM     85  C   UNL     1      -9.545  -0.620  10.834  1.00  0.00    -0.014 A 
ATOM     86  C   UNL     1     -10.632   0.216  11.132  1.00  0.00     0.010 A 
ATOM     87  C   UNL     1      -9.162  -1.556  11.825  1.00  0.00     0.010 A 
ATOM     88  C   UNL     1     -11.268   0.162  12.381  1.00  0.00     0.020 A 
ATOM     89  C   UNL     1      -9.818  -1.649  13.055  1.00  0.00     0.020 A 
ATOM     90  C   UNL     1     -10.855  -0.768  13.335  1.00  0.00     0.054 A 
BRANCH  90  91
ATOM     91  S   UNL     1     -11.725  -0.879  14.920  1.00  0.00     0.124 S 
ATOM     92  O   UNL     1     -11.003   0.102  15.727  1.00  0.00    -0.237 OA
ATOM     93  O   UNL     1     -13.095  -0.513  14.568  1.00  0.00    -0.237 OA
ATOM     94  O   UNL     1     -11.542  -2.273  15.312  1.00  0.00    -0.744 OA
ENDBRANCH  90  91
ENDBRANCH  64  85
ENDBRANCH  38  39
ENDBRANCH  30  33
ENDBRANCH  28  29
ENDBRANCH  27  28
ENDBRANCH   1  27
TORSDOF 17
