REMARK SMILES CS(=O)(=O)c1ccc(/C=C(/C(=O)NCCCCNC(=O)c2ccc(-c3c4nc(c(-c5ccc(S(=O)(=O)[O-])cc5)c5ccc([nH]5)c(-c5ccc(S(=O)(=O)[O-])cc5)c5nc(c(-c6ccc(S(=O)(=O)[O-])cc6)c6ccc3[nH]6)C=C5)C=C4)cc2)c2ccc(-c3ccc(F)cc3F)cc2)cc1
REMARK SMILES IDX 16 1 15 2 14 3 13 4 11 5 12 6 10 8 9 9 8 10 5 11 6 12 96 13
REMARK SMILES IDX 7 14 95 15 2 16 1 17 3 18 4 19 81 20 82 21 94 22 83 23 93 24
REMARK SMILES IDX 84 25 85 26 86 27 91 28 87 29 90 30 92 31 88 32 89 33 17 34
REMARK SMILES IDX 18 35 19 36 20 38 21 39 22 40 80 41 23 42 79 43 24 44 25 45
REMARK SMILES IDX 26 46 73 47 27 48 78 49 72 50 74 51 28 52 77 53 71 54 70 55
REMARK SMILES IDX 29 57 59 58 40 59 58 60 41 61 44 62 57 63 75 64 42 65 43 66
REMARK SMILES IDX 56 68 76 69 45 70 30 71 31 72 39 73 32 74 38 75 33 76 34 77
REMARK SMILES IDX 35 78 36 79 37 80 60 81 61 82 69 83 62 84 68 85 63 86 64 87
REMARK SMILES IDX 65 88 66 89 67 90 46 91 47 92 55 93 48 94 54 95 49 96 50 97
REMARK SMILES IDX 51 98 52 99 53 100
REMARK H PARENT 13 7 18 37 74 56 44 67
REMARK Flexibility Score: inf
ROOT
ATOM      1  C   UNL     1       1.915   9.869  -4.109  1.00  0.00     0.023 C 
ENDROOT
BRANCH   1   2
ATOM      2  C   UNL     1       1.598   8.396  -3.826  1.00  0.00     0.023 C 
BRANCH   2   3
ATOM      3  C   UNL     1       1.277   7.582  -5.083  1.00  0.00     0.116 C 
BRANCH   3   4
ATOM      4  N   UNL     1       2.487   7.356  -5.844  1.00  0.00    -0.352 N 
ATOM      5  C   UNL     1       3.364   6.324  -5.930  1.00  0.00     0.251 C 
ATOM      6  O   UNL     1       4.353   6.517  -6.642  1.00  0.00    -0.269 OA
ATOM      7  H   UNL     1       2.726   8.115  -6.425  1.00  0.00     0.163 HD
BRANCH   5   8
ATOM      8  C   UNL     1       3.139   4.971  -5.285  1.00  0.00     0.047 C 
ATOM      9  C   UNL     1       2.467   4.819  -4.119  1.00  0.00     0.022 C 
BRANCH   9  10
ATOM     10  C   UNL     1       2.019   3.590  -3.423  1.00  0.00    -0.025 A 
ATOM     11  C   UNL     1       0.925   1.285  -2.253  1.00  0.00     0.067 A 
ATOM     12  C   UNL     1       2.232   1.264  -2.740  1.00  0.00     0.021 A 
ATOM     13  C   UNL     1       0.165   2.451  -2.311  1.00  0.00     0.021 A 
ATOM     14  C   UNL     1       2.785   2.428  -3.283  1.00  0.00     0.009 A 
ATOM     15  C   UNL     1       0.715   3.596  -2.894  1.00  0.00     0.009 A 
BRANCH  11  16
ATOM     16  S   UNL     1       0.227  -0.201  -1.580  1.00  0.00     0.175 S 
ATOM     17  C   UNL     1       0.865  -0.219   0.074  1.00  0.00     0.163 C 
ATOM     18  O   UNL     1       0.799  -1.320  -2.299  1.00  0.00    -0.224 OA
ATOM     19  O   UNL     1      -1.213  -0.022  -1.501  1.00  0.00    -0.224 OA
ENDBRANCH  11  16
ENDBRANCH   9  10
BRANCH   8  20
ATOM     20  C   UNL     1       3.880   3.829  -5.875  1.00  0.00    -0.013 A 
ATOM     21  C   UNL     1       5.278   3.845  -5.773  1.00  0.00     0.009 A 
ATOM     22  C   UNL     1       3.258   2.698  -6.410  1.00  0.00     0.009 A 
ATOM     23  C   UNL     1       6.033   2.729  -6.123  1.00  0.00     0.009 A 
ATOM     24  C   UNL     1       4.021   1.563  -6.731  1.00  0.00     0.009 A 
ATOM     25  C   UNL     1       5.417   1.546  -6.559  1.00  0.00    -0.015 A 
BRANCH  25  26
ATOM     26  C   UNL     1       6.228   0.332  -6.773  1.00  0.00     0.018 A 
ATOM     27  C   UNL     1       7.237  -0.018  -5.848  1.00  0.00     0.015 A 
ATOM     28  C   UNL     1       6.051  -0.514  -7.879  1.00  0.00     0.133 A 
ATOM     29  C   UNL     1       8.041  -1.143  -6.040  1.00  0.00     0.040 A 
ATOM     30  C   UNL     1       6.846  -1.641  -8.077  1.00  0.00     0.079 A 
ATOM     31  F   UNL     1       5.108  -0.245  -8.795  1.00  0.00    -0.206 F 
ATOM     32  C   UNL     1       7.839  -1.941  -7.157  1.00  0.00     0.126 A 
ATOM     33  F   UNL     1       8.614  -3.017  -7.345  1.00  0.00    -0.207 F 
ENDBRANCH  25  26
ENDBRANCH   8  20
ENDBRANCH   5   8
ENDBRANCH   3   4
ENDBRANCH   2   3
ENDBRANCH   1   2
BRANCH   1  34
ATOM     34  C   UNL     1       0.790  10.640  -4.787  1.00  0.00     0.116 C 
BRANCH  34  35
ATOM     35  N   UNL     1      -0.452  10.620  -4.026  1.00  0.00    -0.352 N 
ATOM     36  C   UNL     1      -1.377  11.629  -3.904  1.00  0.00     0.251 C 
ATOM     37  H   UNL     1      -0.652   9.786  -3.543  1.00  0.00     0.163 HD
ATOM     38  O   UNL     1      -2.320  11.529  -3.128  1.00  0.00    -0.269 OA
BRANCH  36  39
ATOM     39  C   UNL     1      -1.181  12.850  -4.707  1.00  0.00     0.039 A 
ATOM     40  C   UNL     1      -1.106  14.088  -4.066  1.00  0.00     0.014 A 
ATOM     41  C   UNL     1      -0.970  12.741  -6.084  1.00  0.00     0.014 A 
ATOM     42  C   UNL     1      -0.747  15.218  -4.802  1.00  0.00     0.010 A 
ATOM     43  C   UNL     1      -0.537  13.851  -6.795  1.00  0.00     0.010 A 
ATOM     44  C   UNL     1      -0.422  15.100  -6.163  1.00  0.00    -0.014 A 
BRANCH  44  45
ATOM     45  C   UNL     1       0.017  16.261  -6.976  1.00  0.00     0.031 A 
ATOM     46  C   UNL     1      -0.816  16.684  -8.155  1.00  0.00     0.074 A 
ATOM     47  C   UNL     1       1.200  16.857  -6.728  1.00  0.00     0.049 A 
ATOM     48  N   UNL     1      -0.535  17.543  -9.099  1.00  0.00    -0.248 NA
ATOM     49  C   UNL     1      -2.125  16.026  -8.309  1.00  0.00     0.031 C 
ATOM     50  C   UNL     1       2.106  16.527  -5.625  1.00  0.00     0.029 A 
ATOM     51  N   UNL     1       1.856  17.856  -7.406  1.00  0.00    -0.354 N 
ATOM     52  C   UNL     1      -1.613  17.503  -9.974  1.00  0.00     0.074 A 
ATOM     53  C   UNL     1      -2.531  16.504  -9.475  1.00  0.00     0.031 C 
ATOM     54  C   UNL     1       3.191  17.315  -5.696  1.00  0.00     0.029 A 
ATOM     55  C   UNL     1       3.087  18.167  -6.877  1.00  0.00     0.049 A 
ATOM     56  H   UNL     1       1.480  18.307  -8.196  1.00  0.00     0.167 HD
ATOM     57  C   UNL     1      -1.827  18.245 -11.086  1.00  0.00     0.031 A 
ATOM     58  C   UNL     1       4.035  19.024  -7.308  1.00  0.00     0.031 A 
ATOM     59  C   UNL     1      -0.917  19.248 -11.565  1.00  0.00     0.049 A 
ATOM     60  C   UNL     1       3.788  19.819  -8.563  1.00  0.00     0.074 A 
ATOM     61  C   UNL     1      -1.062  20.089 -12.654  1.00  0.00     0.029 A 
ATOM     62  N   UNL     1       0.307  19.547 -10.986  1.00  0.00    -0.354 N 
ATOM     63  N   UNL     1       2.742  19.801  -9.355  1.00  0.00    -0.248 NA
ATOM     64  C   UNL     1       4.843  20.755  -8.981  1.00  0.00     0.031 C 
ATOM     65  C   UNL     1       0.099  20.857 -12.767  1.00  0.00     0.029 A 
ATOM     66  C   UNL     1       0.935  20.547 -11.705  1.00  0.00     0.049 A 
ATOM     67  H   UNL     1       0.673  19.112 -10.182  1.00  0.00     0.167 HD
ATOM     68  C   UNL     1       2.994  20.754 -10.337  1.00  0.00     0.074 A 
ATOM     69  C   UNL     1       4.291  21.327 -10.043  1.00  0.00     0.031 C 
ATOM     70  C   UNL     1       2.215  21.127 -11.381  1.00  0.00     0.031 A 
BRANCH  57  71
ATOM     71  C   UNL     1      -3.090  17.988 -11.865  1.00  0.00    -0.014 A 
ATOM     72  C   UNL     1      -4.352  18.318 -11.338  1.00  0.00     0.010 A 
ATOM     73  C   UNL     1      -3.011  17.445 -13.161  1.00  0.00     0.010 A 
ATOM     74  C   UNL     1      -5.513  18.067 -12.072  1.00  0.00     0.020 A 
ATOM     75  C   UNL     1      -4.168  17.225 -13.913  1.00  0.00     0.020 A 
ATOM     76  C   UNL     1      -5.414  17.521 -13.355  1.00  0.00     0.054 A 
BRANCH  76  77
ATOM     77  S   UNL     1      -6.937  17.230 -14.294  1.00  0.00     0.124 S 
ATOM     78  O   UNL     1      -7.519  16.097 -13.578  1.00  0.00    -0.237 OA
ATOM     79  O   UNL     1      -7.649  18.497 -14.148  1.00  0.00    -0.237 OA
ATOM     80  O   UNL     1      -6.464  16.936 -15.644  1.00  0.00    -0.744 OA
ENDBRANCH  76  77
ENDBRANCH  57  71
BRANCH  58  81
ATOM     81  C   UNL     1       5.306  19.178  -6.544  1.00  0.00    -0.014 A 
ATOM     82  C   UNL     1       5.582  20.371  -5.853  1.00  0.00     0.010 A 
ATOM     83  C   UNL     1       6.244  18.131  -6.496  1.00  0.00     0.010 A 
ATOM     84  C   UNL     1       6.780  20.523  -5.147  1.00  0.00     0.020 A 
ATOM     85  C   UNL     1       7.429  18.266  -5.766  1.00  0.00     0.020 A 
ATOM     86  C   UNL     1       7.695  19.467  -5.106  1.00  0.00     0.054 A 
BRANCH  86  87
ATOM     87  S   UNL     1       9.221  19.672  -4.146  1.00  0.00     0.124 S 
ATOM     88  O   UNL     1       9.972  20.617  -4.966  1.00  0.00    -0.237 OA
ATOM     89  O   UNL     1       8.725  20.190  -2.874  1.00  0.00    -0.237 OA
ATOM     90  O   UNL     1       9.772  18.319  -4.087  1.00  0.00    -0.744 OA
ENDBRANCH  86  87
ENDBRANCH  58  81
BRANCH  70  91
ATOM     91  C   UNL     1       2.690  22.257 -12.255  1.00  0.00    -0.014 A 
ATOM     92  C   UNL     1       3.723  22.081 -13.190  1.00  0.00     0.010 A 
ATOM     93  C   UNL     1       1.994  23.481 -12.220  1.00  0.00     0.010 A 
ATOM     94  C   UNL     1       4.051  23.110 -14.077  1.00  0.00     0.020 A 
ATOM     95  C   UNL     1       2.301  24.501 -13.123  1.00  0.00     0.020 A 
ATOM     96  C   UNL     1       3.330  24.309 -14.045  1.00  0.00     0.054 A 
BRANCH  96  97
ATOM     97  S   UNL     1       3.707  25.587 -15.276  1.00  0.00     0.124 S 
ATOM     98  O   UNL     1       5.004  26.077 -14.820  1.00  0.00    -0.237 OA
ATOM     99  O   UNL     1       3.724  24.831 -16.526  1.00  0.00    -0.237 OA
ATOM    100  O   UNL     1       2.602  26.535 -15.143  1.00  0.00    -0.744 OA
ENDBRANCH  96  97
ENDBRANCH  70  91
ENDBRANCH  44  45
ENDBRANCH  36  39
ENDBRANCH  34  35
ENDBRANCH   1  34
TORSDOF 18
