REMARK SMILES Cc1cccc(Cl)c1Nc1ccccc1CC(=O)NCCCCNC(=O)c1ccc(-c2c3nc(c(-c4ccc(S(=O)(=O)[O-])cc4)c4ccc([nH]4)c(-c4ccc(S(=O)(=O)[O-])cc4)c4nc(c(-c5ccc(S(=O)(=O)[O-])cc5)c5ccc2[nH]5)C=C4)C=C3)cc1
REMARK SMILES IDX 21 1 20 2 19 3 17 4 18 5 16 7 15 8 10 9 11 10 12 11 14 12
REMARK SMILES IDX 13 13 9 14 8 16 1 17 2 18 3 19 4 20 6 21 5 22 7 23 22 24
REMARK SMILES IDX 23 25 24 26 25 27 26 29 27 30 28 31 86 32 29 33 85 34 30 35
REMARK SMILES IDX 31 36 32 37 79 38 33 39 84 40 78 41 80 42 34 43 83 44 77 45
REMARK SMILES IDX 76 46 35 48 65 49 46 50 64 51 47 52 50 53 63 54 81 55 48 56
REMARK SMILES IDX 49 57 62 59 82 60 51 61 36 62 37 63 45 64 38 65 44 66 39 67
REMARK SMILES IDX 40 68 41 69 42 70 43 71 66 72 67 73 75 74 68 75 74 76 69 77
REMARK SMILES IDX 70 78 71 79 72 80 73 81 52 82 53 83 61 84 54 85 60 86 55 87
REMARK SMILES IDX 56 88 57 89 58 90 59 91
REMARK H PARENT 19 6 9 15 24 28 80 47 50 58
REMARK Flexibility Score: inf
ROOT
ATOM      1  C   UNL     1       0.651   5.064  -2.146  1.00  0.00     0.023 C 
ENDROOT
BRANCH   1   2
ATOM      2  C   UNL     1       0.088   3.778  -2.751  1.00  0.00     0.116 C 
BRANCH   2   3
ATOM      3  N   UNL     1       1.034   3.141  -3.646  1.00  0.00    -0.356 N 
ATOM      4  C   UNL     1       1.890   2.109  -3.376  1.00  0.00     0.224 C 
ATOM      5  O   UNL     1       2.678   1.751  -4.253  1.00  0.00    -0.275 OA
ATOM      6  H   UNL     1       1.063   3.495  -4.564  1.00  0.00     0.163 HD
BRANCH   4   7
ATOM      7  C   UNL     1       1.825   1.401  -2.030  1.00  0.00     0.137 C 
BRANCH   7   8
ATOM      8  C   UNL     1       2.352   2.225  -0.872  1.00  0.00    -0.015 A 
ATOM      9  C   UNL     1       1.598   2.499   0.290  1.00  0.00     0.042 A 
ATOM     10  C   UNL     1       2.138   3.377   1.250  1.00  0.00     0.026 A 
ATOM     11  C   UNL     1       3.398   3.951   1.088  1.00  0.00     0.002 A 
ATOM     12  C   UNL     1       3.641   2.785  -1.001  1.00  0.00     0.006 A 
ATOM     13  C   UNL     1       4.157   3.644  -0.033  1.00  0.00     0.000 A 
BRANCH   9  14
ATOM     14  N   UNL     1       0.349   1.919   0.590  1.00  0.00    -0.354 N 
ATOM     15  H   UNL     1      -0.304   2.555   0.963  1.00  0.00     0.167 HD
BRANCH  14  16
ATOM     16  C   UNL     1      -0.150   0.601   0.460  1.00  0.00     0.060 A 
ATOM     17  C   UNL     1      -2.458   1.610   0.003  1.00  0.00     0.046 C 
ATOM     18  C   UNL     1      -1.525   0.433   0.144  1.00  0.00    -0.026 A 
ATOM     19  C   UNL     1      -2.044  -0.853  -0.089  1.00  0.00     0.005 A 
ATOM     20  C   UNL     1      -1.230  -1.978  -0.005  1.00  0.00     0.002 A 
ATOM     21  C   UNL     1       0.649  -0.561   0.566  1.00  0.00     0.064 A 
ATOM     22  C   UNL     1       0.111  -1.832   0.330  1.00  0.00     0.023 A 
ATOM     23  Cl  UNL     1       2.298  -0.531   1.100  1.00  0.00    -0.082 Cl
ENDBRANCH  14  16
ENDBRANCH   9  14
ENDBRANCH   7   8
ENDBRANCH   4   7
ENDBRANCH   2   3
ENDBRANCH   1   2
BRANCH   1  24
ATOM     24  C   UNL     1       0.806   6.221  -3.134  1.00  0.00     0.023 C 
BRANCH  24  25
ATOM     25  C   UNL     1      -0.483   6.673  -3.809  1.00  0.00     0.116 C 
BRANCH  25  26
ATOM     26  N   UNL     1      -1.501   7.114  -2.867  1.00  0.00    -0.352 N 
ATOM     27  C   UNL     1      -2.451   8.093  -3.041  1.00  0.00     0.251 C 
ATOM     28  H   UNL     1      -1.510   6.655  -1.996  1.00  0.00     0.163 HD
ATOM     29  O   UNL     1      -3.177   8.425  -2.109  1.00  0.00    -0.269 OA
BRANCH  27  30
ATOM     30  C   UNL     1      -2.555   8.768  -4.351  1.00  0.00     0.039 A 
ATOM     31  C   UNL     1      -2.526  10.164  -4.397  1.00  0.00     0.014 A 
ATOM     32  C   UNL     1      -2.631   8.021  -5.530  1.00  0.00     0.014 A 
ATOM     33  C   UNL     1      -2.498  10.812  -5.634  1.00  0.00     0.010 A 
ATOM     34  C   UNL     1      -2.542   8.666  -6.760  1.00  0.00     0.010 A 
ATOM     35  C   UNL     1      -2.467  10.066  -6.824  1.00  0.00    -0.014 A 
BRANCH  35  36
ATOM     36  C   UNL     1      -2.345  10.723  -8.149  1.00  0.00     0.031 A 
ATOM     37  C   UNL     1      -3.465  10.616  -9.146  1.00  0.00     0.074 A 
ATOM     38  C   UNL     1      -1.193  11.335  -8.488  1.00  0.00     0.049 A 
ATOM     39  N   UNL     1      -3.503  11.019 -10.390  1.00  0.00    -0.248 NA
ATOM     40  C   UNL     1      -4.694   9.943  -8.693  1.00  0.00     0.031 C 
ATOM     41  C   UNL     1      -0.018  11.473  -7.624  1.00  0.00     0.029 A 
ATOM     42  N   UNL     1      -0.816  11.943  -9.659  1.00  0.00    -0.354 N 
ATOM     43  C   UNL     1      -4.745  10.628 -10.875  1.00  0.00     0.074 A 
ATOM     44  C   UNL     1      -5.416   9.924  -9.804  1.00  0.00     0.031 C 
ATOM     45  C   UNL     1       0.942  12.135  -8.290  1.00  0.00     0.029 A 
ATOM     46  C   UNL     1       0.469  12.435  -9.637  1.00  0.00     0.049 A 
ATOM     47  H   UNL     1      -1.408  12.020 -10.442  1.00  0.00     0.167 HD
ATOM     48  C   UNL     1      -5.284  10.846 -12.099  1.00  0.00     0.031 A 
ATOM     49  C   UNL     1       1.189  13.047 -10.597  1.00  0.00     0.031 A 
ATOM     50  C   UNL     1      -4.623  11.563 -13.155  1.00  0.00     0.049 A 
ATOM     51  C   UNL     1       0.567  13.286 -11.945  1.00  0.00     0.074 A 
ATOM     52  C   UNL     1      -5.109  11.884 -14.411  1.00  0.00     0.029 A 
ATOM     53  N   UNL     1      -3.336  12.074 -13.080  1.00  0.00    -0.354 N 
ATOM     54  N   UNL     1      -0.630  12.955 -12.368  1.00  0.00    -0.248 NA
ATOM     55  C   UNL     1       1.387  13.989 -12.941  1.00  0.00     0.031 C 
ATOM     56  C   UNL     1      -4.101  12.558 -15.109  1.00  0.00     0.029 A 
ATOM     57  C   UNL     1      -3.005  12.696 -14.271  1.00  0.00     0.049 A 
ATOM     58  H   UNL     1      -2.746  12.004 -12.296  1.00  0.00     0.167 HD
ATOM     59  C   UNL     1      -0.716  13.434 -13.670  1.00  0.00     0.074 A 
ATOM     60  C   UNL     1       0.546  14.083 -13.963  1.00  0.00     0.031 C 
ATOM     61  C   UNL     1      -1.749  13.346 -14.543  1.00  0.00     0.031 A 
BRANCH  48  62
ATOM     62  C   UNL     1      -6.660  10.294 -12.357  1.00  0.00    -0.014 A 
ATOM     63  C   UNL     1      -7.794  10.864 -11.752  1.00  0.00     0.010 A 
ATOM     64  C   UNL     1      -6.824   9.211 -13.239  1.00  0.00     0.010 A 
ATOM     65  C   UNL     1      -9.064  10.331 -11.989  1.00  0.00     0.020 A 
ATOM     66  C   UNL     1      -8.096   8.692 -13.499  1.00  0.00     0.020 A 
ATOM     67  C   UNL     1      -9.206   9.244 -12.856  1.00  0.00     0.054 A 
BRANCH  67  68
ATOM     68  S   UNL     1     -10.866   8.579 -13.155  1.00  0.00     0.124 S 
ATOM     69  O   UNL     1     -11.117   7.834 -11.923  1.00  0.00    -0.237 OA
ATOM     70  O   UNL     1     -11.670   9.785 -13.333  1.00  0.00    -0.237 OA
ATOM     71  O   UNL     1     -10.701   7.761 -14.354  1.00  0.00    -0.744 OA
ENDBRANCH  67  68
ENDBRANCH  48  62
BRANCH  49  72
ATOM     72  C   UNL     1       2.579  13.492 -10.309  1.00  0.00    -0.014 A 
ATOM     73  C   UNL     1       2.866  14.858 -10.141  1.00  0.00     0.010 A 
ATOM     74  C   UNL     1       3.618  12.553 -10.182  1.00  0.00     0.010 A 
ATOM     75  C   UNL     1       4.170  15.279  -9.866  1.00  0.00     0.020 A 
ATOM     76  C   UNL     1       4.919  12.968  -9.884  1.00  0.00     0.020 A 
ATOM     77  C   UNL     1       5.189  14.331  -9.738  1.00  0.00     0.054 A 
BRANCH  77  78
ATOM     78  S   UNL     1       6.864  14.893  -9.324  1.00  0.00     0.124 S 
ATOM     79  O   UNL     1       7.331  15.422 -10.601  1.00  0.00    -0.237 OA
ATOM     80  O   UNL     1       6.616  15.886  -8.280  1.00  0.00    -0.237 OA
ATOM     81  O   UNL     1       7.528  13.675  -8.867  1.00  0.00    -0.744 OA
ENDBRANCH  77  78
ENDBRANCH  49  72
BRANCH  61  82
ATOM     82  C   UNL     1      -1.582  14.001 -15.886  1.00  0.00    -0.014 A 
ATOM     83  C   UNL     1      -0.789  13.415 -16.888  1.00  0.00     0.010 A 
ATOM     84  C   UNL     1      -2.292  15.181 -16.172  1.00  0.00     0.010 A 
ATOM     85  C   UNL     1      -0.696  14.008 -18.149  1.00  0.00     0.020 A 
ATOM     86  C   UNL     1      -2.218  15.765 -17.439  1.00  0.00     0.020 A 
ATOM     87  C   UNL     1      -1.412  15.179 -18.418  1.00  0.00     0.054 A 
BRANCH  87  88
ATOM     88  S   UNL     1      -1.328  15.896 -20.082  1.00  0.00     0.124 S 
ATOM     89  O   UNL     1      -0.014  16.533 -20.073  1.00  0.00    -0.237 OA
ATOM     90  O   UNL     1      -1.452  14.723 -20.945  1.00  0.00    -0.237 OA
ATOM     91  O   UNL     1      -2.466  16.812 -20.122  1.00  0.00    -0.744 OA
ENDBRANCH  87  88
ENDBRANCH  61  82
ENDBRANCH  35  36
ENDBRANCH  27  30
ENDBRANCH  25  26
ENDBRANCH  24  25
ENDBRANCH   1  24
TORSDOF 17
