REMARK SMILES O=C(NCCCCNC(=O)[C@@H]1CCCC[C@@H]1NS(=O)(=O)c1ccc2ccccc2c1)c1ccc(-c2c3nc(c(-c4ccc(S(=O)(=O)[O-])cc4)c4ccc([nH]4)c(-c4ccc(S(=O)(=O)[O-])cc4)c4nc(c(-c5ccc(S(=O)(=O)[O-])cc5)c5ccc2[nH]5)C=C4)C=C3)cc1
REMARK SMILES IDX 5 1 4 2 3 3 1 4 2 5 31 7 32 8 90 9 33 10 89 11 34 12 35 13
REMARK SMILES IDX 36 14 83 15 37 16 88 17 82 18 84 19 38 20 87 21 81 22 80 23
REMARK SMILES IDX 39 25 69 26 50 27 68 28 51 29 54 30 67 31 85 32 52 33 53 34
REMARK SMILES IDX 66 36 86 37 55 38 40 39 41 40 49 41 42 42 48 43 43 44 44 45
REMARK SMILES IDX 45 46 46 47 47 48 70 49 71 50 79 51 72 52 78 53 73 54 74 55
REMARK SMILES IDX 75 56 76 57 77 58 56 59 57 60 65 61 58 62 64 63 59 64 60 65
REMARK SMILES IDX 61 66 62 67 63 68 6 69 7 70 8 71 9 72 10 74 11 75 12 76
REMARK SMILES IDX 16 77 13 78 15 79 14 80 17 81 18 83 19 84 20 85 21 86 22 87
REMARK SMILES IDX 30 88 23 89 29 90 24 91 28 92 25 93 27 94 26 95
REMARK H PARENT 3 6 84 24 54 35 8 73 17 82
REMARK Flexibility Score: inf
ROOT
ATOM      1  C   UNL     1       4.971  -2.473  -1.038  1.00  0.00     0.023 C 
ENDROOT
BRANCH   1   2
ATOM      2  C   UNL     1       4.608  -1.079  -0.536  1.00  0.00     0.116 C 
BRANCH   2   3
ATOM      3  N   UNL     1       3.202  -0.736  -0.696  1.00  0.00    -0.352 N 
ATOM      4  O   UNL     1       1.252   0.268  -0.138  1.00  0.00    -0.269 OA
ATOM      5  C   UNL     1       2.452   0.129   0.070  1.00  0.00     0.251 C 
ATOM      6  H   UNL     1       2.731  -1.175  -1.440  1.00  0.00     0.163 HD
BRANCH   5   7
ATOM      7  C   UNL     1       3.113   0.848   1.179  1.00  0.00     0.039 A 
ATOM      8  C   UNL     1       4.308   1.534   0.955  1.00  0.00     0.014 A 
ATOM      9  C   UNL     1       2.575   0.762   2.465  1.00  0.00     0.014 A 
ATOM     10  C   UNL     1       5.046   1.992   2.038  1.00  0.00     0.010 A 
ATOM     11  C   UNL     1       3.281   1.297   3.545  1.00  0.00     0.010 A 
ATOM     12  C   UNL     1       4.545   1.873   3.346  1.00  0.00    -0.014 A 
BRANCH  12  13
ATOM     13  C   UNL     1       5.362   2.379   4.478  1.00  0.00     0.031 A 
ATOM     14  C   UNL     1       5.925   1.441   5.512  1.00  0.00     0.074 A 
ATOM     15  C   UNL     1       5.645   3.695   4.532  1.00  0.00     0.049 A 
ATOM     16  N   UNL     1       6.714   1.711   6.521  1.00  0.00    -0.248 NA
ATOM     17  C   UNL     1       5.553   0.021   5.408  1.00  0.00     0.031 C 
ATOM     18  C   UNL     1       5.155   4.700   3.584  1.00  0.00     0.029 A 
ATOM     19  N   UNL     1       6.438   4.408   5.393  1.00  0.00    -0.354 N 
ATOM     20  C   UNL     1       6.906   0.507   7.191  1.00  0.00     0.074 A 
ATOM     21  C   UNL     1       6.142  -0.495   6.479  1.00  0.00     0.031 C 
ATOM     22  C   UNL     1       5.712   5.885   3.875  1.00  0.00     0.029 A 
ATOM     23  C   UNL     1       6.548   5.737   5.061  1.00  0.00     0.049 A 
ATOM     24  H   UNL     1       6.885   4.007   6.173  1.00  0.00     0.167 HD
ATOM     25  C   UNL     1       7.651   0.261   8.296  1.00  0.00     0.031 A 
ATOM     26  C   UNL     1       7.242   6.731   5.645  1.00  0.00     0.031 A 
ATOM     27  C   UNL     1       8.423   1.258   8.991  1.00  0.00     0.049 A 
ATOM     28  C   UNL     1       8.062   6.430   6.864  1.00  0.00     0.074 A 
ATOM     29  C   UNL     1       9.240   1.098  10.098  1.00  0.00     0.029 A 
ATOM     30  N   UNL     1       8.476   2.601   8.648  1.00  0.00    -0.354 N 
ATOM     31  N   UNL     1       8.246   5.279   7.466  1.00  0.00    -0.248 NA
ATOM     32  C   UNL     1       8.764   7.561   7.482  1.00  0.00     0.031 C 
ATOM     33  C   UNL     1       9.753   2.353  10.448  1.00  0.00     0.029 A 
ATOM     34  C   UNL     1       9.294   3.285   9.532  1.00  0.00     0.049 A 
ATOM     35  H   UNL     1       8.002   3.008   7.887  1.00  0.00     0.167 HD
ATOM     36  C   UNL     1       9.098   5.546   8.530  1.00  0.00     0.074 A 
ATOM     37  C   UNL     1       9.407   6.961   8.476  1.00  0.00     0.031 C 
ATOM     38  C   UNL     1       9.580   4.695   9.470  1.00  0.00     0.031 A 
BRANCH  25  39
ATOM     39  C   UNL     1       7.637  -1.141   8.848  1.00  0.00    -0.014 A 
ATOM     40  C   UNL     1       8.323  -2.189   8.208  1.00  0.00     0.010 A 
ATOM     41  C   UNL     1       6.958  -1.403  10.052  1.00  0.00     0.010 A 
ATOM     42  C   UNL     1       8.294  -3.482   8.741  1.00  0.00     0.020 A 
ATOM     43  C   UNL     1       6.946  -2.690  10.600  1.00  0.00     0.020 A 
ATOM     44  C   UNL     1       7.599  -3.725   9.930  1.00  0.00     0.054 A 
BRANCH  44  45
ATOM     45  S   UNL     1       7.587  -5.409  10.608  1.00  0.00     0.124 S 
ATOM     46  O   UNL     1       6.623  -6.075   9.736  1.00  0.00    -0.237 OA
ATOM     47  O   UNL     1       8.975  -5.832  10.449  1.00  0.00    -0.237 OA
ATOM     48  O   UNL     1       7.151  -5.221  11.990  1.00  0.00    -0.744 OA
ENDBRANCH  44  45
ENDBRANCH  25  39
BRANCH  26  49
ATOM     49  C   UNL     1       7.189   8.099   5.068  1.00  0.00    -0.014 A 
ATOM     50  C   UNL     1       8.303   8.633   4.397  1.00  0.00     0.010 A 
ATOM     51  C   UNL     1       6.006   8.857   5.148  1.00  0.00     0.010 A 
ATOM     52  C   UNL     1       8.236   9.904   3.821  1.00  0.00     0.020 A 
ATOM     53  C   UNL     1       5.928  10.117   4.550  1.00  0.00     0.020 A 
ATOM     54  C   UNL     1       7.048  10.636   3.897  1.00  0.00     0.054 A 
BRANCH  54  55
ATOM     55  S   UNL     1       6.957  12.252   3.078  1.00  0.00     0.124 S 
ATOM     56  O   UNL     1       7.664  13.111   4.023  1.00  0.00    -0.237 OA
ATOM     57  O   UNL     1       7.641  12.007   1.811  1.00  0.00    -0.237 OA
ATOM     58  O   UNL     1       5.520  12.493   2.963  1.00  0.00    -0.744 OA
ENDBRANCH  54  55
ENDBRANCH  26  49
BRANCH  38  59
ATOM     59  C   UNL     1      10.509   5.276  10.499  1.00  0.00    -0.014 A 
ATOM     60  C   UNL     1      10.023   6.090  11.537  1.00  0.00     0.010 A 
ATOM     61  C   UNL     1      11.884   4.986  10.436  1.00  0.00     0.010 A 
ATOM     62  C   UNL     1      10.904   6.640  12.472  1.00  0.00     0.020 A 
ATOM     63  C   UNL     1      12.764   5.515  11.383  1.00  0.00     0.020 A 
ATOM     64  C   UNL     1      12.270   6.354  12.384  1.00  0.00     0.054 A 
BRANCH  64  65
ATOM     65  S   UNL     1      13.395   7.062  13.619  1.00  0.00     0.124 S 
ATOM     66  O   UNL     1      13.542   8.434  13.143  1.00  0.00    -0.237 OA
ATOM     67  O   UNL     1      12.649   6.905  14.865  1.00  0.00    -0.237 OA
ATOM     68  O   UNL     1      14.592   6.231  13.509  1.00  0.00    -0.744 OA
ENDBRANCH  64  65
ENDBRANCH  38  59
ENDBRANCH  12  13
ENDBRANCH   5   7
ENDBRANCH   2   3
ENDBRANCH   1   2
BRANCH   1  69
ATOM     69  C   UNL     1       4.578  -2.771  -2.486  1.00  0.00     0.023 C 
BRANCH  69  70
ATOM     70  C   UNL     1       5.197  -1.838  -3.524  1.00  0.00     0.116 C 
BRANCH  70  71
ATOM     71  N   UNL     1       6.544  -2.226  -3.906  1.00  0.00    -0.356 N 
ATOM     72  C   UNL     1       7.066  -2.945  -4.930  1.00  0.00     0.224 C 
ATOM     73  H   UNL     1       7.229  -1.894  -3.282  1.00  0.00     0.163 HD
ATOM     74  O   UNL     1       8.303  -2.959  -5.001  1.00  0.00    -0.275 OA
BRANCH  72  75
ATOM     75  C   UNL     1       6.271  -3.767  -5.950  1.00  0.00     0.096 C 
ATOM     76  C   UNL     1       4.787  -3.463  -6.154  1.00  0.00     0.015 C 
ATOM     77  C   UNL     1       6.551  -5.286  -5.764  1.00  0.00     0.082 C 
ATOM     78  C   UNL     1       4.184  -4.284  -7.289  1.00  0.00     0.001 C 
ATOM     79  C   UNL     1       5.874  -6.093  -6.881  1.00  0.00     0.021 C 
ATOM     80  C   UNL     1       4.392  -5.772  -7.048  1.00  0.00     0.002 C 
BRANCH  77  81
ATOM     81  N   UNL     1       6.116  -5.713  -4.427  1.00  0.00    -0.207 NA
ATOM     82  H   UNL     1       5.097  -5.682  -4.455  1.00  0.00     0.141 HD
BRANCH  81  83
ATOM     83  S   UNL     1       6.492  -7.166  -3.693  1.00  0.00     0.240 S 
ATOM     84  O   UNL     1       5.900  -7.083  -2.378  1.00  0.00    -0.207 OA
ATOM     85  O   UNL     1       6.131  -8.231  -4.606  1.00  0.00    -0.207 OA
BRANCH  83  86
ATOM     86  C   UNL     1       8.247  -7.221  -3.472  1.00  0.00     0.083 A 
ATOM     87  C   UNL     1       9.045  -6.083  -3.548  1.00  0.00     0.022 A 
ATOM     88  C   UNL     1       8.830  -8.481  -3.282  1.00  0.00     0.030 A 
ATOM     89  C   UNL     1      10.436  -6.212  -3.498  1.00  0.00     0.010 A 
ATOM     90  C   UNL     1      10.224  -8.617  -3.200  1.00  0.00    -0.017 A 
ATOM     91  C   UNL     1      11.040  -7.470  -3.334  1.00  0.00    -0.018 A 
ATOM     92  C   UNL     1      10.823  -9.870  -2.996  1.00  0.00     0.009 A 
ATOM     93  C   UNL     1      12.436  -7.617  -3.295  1.00  0.00     0.009 A 
ATOM     94  C   UNL     1      12.212  -9.996  -2.945  1.00  0.00     0.001 A 
ATOM     95  C   UNL     1      13.018  -8.872  -3.104  1.00  0.00     0.001 A 
ENDBRANCH  83  86
ENDBRANCH  81  83
ENDBRANCH  77  81
ENDBRANCH  72  75
ENDBRANCH  70  71
ENDBRANCH  69  70
ENDBRANCH   1  69
TORSDOF 17
