REMARK SMILES CCN(C(=O)C[NH2+][C@@](C)(C(=O)NCCCCNC(=O)c1ccc(-c2c3nc(c(-c4ccc(S(=O)(=O)[O-])cc4)c4ccc([nH]4)c(-c4ccc(S(=O)(=O)[O-])cc4)c4nc(c(-c5ccc(S(=O)(=O)[O-])cc5)c5ccc2[nH]5)C=C4)C=C3)cc1)C(F)(F)F)C1CC1
REMARK SMILES IDX 13 1 12 2 10 3 11 4 8 6 9 7 7 8 6 11 4 12 5 13 3 14 2 15
REMARK SMILES IDX 1 16 84 17 85 18 86 19 80 20 81 21 82 22 83 23 14 24 15 25
REMARK SMILES IDX 16 26 17 27 18 28 19 30 20 31 21 32 79 33 22 34 78 35 23 36
REMARK SMILES IDX 24 37 25 38 72 39 26 40 77 41 71 42 73 43 27 44 76 45 70 46
REMARK SMILES IDX 69 47 28 49 58 50 39 51 57 52 40 53 43 54 56 55 74 56 41 57
REMARK SMILES IDX 42 58 55 60 75 61 44 62 29 63 30 64 38 65 31 66 37 67 32 68
REMARK SMILES IDX 33 69 34 70 35 71 36 72 59 73 60 74 68 75 61 76 67 77 62 78
REMARK SMILES IDX 63 79 64 80 65 81 66 82 45 83 46 84 54 85 47 86 53 87 48 88
REMARK SMILES IDX 49 89 50 90 51 91 52 92
REMARK H PARENT 12 5 7 9 7 10 17 29 73 48 43 59
REMARK Flexibility Score: inf
ROOT
ATOM      1  C   UNL     1      -2.861  -4.042  -0.098  1.00  0.00     0.116 C 
ENDROOT
BRANCH   1   2
ATOM      2  N   UNL     1      -3.481  -2.855   0.469  1.00  0.00    -0.350 N 
ATOM      3  C   UNL     1      -3.741  -1.605  -0.026  1.00  0.00     0.290 C 
ATOM      4  O   UNL     1      -4.251  -0.817   0.775  1.00  0.00    -0.267 OA
ATOM      5  H   UNL     1      -3.775  -2.975   1.401  1.00  0.00     0.163 HD
BRANCH   3   6
ATOM      6  C   UNL     1      -3.428  -1.216  -1.495  1.00  0.00     0.268 C 
ATOM      7  C   UNL     1      -4.291  -2.074  -2.442  1.00  0.00     0.101 C 
BRANCH   6   8
ATOM      8  N   UNL     1      -1.951  -1.404  -1.699  1.00  0.00    -0.318 N 
ATOM      9  H   UNL     1      -1.463  -0.816  -1.023  1.00  0.00     0.347 HD
ATOM     10  H   UNL     1      -1.778  -2.402  -1.579  1.00  0.00     0.347 HD
BRANCH   8  11
ATOM     11  C   UNL     1      -1.446  -1.069  -3.034  1.00  0.00     0.363 C 
BRANCH  11  12
ATOM     12  C   UNL     1       0.032  -1.493  -3.126  1.00  0.00     0.277 C 
ATOM     13  O   UNL     1       0.290  -2.529  -3.747  1.00  0.00    -0.268 OA
BRANCH  12  14
ATOM     14  N   UNL     1       0.993  -0.698  -2.491  1.00  0.00    -0.335 N 
BRANCH  14  15
ATOM     15  C   UNL     1       0.650   0.428  -1.600  1.00  0.00     0.116 C 
ATOM     16  C   UNL     1       0.772   0.061  -0.125  1.00  0.00     0.027 C 
ENDBRANCH  14  15
BRANCH  14  17
ATOM     17  C   UNL     1       2.421  -0.963  -2.599  1.00  0.00     0.085 C 
ATOM     18  C   UNL     1       3.111  -2.016  -3.420  1.00  0.00     0.027 C 
ATOM     19  C   UNL     1       3.138  -0.588  -3.873  1.00  0.00     0.027 C 
ENDBRANCH  14  17
ENDBRANCH  12  14
ENDBRANCH  11  12
ENDBRANCH   8  11
ENDBRANCH   6   8
BRANCH   6  20
ATOM     20  C   UNL     1      -3.913   0.259  -1.657  1.00  0.00     0.453 C 
ATOM     21  F   UNL     1      -3.211   1.137  -0.907  1.00  0.00    -0.164 F 
ATOM     22  F   UNL     1      -3.754   0.661  -2.953  1.00  0.00    -0.164 F 
ATOM     23  F   UNL     1      -5.230   0.416  -1.389  1.00  0.00    -0.164 F 
ENDBRANCH   6  20
ENDBRANCH   3   6
ENDBRANCH   1   2
BRANCH   1  24
ATOM     24  C   UNL     1      -1.493  -4.317   0.524  1.00  0.00     0.023 C 
BRANCH  24  25
ATOM     25  C   UNL     1      -1.536  -4.776   1.983  1.00  0.00     0.023 C 
BRANCH  25  26
ATOM     26  C   UNL     1      -2.413  -5.994   2.258  1.00  0.00     0.116 C 
BRANCH  26  27
ATOM     27  N   UNL     1      -2.055  -7.151   1.454  1.00  0.00    -0.352 N 
ATOM     28  C   UNL     1      -1.986  -8.473   1.827  1.00  0.00     0.251 C 
ATOM     29  H   UNL     1      -1.830  -6.963   0.514  1.00  0.00     0.163 HD
ATOM     30  O   UNL     1      -1.549  -9.308   1.040  1.00  0.00    -0.269 OA
BRANCH  28  31
ATOM     31  C   UNL     1      -2.406  -8.876   3.185  1.00  0.00     0.039 A 
ATOM     32  C   UNL     1      -1.575  -9.723   3.922  1.00  0.00     0.014 A 
ATOM     33  C   UNL     1      -3.602  -8.408   3.737  1.00  0.00     0.014 A 
ATOM     34  C   UNL     1      -1.913 -10.051   5.237  1.00  0.00     0.010 A 
ATOM     35  C   UNL     1      -3.900  -8.677   5.071  1.00  0.00     0.010 A 
ATOM     36  C   UNL     1      -3.061  -9.503   5.834  1.00  0.00    -0.014 A 
BRANCH  36  37
ATOM     37  C   UNL     1      -3.395  -9.783   7.254  1.00  0.00     0.031 A 
ATOM     38  C   UNL     1      -4.654 -10.529   7.604  1.00  0.00     0.074 A 
ATOM     39  C   UNL     1      -2.593  -9.314   8.231  1.00  0.00     0.049 A 
ATOM     40  N   UNL     1      -5.131 -10.832   8.784  1.00  0.00    -0.248 NA
ATOM     41  C   UNL     1      -5.503 -10.968   6.484  1.00  0.00     0.031 C 
ATOM     42  C   UNL     1      -1.371  -8.533   8.025  1.00  0.00     0.029 A 
ATOM     43  N   UNL     1      -2.690  -9.422   9.596  1.00  0.00    -0.354 N 
ATOM     44  C   UNL     1      -6.339 -11.479   8.550  1.00  0.00     0.074 A 
ATOM     45  C   UNL     1      -6.546 -11.481   7.119  1.00  0.00     0.031 C 
ATOM     46  C   UNL     1      -0.819  -8.257   9.218  1.00  0.00     0.029 A 
ATOM     47  C   UNL     1      -1.662  -8.808  10.273  1.00  0.00     0.049 A 
ATOM     48  H   UNL     1      -3.426  -9.895  10.048  1.00  0.00     0.167 HD
ATOM     49  C   UNL     1      -7.189 -12.039   9.443  1.00  0.00     0.031 A 
ATOM     50  C   UNL     1      -1.425  -8.699  11.595  1.00  0.00     0.031 A 
ATOM     51  C   UNL     1      -6.973 -12.050  10.866  1.00  0.00     0.049 A 
ATOM     52  C   UNL     1      -2.376  -9.343  12.566  1.00  0.00     0.074 A 
ATOM     53  C   UNL     1      -7.745 -12.645  11.849  1.00  0.00     0.029 A 
ATOM     54  N   UNL     1      -5.907 -11.440  11.510  1.00  0.00    -0.354 N 
ATOM     55  N   UNL     1      -3.477 -10.012  12.320  1.00  0.00    -0.248 NA
ATOM     56  C   UNL     1      -2.041  -9.232  13.993  1.00  0.00     0.031 C 
ATOM     57  C   UNL     1      -7.171 -12.354  13.091  1.00  0.00     0.029 A 
ATOM     58  C   UNL     1      -6.011 -11.627  12.878  1.00  0.00     0.049 A 
ATOM     59  H   UNL     1      -5.184 -10.946  11.060  1.00  0.00     0.167 HD
ATOM     60  C   UNL     1      -3.952 -10.426  13.560  1.00  0.00     0.074 A 
ATOM     61  C   UNL     1      -3.009  -9.947  14.550  1.00  0.00     0.031 C 
ATOM     62  C   UNL     1      -5.066 -11.142  13.852  1.00  0.00     0.031 A 
BRANCH  49  63
ATOM     63  C   UNL     1      -8.438 -12.686   8.904  1.00  0.00    -0.014 A 
ATOM     64  C   UNL     1      -8.377 -13.883   8.166  1.00  0.00     0.010 A 
ATOM     65  C   UNL     1      -9.695 -12.111   9.171  1.00  0.00     0.010 A 
ATOM     66  C   UNL     1      -9.544 -14.469   7.670  1.00  0.00     0.020 A 
ATOM     67  C   UNL     1     -10.867 -12.711   8.701  1.00  0.00     0.020 A 
ATOM     68  C   UNL     1     -10.782 -13.877   7.938  1.00  0.00     0.054 A 
BRANCH  68  69
ATOM     69  S   UNL     1     -12.282 -14.674   7.302  1.00  0.00     0.124 S 
ATOM     70  O   UNL     1     -12.204 -14.364   5.876  1.00  0.00    -0.237 OA
ATOM     71  O   UNL     1     -12.074 -16.076   7.652  1.00  0.00    -0.237 OA
ATOM     72  O   UNL     1     -13.363 -14.008   8.025  1.00  0.00    -0.744 OA
ENDBRANCH  68  69
ENDBRANCH  49  63
BRANCH  50  73
ATOM     73  C   UNL     1      -0.221  -7.967  12.076  1.00  0.00    -0.014 A 
ATOM     74  C   UNL     1       0.857  -8.664  12.651  1.00  0.00     0.010 A 
ATOM     75  C   UNL     1      -0.143  -6.568  11.954  1.00  0.00     0.010 A 
ATOM     76  C   UNL     1       1.981  -7.974  13.114  1.00  0.00     0.020 A 
ATOM     77  C   UNL     1       0.992  -5.877  12.389  1.00  0.00     0.020 A 
ATOM     78  C   UNL     1       2.042  -6.584  12.979  1.00  0.00     0.054 A 
BRANCH  78  79
ATOM     79  S   UNL     1       3.531  -5.714  13.541  1.00  0.00     0.124 S 
ATOM     80  O   UNL     1       3.373  -5.748  14.991  1.00  0.00    -0.237 OA
ATOM     81  O   UNL     1       4.605  -6.544  13.000  1.00  0.00    -0.237 OA
ATOM     82  O   UNL     1       3.406  -4.394  12.927  1.00  0.00    -0.744 OA
ENDBRANCH  78  79
ENDBRANCH  50  73
BRANCH  62  83
ATOM     83  C   UNL     1      -5.308 -11.483  15.298  1.00  0.00    -0.014 A 
ATOM     84  C   UNL     1      -5.697 -10.502  16.227  1.00  0.00     0.010 A 
ATOM     85  C   UNL     1      -5.177 -12.818  15.725  1.00  0.00     0.010 A 
ATOM     86  C   UNL     1      -5.908 -10.842  17.566  1.00  0.00     0.020 A 
ATOM     87  C   UNL     1      -5.416 -13.166  17.056  1.00  0.00     0.020 A 
ATOM     88  C   UNL     1      -5.762 -12.172  17.973  1.00  0.00     0.054 A 
BRANCH  88  89
ATOM     89  S   UNL     1      -6.064 -12.594  19.711  1.00  0.00     0.124 S 
ATOM     90  O   UNL     1      -4.862 -12.080  20.361  1.00  0.00    -0.237 OA
ATOM     91  O   UNL     1      -7.298 -11.870  20.008  1.00  0.00    -0.237 OA
ATOM     92  O   UNL     1      -6.191 -14.049  19.697  1.00  0.00    -0.744 OA
ENDBRANCH  88  89
ENDBRANCH  62  83
ENDBRANCH  36  37
ENDBRANCH  28  31
ENDBRANCH  26  27
ENDBRANCH  25  26
ENDBRANCH  24  25
ENDBRANCH   1  24
TORSDOF 21
