REMARK SMILES O=C(NCCCCNC(=O)C1CCN(c2nc(-c3ccc(F)cc3)cc(C(F)F)n2)CC1)c1ccc(-c2c3nc(c(-c4ccc(S(=O)(=O)[O-])cc4)c4ccc([nH]4)c(-c4ccc(S(=O)(=O)[O-])cc4)c4nc(c(-c5ccc(S(=O)(=O)[O-])cc5)c5ccc2[nH]5)C=C4)C=C3)cc1
REMARK SMILES IDX 5 1 4 2 3 3 1 4 2 5 33 7 34 8 92 9 35 10 91 11 36 12 37 13
REMARK SMILES IDX 38 14 85 15 39 16 90 17 84 18 86 19 40 20 89 21 83 22 82 23
REMARK SMILES IDX 41 25 71 26 52 27 70 28 53 29 56 30 69 31 87 32 54 33 55 34
REMARK SMILES IDX 68 36 88 37 57 38 42 39 43 40 51 41 44 42 50 43 45 44 46 45
REMARK SMILES IDX 47 46 48 47 49 48 72 49 73 50 81 51 74 52 80 53 75 54 76 55
REMARK SMILES IDX 77 56 78 57 79 58 58 59 59 60 67 61 60 62 66 63 61 64 62 65
REMARK SMILES IDX 63 66 64 67 65 68 6 69 7 70 8 71 9 72 10 74 11 75 12 76
REMARK SMILES IDX 32 77 13 78 31 79 14 80 15 81 16 82 30 83 17 84 26 85 25 86
REMARK SMILES IDX 18 87 19 88 24 89 20 90 23 91 21 92 22 93 27 94 28 95 29 96
REMARK H PARENT 3 6 86 24 56 35 8 73
REMARK Flexibility Score: inf
ROOT
ATOM      1  C   UNL     1       5.153   2.512   0.254  1.00  0.00     0.023 C 
ENDROOT
BRANCH   1   2
ATOM      2  C   UNL     1       4.655   1.074   0.271  1.00  0.00     0.116 C 
BRANCH   2   3
ATOM      3  N   UNL     1       3.211   0.954   0.415  1.00  0.00    -0.352 N 
ATOM      4  O   UNL     1       1.185   0.031   0.011  1.00  0.00    -0.269 OA
ATOM      5  C   UNL     1       2.398  -0.028  -0.107  1.00  0.00     0.251 C 
ATOM      6  H   UNL     1       2.766   1.653   0.945  1.00  0.00     0.163 HD
BRANCH   5   7
ATOM      7  C   UNL     1       3.040  -1.132  -0.847  1.00  0.00     0.039 A 
ATOM      8  C   UNL     1       4.099  -1.832  -0.263  1.00  0.00     0.014 A 
ATOM      9  C   UNL     1       2.632  -1.409  -2.153  1.00  0.00     0.014 A 
ATOM     10  C   UNL     1       4.834  -2.722  -1.030  1.00  0.00     0.010 A 
ATOM     11  C   UNL     1       3.320  -2.370  -2.895  1.00  0.00     0.010 A 
ATOM     12  C   UNL     1       4.435  -3.020  -2.344  1.00  0.00    -0.014 A 
BRANCH  12  13
ATOM     13  C   UNL     1       5.122  -4.114  -3.067  1.00  0.00     0.031 A 
ATOM     14  C   UNL     1       5.930  -3.856  -4.306  1.00  0.00     0.074 A 
ATOM     15  C   UNL     1       4.997  -5.360  -2.569  1.00  0.00     0.049 A 
ATOM     16  N   UNL     1       6.566  -4.718  -5.056  1.00  0.00    -0.248 NA
ATOM     17  C   UNL     1       6.037  -2.463  -4.769  1.00  0.00     0.031 C 
ATOM     18  C   UNL     1       4.217  -5.715  -1.377  1.00  0.00     0.029 A 
ATOM     19  N   UNL     1       5.524  -6.554  -2.984  1.00  0.00    -0.354 N 
ATOM     20  C   UNL     1       7.123  -3.983  -6.096  1.00  0.00     0.074 A 
ATOM     21  C   UNL     1       6.751  -2.601  -5.881  1.00  0.00     0.031 C 
ATOM     22  C   UNL     1       4.347  -7.027  -1.138  1.00  0.00     0.029 A 
ATOM     23  C   UNL     1       5.152  -7.617  -2.197  1.00  0.00     0.049 A 
ATOM     24  H   UNL     1       6.111  -6.641  -3.770  1.00  0.00     0.167 HD
ATOM     25  C   UNL     1       7.869  -4.431  -7.133  1.00  0.00     0.031 A 
ATOM     26  C   UNL     1       5.396  -8.933  -2.332  1.00  0.00     0.031 A 
ATOM     27  C   UNL     1       8.242  -5.810  -7.319  1.00  0.00     0.049 A 
ATOM     28  C   UNL     1       6.205  -9.396  -3.504  1.00  0.00     0.074 A 
ATOM     29  C   UNL     1       9.054  -6.355  -8.300  1.00  0.00     0.029 A 
ATOM     30  N   UNL     1       7.822  -6.862  -6.519  1.00  0.00    -0.354 N 
ATOM     31  N   UNL     1       6.768  -8.677  -4.445  1.00  0.00    -0.248 NA
ATOM     32  C   UNL     1       6.399 -10.844  -3.644  1.00  0.00     0.031 C 
ATOM     33  C   UNL     1       9.078  -7.743  -8.126  1.00  0.00     0.029 A 
ATOM     34  C   UNL     1       8.320  -8.057  -7.009  1.00  0.00     0.049 A 
ATOM     35  H   UNL     1       7.252  -6.772  -5.721  1.00  0.00     0.167 HD
ATOM     36  C   UNL     1       7.378  -9.587  -5.297  1.00  0.00     0.074 A 
ATOM     37  C   UNL     1       7.145 -10.905  -4.738  1.00  0.00     0.031 C 
ATOM     38  C   UNL     1       8.058  -9.356  -6.445  1.00  0.00     0.031 A 
BRANCH  25  39
ATOM     39  C   UNL     1       8.317  -3.442  -8.176  1.00  0.00    -0.014 A 
ATOM     40  C   UNL     1       9.389  -2.565  -7.939  1.00  0.00     0.010 A 
ATOM     41  C   UNL     1       7.728  -3.474  -9.454  1.00  0.00     0.010 A 
ATOM     42  C   UNL     1       9.860  -1.733  -8.960  1.00  0.00     0.020 A 
ATOM     43  C   UNL     1       8.206  -2.655 -10.482  1.00  0.00     0.020 A 
ATOM     44  C   UNL     1       9.267  -1.786 -10.227  1.00  0.00     0.054 A 
BRANCH  44  45
ATOM     45  S   UNL     1       9.944  -0.746 -11.553  1.00  0.00     0.124 S 
ATOM     46  O   UNL     1       9.470   0.580 -11.167  1.00  0.00    -0.237 OA
ATOM     47  O   UNL     1      11.383  -0.960 -11.425  1.00  0.00    -0.237 OA
ATOM     48  O   UNL     1       9.341  -1.294 -12.765  1.00  0.00    -0.744 OA
ENDBRANCH  44  45
ENDBRANCH  25  39
BRANCH  26  49
ATOM     49  C   UNL     1       4.802  -9.895  -1.368  1.00  0.00    -0.014 A 
ATOM     50  C   UNL     1       5.609 -10.592  -0.455  1.00  0.00     0.010 A 
ATOM     51  C   UNL     1       3.409 -10.095  -1.347  1.00  0.00     0.010 A 
ATOM     52  C   UNL     1       5.034 -11.489   0.451  1.00  0.00     0.020 A 
ATOM     53  C   UNL     1       2.828 -10.966  -0.425  1.00  0.00     0.020 A 
ATOM     54  C   UNL     1       3.647 -11.671   0.459  1.00  0.00     0.054 A 
BRANCH  54  55
ATOM     55  S   UNL     1       2.911 -12.803   1.669  1.00  0.00     0.124 S 
ATOM     56  O   UNL     1       3.149 -14.102   1.049  1.00  0.00    -0.237 OA
ATOM     57  O   UNL     1       3.683 -12.527   2.878  1.00  0.00    -0.237 OA
ATOM     58  O   UNL     1       1.513 -12.379   1.723  1.00  0.00    -0.744 OA
ENDBRANCH  54  55
ENDBRANCH  26  49
BRANCH  38  59
ATOM     59  C   UNL     1       8.585 -10.559  -7.172  1.00  0.00    -0.014 A 
ATOM     60  C   UNL     1       7.717 -11.389  -7.904  1.00  0.00     0.010 A 
ATOM     61  C   UNL     1       9.961 -10.844  -7.150  1.00  0.00     0.010 A 
ATOM     62  C   UNL     1       8.215 -12.502  -8.581  1.00  0.00     0.020 A 
ATOM     63  C   UNL     1      10.465 -11.944  -7.846  1.00  0.00     0.020 A 
ATOM     64  C   UNL     1       9.586 -12.774  -8.546  1.00  0.00     0.054 A 
BRANCH  64  65
ATOM     65  S   UNL     1      10.216 -14.204  -9.468  1.00  0.00     0.124 S 
ATOM     66  O   UNL     1       9.825 -15.315  -8.605  1.00  0.00    -0.237 OA
ATOM     67  O   UNL     1       9.499 -14.111 -10.737  1.00  0.00    -0.237 OA
ATOM     68  O   UNL     1      11.653 -13.954  -9.551  1.00  0.00    -0.744 OA
ENDBRANCH  64  65
ENDBRANCH  38  59
ENDBRANCH  12  13
ENDBRANCH   5   7
ENDBRANCH   2   3
ENDBRANCH   1   2
BRANCH   1  69
ATOM     69  C   UNL     1       4.764   3.336   1.479  1.00  0.00     0.023 C 
BRANCH  69  70
ATOM     70  C   UNL     1       5.319   2.809   2.803  1.00  0.00     0.116 C 
BRANCH  70  71
ATOM     71  N   UNL     1       6.692   3.216   2.999  1.00  0.00    -0.356 N 
ATOM     72  C   UNL     1       7.299   4.247   3.620  1.00  0.00     0.223 C 
ATOM     73  H   UNL     1       7.333   2.596   2.582  1.00  0.00     0.163 HD
ATOM     74  O   UNL     1       8.531   4.277   3.487  1.00  0.00    -0.275 OA
BRANCH  72  75
ATOM     75  C   UNL     1       6.640   5.348   4.456  1.00  0.00     0.082 C 
ATOM     76  C   UNL     1       5.187   5.306   4.910  1.00  0.00     0.035 C 
ATOM     77  C   UNL     1       6.969   6.725   3.855  1.00  0.00     0.035 C 
ATOM     78  C   UNL     1       4.178   5.853   3.906  1.00  0.00     0.120 C 
ATOM     79  C   UNL     1       6.007   7.097   2.731  1.00  0.00     0.120 C 
ATOM     80  N   UNL     1       4.652   7.063   3.249  1.00  0.00    -0.341 N 
BRANCH  80  81
ATOM     81  C   UNL     1       3.662   7.721   2.538  1.00  0.00     0.226 A 
ATOM     82  N   UNL     1       2.481   7.862   3.146  1.00  0.00    -0.213 NA
ATOM     83  N   UNL     1       3.880   8.161   1.295  1.00  0.00    -0.212 NA
ATOM     84  C   UNL     1       1.459   8.431   2.488  1.00  0.00     0.076 A 
ATOM     85  C   UNL     1       2.841   8.716   0.619  1.00  0.00     0.112 A 
ATOM     86  C   UNL     1       1.585   8.856   1.187  1.00  0.00     0.059 A 
BRANCH  84  87
ATOM     87  C   UNL     1       0.238   8.560   3.296  1.00  0.00     0.001 A 
ATOM     88  C   UNL     1      -1.030   8.196   2.813  1.00  0.00     0.013 A 
ATOM     89  C   UNL     1       0.336   9.003   4.633  1.00  0.00     0.013 A 
ATOM     90  C   UNL     1      -2.155   8.266   3.643  1.00  0.00     0.040 A 
ATOM     91  C   UNL     1      -0.785   9.079   5.459  1.00  0.00     0.040 A 
ATOM     92  C   UNL     1      -2.021   8.706   4.956  1.00  0.00     0.123 A 
ATOM     93  F   UNL     1      -3.099   8.761   5.749  1.00  0.00    -0.207 F 
ENDBRANCH  84  87
BRANCH  85  94
ATOM     94  C   UNL     1       3.069   9.147  -0.815  1.00  0.00     0.391 C 
ATOM     95  F   UNL     1       4.249   9.803  -1.008  1.00  0.00    -0.203 F 
ATOM     96  F   UNL     1       3.067   8.102  -1.689  1.00  0.00    -0.203 F 
ENDBRANCH  85  94
ENDBRANCH  80  81
ENDBRANCH  72  75
ENDBRANCH  70  71
ENDBRANCH  69  70
ENDBRANCH   1  69
TORSDOF 17
