REMARK SMILES Cc1ccc(C)c(OCc2ccc(C(=O)NCCCCNC(=O)c3ccc(-c4c5nc(c(-c6ccc(S(=O)(=O)[O-])cc6)c6ccc([nH]6)c(-c6ccc(S(=O)(=O)[O-])cc6)c6nc(c(-c7ccc(S(=O)(=O)[O-])cc7)c7ccc4[nH]7)C=C6)C=C5)cc3)cc2)c1C
REMARK SMILES IDX 18 1 17 2 16 3 14 4 15 5 13 7 10 8 11 9 85 10 12 11 84 12
REMARK SMILES IDX 9 13 8 14 7 15 1 16 2 17 3 18 86 19 4 20 87 21 5 22 6 23
REMARK SMILES IDX 19 24 20 25 21 26 22 27 23 29 24 30 25 31 83 32 26 33 82 34
REMARK SMILES IDX 27 35 28 36 29 37 76 38 30 39 81 40 75 41 77 42 31 43 80 44
REMARK SMILES IDX 74 45 73 46 32 48 62 49 43 50 61 51 44 52 47 53 60 54 78 55
REMARK SMILES IDX 45 56 46 57 59 59 79 60 48 61 33 62 34 63 42 64 35 65 41 66
REMARK SMILES IDX 36 67 37 68 38 69 39 70 40 71 63 72 64 73 72 74 65 75 71 76
REMARK SMILES IDX 66 77 67 78 68 79 69 80 70 81 49 82 50 83 58 84 51 85 57 86
REMARK SMILES IDX 52 87 53 88 54 89 55 90 56 91
REMARK H PARENT 16 6 21 28 77 47 47 58
REMARK Flexibility Score: inf
ROOT
ATOM      1  C   UNL     1       4.524   3.642   6.785  1.00  0.00     0.023 C 
ENDROOT
BRANCH   1   2
ATOM      2  C   UNL     1       5.589   2.864   6.010  1.00  0.00     0.116 C 
BRANCH   2   3
ATOM      3  N   UNL     1       5.231   1.468   5.950  1.00  0.00    -0.352 N 
ATOM      4  C   UNL     1       4.335   0.789   5.170  1.00  0.00     0.251 C 
ATOM      5  O   UNL     1       4.166  -0.402   5.443  1.00  0.00    -0.269 OA
ATOM      6  H   UNL     1       5.720   0.900   6.588  1.00  0.00     0.163 HD
BRANCH   4   7
ATOM      7  C   UNL     1       3.617   1.376   3.992  1.00  0.00     0.039 A 
ATOM      8  C   UNL     1       2.477   2.160   1.493  1.00  0.00    -0.011 A 
ATOM      9  C   UNL     1       2.430   0.837   1.936  1.00  0.00     0.008 A 
ATOM     10  C   UNL     1       3.004   3.105   2.381  1.00  0.00     0.008 A 
ATOM     11  C   UNL     1       2.997   0.449   3.152  1.00  0.00     0.014 A 
ATOM     12  C   UNL     1       3.545   2.720   3.619  1.00  0.00     0.014 A 
BRANCH   8  13
ATOM     13  C   UNL     1       2.189   2.584   0.058  1.00  0.00     0.265 C 
BRANCH  13  14
ATOM     14  O   UNL     1       0.993   2.187  -0.613  1.00  0.00    -0.488 OA
BRANCH  14  15
ATOM     15  C   UNL     1       0.632   0.870  -0.685  1.00  0.00     0.125 A 
ATOM     16  C   UNL     1      -2.626  -1.005   0.100  1.00  0.00     0.045 C 
ATOM     17  C   UNL     1      -1.203  -0.691  -0.270  1.00  0.00    -0.044 A 
ATOM     18  C   UNL     1      -0.321  -1.746  -0.526  1.00  0.00     0.004 A 
ATOM     19  C   UNL     1      -0.730   0.633  -0.369  1.00  0.00    -0.006 A 
ATOM     20  C   UNL     1       0.993  -1.500  -0.924  1.00  0.00     0.007 A 
ATOM     21  C   UNL     1      -1.626   1.818  -0.093  1.00  0.00     0.049 C 
ATOM     22  C   UNL     1       1.481  -0.191  -1.049  1.00  0.00    -0.009 A 
ATOM     23  C   UNL     1       2.902  -0.017  -1.505  1.00  0.00     0.048 C 
ENDBRANCH  14  15
ENDBRANCH  13  14
ENDBRANCH   8  13
ENDBRANCH   4   7
ENDBRANCH   2   3
ENDBRANCH   1   2
BRANCH   1  24
ATOM     24  C   UNL     1       4.626   3.480   8.304  1.00  0.00     0.023 C 
BRANCH  24  25
ATOM     25  C   UNL     1       5.962   3.914   8.893  1.00  0.00     0.116 C 
BRANCH  25  26
ATOM     26  N   UNL     1       6.356   5.251   8.476  1.00  0.00    -0.352 N 
ATOM     27  C   UNL     1       7.197   6.124   9.114  1.00  0.00     0.251 C 
ATOM     28  H   UNL     1       5.970   5.568   7.628  1.00  0.00     0.163 HD
ATOM     29  O   UNL     1       7.338   7.268   8.692  1.00  0.00    -0.269 OA
BRANCH  27  30
ATOM     30  C   UNL     1       7.890   5.681  10.336  1.00  0.00     0.039 A 
ATOM     31  C   UNL     1       7.803   6.477  11.478  1.00  0.00     0.014 A 
ATOM     32  C   UNL     1       8.582   4.467  10.361  1.00  0.00     0.014 A 
ATOM     33  C   UNL     1       8.377   6.030  12.666  1.00  0.00     0.010 A 
ATOM     34  C   UNL     1       9.087   3.989  11.564  1.00  0.00     0.010 A 
ATOM     35  C   UNL     1       8.999   4.771  12.724  1.00  0.00    -0.014 A 
BRANCH  35  36
ATOM     36  C   UNL     1       9.565   4.270  13.998  1.00  0.00     0.031 A 
ATOM     37  C   UNL     1      11.048   4.060  14.135  1.00  0.00     0.074 A 
ATOM     38  C   UNL     1       8.736   3.978  15.019  1.00  0.00     0.049 A 
ATOM     39  N   UNL     1      11.728   3.658  15.176  1.00  0.00    -0.248 NA
ATOM     40  C   UNL     1      11.872   4.311  12.940  1.00  0.00     0.031 C 
ATOM     41  C   UNL     1       7.275   4.088  14.982  1.00  0.00     0.029 A 
ATOM     42  N   UNL     1       9.003   3.537  16.289  1.00  0.00    -0.354 N 
ATOM     43  C   UNL     1      13.053   3.600  14.762  1.00  0.00     0.074 A 
ATOM     44  C   UNL     1      13.075   3.950  13.360  1.00  0.00     0.031 C 
ATOM     45  C   UNL     1       6.779   3.762  16.187  1.00  0.00     0.029 A 
ATOM     46  C   UNL     1       7.880   3.392  17.070  1.00  0.00     0.049 A 
ATOM     47  H   UNL     1       9.912   3.341  16.612  1.00  0.00     0.167 HD
ATOM     48  C   UNL     1      14.156   3.305  15.491  1.00  0.00     0.031 A 
ATOM     49  C   UNL     1       7.754   3.013  18.355  1.00  0.00     0.031 A 
ATOM     50  C   UNL     1      14.126   2.966  16.888  1.00  0.00     0.049 A 
ATOM     51  C   UNL     1       8.994   2.704  19.147  1.00  0.00     0.074 A 
ATOM     52  C   UNL     1      15.190   2.705  17.734  1.00  0.00     0.029 A 
ATOM     53  N   UNL     1      12.972   2.838  17.646  1.00  0.00    -0.354 N 
ATOM     54  N   UNL     1      10.247   2.731  18.759  1.00  0.00    -0.248 NA
ATOM     55  C   UNL     1       8.804   2.331  20.555  1.00  0.00     0.031 C 
ATOM     56  C   UNL     1      14.675   2.371  18.991  1.00  0.00     0.029 A 
ATOM     57  C   UNL     1      13.294   2.482  18.944  1.00  0.00     0.049 A 
ATOM     58  H   UNL     1      12.057   2.980  17.310  1.00  0.00     0.167 HD
ATOM     59  C   UNL     1      10.998   2.402  19.883  1.00  0.00     0.074 A 
ATOM     60  C   UNL     1      10.057   2.202  20.967  1.00  0.00     0.031 C 
ATOM     61  C   UNL     1      12.343   2.278  20.007  1.00  0.00     0.031 A 
BRANCH  48  62
ATOM     62  C   UNL     1      15.485   3.338  14.783  1.00  0.00    -0.014 A 
ATOM     63  C   UNL     1      16.045   4.553  14.345  1.00  0.00     0.010 A 
ATOM     64  C   UNL     1      16.200   2.144  14.578  1.00  0.00     0.010 A 
ATOM     65  C   UNL     1      17.273   4.569  13.679  1.00  0.00     0.020 A 
ATOM     66  C   UNL     1      17.443   2.159  13.937  1.00  0.00     0.020 A 
ATOM     67  C   UNL     1      17.963   3.370  13.476  1.00  0.00     0.054 A 
BRANCH  67  68
ATOM     68  S   UNL     1      19.564   3.423  12.627  1.00  0.00     0.124 S 
ATOM     69  O   UNL     1      19.164   3.681  11.246  1.00  0.00    -0.237 OA
ATOM     70  O   UNL     1      20.247   4.526  13.299  1.00  0.00    -0.237 OA
ATOM     71  O   UNL     1      20.132   2.100  12.873  1.00  0.00    -0.744 OA
ENDBRANCH  67  68
ENDBRANCH  48  62
BRANCH  49  72
ATOM     72  C   UNL     1       6.405   2.940  18.979  1.00  0.00    -0.014 A 
ATOM     73  C   UNL     1       6.013   3.880  19.949  1.00  0.00     0.010 A 
ATOM     74  C   UNL     1       5.496   1.938  18.592  1.00  0.00     0.010 A 
ATOM     75  C   UNL     1       4.746   3.807  20.535  1.00  0.00     0.020 A 
ATOM     76  C   UNL     1       4.218   1.879  19.156  1.00  0.00     0.020 A 
ATOM     77  C   UNL     1       3.856   2.808  20.134  1.00  0.00     0.054 A 
BRANCH  77  78
ATOM     78  S   UNL     1       2.199   2.763  20.871  1.00  0.00     0.124 S 
ATOM     79  O   UNL     1       2.475   2.249  22.208  1.00  0.00    -0.237 OA
ATOM     80  O   UNL     1       1.785   4.163  20.804  1.00  0.00    -0.237 OA
ATOM     81  O   UNL     1       1.458   1.860  19.992  1.00  0.00    -0.744 OA
ENDBRANCH  77  78
ENDBRANCH  49  72
BRANCH  61  82
ATOM     82  C   UNL     1      12.877   1.935  21.372  1.00  0.00    -0.014 A 
ATOM     83  C   UNL     1      12.701   0.653  21.923  1.00  0.00     0.010 A 
ATOM     84  C   UNL     1      13.597   2.901  22.097  1.00  0.00     0.010 A 
ATOM     85  C   UNL     1      13.197   0.358  23.195  1.00  0.00     0.020 A 
ATOM     86  C   UNL     1      14.121   2.601  23.357  1.00  0.00     0.020 A 
ATOM     87  C   UNL     1      13.901   1.336  23.905  1.00  0.00     0.054 A 
BRANCH  87  88
ATOM     88  S   UNL     1      14.556   0.923  25.545  1.00  0.00     0.124 S 
ATOM     89  O   UNL     1      13.348   0.935  26.366  1.00  0.00    -0.237 OA
ATOM     90  O   UNL     1      15.156  -0.392  25.329  1.00  0.00    -0.237 OA
ATOM     91  O   UNL     1      15.507   1.997  25.819  1.00  0.00    -0.744 OA
ENDBRANCH  87  88
ENDBRANCH  61  82
ENDBRANCH  35  36
ENDBRANCH  27  30
ENDBRANCH  25  26
ENDBRANCH  24  25
ENDBRANCH   1  24
TORSDOF 17
