REMARK SMILES O=C(Cn1nc(-c2ccc(Br)cc2)ccc1=O)N[C@H](C(=O)NCCCCNC(=O)c1ccc(-c2c3nc(c(-c4ccc(S(=O)(=O)[O-])cc4)c4ccc([nH]4)c(-c4ccc(S(=O)(=O)[O-])cc4)c4nc(c(-c5ccc(S(=O)(=O)[O-])cc5)c5ccc2[nH]5)C=C4)C=C3)cc1)c1ccccc1
REMARK SMILES IDX 24 1 23 2 22 3 20 4 21 5 19 7 18 8 1 9 2 10 3 12 4 13 5 14
REMARK SMILES IDX 16 15 6 16 15 17 17 18 14 19 7 20 8 21 13 22 9 23 12 24
REMARK SMILES IDX 10 25 11 26 90 27 91 28 95 29 92 30 94 31 93 32 25 33 26 34
REMARK SMILES IDX 27 35 28 36 29 38 30 39 31 40 89 41 32 42 88 43 33 44 34 45
REMARK SMILES IDX 35 46 82 47 36 48 87 49 81 50 83 51 37 52 86 53 80 54 79 55
REMARK SMILES IDX 38 57 68 58 49 59 67 60 50 61 53 62 66 63 84 64 51 65 52 66
REMARK SMILES IDX 65 68 85 69 54 70 39 71 40 72 48 73 41 74 47 75 42 76 43 77
REMARK SMILES IDX 44 78 45 79 46 80 69 81 70 82 78 83 71 84 77 85 72 86 73 87
REMARK SMILES IDX 74 88 75 89 76 90 55 91 56 92 64 93 57 94 63 95 58 96 59 97
REMARK SMILES IDX 60 98 61 99 62 100
REMARK H PARENT 22 6 18 11 27 37 83 56 53 67
REMARK Flexibility Score: inf
ROOT
ATOM      1  C   UNL     1       0.064  -1.348  -0.809  1.00  0.00     0.023 C 
ENDROOT
BRANCH   1   2
ATOM      2  C   UNL     1       1.350  -1.984  -0.274  1.00  0.00     0.116 C 
BRANCH   2   3
ATOM      3  N   UNL     1       2.340  -0.974   0.042  1.00  0.00    -0.354 N 
ATOM      4  C   UNL     1       2.845  -0.565   1.249  1.00  0.00     0.247 C 
ATOM      5  O   UNL     1       3.563   0.437   1.220  1.00  0.00    -0.272 OA
ATOM      6  H   UNL     1       2.711  -0.504  -0.739  1.00  0.00     0.163 HD
BRANCH   4   7
ATOM      7  C   UNL     1       2.525  -1.382   2.536  1.00  0.00     0.202 C 
BRANCH   7   8
ATOM      8  N   UNL     1       3.325  -2.612   2.518  1.00  0.00    -0.339 N 
ATOM      9  O   UNL     1       5.358  -1.569   2.683  1.00  0.00    -0.273 OA
ATOM     10  C   UNL     1       4.693  -2.603   2.691  1.00  0.00     0.242 C 
ATOM     11  H   UNL     1       2.869  -3.474   2.378  1.00  0.00     0.164 HD
BRANCH  10  12
ATOM     12  C   UNL     1       5.383  -3.961   2.706  1.00  0.00     0.248 C 
BRANCH  12  13
ATOM     13  N   UNL     1       4.681  -5.000   3.457  1.00  0.00    -0.220 N 
ATOM     14  N   UNL     1       4.980  -5.093   4.803  1.00  0.00    -0.169 NA
ATOM     15  C   UNL     1       3.795  -5.843   2.809  1.00  0.00     0.267 A 
ATOM     16  C   UNL     1       4.509  -6.111   5.447  1.00  0.00     0.091 A 
ATOM     17  C   UNL     1       3.352  -7.030   3.571  1.00  0.00     0.075 A 
ATOM     18  O   UNL     1       3.366  -5.659   1.673  1.00  0.00    -0.268 OA
ATOM     19  C   UNL     1       3.699  -7.190   4.849  1.00  0.00     0.036 A 
BRANCH  16  20
ATOM     20  C   UNL     1       4.768  -6.239   6.894  1.00  0.00     0.002 A 
ATOM     21  C   UNL     1       4.150  -5.345   7.774  1.00  0.00     0.011 A 
ATOM     22  C   UNL     1       5.631  -7.232   7.370  1.00  0.00     0.011 A 
ATOM     23  C   UNL     1       4.382  -5.459   9.146  1.00  0.00     0.016 A 
ATOM     24  C   UNL     1       5.868  -7.335   8.742  1.00  0.00     0.016 A 
ATOM     25  C   UNL     1       5.239  -6.452   9.623  1.00  0.00     0.018 A 
ATOM     26  Br  UNL     1       5.559  -6.598  11.481  1.00  0.00    -0.051 Br
ENDBRANCH  16  20
ENDBRANCH  12  13
ENDBRANCH  10  12
ENDBRANCH   7   8
BRANCH   7  27
ATOM     27  C   UNL     1       2.603  -0.623   3.864  1.00  0.00    -0.016 A 
ATOM     28  C   UNL     1       2.314   0.750   3.941  1.00  0.00     0.006 A 
ATOM     29  C   UNL     1       2.907  -1.292   5.066  1.00  0.00     0.006 A 
ATOM     30  C   UNL     1       2.409   1.441   5.153  1.00  0.00     0.000 A 
ATOM     31  C   UNL     1       3.005  -0.601   6.277  1.00  0.00     0.000 A 
ATOM     32  C   UNL     1       2.766   0.768   6.317  1.00  0.00     0.000 A 
ENDBRANCH   7  27
ENDBRANCH   4   7
ENDBRANCH   2   3
ENDBRANCH   1   2
BRANCH   1  33
ATOM     33  C   UNL     1       0.230  -0.540  -2.102  1.00  0.00     0.023 C 
BRANCH  33  34
ATOM     34  C   UNL     1       0.800  -1.309  -3.289  1.00  0.00     0.116 C 
BRANCH  34  35
ATOM     35  N   UNL     1      -0.063  -2.392  -3.739  1.00  0.00    -0.352 N 
ATOM     36  C   UNL     1      -0.396  -2.753  -5.027  1.00  0.00     0.251 C 
ATOM     37  H   UNL     1      -0.463  -2.941  -3.026  1.00  0.00     0.163 HD
ATOM     38  O   UNL     1      -1.234  -3.622  -5.224  1.00  0.00    -0.269 OA
BRANCH  36  39
ATOM     39  C   UNL     1       0.235  -2.048  -6.168  1.00  0.00     0.039 A 
ATOM     40  C   UNL     1       1.613  -1.825  -6.194  1.00  0.00     0.014 A 
ATOM     41  C   UNL     1      -0.573  -1.567  -7.202  1.00  0.00     0.014 A 
ATOM     42  C   UNL     1       2.156  -0.982  -7.158  1.00  0.00     0.010 A 
ATOM     43  C   UNL     1      -0.011  -0.782  -8.215  1.00  0.00     0.010 A 
ATOM     44  C   UNL     1       1.348  -0.439  -8.172  1.00  0.00    -0.014 A 
BRANCH  44  45
ATOM     45  C   UNL     1       1.948   0.495  -9.162  1.00  0.00     0.031 A 
ATOM     46  C   UNL     1       1.534   1.943  -9.206  1.00  0.00     0.074 A 
ATOM     47  C   UNL     1       2.925   0.052  -9.979  1.00  0.00     0.049 A 
ATOM     48  N   UNL     1       1.992   2.904  -9.968  1.00  0.00    -0.248 NA
ATOM     49  C   UNL     1       0.475   2.372  -8.278  1.00  0.00     0.031 C 
ATOM     50  C   UNL     1       3.429  -1.323 -10.014  1.00  0.00     0.029 A 
ATOM     51  N   UNL     1       3.693   0.711 -10.906  1.00  0.00    -0.354 N 
ATOM     52  C   UNL     1       1.274   4.043  -9.621  1.00  0.00     0.074 A 
ATOM     53  C   UNL     1       0.326   3.650  -8.602  1.00  0.00     0.031 C 
ATOM     54  C   UNL     1       4.463  -1.389 -10.865  1.00  0.00     0.029 A 
ATOM     55  C   UNL     1       4.656  -0.081 -11.486  1.00  0.00     0.049 A 
ATOM     56  H   UNL     1       3.567   1.660 -11.135  1.00  0.00     0.167 HD
ATOM     57  C   UNL     1       1.403   5.304 -10.099  1.00  0.00     0.031 A 
ATOM     58  C   UNL     1       5.591   0.201 -12.415  1.00  0.00     0.031 A 
ATOM     59  C   UNL     1       2.360   5.694 -11.102  1.00  0.00     0.049 A 
ATOM     60  C   UNL     1       5.684   1.596 -12.963  1.00  0.00     0.074 A 
ATOM     61  C   UNL     1       2.572   6.954 -11.635  1.00  0.00     0.029 A 
ATOM     62  N   UNL     1       3.265   4.843 -11.716  1.00  0.00    -0.354 N 
ATOM     63  N   UNL     1       4.992   2.656 -12.624  1.00  0.00    -0.248 NA
ATOM     64  C   UNL     1       6.678   1.835 -14.019  1.00  0.00     0.031 C 
ATOM     65  C   UNL     1       3.564   6.853 -12.613  1.00  0.00     0.029 A 
ATOM     66  C   UNL     1       4.018   5.544 -12.643  1.00  0.00     0.049 A 
ATOM     67  H   UNL     1       3.359   3.882 -11.522  1.00  0.00     0.167 HD
ATOM     68  C   UNL     1       5.467   3.690 -13.421  1.00  0.00     0.074 A 
ATOM     69  C   UNL     1       6.521   3.134 -14.245  1.00  0.00     0.031 C 
ATOM     70  C   UNL     1       5.058   4.981 -13.467  1.00  0.00     0.031 A 
BRANCH  57  71
ATOM     71  C   UNL     1       0.494   6.374  -9.553  1.00  0.00    -0.014 A 
ATOM     72  C   UNL     1      -0.487   6.947 -10.384  1.00  0.00     0.010 A 
ATOM     73  C   UNL     1       0.688   6.899  -8.263  1.00  0.00     0.010 A 
ATOM     74  C   UNL     1      -1.238   8.042  -9.948  1.00  0.00     0.020 A 
ATOM     75  C   UNL     1      -0.079   7.979  -7.814  1.00  0.00     0.020 A 
ATOM     76  C   UNL     1      -1.021   8.558  -8.668  1.00  0.00     0.054 A 
BRANCH  76  77
ATOM     77  S   UNL     1      -1.990   9.993  -8.124  1.00  0.00     0.124 S 
ATOM     78  O   UNL     1      -1.331  11.093  -8.820  1.00  0.00    -0.237 OA
ATOM     79  O   UNL     1      -3.336   9.666  -8.591  1.00  0.00    -0.237 OA
ATOM     80  O   UNL     1      -1.827   9.983  -6.672  1.00  0.00    -0.744 OA
ENDBRANCH  76  77
ENDBRANCH  57  71
BRANCH  58  81
ATOM     81  C   UNL     1       6.516  -0.878 -12.858  1.00  0.00    -0.014 A 
ATOM     82  C   UNL     1       6.026  -1.975 -13.591  1.00  0.00     0.010 A 
ATOM     83  C   UNL     1       7.864  -0.867 -12.461  1.00  0.00     0.010 A 
ATOM     84  C   UNL     1       6.847  -3.071 -13.861  1.00  0.00     0.020 A 
ATOM     85  C   UNL     1       8.698  -1.951 -12.756  1.00  0.00     0.020 A 
ATOM     86  C   UNL     1       8.174  -3.060 -13.425  1.00  0.00     0.054 A 
BRANCH  86  87
ATOM     87  S   UNL     1       9.205  -4.522 -13.727  1.00  0.00     0.124 S 
ATOM     88  O   UNL     1       8.748  -5.431 -12.679  1.00  0.00    -0.237 OA
ATOM     89  O   UNL     1       8.838  -4.898 -15.090  1.00  0.00    -0.237 OA
ATOM     90  O   UNL     1      10.566  -4.017 -13.569  1.00  0.00    -0.744 OA
ENDBRANCH  86  87
ENDBRANCH  58  81
BRANCH  70  91
ATOM     91  C   UNL     1       5.731   5.905 -14.447  1.00  0.00    -0.014 A 
ATOM     92  C   UNL     1       6.553   6.946 -13.975  1.00  0.00     0.010 A 
ATOM     93  C   UNL     1       5.438   5.830 -15.819  1.00  0.00     0.010 A 
ATOM     94  C   UNL     1       7.040   7.917 -14.853  1.00  0.00     0.020 A 
ATOM     95  C   UNL     1       5.945   6.785 -16.705  1.00  0.00     0.020 A 
ATOM     96  C   UNL     1       6.721   7.838 -16.211  1.00  0.00     0.054 A 
BRANCH  96  97
ATOM     97  S   UNL     1       7.327   9.130 -17.331  1.00  0.00     0.124 S 
ATOM     98  O   UNL     1       6.410  10.231 -17.055  1.00  0.00    -0.237 OA
ATOM     99  O   UNL     1       8.703   9.328 -16.881  1.00  0.00    -0.237 OA
ATOM    100  O   UNL     1       7.196   8.524 -18.655  1.00  0.00    -0.744 OA
ENDBRANCH  96  97
ENDBRANCH  70  91
ENDBRANCH  44  45
ENDBRANCH  36  39
ENDBRANCH  34  35
ENDBRANCH  33  34
ENDBRANCH   1  33
TORSDOF 19
