REMARK SMILES Cc1ccc(C2=NN(C(=O)CCC(=O)NCCCCNC(=O)c3ccc(-c4c5nc(c(-c6ccc(S(=O)(=O)[O-])cc6)c6ccc([nH]6)c(-c6ccc(S(=O)(=O)[O-])cc6)c6nc(c(-c7ccc(S(=O)(=O)[O-])cc7)c7ccc4[nH]7)C=C6)C=C5)cc3)[C@H](C[C@@H]3C=c4cccc(C)c4=NC3=O)C2)cc1
REMARK SMILES IDX 16 1 15 2 13 3 14 4 12 6 11 7 9 8 10 9 8 10 6 11 7 12 97 13
REMARK SMILES IDX 83 14 5 15 1 16 2 17 3 18 99 19 4 20 98 21 84 22 85 23 86 24
REMARK SMILES IDX 95 25 87 26 94 27 96 28 88 29 93 30 89 31 91 32 90 33 92 34
REMARK SMILES IDX 17 35 18 36 19 37 20 38 21 39 22 41 23 42 24 43 82 44 25 45
REMARK SMILES IDX 81 46 26 47 27 48 28 49 75 50 29 51 80 52 74 53 76 54 30 55
REMARK SMILES IDX 79 56 73 57 72 58 31 60 61 61 42 62 60 63 43 64 46 65 59 66
REMARK SMILES IDX 77 67 44 68 45 69 58 71 78 72 47 73 32 74 33 75 41 76 34 77
REMARK SMILES IDX 40 78 35 79 36 80 37 81 38 82 39 83 62 84 63 85 71 86 64 87
REMARK SMILES IDX 70 88 65 89 66 90 67 91 68 92 69 93 48 94 49 95 57 96 50 97
REMARK SMILES IDX 56 98 51 99 52 100 53 101 54 102 55 103
REMARK H PARENT 15 5 20 40 76 59 46 70
REMARK Flexibility Score: inf
ROOT
ATOM      1  C   UNL     1      -4.887   1.369  -0.206  1.00  0.00     0.116 C 
ENDROOT
BRANCH   1   2
ATOM      2  N   UNL     1      -6.213   2.167  -0.566  1.00  0.00    -0.356 N 
ATOM      3  C   UNL     1      -7.419   2.430   0.017  1.00  0.00     0.220 C 
ATOM      4  O   UNL     1      -8.197   3.143  -0.631  1.00  0.00    -0.275 OA
ATOM      5  H   UNL     1      -6.147   2.587  -1.454  1.00  0.00     0.163 HD
BRANCH   3   6
ATOM      6  C   UNL     1      -7.871   1.901   1.369  1.00  0.00     0.110 C 
BRANCH   6   7
ATOM      7  C   UNL     1      -7.714   0.419   1.617  1.00  0.00     0.112 C 
BRANCH   7   8
ATOM      8  C   UNL     1      -6.282   0.115   1.978  1.00  0.00     0.243 C 
ATOM      9  O   UNL     1      -5.911   0.052   3.143  1.00  0.00    -0.273 OA
BRANCH   8  10
ATOM     10  N   UNL     1      -5.510  -0.017   0.847  1.00  0.00    -0.230 N 
ATOM     11  C   UNL     1      -3.070   0.663  -0.683  1.00  0.00     0.070 C 
ATOM     12  N   UNL     1      -3.627   0.506   0.861  1.00  0.00    -0.174 NA
ATOM     13  C   UNL     1      -4.466   0.455  -2.008  1.00  0.00     0.086 C 
ATOM     14  C   UNL     1      -6.027  -0.118  -1.049  1.00  0.00     0.118 C 
BRANCH  11  15
ATOM     15  C   UNL     1      -1.762   0.731  -1.430  1.00  0.00    -0.002 A 
ATOM     16  C   UNL     1       2.409   0.226  -1.747  1.00  0.00     0.044 C 
ATOM     17  C   UNL     1       0.946   0.473  -1.980  1.00  0.00    -0.051 A 
ATOM     18  C   UNL     1       0.115  -0.641  -2.086  1.00  0.00     0.004 A 
ATOM     19  C   UNL     1       0.377   1.751  -1.856  1.00  0.00     0.004 A 
ATOM     20  C   UNL     1      -1.238  -0.508  -1.820  1.00  0.00     0.010 A 
ATOM     21  C   UNL     1      -1.000   1.893  -1.610  1.00  0.00     0.010 A 
ENDBRANCH  11  15
BRANCH  14  22
ATOM     22  C   UNL     1      -6.479  -1.377  -1.868  1.00  0.00     0.045 C 
BRANCH  22  23
ATOM     23  C   UNL     1      -7.845  -1.869  -1.449  1.00  0.00     0.106 C 
ATOM     24  C   UNL     1      -7.695  -2.526  -0.129  1.00  0.00    -0.003 C 
ATOM     25  C   UNL     1      -8.479  -2.752  -2.531  1.00  0.00     0.253 C 
ATOM     26  C   UNL     1      -8.254  -3.689   0.165  1.00  0.00    -0.003 A 
ATOM     27  N   UNL     1      -9.064  -3.942  -2.165  1.00  0.00    -0.212 NA
ATOM     28  O   UNL     1      -8.511  -2.361  -3.698  1.00  0.00    -0.272 OA
ATOM     29  C   UNL     1      -8.202  -4.231   1.492  1.00  0.00     0.010 A 
ATOM     30  C   UNL     1      -8.960  -4.374  -0.949  1.00  0.00     0.077 A 
ATOM     31  C   UNL     1      -8.828  -5.379   1.759  1.00  0.00     0.001 A 
ATOM     32  C   UNL     1      -9.556  -5.696  -0.568  1.00  0.00    -0.025 A 
ATOM     33  C   UNL     1      -9.486  -6.120   0.708  1.00  0.00     0.005 A 
ATOM     34  C   UNL     1     -10.150  -6.498  -1.679  1.00  0.00     0.047 C 
ENDBRANCH  22  23
ENDBRANCH  14  22
ENDBRANCH   8  10
ENDBRANCH   7   8
ENDBRANCH   6   7
ENDBRANCH   3   6
ENDBRANCH   1   2
BRANCH   1  35
ATOM     35  C   UNL     1      -4.275  -0.816  -0.246  1.00  0.00     0.023 C 
BRANCH  35  36
ATOM     36  C   UNL     1      -3.477  -1.886   1.170  1.00  0.00     0.023 C 
BRANCH  36  37
ATOM     37  C   UNL     1      -2.515  -1.668   2.781  1.00  0.00     0.116 C 
BRANCH  37  38
ATOM     38  N   UNL     1      -0.812  -1.477   3.538  1.00  0.00    -0.352 N 
ATOM     39  C   UNL     1       0.609  -0.559   3.905  1.00  0.00     0.251 C 
ATOM     40  H   UNL     1      -0.631  -2.360   3.935  1.00  0.00     0.163 HD
ATOM     41  O   UNL     1       1.131  -1.019   4.952  1.00  0.00    -0.269 OA
BRANCH  39  42
ATOM     42  C   UNL     1       1.536   0.960   3.311  1.00  0.00     0.039 A 
ATOM     43  C   UNL     1       2.132   1.928   4.144  1.00  0.00     0.014 A 
ATOM     44  C   UNL     1       1.351   1.736   2.100  1.00  0.00     0.014 A 
ATOM     45  C   UNL     1       1.941   3.423   3.871  1.00  0.00     0.010 A 
ATOM     46  C   UNL     1       1.395   3.091   1.666  1.00  0.00     0.010 A 
ATOM     47  C   UNL     1       1.291   3.943   2.707  1.00  0.00    -0.014 A 
BRANCH  47  48
ATOM     48  C   UNL     1       0.189   5.003   2.558  1.00  0.00     0.031 A 
ATOM     49  C   UNL     1       0.508   6.224   1.811  1.00  0.00     0.074 A 
ATOM     50  C   UNL     1      -1.154   4.940   2.859  1.00  0.00     0.049 A 
ATOM     51  N   UNL     1       0.607   7.392   2.343  1.00  0.00    -0.248 NA
ATOM     52  C   UNL     1       0.676   6.207   0.359  1.00  0.00     0.031 C 
ATOM     53  C   UNL     1      -2.201   5.988   2.872  1.00  0.00     0.029 A 
ATOM     54  N   UNL     1      -1.863   3.909   3.435  1.00  0.00    -0.354 N 
ATOM     55  C   UNL     1       0.534   8.283   1.292  1.00  0.00     0.074 A 
ATOM     56  C   UNL     1       0.824   7.512   0.101  1.00  0.00     0.031 C 
ATOM     57  C   UNL     1      -3.148   5.665   3.789  1.00  0.00     0.029 A 
ATOM     58  C   UNL     1      -2.789   4.388   4.374  1.00  0.00     0.049 A 
ATOM     59  H   UNL     1      -1.736   2.957   3.216  1.00  0.00     0.167 HD
ATOM     60  C   UNL     1      -0.073   9.497   1.445  1.00  0.00     0.031 A 
ATOM     61  C   UNL     1      -2.598   4.072   5.699  1.00  0.00     0.031 A 
ATOM     62  C   UNL     1      -0.856   9.536   2.691  1.00  0.00     0.049 A 
ATOM     63  C   UNL     1      -1.963   5.284   6.419  1.00  0.00     0.074 A 
ATOM     64  C   UNL     1      -2.223   9.532   2.927  1.00  0.00     0.029 A 
ATOM     65  N   UNL     1      -0.257   9.232   3.909  1.00  0.00    -0.354 N 
ATOM     66  N   UNL     1      -1.687   6.408   5.809  1.00  0.00    -0.248 NA
ATOM     67  C   UNL     1      -1.604   5.368   7.838  1.00  0.00     0.031 C 
ATOM     68  C   UNL     1      -2.439   9.134   4.276  1.00  0.00     0.029 A 
ATOM     69  C   UNL     1      -1.207   8.929   4.870  1.00  0.00     0.049 A 
ATOM     70  H   UNL     1       0.715   9.232   4.067  1.00  0.00     0.167 HD
ATOM     71  C   UNL     1      -1.147   7.330   6.664  1.00  0.00     0.074 A 
ATOM     72  C   UNL     1      -1.131   6.630   7.937  1.00  0.00     0.031 C 
ATOM     73  C   UNL     1      -0.788   8.582   6.230  1.00  0.00     0.031 A 
BRANCH  60  74
ATOM     74  C   UNL     1      -0.237  10.519   0.335  1.00  0.00    -0.014 A 
ATOM     75  C   UNL     1      -1.144  11.588   0.488  1.00  0.00     0.010 A 
ATOM     76  C   UNL     1       0.531  10.530  -0.849  1.00  0.00     0.010 A 
ATOM     77  C   UNL     1      -1.323  12.567  -0.502  1.00  0.00     0.020 A 
ATOM     78  C   UNL     1       0.337  11.479  -1.866  1.00  0.00     0.020 A 
ATOM     79  C   UNL     1      -0.589  12.499  -1.683  1.00  0.00     0.054 A 
BRANCH  79  80
ATOM     80  S   UNL     1      -0.815  13.786  -2.939  1.00  0.00     0.124 S 
ATOM     81  O   UNL     1      -2.236  13.671  -3.256  1.00  0.00    -0.237 OA
ATOM     82  O   UNL     1      -0.424  14.996  -2.222  1.00  0.00    -0.237 OA
ATOM     83  O   UNL     1       0.091  13.384  -4.015  1.00  0.00    -0.744 OA
ENDBRANCH  79  80
ENDBRANCH  60  74
BRANCH  61  84
ATOM     84  C   UNL     1      -2.201   2.583   5.842  1.00  0.00    -0.014 A 
ATOM     85  C   UNL     1      -3.104   1.618   5.335  1.00  0.00     0.010 A 
ATOM     86  C   UNL     1      -0.907   2.325   5.494  1.00  0.00     0.010 A 
ATOM     87  C   UNL     1      -2.822   0.801   4.160  1.00  0.00     0.020 A 
ATOM     88  C   UNL     1      -0.766   1.692   4.216  1.00  0.00     0.020 A 
ATOM     89  C   UNL     1      -1.598   0.861   3.459  1.00  0.00     0.054 A 
BRANCH  89  90
ATOM     90  S   UNL     1      -0.853   0.010   1.513  1.00  0.00     0.124 S 
ATOM     91  O   UNL     1       0.559  -0.403   1.570  1.00  0.00    -0.237 OA
ATOM     92  O   UNL     1      -1.446  -1.165   0.918  1.00  0.00    -0.237 OA
ATOM     93  O   UNL     1      -1.142   1.258   0.833  1.00  0.00    -0.744 OA
ENDBRANCH  89  90
ENDBRANCH  61  84
BRANCH  73  94
ATOM     94  C   UNL     1      -0.092   9.679   7.019  1.00  0.00    -0.014 A 
ATOM     95  C   UNL     1       0.522   9.515   8.264  1.00  0.00     0.010 A 
ATOM     96  C   UNL     1       0.012  10.973   6.434  1.00  0.00     0.010 A 
ATOM     97  C   UNL     1       1.149  10.592   8.915  1.00  0.00     0.020 A 
ATOM     98  C   UNL     1       0.684  12.035   7.041  1.00  0.00     0.020 A 
ATOM     99  C   UNL     1       1.225  11.844   8.300  1.00  0.00     0.054 A 
BRANCH  99 100
ATOM    100  S   UNL     1       2.055  13.205   9.151  1.00  0.00     0.124 S 
ATOM    101  O   UNL     1       1.076  13.560  10.175  1.00  0.00    -0.237 OA
ATOM    102  O   UNL     1       3.277  12.574   9.644  1.00  0.00    -0.237 OA
ATOM    103  O   UNL     1       2.255  14.204   8.105  1.00  0.00    -0.744 OA
ENDBRANCH  99 100
ENDBRANCH  73  94
ENDBRANCH  47  48
ENDBRANCH  39  42
ENDBRANCH  37  38
ENDBRANCH  36  37
ENDBRANCH  35  36
ENDBRANCH   1  35
TORSDOF 20
