REMARK SMILES C[C@@]([NH3+])(C(=O)N1CCc2sccc2[C@@H]1C(=O)NCCCCNC(=O)c1ccc(-c2c3nc(c(-c4ccc(S(=O)(=O)[O-])cc4)c4ccc([nH]4)c(-c4ccc(S(=O)(=O)[O-])cc4)c4nc(c(-c5ccc(S(=O)(=O)[O-])cc5)c5ccc2[nH]5)C=C4)C=C3)cc1)C(F)(F)F
REMARK SMILES IDX 19 1 18 2 17 3 15 4 16 5 14 7 6 8 7 9 8 10 13 11 9 12 12 13
REMARK SMILES IDX 10 14 11 15 4 16 5 17 2 18 1 19 3 20 85 24 86 25 87 26 88 27
REMARK SMILES IDX 20 28 21 29 22 30 23 31 24 33 25 34 26 35 84 36 27 37 83 38
REMARK SMILES IDX 28 39 29 40 30 41 77 42 31 43 82 44 76 45 78 46 32 47 81 48
REMARK SMILES IDX 75 49 74 50 33 52 63 53 44 54 62 55 45 56 48 57 61 58 79 59
REMARK SMILES IDX 46 60 47 61 60 63 80 64 49 65 34 66 35 67 43 68 36 69 42 70
REMARK SMILES IDX 37 71 38 72 39 73 40 74 41 75 64 76 65 77 73 78 66 79 72 80
REMARK SMILES IDX 67 81 68 82 69 83 70 84 71 85 50 86 51 87 59 88 52 89 58 90
REMARK SMILES IDX 53 91 54 92 55 93 56 94 57 95
REMARK H PARENT 17 6 3 21 3 22 3 23 22 32 78 51 48 62
REMARK Flexibility Score: inf
ROOT
ATOM      1  C   UNL     1       0.952  -0.059  -3.675  1.00  0.00     0.023 C 
ENDROOT
BRANCH   1   2
ATOM      2  C   UNL     1      -0.035   1.071  -3.959  1.00  0.00     0.116 C 
BRANCH   2   3
ATOM      3  N   UNL     1      -1.278   0.566  -4.485  1.00  0.00    -0.354 N 
ATOM      4  C   UNL     1      -2.476   0.371  -3.867  1.00  0.00     0.247 C 
ATOM      5  O   UNL     1      -3.417   0.130  -4.635  1.00  0.00    -0.272 OA
ATOM      6  H   UNL     1      -1.258   0.324  -5.439  1.00  0.00     0.163 HD
BRANCH   4   7
ATOM      7  C   UNL     1      -2.703   0.614  -2.321  1.00  0.00     0.206 C 
ATOM      8  N   UNL     1      -1.555   0.313  -1.395  1.00  0.00    -0.320 N 
ATOM      9  C   UNL     1      -1.324  -1.130  -1.192  1.00  0.00     0.126 C 
ATOM     10  C   UNL     1      -2.505  -1.809  -0.470  1.00  0.00     0.068 C 
ATOM     11  C   UNL     1      -3.903  -0.219  -1.871  1.00  0.00    -0.002 A 
ATOM     12  C   UNL     1      -3.787  -1.337  -1.068  1.00  0.00     0.012 A 
ATOM     13  C   UNL     1      -5.271  -0.014  -2.253  1.00  0.00     0.018 A 
ATOM     14  S   UNL     1      -5.262  -2.141  -0.816  1.00  0.00    -0.148 S 
ATOM     15  C   UNL     1      -6.103  -1.003  -1.777  1.00  0.00     0.065 A 
BRANCH   8  16
ATOM     16  C   UNL     1      -1.051   1.369  -0.630  1.00  0.00     0.294 C 
ATOM     17  O   UNL     1      -1.711   2.420  -0.592  1.00  0.00    -0.267 OA
BRANCH  16  18
ATOM     18  C   UNL     1       0.408   1.430  -0.033  1.00  0.00     0.267 C 
ATOM     19  C   UNL     1       1.120   0.135   0.346  1.00  0.00     0.100 C 
BRANCH  18  20
ATOM     20  N   UNL     1       1.282   2.100  -1.081  1.00  0.00    -0.337 N 
ATOM     21  H   UNL     1       1.328   1.510  -1.913  1.00  0.00     0.345 HD
ATOM     22  H   UNL     1       2.221   2.232  -0.707  1.00  0.00     0.345 HD
ATOM     23  H   UNL     1       0.883   3.006  -1.328  1.00  0.00     0.345 HD
ENDBRANCH  18  20
BRANCH  18  24
ATOM     24  C   UNL     1       0.300   2.288   1.268  1.00  0.00     0.453 C 
ATOM     25  F   UNL     1      -0.513   1.720   2.186  1.00  0.00    -0.164 F 
ATOM     26  F   UNL     1       1.528   2.400   1.849  1.00  0.00    -0.164 F 
ATOM     27  F   UNL     1      -0.113   3.554   1.046  1.00  0.00    -0.164 F 
ENDBRANCH  18  24
ENDBRANCH  16  18
ENDBRANCH   8  16
ENDBRANCH   4   7
ENDBRANCH   2   3
ENDBRANCH   1   2
BRANCH   1  28
ATOM     28  C   UNL     1       1.981  -0.301  -4.774  1.00  0.00     0.023 C 
BRANCH  28  29
ATOM     29  C   UNL     1       2.834   0.904  -5.145  1.00  0.00     0.116 C 
BRANCH  29  30
ATOM     30  N   UNL     1       3.511   1.538  -4.023  1.00  0.00    -0.352 N 
ATOM     31  C   UNL     1       4.718   2.214  -4.045  1.00  0.00     0.251 C 
ATOM     32  H   UNL     1       3.059   1.479  -3.150  1.00  0.00     0.163 HD
ATOM     33  O   UNL     1       5.216   2.646  -3.022  1.00  0.00    -0.269 OA
BRANCH  31  34
ATOM     34  C   UNL     1       5.409   2.352  -5.351  1.00  0.00     0.039 A 
ATOM     35  C   UNL     1       6.708   1.861  -5.487  1.00  0.00     0.014 A 
ATOM     36  C   UNL     1       4.717   2.848  -6.459  1.00  0.00     0.014 A 
ATOM     37  C   UNL     1       7.274   1.770  -6.762  1.00  0.00     0.010 A 
ATOM     38  C   UNL     1       5.250   2.678  -7.732  1.00  0.00     0.010 A 
ATOM     39  C   UNL     1       6.527   2.121  -7.900  1.00  0.00    -0.014 A 
BRANCH  39  40
ATOM     40  C   UNL     1       7.040   1.874  -9.273  1.00  0.00     0.031 A 
ATOM     41  C   UNL     1       7.250   3.020 -10.226  1.00  0.00     0.074 A 
ATOM     42  C   UNL     1       7.231   0.607  -9.696  1.00  0.00     0.049 A 
ATOM     43  N   UNL     1       7.621   2.991 -11.480  1.00  0.00    -0.248 NA
ATOM     44  C   UNL     1       6.975   4.371  -9.711  1.00  0.00     0.031 C 
ATOM     45  C   UNL     1       7.000  -0.601  -8.898  1.00  0.00     0.029 A 
ATOM     46  N   UNL     1       7.655   0.122 -10.909  1.00  0.00    -0.354 N 
ATOM     47  C   UNL     1       7.603   4.313 -11.910  1.00  0.00     0.074 A 
ATOM     48  C   UNL     1       7.136   5.112 -10.798  1.00  0.00     0.031 C 
ATOM     49  C   UNL     1       7.315  -1.681  -9.631  1.00  0.00     0.029 A 
ATOM     50  C   UNL     1       7.736  -1.250 -10.960  1.00  0.00     0.049 A 
ATOM     51  H   UNL     1       7.880   0.703 -11.672  1.00  0.00     0.167 HD
ATOM     52  C   UNL     1       7.963   4.821 -13.113  1.00  0.00     0.031 A 
ATOM     53  C   UNL     1       8.107  -2.072 -11.961  1.00  0.00     0.031 A 
ATOM     54  C   UNL     1       8.449   4.032 -14.212  1.00  0.00     0.049 A 
ATOM     55  C   UNL     1       8.530  -1.484 -13.278  1.00  0.00     0.074 A 
ATOM     56  C   UNL     1       8.903   4.463 -15.447  1.00  0.00     0.029 A 
ATOM     57  N   UNL     1       8.549   2.649 -14.210  1.00  0.00    -0.354 N 
ATOM     58  N   UNL     1       8.574  -0.224 -13.640  1.00  0.00    -0.248 NA
ATOM     59  C   UNL     1       8.965  -2.427 -14.317  1.00  0.00     0.031 C 
ATOM     60  C   UNL     1       9.242   3.337 -16.205  1.00  0.00     0.029 A 
ATOM     61  C   UNL     1       9.043   2.208 -15.426  1.00  0.00     0.049 A 
ATOM     62  H   UNL     1       8.304   2.066 -13.455  1.00  0.00     0.167 HD
ATOM     63  C   UNL     1       9.062  -0.222 -14.941  1.00  0.00     0.074 A 
ATOM     64  C   UNL     1       9.313  -1.604 -15.297  1.00  0.00     0.031 C 
ATOM     65  C   UNL     1       9.284   0.830 -15.767  1.00  0.00     0.031 A 
BRANCH  52  66
ATOM     66  C   UNL     1       7.846   6.311 -13.295  1.00  0.00    -0.014 A 
ATOM     67  C   UNL     1       8.723   7.190 -12.635  1.00  0.00     0.010 A 
ATOM     68  C   UNL     1       6.864   6.838 -14.152  1.00  0.00     0.010 A 
ATOM     69  C   UNL     1       8.591   8.572 -12.791  1.00  0.00     0.020 A 
ATOM     70  C   UNL     1       6.745   8.219 -14.332  1.00  0.00     0.020 A 
ATOM     71  C   UNL     1       7.597   9.078 -13.634  1.00  0.00     0.054 A 
BRANCH  71  72
ATOM     72  S   UNL     1       7.453  10.875 -13.828  1.00  0.00     0.124 S 
ATOM     73  O   UNL     1       6.813  11.261 -12.573  1.00  0.00    -0.237 OA
ATOM     74  O   UNL     1       8.843  11.296 -13.978  1.00  0.00    -0.237 OA
ATOM     75  O   UNL     1       6.626  11.029 -15.023  1.00  0.00    -0.744 OA
ENDBRANCH  71  72
ENDBRANCH  52  66
BRANCH  53  76
ATOM     76  C   UNL     1       8.126  -3.544 -11.745  1.00  0.00    -0.014 A 
ATOM     77  C   UNL     1       9.348  -4.226 -11.609  1.00  0.00     0.010 A 
ATOM     78  C   UNL     1       6.924  -4.270 -11.660  1.00  0.00     0.010 A 
ATOM     79  C   UNL     1       9.370  -5.609 -11.406  1.00  0.00     0.020 A 
ATOM     80  C   UNL     1       6.941  -5.649 -11.434  1.00  0.00     0.020 A 
ATOM     81  C   UNL     1       8.165  -6.312 -11.319  1.00  0.00     0.054 A 
BRANCH  81  82
ATOM     82  S   UNL     1       8.213  -8.097 -10.995  1.00  0.00     0.124 S 
ATOM     83  O   UNL     1       8.583  -8.632 -12.300  1.00  0.00    -0.237 OA
ATOM     84  O   UNL     1       9.233  -8.203  -9.954  1.00  0.00    -0.237 OA
ATOM     85  O   UNL     1       6.853  -8.399 -10.554  1.00  0.00    -0.744 OA
ENDBRANCH  81  82
ENDBRANCH  53  76
BRANCH  65  86
ATOM     86  C   UNL     1       9.849   0.530 -17.128  1.00  0.00    -0.014 A 
ATOM     87  C   UNL     1       9.053  -0.043 -18.136  1.00  0.00     0.010 A 
ATOM     88  C   UNL     1      11.184   0.868 -17.415  1.00  0.00     0.010 A 
ATOM     89  C   UNL     1       9.592  -0.303 -19.398  1.00  0.00     0.020 A 
ATOM     90  C   UNL     1      11.720   0.630 -18.683  1.00  0.00     0.020 A 
ATOM     91  C   UNL     1      10.924   0.032 -19.663  1.00  0.00     0.054 A 
BRANCH  91  92
ATOM     92  S   UNL     1      11.594  -0.282 -21.319  1.00  0.00     0.124 S 
ATOM     93  O   UNL     1      11.823  -1.723 -21.285  1.00  0.00    -0.237 OA
ATOM     94  O   UNL     1      10.511   0.162 -22.194  1.00  0.00    -0.237 OA
ATOM     95  O   UNL     1      12.800   0.541 -21.366  1.00  0.00    -0.744 OA
ENDBRANCH  91  92
ENDBRANCH  65  86
ENDBRANCH  39  40
ENDBRANCH  31  34
ENDBRANCH  29  30
ENDBRANCH  28  29
ENDBRANCH   1  28
TORSDOF 18
