REMARK SMILES CC(C)CC[C@@H](C(=O)NCCCCNC(=O)c1ccc(-c2c3nc(c(-c4ccc(S(=O)(=O)[O-])cc4)c4ccc([nH]4)c(-c4ccc(S(=O)(=O)[O-])cc4)c4nc(c(-c5ccc(S(=O)(=O)[O-])cc5)c5ccc2[nH]5)C=C4)C=C3)cc1)c1ccc(Br)cc1
REMARK SMILES IDX 11 1 10 2 9 3 7 4 8 5 6 7 5 8 4 9 2 10 1 11 3 12 77 13 78 14
REMARK SMILES IDX 83 15 79 16 82 17 80 18 81 19 12 20 13 21 14 22 15 23 16 25
REMARK SMILES IDX 17 26 18 27 76 28 19 29 75 30 20 31 21 32 22 33 69 34 23 35
REMARK SMILES IDX 74 36 68 37 70 38 24 39 73 40 67 41 66 42 25 44 55 45 36 46
REMARK SMILES IDX 54 47 37 48 40 49 53 50 71 51 38 52 39 53 52 55 72 56 41 57
REMARK SMILES IDX 26 58 27 59 35 60 28 61 34 62 29 63 30 64 31 65 32 66 33 67
REMARK SMILES IDX 56 68 57 69 65 70 58 71 64 72 59 73 60 74 61 75 62 76 63 77
REMARK SMILES IDX 42 78 43 79 51 80 44 81 50 82 45 83 46 84 47 85 48 86 49 87
REMARK H PARENT 9 6 14 24 70 43 40 54
REMARK Flexibility Score: inf
ROOT
ATOM      1  C   UNL     1      -1.336   3.878  -0.362  1.00  0.00     0.023 C 
ENDROOT
BRANCH   1   2
ATOM      2  C   UNL     1      -0.719   3.793   1.040  1.00  0.00     0.116 C 
BRANCH   2   3
ATOM      3  N   UNL     1      -1.753   3.488   2.007  1.00  0.00    -0.356 N 
ATOM      4  C   UNL     1      -2.154   2.281   2.505  1.00  0.00     0.227 C 
ATOM      5  O   UNL     1      -3.287   2.242   2.993  1.00  0.00    -0.274 OA
ATOM      6  H   UNL     1      -2.240   4.268   2.359  1.00  0.00     0.163 HD
BRANCH   4   7
ATOM      7  C   UNL     1      -1.214   1.042   2.488  1.00  0.00     0.108 C 
BRANCH   7   8
ATOM      8  C   UNL     1      -1.551   0.193   1.224  1.00  0.00     0.018 C 
BRANCH   8   9
ATOM      9  C   UNL     1      -0.758   0.483  -0.061  1.00  0.00     0.004 C 
BRANCH   9  10
ATOM     10  C   UNL     1       0.778   0.408   0.021  1.00  0.00    -0.017 C 
ATOM     11  C   UNL     1       1.263  -1.039   0.053  1.00  0.00     0.007 C 
ATOM     12  C   UNL     1       1.408   1.135  -1.174  1.00  0.00     0.007 C 
ENDBRANCH   9  10
ENDBRANCH   8   9
ENDBRANCH   7   8
BRANCH   7  13
ATOM     13  C   UNL     1      -1.321   0.248   3.820  1.00  0.00    -0.035 A 
ATOM     14  C   UNL     1      -1.589   0.915   5.033  1.00  0.00     0.006 A 
ATOM     15  C   UNL     1      -1.111  -1.141   3.896  1.00  0.00     0.006 A 
ATOM     16  C   UNL     1      -1.762   0.216   6.234  1.00  0.00     0.016 A 
ATOM     17  C   UNL     1      -1.289  -1.846   5.093  1.00  0.00     0.016 A 
ATOM     18  C   UNL     1      -1.633  -1.166   6.253  1.00  0.00     0.017 A 
ATOM     19  Br  UNL     1      -1.918  -2.124   7.857  1.00  0.00    -0.051 Br
ENDBRANCH   7  13
ENDBRANCH   4   7
ENDBRANCH   2   3
ENDBRANCH   1   2
BRANCH   1  20
ATOM     20  C   UNL     1      -1.744   5.274  -0.808  1.00  0.00     0.023 C 
BRANCH  20  21
ATOM     21  C   UNL     1      -0.576   6.220  -1.047  1.00  0.00     0.116 C 
BRANCH  21  22
ATOM     22  N   UNL     1       0.382   5.749  -2.042  1.00  0.00    -0.352 N 
ATOM     23  C   UNL     1       1.087   6.494  -2.965  1.00  0.00     0.251 C 
ATOM     24  H   UNL     1       0.545   4.779  -2.057  1.00  0.00     0.163 HD
ATOM     25  O   UNL     1       1.817   5.955  -3.780  1.00  0.00    -0.269 OA
BRANCH  23  26
ATOM     26  C   UNL     1       0.887   7.958  -2.974  1.00  0.00     0.039 A 
ATOM     27  C   UNL     1       0.481   8.576  -4.158  1.00  0.00     0.014 A 
ATOM     28  C   UNL     1       0.972   8.682  -1.783  1.00  0.00     0.014 A 
ATOM     29  C   UNL     1       0.058   9.905  -4.123  1.00  0.00     0.010 A 
ATOM     30  C   UNL     1       0.464   9.973  -1.734  1.00  0.00     0.010 A 
ATOM     31  C   UNL     1      -0.009  10.594  -2.900  1.00  0.00    -0.014 A 
BRANCH  31  32
ATOM     32  C   UNL     1      -0.588  11.957  -2.807  1.00  0.00     0.031 A 
ATOM     33  C   UNL     1       0.261  13.099  -2.319  1.00  0.00     0.074 A 
ATOM     34  C   UNL     1      -1.898  12.148  -3.065  1.00  0.00     0.049 A 
ATOM     35  N   UNL     1      -0.085  14.336  -2.073  1.00  0.00    -0.248 NA
ATOM     36  C   UNL     1       1.674  12.801  -2.034  1.00  0.00     0.031 C 
ATOM     37  C   UNL     1      -2.845  11.109  -3.480  1.00  0.00     0.029 A 
ATOM     38  N   UNL     1      -2.664  13.285  -3.005  1.00  0.00    -0.354 N 
ATOM     39  C   UNL     1       1.055  14.952  -1.573  1.00  0.00     0.074 A 
ATOM     40  C   UNL     1       2.089  13.943  -1.506  1.00  0.00     0.031 C 
ATOM     41  C   UNL     1      -4.054  11.663  -3.667  1.00  0.00     0.029 A 
ATOM     42  C   UNL     1      -3.979  13.086  -3.352  1.00  0.00     0.049 A 
ATOM     43  H   UNL     1      -2.304  14.162  -2.739  1.00  0.00     0.167 HD
ATOM     44  C   UNL     1       1.235  16.248  -1.223  1.00  0.00     0.031 A 
ATOM     45  C   UNL     1      -5.010  13.951  -3.411  1.00  0.00     0.031 A 
ATOM     46  C   UNL     1       0.218  17.258  -1.328  1.00  0.00     0.049 A 
ATOM     47  C   UNL     1      -4.775  15.395  -3.066  1.00  0.00     0.074 A 
ATOM     48  C   UNL     1       0.321  18.613  -1.069  1.00  0.00     0.029 A 
ATOM     49  N   UNL     1      -1.086  17.024  -1.734  1.00  0.00    -0.354 N 
ATOM     50  N   UNL     1      -3.670  15.973  -2.659  1.00  0.00    -0.248 NA
ATOM     51  C   UNL     1      -5.921  16.305  -3.200  1.00  0.00     0.031 C 
ATOM     52  C   UNL     1      -0.932  19.194  -1.290  1.00  0.00     0.029 A 
ATOM     53  C   UNL     1      -1.802  18.208  -1.725  1.00  0.00     0.049 A 
ATOM     54  H   UNL     1      -1.450  16.145  -1.991  1.00  0.00     0.167 HD
ATOM     55  C   UNL     1      -3.982  17.319  -2.511  1.00  0.00     0.074 A 
ATOM     56  C   UNL     1      -5.374  17.471  -2.883  1.00  0.00     0.031 C 
ATOM     57  C   UNL     1      -3.186  18.339  -2.105  1.00  0.00     0.031 A 
BRANCH  44  58
ATOM     58  C   UNL     1       2.591  16.637  -0.700  1.00  0.00    -0.014 A 
ATOM     59  C   UNL     1       3.709  16.686  -1.552  1.00  0.00     0.010 A 
ATOM     60  C   UNL     1       2.749  16.966   0.658  1.00  0.00     0.010 A 
ATOM     61  C   UNL     1       4.971  17.005  -1.046  1.00  0.00     0.020 A 
ATOM     62  C   UNL     1       4.006  17.312   1.163  1.00  0.00     0.020 A 
ATOM     63  C   UNL     1       5.112  17.308   0.311  1.00  0.00     0.054 A 
BRANCH  63  64
ATOM     64  S   UNL     1       6.761  17.723   0.944  1.00  0.00     0.124 S 
ATOM     65  O   UNL     1       7.387  16.406   1.030  1.00  0.00    -0.237 OA
ATOM     66  O   UNL     1       7.293  18.603  -0.093  1.00  0.00    -0.237 OA
ATOM     67  O   UNL     1       6.486  18.369   2.225  1.00  0.00    -0.744 OA
ENDBRANCH  63  64
ENDBRANCH  44  58
BRANCH  45  68
ATOM     68  C   UNL     1      -6.351  13.479  -3.850  1.00  0.00    -0.014 A 
ATOM     69  C   UNL     1      -6.831  13.805  -5.131  1.00  0.00     0.010 A 
ATOM     70  C   UNL     1      -7.144  12.686  -3.002  1.00  0.00     0.010 A 
ATOM     71  C   UNL     1      -8.088  13.359  -5.551  1.00  0.00     0.020 A 
ATOM     72  C   UNL     1      -8.392  12.219  -3.428  1.00  0.00     0.020 A 
ATOM     73  C   UNL     1      -8.860  12.568  -4.697  1.00  0.00     0.054 A 
BRANCH  73  74
ATOM     74  S   UNL     1     -10.462  11.948  -5.284  1.00  0.00     0.124 S 
ATOM     75  O   UNL     1     -11.308  13.130  -5.159  1.00  0.00    -0.237 OA
ATOM     76  O   UNL     1     -10.158  11.528  -6.650  1.00  0.00    -0.237 OA
ATOM     77  O   UNL     1     -10.764  10.858  -4.359  1.00  0.00    -0.744 OA
ENDBRANCH  73  74
ENDBRANCH  45  68
BRANCH  57  78
ATOM     78  C   UNL     1      -3.789  19.715  -2.071  1.00  0.00    -0.014 A 
ATOM     79  C   UNL     1      -4.677  20.093  -1.050  1.00  0.00     0.010 A 
ATOM     80  C   UNL     1      -3.409  20.661  -3.041  1.00  0.00     0.010 A 
ATOM     81  C   UNL     1      -5.195  21.390  -1.012  1.00  0.00     0.020 A 
ATOM     82  C   UNL     1      -3.908  21.964  -2.993  1.00  0.00     0.020 A 
ATOM     83  C   UNL     1      -4.807  22.317  -1.984  1.00  0.00     0.054 A 
BRANCH  83  84
ATOM     84  S   UNL     1      -5.449  24.011  -1.884  1.00  0.00     0.124 S 
ATOM     85  O   UNL     1      -6.806  23.852  -2.399  1.00  0.00    -0.237 OA
ATOM     86  O   UNL     1      -5.349  24.311  -0.458  1.00  0.00    -0.237 OA
ATOM     87  O   UNL     1      -4.542  24.774  -2.739  1.00  0.00    -0.744 OA
ENDBRANCH  83  84
ENDBRANCH  57  78
ENDBRANCH  31  32
ENDBRANCH  23  26
ENDBRANCH  21  22
ENDBRANCH  20  21
ENDBRANCH   1  20
TORSDOF 18
