REMARK SMILES Cc1oc2c(C)c3oc(=O)c(CC(=O)N[C@@H](CC(C)C)C(=O)NCCCCNC(=O)c4ccc(-c5c6nc(c(-c7ccc(S(=O)(=O)[O-])cc7)c7ccc([nH]7)c(-c7ccc(S(=O)(=O)[O-])cc7)c7nc(c(-c8ccc(S(=O)(=O)[O-])cc8)c8ccc5[nH]8)C=C7)C=C6)cc4)c(C)c3cc2c1C
REMARK SMILES IDX 25 1 24 2 23 3 21 4 22 5 16 7 15 8 13 9 14 10 12 12 11 13
REMARK SMILES IDX 1 14 2 15 3 16 96 17 4 18 95 19 97 20 5 21 94 22 6 23 7 24
REMARK SMILES IDX 93 25 8 26 91 27 9 28 92 29 10 30 17 31 18 32 19 33 20 34
REMARK SMILES IDX 26 35 27 36 28 37 29 38 30 40 31 41 32 42 90 43 33 44 89 45
REMARK SMILES IDX 34 46 35 47 36 48 83 49 37 50 88 51 82 52 84 53 38 54 87 55
REMARK SMILES IDX 81 56 80 57 39 59 69 60 50 61 68 62 51 63 54 64 67 65 85 66
REMARK SMILES IDX 52 67 53 68 66 70 86 71 55 72 40 73 41 74 49 75 42 76 48 77
REMARK SMILES IDX 43 78 44 79 45 80 46 81 47 82 70 83 71 84 79 85 72 86 78 87
REMARK SMILES IDX 73 88 74 89 75 90 76 91 77 92 56 93 57 94 65 95 58 96 64 97
REMARK SMILES IDX 59 98 60 99 61 100 62 101 63 102
REMARK H PARENT 23 6 15 11 28 39 84 58 54 69
REMARK Flexibility Score: inf
ROOT
ATOM      1  C   UNL     1      -6.904   6.438  -9.778  1.00  0.00     0.023 C 
ENDROOT
BRANCH   1   2
ATOM      2  C   UNL     1      -6.274   5.153  -9.249  1.00  0.00     0.116 C 
BRANCH   2   3
ATOM      3  N   UNL     1      -5.549   4.407 -10.262  1.00  0.00    -0.354 N 
ATOM      4  C   UNL     1      -4.577   3.454 -10.178  1.00  0.00     0.242 C 
ATOM      5  O   UNL     1      -4.400   2.764 -11.189  1.00  0.00    -0.273 OA
ATOM      6  H   UNL     1      -5.809   4.632 -11.185  1.00  0.00     0.163 HD
BRANCH   4   7
ATOM      7  C   UNL     1      -3.742   3.175  -8.908  1.00  0.00     0.171 C 
BRANCH   7   8
ATOM      8  N   UNL     1      -3.171   4.419  -8.387  1.00  0.00    -0.344 N 
ATOM      9  C   UNL     1      -1.894   4.875  -8.532  1.00  0.00     0.225 C 
ATOM     10  O   UNL     1      -1.692   6.083  -8.389  1.00  0.00    -0.275 OA
ATOM     11  H   UNL     1      -3.781   4.994  -7.871  1.00  0.00     0.164 HD
BRANCH   9  12
ATOM     12  C   UNL     1      -0.746   3.903  -8.790  1.00  0.00     0.143 C 
BRANCH  12  13
ATOM     13  C   UNL     1      -0.593   2.929  -7.638  1.00  0.00     0.051 A 
ATOM     14  C   UNL     1       0.727  -0.532  -0.059  1.00  0.00     0.088 C 
ATOM     15  C   UNL     1       0.317   0.176  -1.288  1.00  0.00     0.105 A 
ATOM     16  O   UNL     1       0.021  -0.607  -2.366  1.00  0.00    -0.461 OA
ATOM     17  C   UNL     1       0.210   1.514  -1.615  1.00  0.00    -0.002 A 
ATOM     18  C   UNL     1      -0.214   0.225  -3.421  1.00  0.00     0.141 A 
ATOM     19  C   UNL     1      -0.102   1.542  -3.004  1.00  0.00     0.025 A 
ATOM     20  C   UNL     1       0.444   2.700  -0.755  1.00  0.00     0.049 C 
ATOM     21  C   UNL     1      -0.493  -0.170  -4.734  1.00  0.00     0.036 A 
ATOM     22  C   UNL     1      -0.262   2.568  -3.947  1.00  0.00     0.024 A 
ATOM     23  C   UNL     1      -0.665  -1.605  -5.120  1.00  0.00     0.052 C 
ATOM     24  C   UNL     1      -0.543   0.901  -5.656  1.00  0.00     0.145 A 
ATOM     25  C   UNL     1      -0.417   2.248  -5.302  1.00  0.00     0.022 A 
ATOM     26  O   UNL     1      -0.694   0.557  -7.017  1.00  0.00    -0.422 OA
ATOM     27  C   UNL     1      -0.435   3.289  -6.346  1.00  0.00    -0.029 A 
ATOM     28  C   UNL     1      -0.645   1.496  -8.032  1.00  0.00     0.340 A 
ATOM     29  C   UNL     1      -0.257   4.721  -5.898  1.00  0.00     0.046 C 
ATOM     30  O   UNL     1      -0.656   1.149  -9.208  1.00  0.00    -0.246 OA
ENDBRANCH  12  13
ENDBRANCH   9  12
ENDBRANCH   7   8
BRANCH   7  31
ATOM     31  C   UNL     1      -4.309   2.255  -7.807  1.00  0.00     0.038 C 
BRANCH  31  32
ATOM     32  C   UNL     1      -5.749   2.476  -7.317  1.00  0.00    -0.015 C 
ATOM     33  C   UNL     1      -6.776   1.841  -8.261  1.00  0.00     0.007 C 
ATOM     34  C   UNL     1      -5.954   1.874  -5.921  1.00  0.00     0.007 C 
ENDBRANCH  31  32
ENDBRANCH   7  31
ENDBRANCH   4   7
ENDBRANCH   2   3
ENDBRANCH   1   2
BRANCH   1  35
ATOM     35  C   UNL     1      -8.070   6.242 -10.764  1.00  0.00     0.023 C 
BRANCH  35  36
ATOM     36  C   UNL     1      -9.279   5.441 -10.249  1.00  0.00     0.116 C 
BRANCH  36  37
ATOM     37  N   UNL     1      -9.827   6.030  -9.041  1.00  0.00    -0.352 N 
ATOM     38  C   UNL     1     -11.075   6.513  -8.747  1.00  0.00     0.251 C 
ATOM     39  H   UNL     1      -9.185   6.095  -8.297  1.00  0.00     0.163 HD
ATOM     40  O   UNL     1     -11.181   7.255  -7.771  1.00  0.00    -0.269 OA
BRANCH  38  41
ATOM     41  C   UNL     1     -12.289   6.175  -9.530  1.00  0.00     0.039 A 
ATOM     42  C   UNL     1     -13.270   7.168  -9.655  1.00  0.00     0.014 A 
ATOM     43  C   UNL     1     -12.565   4.881  -9.981  1.00  0.00     0.014 A 
ATOM     44  C   UNL     1     -14.505   6.880 -10.242  1.00  0.00     0.010 A 
ATOM     45  C   UNL     1     -13.806   4.594 -10.572  1.00  0.00     0.010 A 
ATOM     46  C   UNL     1     -14.786   5.590 -10.711  1.00  0.00    -0.014 A 
BRANCH  46  47
ATOM     47  C   UNL     1     -16.066   5.372 -11.430  1.00  0.00     0.031 A 
ATOM     48  C   UNL     1     -15.959   4.653 -12.735  1.00  0.00     0.074 A 
ATOM     49  C   UNL     1     -17.272   5.407 -10.817  1.00  0.00     0.049 A 
ATOM     50  N   UNL     1     -15.845   3.359 -12.808  1.00  0.00    -0.248 NA
ATOM     51  C   UNL     1     -15.747   5.335 -14.011  1.00  0.00     0.031 C 
ATOM     52  C   UNL     1     -17.472   5.052  -9.405  1.00  0.00     0.029 A 
ATOM     53  N   UNL     1     -18.553   5.519 -11.315  1.00  0.00    -0.354 N 
ATOM     54  C   UNL     1     -15.543   3.041 -14.120  1.00  0.00     0.074 A 
ATOM     55  C   UNL     1     -15.490   4.301 -14.830  1.00  0.00     0.031 C 
ATOM     56  C   UNL     1     -18.782   4.801  -9.202  1.00  0.00     0.029 A 
ATOM     57  C   UNL     1     -19.544   5.131 -10.407  1.00  0.00     0.049 A 
ATOM     58  H   UNL     1     -18.752   5.841 -12.224  1.00  0.00     0.167 HD
ATOM     59  C   UNL     1     -15.365   1.761 -14.544  1.00  0.00     0.031 A 
ATOM     60  C   UNL     1     -20.723   4.525 -10.734  1.00  0.00     0.031 A 
ATOM     61  C   UNL     1     -15.536   0.755 -13.537  1.00  0.00     0.049 A 
ATOM     62  C   UNL     1     -20.241   3.223 -11.323  1.00  0.00     0.074 A 
ATOM     63  C   UNL     1     -14.746   0.055 -12.650  1.00  0.00     0.029 A 
ATOM     64  N   UNL     1     -16.817   0.356 -13.237  1.00  0.00    -0.354 N 
ATOM     65  N   UNL     1     -19.833   2.175 -10.662  1.00  0.00    -0.248 NA
ATOM     66  C   UNL     1     -19.884   3.231 -12.744  1.00  0.00     0.031 C 
ATOM     67  C   UNL     1     -15.621  -0.330 -11.584  1.00  0.00     0.029 A 
ATOM     68  C   UNL     1     -16.876   0.203 -11.874  1.00  0.00     0.049 A 
ATOM     69  H   UNL     1     -17.551   0.208 -13.876  1.00  0.00     0.167 HD
ATOM     70  C   UNL     1     -18.926   1.534 -11.504  1.00  0.00     0.074 A 
ATOM     71  C   UNL     1     -19.007   2.237 -12.772  1.00  0.00     0.031 C 
ATOM     72  C   UNL     1     -18.030   0.591 -11.090  1.00  0.00     0.031 A 
BRANCH  59  73
ATOM     73  C   UNL     1     -15.192   1.353 -15.957  1.00  0.00    -0.014 A 
ATOM     74  C   UNL     1     -16.328   0.904 -16.652  1.00  0.00     0.010 A 
ATOM     75  C   UNL     1     -13.923   1.186 -16.530  1.00  0.00     0.010 A 
ATOM     76  C   UNL     1     -16.199   0.239 -17.870  1.00  0.00     0.020 A 
ATOM     77  C   UNL     1     -13.790   0.530 -17.762  1.00  0.00     0.020 A 
ATOM     78  C   UNL     1     -14.928   0.037 -18.409  1.00  0.00     0.054 A 
BRANCH  78  79
ATOM     79  S   UNL     1     -14.796  -0.933 -19.936  1.00  0.00     0.124 S 
ATOM     80  O   UNL     1     -15.322  -2.232 -19.524  1.00  0.00    -0.237 OA
ATOM     81  O   UNL     1     -15.639  -0.176 -20.858  1.00  0.00    -0.237 OA
ATOM     82  O   UNL     1     -13.367  -0.908 -20.239  1.00  0.00    -0.744 OA
ENDBRANCH  78  79
ENDBRANCH  59  73
BRANCH  60  83
ATOM     83  C   UNL     1     -21.770   5.357 -11.421  1.00  0.00    -0.014 A 
ATOM     84  C   UNL     1     -22.067   6.637 -10.906  1.00  0.00     0.010 A 
ATOM     85  C   UNL     1     -22.508   4.929 -12.541  1.00  0.00     0.010 A 
ATOM     86  C   UNL     1     -22.953   7.502 -11.561  1.00  0.00     0.020 A 
ATOM     87  C   UNL     1     -23.373   5.799 -13.223  1.00  0.00     0.020 A 
ATOM     88  C   UNL     1     -23.569   7.092 -12.741  1.00  0.00     0.054 A 
BRANCH  88  89
ATOM     89  S   UNL     1     -24.567   8.289 -13.670  1.00  0.00     0.124 S 
ATOM     90  O   UNL     1     -25.692   8.525 -12.765  1.00  0.00    -0.237 OA
ATOM     91  O   UNL     1     -23.638   9.411 -13.820  1.00  0.00    -0.237 OA
ATOM     92  O   UNL     1     -24.892   7.588 -14.904  1.00  0.00    -0.744 OA
ENDBRANCH  88  89
ENDBRANCH  60  83
BRANCH  72  93
ATOM     93  C   UNL     1     -18.143   0.119  -9.673  1.00  0.00    -0.014 A 
ATOM     94  C   UNL     1     -19.221  -0.689  -9.283  1.00  0.00     0.010 A 
ATOM     95  C   UNL     1     -17.120   0.389  -8.743  1.00  0.00     0.010 A 
ATOM     96  C   UNL     1     -19.245  -1.271  -8.012  1.00  0.00     0.020 A 
ATOM     97  C   UNL     1     -17.131  -0.203  -7.477  1.00  0.00     0.020 A 
ATOM     98  C   UNL     1     -18.186  -1.046  -7.127  1.00  0.00     0.054 A 
BRANCH  98  99
ATOM     99  S   UNL     1     -18.177  -1.930  -5.544  1.00  0.00     0.124 S 
ATOM    100  O   UNL     1     -19.354  -1.388  -4.870  1.00  0.00    -0.237 OA
ATOM    101  O   UNL     1     -18.281  -3.327  -5.963  1.00  0.00    -0.237 OA
ATOM    102  O   UNL     1     -16.895  -1.564  -4.944  1.00  0.00    -0.744 OA
ENDBRANCH  98  99
ENDBRANCH  72  93
ENDBRANCH  46  47
ENDBRANCH  38  41
ENDBRANCH  36  37
ENDBRANCH  35  36
ENDBRANCH   1  35
TORSDOF 19
