REMARK SMILES COc1ccc2c(c1)O[C@@]1(CCC(=O)N([C@@H](C)C(=O)NCCCCNC(=O)c3ccc(-c4c5nc(c(-c6ccc(S(=O)(=O)[O-])cc6)c6ccc([nH]6)c(-c6ccc(S(=O)(=O)[O-])cc6)c6nc(c(-c7ccc(S(=O)(=O)[O-])cc7)c7ccc4[nH]7)C=C6)C=C5)cc3)CC1)CC2=O
REMARK SMILES IDX 21 1 20 2 18 3 19 4 16 6 17 7 15 8 88 9 89 10 10 11 3 12
REMARK SMILES IDX 4 13 8 14 5 15 7 16 6 17 9 18 91 19 90 20 92 21 2 22 1 23
REMARK SMILES IDX 11 24 13 26 14 27 12 28 22 30 23 31 24 32 25 33 26 34 27 36
REMARK SMILES IDX 28 37 29 38 87 39 30 40 86 41 31 42 32 43 33 44 80 45 34 46
REMARK SMILES IDX 85 47 79 48 81 49 35 50 84 51 78 52 77 53 36 55 66 56 47 57
REMARK SMILES IDX 65 58 48 59 51 60 64 61 82 62 49 63 50 64 63 66 83 67 52 68
REMARK SMILES IDX 37 69 38 70 46 71 39 72 45 73 40 74 41 75 42 76 43 77 44 78
REMARK SMILES IDX 67 79 68 80 76 81 69 82 75 83 70 84 71 85 72 86 73 87 74 88
REMARK SMILES IDX 53 89 54 90 62 91 55 92 61 93 56 94 57 95 58 96 59 97 60 98
REMARK H PARENT 20 5 25 35 81 54 51 65
REMARK Flexibility Score: 80.00
ROOT
ATOM      1  C   UNL     1      -4.065  -0.857   4.283  1.00  0.00     0.116 C 
ENDROOT
BRANCH   1   2
ATOM      2  N   UNL     1      -3.084  -0.203   3.456  1.00  0.00    -0.354 N 
ATOM      3  C   UNL     1      -2.764  -0.606   2.205  1.00  0.00     0.242 C 
ATOM      4  O   UNL     1      -1.612  -0.446   1.797  1.00  0.00    -0.273 OA
ATOM      5  H   UNL     1      -2.620   0.584   3.822  1.00  0.00     0.163 HD
BRANCH   3   6
ATOM      6  C   UNL     1      -3.869  -1.165   1.315  1.00  0.00     0.171 C 
ATOM      7  C   UNL     1      -5.269  -0.532   1.525  1.00  0.00     0.042 C 
BRANCH   6   8
ATOM      8  N   UNL     1      -3.887  -2.624   0.949  1.00  0.00    -0.331 N 
BRANCH   8   9
ATOM      9  C   UNL     1      -3.047  -3.255  -0.094  1.00  0.00     0.124 C 
BRANCH   9  10
ATOM     10  C   UNL     1      -3.720  -3.436  -1.536  1.00  0.00     0.070 C 
BRANCH  10  11
ATOM     11  C   UNL     1      -4.713  -2.296  -1.815  1.00  0.00     0.118 C 
ATOM     12  C   UNL     1      -1.118   0.796  -1.989  1.00  0.00     0.122 A 
ATOM     13  C   UNL     1      -1.835   1.802  -2.655  1.00  0.00     0.047 A 
ATOM     14  C   UNL     1      -1.771  -0.385  -1.685  1.00  0.00     0.093 A 
ATOM     15  C   UNL     1      -3.158   1.585  -3.108  1.00  0.00     0.019 A 
ATOM     16  C   UNL     1      -3.103  -0.533  -2.060  1.00  0.00     0.134 A 
ATOM     17  C   UNL     1      -3.751   0.353  -2.877  1.00  0.00     0.060 A 
ATOM     18  O   UNL     1      -3.977  -1.226  -1.265  1.00  0.00    -0.486 OA
ATOM     19  C   UNL     1      -5.063  -0.199  -3.285  1.00  0.00     0.170 C 
ATOM     20  C   UNL     1      -5.153  -1.768  -3.215  1.00  0.00     0.129 C 
ATOM     21  O   UNL     1      -5.966   0.528  -3.675  1.00  0.00    -0.294 OA
BRANCH  12  22
ATOM     22  O   UNL     1       0.191   1.049  -1.683  1.00  0.00    -0.497 OA
ATOM     23  C   UNL     1       0.668   0.502  -0.447  1.00  0.00     0.278 C 
ENDBRANCH  12  22
BRANCH  11  24
ATOM     24  C   UNL     1      -6.032  -2.642  -1.021  1.00  0.00     0.059 CG0
ATOM     25  G   UNL     1      -6.071  -3.441   0.314  1.00  0.00     0.000 G0
ENDBRANCH  11  24
ENDBRANCH  10  11
ENDBRANCH   9  10
ENDBRANCH   8   9
BRANCH   8  26
ATOM     26  C   UNL     1      -4.962  -3.364   1.341  1.00  0.00     0.223 C 
ATOM     27  O   UNL     1      -5.027  -3.917   2.434  1.00  0.00    -0.275 OA
BRANCH  26  28
ATOM     28  C   UNL     1      -6.071  -3.441   0.314  1.00  0.00     0.104 CG0
ATOM     29  G   UNL     1      -6.032  -2.642  -1.021  1.00  0.00     0.000 G0
ENDBRANCH  26  28
ENDBRANCH   8  26
ENDBRANCH   6   8
ENDBRANCH   3   6
ENDBRANCH   1   2
BRANCH   1  30
ATOM     30  C   UNL     1      -3.530  -0.973   5.695  1.00  0.00     0.023 C 
BRANCH  30  31
ATOM     31  C   UNL     1      -3.286   0.385   6.350  1.00  0.00     0.023 C 
BRANCH  31  32
ATOM     32  C   UNL     1      -4.450   1.355   6.210  1.00  0.00     0.116 C 
BRANCH  32  33
ATOM     33  N   UNL     1      -5.694   0.802   6.738  1.00  0.00    -0.352 N 
ATOM     34  C   UNL     1      -6.447   1.277   7.782  1.00  0.00     0.251 C 
ATOM     35  H   UNL     1      -6.032  -0.008   6.292  1.00  0.00     0.163 HD
ATOM     36  O   UNL     1      -7.393   0.643   8.239  1.00  0.00    -0.269 OA
BRANCH  34  37
ATOM     37  C   UNL     1      -6.043   2.569   8.349  1.00  0.00     0.039 A 
ATOM     38  C   UNL     1      -5.964   3.670   7.493  1.00  0.00     0.014 A 
ATOM     39  C   UNL     1      -5.527   2.610   9.644  1.00  0.00     0.014 A 
ATOM     40  C   UNL     1      -5.204   4.761   7.880  1.00  0.00     0.010 A 
ATOM     41  C   UNL     1      -4.853   3.755  10.064  1.00  0.00     0.010 A 
ATOM     42  C   UNL     1      -4.644   4.818   9.169  1.00  0.00    -0.014 A 
BRANCH  42  43
ATOM     43  C   UNL     1      -3.860   6.011   9.570  1.00  0.00     0.031 A 
ATOM     44  C   UNL     1      -2.403   5.900   9.931  1.00  0.00     0.074 A 
ATOM     45  C   UNL     1      -4.477   7.208   9.568  1.00  0.00     0.049 A 
ATOM     46  N   UNL     1      -1.593   6.838  10.349  1.00  0.00    -0.248 NA
ATOM     47  C   UNL     1      -1.769   4.576   9.810  1.00  0.00     0.031 C 
ATOM     48  C   UNL     1      -5.878   7.429   9.195  1.00  0.00     0.029 A 
ATOM     49  N   UNL     1      -4.010   8.463   9.855  1.00  0.00    -0.354 N 
ATOM     50  C   UNL     1      -0.367   6.219  10.564  1.00  0.00     0.074 A 
ATOM     51  C   UNL     1      -0.540   4.818  10.249  1.00  0.00     0.031 C 
ATOM     52  C   UNL     1      -6.135   8.742   9.210  1.00  0.00     0.029 A 
ATOM     53  C   UNL     1      -4.955   9.449   9.691  1.00  0.00     0.049 A 
ATOM     54  H   UNL     1      -3.088   8.643  10.151  1.00  0.00     0.167 HD
ATOM     55  C   UNL     1       0.794   6.778  10.979  1.00  0.00     0.031 A 
ATOM     56  C   UNL     1      -4.896  10.773   9.928  1.00  0.00     0.031 A 
ATOM     57  C   UNL     1       0.949   8.181  11.267  1.00  0.00     0.049 A 
ATOM     58  C   UNL     1      -3.618  11.353  10.453  1.00  0.00     0.074 A 
ATOM     59  C   UNL     1       2.089   8.848  11.681  1.00  0.00     0.029 A 
ATOM     60  N   UNL     1      -0.056   9.133  11.164  1.00  0.00    -0.354 N 
ATOM     61  N   UNL     1      -2.475  10.748  10.671  1.00  0.00    -0.248 NA
ATOM     62  C   UNL     1      -3.620  12.784  10.780  1.00  0.00     0.031 C 
ATOM     63  C   UNL     1       1.758  10.187  11.892  1.00  0.00     0.029 A 
ATOM     64  C   UNL     1       0.431  10.374  11.538  1.00  0.00     0.049 A 
ATOM     65  H   UNL     1      -0.977   8.952  10.869  1.00  0.00     0.167 HD
ATOM     66  C   UNL     1      -1.618  11.725  11.158  1.00  0.00     0.074 A 
ATOM     67  C   UNL     1      -2.367  12.966  11.179  1.00  0.00     0.031 C 
ATOM     68  C   UNL     1      -0.331  11.599  11.560  1.00  0.00     0.031 A 
BRANCH  55  69
ATOM     69  C   UNL     1       2.004   5.896  11.159  1.00  0.00    -0.014 A 
ATOM     70  C   UNL     1       2.532   5.692  12.448  1.00  0.00     0.010 A 
ATOM     71  C   UNL     1       2.706   5.394  10.049  1.00  0.00     0.010 A 
ATOM     72  C   UNL     1       3.756   5.040  12.623  1.00  0.00     0.020 A 
ATOM     73  C   UNL     1       3.918   4.716  10.222  1.00  0.00     0.020 A 
ATOM     74  C   UNL     1       4.448   4.568  11.506  1.00  0.00     0.054 A 
BRANCH  74  75
ATOM     75  S   UNL     1       6.058   3.764  11.748  1.00  0.00     0.124 S 
ATOM     76  O   UNL     1       6.928   4.898  12.043  1.00  0.00    -0.237 OA
ATOM     77  O   UNL     1       5.798   2.859  12.865  1.00  0.00    -0.237 OA
ATOM     78  O   UNL     1       6.305   3.103  10.468  1.00  0.00    -0.744 OA
ENDBRANCH  74  75
ENDBRANCH  55  69
BRANCH  56  79
ATOM     79  C   UNL     1      -6.101  11.605   9.668  1.00  0.00    -0.014 A 
ATOM     80  C   UNL     1      -7.274  11.413  10.424  1.00  0.00     0.010 A 
ATOM     81  C   UNL     1      -6.122  12.507   8.592  1.00  0.00     0.010 A 
ATOM     82  C   UNL     1      -8.463  12.052  10.065  1.00  0.00     0.020 A 
ATOM     83  C   UNL     1      -7.302  13.176   8.251  1.00  0.00     0.020 A 
ATOM     84  C   UNL     1      -8.472  12.917   8.969  1.00  0.00     0.054 A 
BRANCH  84  85
ATOM     85  S   UNL     1     -10.040  13.688   8.483  1.00  0.00     0.124 S 
ATOM     86  O   UNL     1     -10.716  12.586   7.804  1.00  0.00    -0.237 OA
ATOM     87  O   UNL     1     -10.614  14.084   9.766  1.00  0.00    -0.237 OA
ATOM     88  O   UNL     1      -9.623  14.793   7.623  1.00  0.00    -0.744 OA
ENDBRANCH  84  85
ENDBRANCH  56  79
BRANCH  68  89
ATOM     89  C   UNL     1       0.370  12.827  12.074  1.00  0.00    -0.014 A 
ATOM     90  C   UNL     1       1.432  13.385  11.339  1.00  0.00     0.010 A 
ATOM     91  C   UNL     1       0.074  13.335  13.351  1.00  0.00     0.010 A 
ATOM     92  C   UNL     1       2.218  14.399  11.891  1.00  0.00     0.020 A 
ATOM     93  C   UNL     1       0.840  14.370  13.894  1.00  0.00     0.020 A 
ATOM     94  C   UNL     1       1.925  14.874  13.172  1.00  0.00     0.054 A 
BRANCH  94  95
ATOM     95  S   UNL     1       2.992  16.149  13.895  1.00  0.00     0.124 S 
ATOM     96  O   UNL     1       4.182  15.385  14.256  1.00  0.00    -0.237 OA
ATOM     97  O   UNL     1       3.160  17.091  12.790  1.00  0.00    -0.237 OA
ATOM     98  O   UNL     1       2.209  16.655  15.020  1.00  0.00    -0.744 OA
ENDBRANCH  94  95
ENDBRANCH  68  89
ENDBRANCH  42  43
ENDBRANCH  34  37
ENDBRANCH  32  33
ENDBRANCH  31  32
ENDBRANCH  30  31
ENDBRANCH   1  30
TORSDOF 16
