REMARK SMILES O=C(NCCCCNC(=O)[C@H]1C[C@](O)(c2ccccc2Cl)[C@@H](c2ccccc2Cl)O1)c1ccc(-c2c3nc(c(-c4ccc(S(=O)(=O)[O-])cc4)c4ccc([nH]4)c(-c4ccc(S(=O)(=O)[O-])cc4)c4nc(c(-c5ccc(S(=O)(=O)[O-])cc5)c5ccc2[nH]5)C=C4)C=C3)cc1
REMARK SMILES IDX 4 1 3 2 1 3 2 4 31 6 32 7 90 8 33 9 89 10 34 11 35 12 36 13
REMARK SMILES IDX 83 14 37 15 88 16 82 17 84 18 38 19 87 20 81 21 80 22 39 24
REMARK SMILES IDX 69 25 50 26 68 27 51 28 54 29 67 30 85 31 52 32 53 33 66 35
REMARK SMILES IDX 86 36 55 37 40 38 41 39 49 40 42 41 48 42 43 43 44 44 45 45
REMARK SMILES IDX 46 46 47 47 70 48 71 49 79 50 72 51 78 52 73 53 74 54 75 55
REMARK SMILES IDX 76 56 77 57 56 58 57 59 65 60 58 61 64 62 59 63 60 64 61 65
REMARK SMILES IDX 62 66 63 67 5 68 6 69 7 70 8 71 9 72 10 74 11 75 12 76 30 77
REMARK SMILES IDX 13 78 22 79 15 80 16 81 20 82 17 83 19 84 21 85 18 86 14 87
REMARK SMILES IDX 23 89 24 90 28 91 25 92 27 93 29 94 26 95
REMARK H PARENT 3 5 84 23 54 34 8 73 14 88
REMARK Flexibility Score: inf
ROOT
ATOM      1  C   UNL     1      10.846   4.423  -7.084  1.00  0.00     0.116 C 
ENDROOT
BRANCH   1   2
ATOM      2  N   UNL     1      12.177   4.841  -6.674  1.00  0.00    -0.352 N 
ATOM      3  O   UNL     1      14.418   5.043  -6.816  1.00  0.00    -0.269 OA
ATOM      4  C   UNL     1      13.354   4.810  -7.386  1.00  0.00     0.251 C 
ATOM      5  H   UNL     1      12.246   5.197  -5.759  1.00  0.00     0.163 HD
BRANCH   4   6
ATOM      6  C   UNL     1      13.340   4.478  -8.830  1.00  0.00     0.039 A 
ATOM      7  C   UNL     1      12.388   5.047  -9.678  1.00  0.00     0.014 A 
ATOM      8  C   UNL     1      14.296   3.596  -9.344  1.00  0.00     0.014 A 
ATOM      9  C   UNL     1      12.302   4.626 -11.000  1.00  0.00     0.010 A 
ATOM     10  C   UNL     1      14.261   3.239 -10.698  1.00  0.00     0.010 A 
ATOM     11  C   UNL     1      13.246   3.730 -11.532  1.00  0.00    -0.014 A 
BRANCH  11  12
ATOM     12  C   UNL     1      13.176   3.396 -12.979  1.00  0.00     0.031 A 
ATOM     13  C   UNL     1      12.860   2.004 -13.455  1.00  0.00     0.074 A 
ATOM     14  C   UNL     1      13.335   4.395 -13.871  1.00  0.00     0.049 A 
ATOM     15  N   UNL     1      12.674   1.581 -14.681  1.00  0.00    -0.248 NA
ATOM     16  C   UNL     1      12.740   0.951 -12.435  1.00  0.00     0.031 C 
ATOM     17  C   UNL     1      13.668   5.782 -13.530  1.00  0.00     0.029 A 
ATOM     18  N   UNL     1      13.206   4.413 -15.236  1.00  0.00    -0.354 N 
ATOM     19  C   UNL     1      12.425   0.217 -14.584  1.00  0.00     0.074 A 
ATOM     20  C   UNL     1      12.509  -0.124 -13.179  1.00  0.00     0.031 C 
ATOM     21  C   UNL     1      13.651   6.526 -14.645  1.00  0.00     0.029 A 
ATOM     22  C   UNL     1      13.366   5.663 -15.785  1.00  0.00     0.049 A 
ATOM     23  H   UNL     1      13.016   3.608 -15.771  1.00  0.00     0.167 HD
ATOM     24  C   UNL     1      12.146  -0.667 -15.573  1.00  0.00     0.031 A 
ATOM     25  C   UNL     1      13.298   6.076 -17.064  1.00  0.00     0.031 A 
ATOM     26  C   UNL     1      12.066  -0.325 -16.970  1.00  0.00     0.049 A 
ATOM     27  C   UNL     1      12.986   5.074 -18.137  1.00  0.00     0.074 A 
ATOM     28  C   UNL     1      11.782  -1.151 -18.045  1.00  0.00     0.029 A 
ATOM     29  N   UNL     1      12.267   0.946 -17.489  1.00  0.00    -0.354 N 
ATOM     30  N   UNL     1      12.736   3.793 -18.016  1.00  0.00    -0.248 NA
ATOM     31  C   UNL     1      12.946   5.575 -19.516  1.00  0.00     0.031 C 
ATOM     32  C   UNL     1      11.849  -0.389 -19.217  1.00  0.00     0.029 A 
ATOM     33  C   UNL     1      12.127   0.923 -18.868  1.00  0.00     0.049 A 
ATOM     34  H   UNL     1      12.477   1.746 -16.957  1.00  0.00     0.167 HD
ATOM     35  C   UNL     1      12.511   3.332 -19.307  1.00  0.00     0.074 A 
ATOM     36  C   UNL     1      12.615   4.480 -20.186  1.00  0.00     0.031 C 
ATOM     37  C   UNL     1      12.253   2.070 -19.729  1.00  0.00     0.031 A 
BRANCH  24  38
ATOM     38  C   UNL     1      11.912  -2.104 -15.186  1.00  0.00    -0.014 A 
ATOM     39  C   UNL     1      10.712  -2.501 -14.569  1.00  0.00     0.010 A 
ATOM     40  C   UNL     1      12.869  -3.083 -15.514  1.00  0.00     0.010 A 
ATOM     41  C   UNL     1      10.482  -3.847 -14.268  1.00  0.00     0.020 A 
ATOM     42  C   UNL     1      12.633  -4.433 -15.234  1.00  0.00     0.020 A 
ATOM     43  C   UNL     1      11.445  -4.805 -14.602  1.00  0.00     0.054 A 
BRANCH  43  44
ATOM     44  S   UNL     1      11.101  -6.550 -14.240  1.00  0.00     0.124 S 
ATOM     45  O   UNL     1      11.271  -6.595 -12.790  1.00  0.00    -0.237 OA
ATOM     46  O   UNL     1       9.730  -6.712 -14.716  1.00  0.00    -0.237 OA
ATOM     47  O   UNL     1      12.113  -7.270 -15.008  1.00  0.00    -0.744 OA
ENDBRANCH  43  44
ENDBRANCH  24  38
BRANCH  25  48
ATOM     48  C   UNL     1      13.557   7.502 -17.396  1.00  0.00    -0.014 A 
ATOM     49  C   UNL     1      12.520   8.340 -17.841  1.00  0.00     0.010 A 
ATOM     50  C   UNL     1      14.852   8.032 -17.249  1.00  0.00     0.010 A 
ATOM     51  C   UNL     1      12.780   9.677 -18.155  1.00  0.00     0.020 A 
ATOM     52  C   UNL     1      15.108   9.374 -17.533  1.00  0.00     0.020 A 
ATOM     53  C   UNL     1      14.073  10.185 -18.000  1.00  0.00     0.054 A 
BRANCH  53  54
ATOM     54  S   UNL     1      14.385  11.934 -18.365  1.00  0.00     0.124 S 
ATOM     55  O   UNL     1      14.484  11.925 -19.821  1.00  0.00    -0.237 OA
ATOM     56  O   UNL     1      13.203  12.592 -17.814  1.00  0.00    -0.237 OA
ATOM     57  O   UNL     1      15.630  12.212 -17.652  1.00  0.00    -0.744 OA
ENDBRANCH  53  54
ENDBRANCH  25  48
BRANCH  37  58
ATOM     58  C   UNL     1      12.065   1.878 -21.208  1.00  0.00    -0.014 A 
ATOM     59  C   UNL     1      13.159   1.945 -22.089  1.00  0.00     0.010 A 
ATOM     60  C   UNL     1      10.781   1.626 -21.723  1.00  0.00     0.010 A 
ATOM     61  C   UNL     1      12.965   1.813 -23.466  1.00  0.00     0.020 A 
ATOM     62  C   UNL     1      10.587   1.469 -23.097  1.00  0.00     0.020 A 
ATOM     63  C   UNL     1      11.678   1.585 -23.962  1.00  0.00     0.054 A 
BRANCH  63  64
ATOM     64  S   UNL     1      11.447   1.413 -25.753  1.00  0.00     0.124 S 
ATOM     65  O   UNL     1      11.507   2.802 -26.200  1.00  0.00    -0.237 OA
ATOM     66  O   UNL     1      12.579   0.577 -26.146  1.00  0.00    -0.237 OA
ATOM     67  O   UNL     1      10.138   0.775 -25.872  1.00  0.00    -0.744 OA
ENDBRANCH  63  64
ENDBRANCH  37  58
ENDBRANCH  11  12
ENDBRANCH   4   6
ENDBRANCH   1   2
BRANCH   1  68
ATOM     68  C   UNL     1      10.252   3.373  -6.153  1.00  0.00     0.023 C 
BRANCH  68  69
ATOM     69  C   UNL     1       9.929   3.858  -4.736  1.00  0.00     0.023 C 
BRANCH  69  70
ATOM     70  C   UNL     1       8.955   5.033  -4.646  1.00  0.00     0.116 C 
BRANCH  70  71
ATOM     71  N   UNL     1       7.689   4.727  -5.280  1.00  0.00    -0.354 N 
ATOM     72  C   UNL     1       6.411   4.936  -4.866  1.00  0.00     0.249 C 
ATOM     73  H   UNL     1       7.768   4.295  -6.161  1.00  0.00     0.163 HD
ATOM     74  O   UNL     1       5.529   4.429  -5.563  1.00  0.00    -0.272 OA
BRANCH  72  75
ATOM     75  C   UNL     1       6.096   5.774  -3.605  1.00  0.00     0.211 C 
ATOM     76  C   UNL     1       6.799   7.129  -3.558  1.00  0.00     0.085 C 
ATOM     77  O   UNL     1       4.681   6.027  -3.549  1.00  0.00    -0.357 OA
ATOM     78  C   UNL     1       5.698   8.166  -3.331  1.00  0.00     0.124 C 
ATOM     79  C   UNL     1       4.423   7.421  -3.808  1.00  0.00     0.187 C 
BRANCH  78  80
ATOM     80  C   UNL     1       5.767   8.692  -1.875  1.00  0.00     0.005 A 
ATOM     81  C   UNL     1       6.788   9.649  -1.610  1.00  0.00     0.008 A 
ATOM     82  C   UNL     1       4.943   8.361  -0.781  1.00  0.00     0.047 A 
ATOM     83  C   UNL     1       6.927  10.294  -0.379  1.00  0.00     0.001 A 
ATOM     84  C   UNL     1       5.066   9.041   0.448  1.00  0.00     0.021 A 
ATOM     85  Cl  UNL     1       3.778   7.086  -0.751  1.00  0.00    -0.084 Cl
ATOM     86  C   UNL     1       6.044  10.009   0.647  1.00  0.00     0.002 A 
ENDBRANCH  78  80
BRANCH  78  87
ATOM     87  O   UNL     1       5.956   9.333  -4.136  1.00  0.00    -0.382 OA
ATOM     88  H   UNL     1       5.931   9.090  -5.075  1.00  0.00     0.212 HD
ENDBRANCH  78  87
BRANCH  79  89
ATOM     89  C   UNL     1       3.927   7.564  -5.251  1.00  0.00     0.003 A 
ATOM     90  C   UNL     1       4.786   7.377  -6.353  1.00  0.00     0.008 A 
ATOM     91  C   UNL     1       2.569   7.821  -5.541  1.00  0.00     0.046 A 
ATOM     92  C   UNL     1       4.324   7.437  -7.671  1.00  0.00     0.000 A 
ATOM     93  C   UNL     1       2.110   7.885  -6.864  1.00  0.00     0.021 A 
ATOM     94  Cl  UNL     1       1.371   8.077  -4.315  1.00  0.00    -0.084 Cl
ATOM     95  C   UNL     1       2.984   7.689  -7.928  1.00  0.00     0.002 A 
ENDBRANCH  79  89
ENDBRANCH  72  75
ENDBRANCH  70  71
ENDBRANCH  69  70
ENDBRANCH  68  69
ENDBRANCH   1  68
TORSDOF 17
