REMARK SMILES O=C(NCCCCNC(=O)c1ccc(NC(=O)c2ccc([N+](=O)[O-])cc2Cl)cc1Cl)c1ccc(-c2c3nc(c(-c4ccc(S(=O)(=O)[O-])cc4)c4ccc([nH]4)c(-c4ccc(S(=O)(=O)[O-])cc4)c4nc(c(-c5ccc(S(=O)(=O)[O-])cc5)c5ccc2[nH]5)C=C4)C=C3)cc1
REMARK SMILES IDX 5 1 4 2 3 3 1 4 2 5 31 7 32 8 90 9 33 10 89 11 34 12 35 13
REMARK SMILES IDX 36 14 83 15 37 16 88 17 82 18 84 19 38 20 87 21 81 22 80 23
REMARK SMILES IDX 39 25 69 26 50 27 68 28 51 29 54 30 67 31 85 32 52 33 53 34
REMARK SMILES IDX 66 36 86 37 55 38 40 39 41 40 49 41 42 42 48 43 43 44 44 45
REMARK SMILES IDX 45 46 46 47 47 48 70 49 71 50 79 51 72 52 78 53 73 54 74 55
REMARK SMILES IDX 75 56 76 57 77 58 56 59 57 60 65 61 58 62 64 63 59 64 60 65
REMARK SMILES IDX 61 66 62 67 63 68 6 69 7 70 8 71 9 72 10 74 11 75 12 76
REMARK SMILES IDX 29 77 13 78 28 79 30 80 14 81 15 82 16 83 17 85 18 86 19 87
REMARK SMILES IDX 26 88 20 89 25 90 27 91 21 92 22 93 23 94 24 95
REMARK H PARENT 3 6 84 24 54 35 8 73 15 84
REMARK Flexibility Score: inf
ROOT
ATOM      1  C   UNL     1       5.010   0.511  -2.713  1.00  0.00     0.023 C 
ENDROOT
BRANCH   1   2
ATOM      2  C   UNL     1       4.649   0.706  -1.248  1.00  0.00     0.116 C 
BRANCH   2   3
ATOM      3  N   UNL     1       3.217   0.708  -0.989  1.00  0.00    -0.352 N 
ATOM      4  O   UNL     1       1.279   0.049  -0.034  1.00  0.00    -0.269 OA
ATOM      5  C   UNL     1       2.505  -0.014  -0.055  1.00  0.00     0.251 C 
ATOM      6  H   UNL     1       2.683   1.307  -1.559  1.00  0.00     0.163 HD
BRANCH   5   7
ATOM      7  C   UNL     1       3.224  -0.897   0.893  1.00  0.00     0.039 A 
ATOM      8  C   UNL     1       4.371  -0.450   1.548  1.00  0.00     0.014 A 
ATOM      9  C   UNL     1       2.764  -2.202   1.100  1.00  0.00     0.014 A 
ATOM     10  C   UNL     1       5.154  -1.353   2.256  1.00  0.00     0.010 A 
ATOM     11  C   UNL     1       3.503  -3.083   1.900  1.00  0.00     0.010 A 
ATOM     12  C   UNL     1       4.728  -2.679   2.450  1.00  0.00    -0.014 A 
BRANCH  12  13
ATOM     13  C   UNL     1       5.570  -3.582   3.278  1.00  0.00     0.031 A 
ATOM     14  C   UNL     1       6.234  -4.802   2.696  1.00  0.00     0.074 A 
ATOM     15  C   UNL     1       5.799  -3.239   4.562  1.00  0.00     0.049 A 
ATOM     16  N   UNL     1       7.078  -5.625   3.266  1.00  0.00    -0.248 NA
ATOM     17  C   UNL     1       5.911  -5.150   1.303  1.00  0.00     0.031 C 
ATOM     18  C   UNL     1       5.194  -2.091   5.246  1.00  0.00     0.029 A 
ATOM     19  N   UNL     1       6.630  -3.785   5.505  1.00  0.00    -0.354 N 
ATOM     20  C   UNL     1       7.377  -6.593   2.313  1.00  0.00     0.074 A 
ATOM     21  C   UNL     1       6.604  -6.269   1.133  1.00  0.00     0.031 C 
ATOM     22  C   UNL     1       5.728  -1.976   6.470  1.00  0.00     0.029 A 
ATOM     23  C   UNL     1       6.665  -3.073   6.681  1.00  0.00     0.049 A 
ATOM     24  H   UNL     1       7.150  -4.607   5.356  1.00  0.00     0.167 HD
ATOM     25  C   UNL     1       8.221  -7.649   2.411  1.00  0.00     0.031 A 
ATOM     26  C   UNL     1       7.370  -3.274   7.809  1.00  0.00     0.031 A 
ATOM     27  C   UNL     1       8.990  -7.969   3.587  1.00  0.00     0.049 A 
ATOM     28  C   UNL     1       8.309  -4.441   7.883  1.00  0.00     0.074 A 
ATOM     29  C   UNL     1       9.873  -9.019   3.781  1.00  0.00     0.029 A 
ATOM     30  N   UNL     1       8.976  -7.239   4.766  1.00  0.00    -0.354 N 
ATOM     31  N   UNL     1       8.579  -5.337   6.964  1.00  0.00    -0.248 NA
ATOM     32  C   UNL     1       9.040  -4.622   9.143  1.00  0.00     0.031 C 
ATOM     33  C   UNL     1      10.366  -8.943   5.089  1.00  0.00     0.029 A 
ATOM     34  C   UNL     1       9.825  -7.821   5.694  1.00  0.00     0.049 A 
ATOM     35  H   UNL     1       8.441  -6.428   4.922  1.00  0.00     0.167 HD
ATOM     36  C   UNL     1       9.506  -6.196   7.539  1.00  0.00     0.074 A 
ATOM     37  C   UNL     1       9.781  -5.686   8.869  1.00  0.00     0.031 C 
ATOM     38  C   UNL     1      10.069  -7.314   7.020  1.00  0.00     0.031 A 
BRANCH  25  39
ATOM     39  C   UNL     1       8.353  -8.554   1.214  1.00  0.00    -0.014 A 
ATOM     40  C   UNL     1       9.082  -8.152   0.080  1.00  0.00     0.010 A 
ATOM     41  C   UNL     1       7.802  -9.849   1.249  1.00  0.00     0.010 A 
ATOM     42  C   UNL     1       9.235  -9.018  -1.007  1.00  0.00     0.020 A 
ATOM     43  C   UNL     1       7.971 -10.725   0.172  1.00  0.00     0.020 A 
ATOM     44  C   UNL     1       8.676 -10.299  -0.955  1.00  0.00     0.054 A 
BRANCH  44  45
ATOM     45  S   UNL     1       8.921 -11.416  -2.365  1.00  0.00     0.124 S 
ATOM     46  O   UNL     1       7.999 -10.859  -3.352  1.00  0.00    -0.237 OA
ATOM     47  O   UNL     1      10.340 -11.247  -2.667  1.00  0.00    -0.237 OA
ATOM     48  O   UNL     1       8.551 -12.727  -1.837  1.00  0.00    -0.744 OA
ENDBRANCH  44  45
ENDBRANCH  25  39
BRANCH  26  49
ATOM     49  C   UNL     1       7.189  -2.355   8.963  1.00  0.00    -0.014 A 
ATOM     50  C   UNL     1       8.203  -1.458   9.338  1.00  0.00     0.010 A 
ATOM     51  C   UNL     1       5.976  -2.357   9.676  1.00  0.00     0.010 A 
ATOM     52  C   UNL     1       8.013  -0.588  10.416  1.00  0.00     0.020 A 
ATOM     53  C   UNL     1       5.771  -1.471  10.735  1.00  0.00     0.020 A 
ATOM     54  C   UNL     1       6.797  -0.601  11.107  1.00  0.00     0.054 A 
BRANCH  54  55
ATOM     55  S   UNL     1       6.540   0.572  12.467  1.00  0.00     0.124 S 
ATOM     56  O   UNL     1       7.226  -0.090  13.571  1.00  0.00    -0.237 OA
ATOM     57  O   UNL     1       7.174   1.789  11.966  1.00  0.00    -0.237 OA
ATOM     58  O   UNL     1       5.085   0.642  12.582  1.00  0.00    -0.744 OA
ENDBRANCH  54  55
ENDBRANCH  26  49
BRANCH  38  59
ATOM     59  C   UNL     1      11.034  -8.055   7.902  1.00  0.00    -0.014 A 
ATOM     60  C   UNL     1      10.574  -8.810   8.997  1.00  0.00     0.010 A 
ATOM     61  C   UNL     1      12.413  -7.995   7.637  1.00  0.00     0.010 A 
ATOM     62  C   UNL     1      11.482  -9.454   9.840  1.00  0.00     0.020 A 
ATOM     63  C   UNL     1      13.323  -8.658   8.466  1.00  0.00     0.020 A 
ATOM     64  C   UNL     1      12.852  -9.365   9.575  1.00  0.00     0.054 A 
BRANCH  64  65
ATOM     65  S   UNL     1      14.015 -10.210  10.680  1.00  0.00     0.124 S 
ATOM     66  O   UNL     1      14.070  -9.296  11.817  1.00  0.00    -0.237 OA
ATOM     67  O   UNL     1      13.353 -11.488  10.932  1.00  0.00    -0.237 OA
ATOM     68  O   UNL     1      15.240 -10.297   9.889  1.00  0.00    -0.744 OA
ENDBRANCH  64  65
ENDBRANCH  38  59
ENDBRANCH  12  13
ENDBRANCH   5   7
ENDBRANCH   2   3
ENDBRANCH   1   2
BRANCH   1  69
ATOM     69  C   UNL     1       4.540   1.602  -3.668  1.00  0.00     0.023 C 
BRANCH  69  70
ATOM     70  C   UNL     1       4.813   3.037  -3.232  1.00  0.00     0.116 C 
BRANCH  70  71
ATOM     71  N   UNL     1       6.209   3.320  -2.930  1.00  0.00    -0.352 N 
ATOM     72  C   UNL     1       6.983   4.384  -3.325  1.00  0.00     0.252 C 
ATOM     73  H   UNL     1       6.662   2.655  -2.363  1.00  0.00     0.163 HD
ATOM     74  O   UNL     1       8.145   4.496  -2.949  1.00  0.00    -0.269 OA
BRANCH  72  75
ATOM     75  C   UNL     1       6.458   5.330  -4.323  1.00  0.00     0.058 A 
ATOM     76  C   UNL     1       7.114   5.351  -5.554  1.00  0.00     0.017 A 
ATOM     77  C   UNL     1       5.336   6.132  -4.125  1.00  0.00     0.055 A 
ATOM     78  C   UNL     1       6.560   6.053  -6.624  1.00  0.00     0.027 A 
ATOM     79  C   UNL     1       4.755   6.782  -5.221  1.00  0.00     0.047 A 
ATOM     80  Cl  UNL     1       4.604   6.344  -2.576  1.00  0.00    -0.083 Cl
ATOM     81  C   UNL     1       5.319   6.675  -6.500  1.00  0.00     0.043 A 
BRANCH  81  82
ATOM     82  N   UNL     1       4.557   7.180  -7.573  1.00  0.00    -0.322 N 
ATOM     83  C   UNL     1       4.640   7.018  -8.940  1.00  0.00     0.257 C 
ATOM     84  H   UNL     1       3.818   7.766  -7.290  1.00  0.00     0.170 HD
ATOM     85  O   UNL     1       3.857   7.607  -9.684  1.00  0.00    -0.269 OA
BRANCH  83  86
ATOM     86  C   UNL     1       5.672   6.178  -9.561  1.00  0.00     0.059 A 
ATOM     87  C   UNL     1       6.698   6.852 -10.240  1.00  0.00     0.022 A 
ATOM     88  C   UNL     1       5.690   4.781  -9.447  1.00  0.00     0.060 A 
ATOM     89  C   UNL     1       7.796   6.140 -10.722  1.00  0.00     0.086 A 
ATOM     90  C   UNL     1       6.795   4.064  -9.918  1.00  0.00     0.107 A 
ATOM     91  Cl  UNL     1       4.414   3.900  -8.689  1.00  0.00    -0.083 Cl
ATOM     92  C   UNL     1       7.854   4.752 -10.532  1.00  0.00     0.270 A 
BRANCH  92  93
ATOM     93  N   UNL     1       9.056   4.018 -10.946  1.00  0.00     0.062 N 
ATOM     94  O   UNL     1       9.881   4.621 -11.646  1.00  0.00    -0.258 OA
ATOM     95  O   UNL     1       9.176   2.850 -10.556  1.00  0.00    -0.258 OA
ENDBRANCH  92  93
ENDBRANCH  83  86
ENDBRANCH  81  82
ENDBRANCH  72  75
ENDBRANCH  70  71
ENDBRANCH  69  70
ENDBRANCH   1  69
TORSDOF 17
