REMARK SMILES COC(=O)c1c(NC(=O)[C@@H]2[C@@H](C(=O)NCCCCNC(=O)c3ccc(-c4c5nc(c(-c6ccc(S(=O)(=O)[O-])cc6)c6ccc([nH]6)c(-c6ccc(S(=O)(=O)[O-])cc6)c6nc(c(-c7ccc(S(=O)(=O)[O-])cc7)c7ccc4[nH]7)C=C6)C=C5)cc3)[C@H]3C=C[C@@H]2CC3)sc(C)c1C
REMARK SMILES IDX 16 1 15 2 14 3 12 4 13 5 11 7 10 8 85 9 82 10 84 11 86 12
REMARK SMILES IDX 83 13 87 14 8 15 7 16 9 18 6 19 5 20 91 21 88 22 89 23 92 24
REMARK SMILES IDX 90 25 3 26 4 27 2 28 1 29 17 30 18 31 19 32 20 33 21 35
REMARK SMILES IDX 22 36 23 37 81 38 24 39 80 40 25 41 26 42 27 43 74 44 28 45
REMARK SMILES IDX 79 46 73 47 75 48 29 49 78 50 72 51 71 52 30 54 60 55 41 56
REMARK SMILES IDX 59 57 42 58 45 59 58 60 76 61 43 62 44 63 57 65 77 66 46 67
REMARK SMILES IDX 31 68 32 69 40 70 33 71 39 72 34 73 35 74 36 75 37 76 38 77
REMARK SMILES IDX 61 78 62 79 70 80 63 81 69 82 64 83 65 84 66 85 67 86 68 87
REMARK SMILES IDX 47 88 48 89 56 90 49 91 55 92 50 93 51 94 52 95 53 96 54 97
REMARK H PARENT 14 6 7 17 19 34 75 53 45 64
REMARK Flexibility Score: inf
ROOT
ATOM      1  C   UNL     1       4.143  -1.542   1.038  1.00  0.00     0.023 C 
ENDROOT
BRANCH   1   2
ATOM      2  C   UNL     1       2.849  -0.786   0.759  1.00  0.00     0.116 C 
BRANCH   2   3
ATOM      3  N   UNL     1       1.986  -1.427  -0.212  1.00  0.00    -0.356 N 
ATOM      4  C   UNL     1       0.673  -1.771  -0.191  1.00  0.00     0.224 C 
ATOM      5  O   UNL     1       0.180  -2.050  -1.292  1.00  0.00    -0.275 OA
ATOM      6  H   UNL     1       2.441  -1.658  -1.054  1.00  0.00     0.163 HD
BRANCH   4   7
ATOM      7  C   UNL     1      -0.188  -1.936   1.065  1.00  0.00     0.098 C 
ATOM      8  C   UNL     1      -0.284  -0.744   2.068  1.00  0.00     0.099 C 
ATOM      9  C   UNL     1      -0.127  -1.312   3.518  1.00  0.00     0.025 C 
ATOM     10  C   UNL     1       0.200  -3.245   1.816  1.00  0.00     0.025 C 
ATOM     11  C   UNL     1       1.223  -1.996   3.602  1.00  0.00    -0.027 C 
ATOM     12  C   UNL     1      -1.185  -2.420   3.760  1.00  0.00     0.009 C 
ATOM     13  C   UNL     1       1.391  -2.994   2.720  1.00  0.00    -0.027 C 
ATOM     14  C   UNL     1      -0.976  -3.583   2.762  1.00  0.00     0.009 C 
BRANCH   8  15
ATOM     15  C   UNL     1      -1.583   0.072   1.972  1.00  0.00     0.229 C 
ATOM     16  N   UNL     1      -1.730   1.239   2.683  1.00  0.00    -0.317 N 
ATOM     17  H   UNL     1      -2.636   1.625   2.691  1.00  0.00     0.170 HD
ATOM     18  O   UNL     1      -2.568  -0.347   1.357  1.00  0.00    -0.274 OA
BRANCH  16  19
ATOM     19  C   UNL     1      -0.776   1.938   3.386  1.00  0.00     0.110 A 
ATOM     20  C   UNL     1       0.561   2.238   3.197  1.00  0.00     0.098 A 
ATOM     21  C   UNL     1       1.165   2.574   4.475  1.00  0.00    -0.021 A 
ATOM     22  S   UNL     1      -1.384   2.635   4.811  1.00  0.00    -0.122 S 
ATOM     23  C   UNL     1       0.194   2.930   5.402  1.00  0.00     0.007 A 
ATOM     24  C   UNL     1       2.644   2.592   4.728  1.00  0.00     0.046 C 
ATOM     25  C   UNL     1       0.375   3.504   6.769  1.00  0.00     0.057 C 
BRANCH  20  26
ATOM     26  C   UNL     1       1.253   2.209   1.909  1.00  0.00     0.341 C 
ATOM     27  O   UNL     1       2.474   2.118   1.800  1.00  0.00    -0.246 OA
BRANCH  26  28
ATOM     28  O   UNL     1       0.394   2.310   0.857  1.00  0.00    -0.465 OA
ATOM     29  C   UNL     1       0.979   2.308  -0.447  1.00  0.00     0.282 C 
ENDBRANCH  26  28
ENDBRANCH  20  26
ENDBRANCH  16  19
ENDBRANCH   8  15
ENDBRANCH   4   7
ENDBRANCH   2   3
ENDBRANCH   1   2
BRANCH   1  30
ATOM     30  C   UNL     1       5.352  -1.028   0.257  1.00  0.00     0.023 C 
BRANCH  30  31
ATOM     31  C   UNL     1       5.713   0.443   0.471  1.00  0.00     0.116 C 
BRANCH  31  32
ATOM     32  N   UNL     1       6.042   0.782   1.849  1.00  0.00    -0.352 N 
ATOM     33  C   UNL     1       7.084   1.552   2.316  1.00  0.00     0.251 C 
ATOM     34  H   UNL     1       5.441   0.413   2.536  1.00  0.00     0.163 HD
ATOM     35  O   UNL     1       7.264   1.696   3.521  1.00  0.00    -0.269 OA
BRANCH  33  36
ATOM     36  C   UNL     1       8.011   2.172   1.343  1.00  0.00     0.039 A 
ATOM     37  C   UNL     1       9.383   1.938   1.464  1.00  0.00     0.014 A 
ATOM     38  C   UNL     1       7.515   2.922   0.273  1.00  0.00     0.014 A 
ATOM     39  C   UNL     1      10.249   2.378   0.459  1.00  0.00     0.010 A 
ATOM     40  C   UNL     1       8.370   3.296  -0.760  1.00  0.00     0.010 A 
ATOM     41  C   UNL     1       9.744   3.018  -0.685  1.00  0.00    -0.014 A 
BRANCH  41  42
ATOM     42  C   UNL     1      10.626   3.386  -1.824  1.00  0.00     0.031 A 
ATOM     43  C   UNL     1      10.796   4.829  -2.214  1.00  0.00     0.074 A 
ATOM     44  C   UNL     1      11.211   2.419  -2.562  1.00  0.00     0.049 A 
ATOM     45  N   UNL     1      11.446   5.340  -3.229  1.00  0.00    -0.248 NA
ATOM     46  C   UNL     1      10.123   5.828  -1.367  1.00  0.00     0.031 C 
ATOM     47  C   UNL     1      11.095   0.979  -2.320  1.00  0.00     0.029 A 
ATOM     48  N   UNL     1      12.012   2.503  -3.674  1.00  0.00    -0.354 N 
ATOM     49  C   UNL     1      11.242   6.712  -3.157  1.00  0.00     0.074 A 
ATOM     50  C   UNL     1      10.371   6.950  -2.025  1.00  0.00     0.031 C 
ATOM     51  C   UNL     1      11.821   0.319  -3.238  1.00  0.00     0.029 A 
ATOM     52  C   UNL     1      12.420   1.282  -4.157  1.00  0.00     0.049 A 
ATOM     53  H   UNL     1      12.271   3.359  -4.087  1.00  0.00     0.167 HD
ATOM     54  C   UNL     1      11.746   7.690  -3.947  1.00  0.00     0.031 A 
ATOM     55  C   UNL     1      13.185   0.969  -5.221  1.00  0.00     0.031 A 
ATOM     56  C   UNL     1      12.627   7.458  -5.060  1.00  0.00     0.049 A 
ATOM     57  C   UNL     1      13.737   2.071  -6.083  1.00  0.00     0.074 A 
ATOM     58  C   UNL     1      13.232   8.388  -5.887  1.00  0.00     0.029 A 
ATOM     59  N   UNL     1      13.031   6.207  -5.501  1.00  0.00    -0.354 N 
ATOM     60  N   UNL     1      13.575   3.367  -5.965  1.00  0.00    -0.248 NA
ATOM     61  C   UNL     1      14.581   1.668  -7.216  1.00  0.00     0.031 C 
ATOM     62  C   UNL     1      13.974   7.698  -6.852  1.00  0.00     0.029 A 
ATOM     63  C   UNL     1      13.867   6.340  -6.597  1.00  0.00     0.049 A 
ATOM     64  H   UNL     1      12.763   5.351  -5.095  1.00  0.00     0.167 HD
ATOM     65  C   UNL     1      14.321   3.936  -6.992  1.00  0.00     0.074 A 
ATOM     66  C   UNL     1      14.940   2.844  -7.715  1.00  0.00     0.031 C 
ATOM     67  C   UNL     1      14.480   5.245  -7.304  1.00  0.00     0.031 A 
BRANCH  54  68
ATOM     68  C   UNL     1      11.348   9.107  -3.628  1.00  0.00    -0.014 A 
ATOM     69  C   UNL     1      11.835   9.754  -2.478  1.00  0.00     0.010 A 
ATOM     70  C   UNL     1      10.488   9.805  -4.495  1.00  0.00     0.010 A 
ATOM     71  C   UNL     1      11.426  11.054  -2.171  1.00  0.00     0.020 A 
ATOM     72  C   UNL     1      10.099  11.116  -4.206  1.00  0.00     0.020 A 
ATOM     73  C   UNL     1      10.553  11.724  -3.033  1.00  0.00     0.054 A 
BRANCH  73  74
ATOM     74  S   UNL     1      10.036  13.410  -2.612  1.00  0.00     0.124 S 
ATOM     75  O   UNL     1       9.056  13.167  -1.556  1.00  0.00    -0.237 OA
ATOM     76  O   UNL     1      11.284  14.032  -2.179  1.00  0.00    -0.237 OA
ATOM     77  O   UNL     1       9.488  13.927  -3.864  1.00  0.00    -0.744 OA
ENDBRANCH  73  74
ENDBRANCH  54  68
BRANCH  55  78
ATOM     78  C   UNL     1      13.498  -0.455  -5.518  1.00  0.00    -0.014 A 
ATOM     79  C   UNL     1      14.788  -0.962  -5.278  1.00  0.00     0.010 A 
ATOM     80  C   UNL     1      12.510  -1.314  -6.031  1.00  0.00     0.010 A 
ATOM     81  C   UNL     1      15.088  -2.297  -5.560  1.00  0.00     0.020 A 
ATOM     82  C   UNL     1      12.800  -2.657  -6.291  1.00  0.00     0.020 A 
ATOM     83  C   UNL     1      14.092  -3.137  -6.064  1.00  0.00     0.054 A 
BRANCH  83  84
ATOM     84  S   UNL     1      14.488  -4.882  -6.370  1.00  0.00     0.124 S 
ATOM     85  O   UNL     1      15.254  -4.806  -7.610  1.00  0.00    -0.237 OA
ATOM     86  O   UNL     1      15.248  -5.248  -5.177  1.00  0.00    -0.237 OA
ATOM     87  O   UNL     1      13.175  -5.514  -6.480  1.00  0.00    -0.744 OA
ENDBRANCH  83  84
ENDBRANCH  55  78
BRANCH  67  88
ATOM     88  C   UNL     1      15.389   5.578  -8.455  1.00  0.00    -0.014 A 
ATOM     89  C   UNL     1      14.985   5.373  -9.785  1.00  0.00     0.010 A 
ATOM     90  C   UNL     1      16.643   6.163  -8.200  1.00  0.00     0.010 A 
ATOM     91  C   UNL     1      15.829   5.728 -10.841  1.00  0.00     0.020 A 
ATOM     92  C   UNL     1      17.480   6.540  -9.253  1.00  0.00     0.020 A 
ATOM     93  C   UNL     1      17.071   6.309 -10.569  1.00  0.00     0.054 A 
BRANCH  93  94
ATOM     94  S   UNL     1      18.127   6.812 -11.956  1.00  0.00     0.124 S 
ATOM     95  O   UNL     1      18.663   5.532 -12.409  1.00  0.00    -0.237 OA
ATOM     96  O   UNL     1      17.180   7.454 -12.865  1.00  0.00    -0.237 OA
ATOM     97  O   UNL     1      19.099   7.713 -11.341  1.00  0.00    -0.744 OA
ENDBRANCH  93  94
ENDBRANCH  67  88
ENDBRANCH  41  42
ENDBRANCH  33  36
ENDBRANCH  31  32
ENDBRANCH  30  31
ENDBRANCH   1  30
TORSDOF 18
