REMARK SMILES COc1ccccc1N1C(=O)[C@@H]2[C@@H](C1=O)[C@@](Cc1ccccc1)(C(=O)NCCCCNC(=O)c1ccc(-c3c4nc(c(-c5ccc(S(=O)(=O)[O-])cc5)c5ccc([nH]5)c(-c5ccc(S(=O)(=O)[O-])cc5)c5nc(c(-c6ccc(S(=O)(=O)[O-])cc6)c6ccc3[nH]6)C=C5)C=C4)cc1)[NH2+][C@H]2c1ccc(C)cc1
REMARK SMILES IDX 29 1 28 2 27 3 26 4 24 5 25 6 16 8 9 9 10 10 14 11 11 12
REMARK SMILES IDX 12 13 13 14 15 15 95 16 94 17 8 20 3 21 4 22 5 23 7 24 6 25
REMARK SMILES IDX 2 26 1 27 96 28 97 29 102 30 98 31 101 32 99 33 100 34 17 35
REMARK SMILES IDX 18 36 19 37 23 38 20 39 22 40 21 41 30 42 31 43 32 44 33 46
REMARK SMILES IDX 34 47 35 48 93 49 36 50 92 51 37 52 38 53 39 54 86 55 40 56
REMARK SMILES IDX 91 57 85 58 87 59 41 60 90 61 84 62 83 63 42 65 72 66 53 67
REMARK SMILES IDX 71 68 54 69 57 70 70 71 88 72 55 73 56 74 69 76 89 77 58 78
REMARK SMILES IDX 43 79 44 80 52 81 45 82 51 83 46 84 47 85 48 86 49 87 50 88
REMARK SMILES IDX 73 89 74 90 82 91 75 92 81 93 76 94 77 95 78 96 79 97 80 98
REMARK SMILES IDX 59 99 60 100 68 101 61 102 67 103 62 104 63 105 64 106
REMARK SMILES IDX 65 107 66 108
REMARK H PARENT 26 7 94 18 94 19 31 45 87 64 57 75
REMARK Flexibility Score: inf
ROOT
ATOM      1  C   UNL     1       4.489   3.644  -4.188  1.00  0.00     0.023 C 
ENDROOT
BRANCH   1   2
ATOM      2  C   UNL     1       3.861   2.708  -3.169  1.00  0.00     0.023 C 
BRANCH   2   3
ATOM      3  C   UNL     1       4.323   1.262  -3.282  1.00  0.00     0.116 C 
BRANCH   3   4
ATOM      4  N   UNL     1       5.516   0.927  -2.545  1.00  0.00    -0.351 N 
ATOM      5  C   UNL     1       5.832  -0.275  -1.993  1.00  0.00     0.282 C 
ATOM      6  O   UNL     1       7.041  -0.530  -1.904  1.00  0.00    -0.268 OA
ATOM      7  H   UNL     1       6.176   1.649  -2.428  1.00  0.00     0.163 HD
BRANCH   5   8
ATOM      8  C   UNL     1       4.778  -1.282  -1.394  1.00  0.00     0.192 C 
ATOM      9  N   UNL     1       3.018   0.816   1.161  1.00  0.00    -0.246 N 
ATOM     10  C   UNL     1       3.948   0.071   1.875  1.00  0.00     0.244 C 
ATOM     11  C   UNL     1       3.117   0.558  -0.199  1.00  0.00     0.245 C 
ATOM     12  O   UNL     1       4.048  -0.095   3.078  1.00  0.00    -0.273 OA
ATOM     13  C   UNL     1       4.871  -0.488   0.835  1.00  0.00     0.162 C 
ATOM     14  C   UNL     1       3.890  -0.720  -0.306  1.00  0.00     0.170 C 
ATOM     15  O   UNL     1       2.592   1.160  -1.108  1.00  0.00    -0.273 OA
ATOM     16  C   UNL     1       5.517  -1.841   0.922  1.00  0.00     0.228 C 
ATOM     17  N   UNL     1       5.593  -2.270  -0.508  1.00  0.00    -0.326 N 
ATOM     18  H   UNL     1       6.567  -2.272  -0.810  1.00  0.00     0.347 HD
ATOM     19  H   UNL     1       5.205  -3.208  -0.601  1.00  0.00     0.347 HD
BRANCH   9  20
ATOM     20  C   UNL     1       2.117   1.764   1.711  1.00  0.00     0.094 A 
ATOM     21  C   UNL     1       0.843   2.029   1.163  1.00  0.00     0.143 A 
ATOM     22  C   UNL     1       0.081   3.107   1.632  1.00  0.00     0.048 A 
ATOM     23  C   UNL     1       0.548   3.909   2.669  1.00  0.00     0.004 A 
ATOM     24  C   UNL     1       2.549   2.557   2.790  1.00  0.00     0.031 A 
ATOM     25  C   UNL     1       1.778   3.629   3.253  1.00  0.00     0.002 A 
BRANCH  21  26
ATOM     26  O   UNL     1       0.242   1.347   0.135  1.00  0.00    -0.495 OA
ATOM     27  C   UNL     1       0.055  -0.044   0.363  1.00  0.00     0.278 C 
ENDBRANCH  21  26
ENDBRANCH   9  20
BRANCH  16  28
ATOM     28  C   UNL     1       6.868  -1.914   1.599  1.00  0.00     0.010 A 
ATOM     29  C   UNL     1       7.934  -1.082   1.226  1.00  0.00     0.010 A 
ATOM     30  C   UNL     1       7.103  -2.884   2.586  1.00  0.00     0.010 A 
ATOM     31  C   UNL     1       9.192  -1.215   1.817  1.00  0.00     0.004 A 
ATOM     32  C   UNL     1       8.362  -3.014   3.183  1.00  0.00     0.004 A 
ATOM     33  C   UNL     1       9.417  -2.179   2.802  1.00  0.00    -0.051 A 
ATOM     34  C   UNL     1      10.778  -2.312   3.414  1.00  0.00     0.044 C 
ENDBRANCH  16  28
BRANCH   8  35
ATOM     35  C   UNL     1       4.131  -2.244  -2.436  1.00  0.00     0.115 C 
BRANCH  35  36
ATOM     36  C   UNL     1       3.075  -1.732  -3.385  1.00  0.00    -0.041 A 
ATOM     37  C   UNL     1       1.746  -1.575  -2.971  1.00  0.00     0.004 A 
ATOM     38  C   UNL     1       3.418  -1.365  -4.696  1.00  0.00     0.004 A 
ATOM     39  C   UNL     1       0.810  -0.962  -3.807  1.00  0.00     0.000 A 
ATOM     40  C   UNL     1       2.486  -0.734  -5.525  1.00  0.00     0.000 A 
ATOM     41  C   UNL     1       1.187  -0.515  -5.072  1.00  0.00     0.000 A 
ENDBRANCH  35  36
ENDBRANCH   8  35
ENDBRANCH   5   8
ENDBRANCH   3   4
ENDBRANCH   2   3
ENDBRANCH   1   2
BRANCH   1  42
ATOM     42  C   UNL     1       4.346   3.213  -5.642  1.00  0.00     0.116 C 
BRANCH  42  43
ATOM     43  N   UNL     1       2.969   3.076  -6.105  1.00  0.00    -0.352 N 
ATOM     44  C   UNL     1       2.417   3.587  -7.261  1.00  0.00     0.251 C 
ATOM     45  H   UNL     1       2.364   2.559  -5.525  1.00  0.00     0.163 HD
ATOM     46  O   UNL     1       1.230   3.439  -7.527  1.00  0.00    -0.269 OA
BRANCH  44  47
ATOM     47  C   UNL     1       3.300   4.368  -8.151  1.00  0.00     0.039 A 
ATOM     48  C   UNL     1       3.018   5.717  -8.372  1.00  0.00     0.014 A 
ATOM     49  C   UNL     1       4.502   3.805  -8.587  1.00  0.00     0.014 A 
ATOM     50  C   UNL     1       3.998   6.534  -8.940  1.00  0.00     0.010 A 
ATOM     51  C   UNL     1       5.508   4.641  -9.053  1.00  0.00     0.010 A 
ATOM     52  C   UNL     1       5.271   6.016  -9.228  1.00  0.00    -0.014 A 
BRANCH  52  53
ATOM     53  C   UNL     1       6.380   6.880  -9.714  1.00  0.00     0.031 A 
ATOM     54  C   UNL     1       7.016   6.577 -11.046  1.00  0.00     0.074 A 
ATOM     55  C   UNL     1       6.874   7.865  -8.934  1.00  0.00     0.049 A 
ATOM     56  N   UNL     1       8.071   7.116 -11.597  1.00  0.00    -0.248 NA
ATOM     57  C   UNL     1       6.405   5.501 -11.848  1.00  0.00     0.031 C 
ATOM     58  C   UNL     1       6.374   8.237  -7.606  1.00  0.00     0.029 A 
ATOM     59  N   UNL     1       7.924   8.730  -9.138  1.00  0.00    -0.354 N 
ATOM     60  C   UNL     1       8.271   6.422 -12.784  1.00  0.00     0.074 A 
ATOM     61  C   UNL     1       7.256   5.396 -12.857  1.00  0.00     0.031 C 
ATOM     62  C   UNL     1       7.099   9.263  -7.130  1.00  0.00     0.029 A 
ATOM     63  C   UNL     1       8.150   9.591  -8.087  1.00  0.00     0.049 A 
ATOM     64  H   UNL     1       8.464   8.733  -9.960  1.00  0.00     0.167 HD
ATOM     65  C   UNL     1       9.206   6.631 -13.738  1.00  0.00     0.031 A 
ATOM     66  C   UNL     1       9.107  10.525  -7.906  1.00  0.00     0.031 A 
ATOM     67  C   UNL     1      10.186   7.681 -13.682  1.00  0.00     0.049 A 
ATOM     68  C   UNL     1      10.138  10.733  -8.988  1.00  0.00     0.074 A 
ATOM     69  C   UNL     1      11.120   8.028 -14.641  1.00  0.00     0.029 A 
ATOM     70  N   UNL     1      10.358   8.549 -12.617  1.00  0.00    -0.354 N 
ATOM     71  N   UNL     1      10.254  10.122 -10.143  1.00  0.00    -0.248 NA
ATOM     72  C   UNL     1      11.162  11.761  -8.748  1.00  0.00     0.031 C 
ATOM     73  C   UNL     1      11.904   9.062 -14.127  1.00  0.00     0.029 A 
ATOM     74  C   UNL     1      11.407   9.410 -12.882  1.00  0.00     0.049 A 
ATOM     75  H   UNL     1       9.816   8.552 -11.795  1.00  0.00     0.167 HD
ATOM     76  C   UNL     1      11.335  10.723 -10.782  1.00  0.00     0.074 A 
ATOM     77  C   UNL     1      11.831  11.750  -9.892  1.00  0.00     0.031 C 
ATOM     78  C   UNL     1      11.868  10.449 -11.997  1.00  0.00     0.031 A 
BRANCH  65  79
ATOM     79  C   UNL     1       9.229   5.711 -14.928  1.00  0.00    -0.014 A 
ATOM     80  C   UNL     1       8.225   5.762 -15.911  1.00  0.00     0.010 A 
ATOM     81  C   UNL     1      10.328   4.851 -15.112  1.00  0.00     0.010 A 
ATOM     82  C   UNL     1       8.315   4.961 -17.052  1.00  0.00     0.020 A 
ATOM     83  C   UNL     1      10.435   4.071 -16.265  1.00  0.00     0.020 A 
ATOM     84  C   UNL     1       9.425   4.128 -17.226  1.00  0.00     0.054 A 
BRANCH  84  85
ATOM     85  S   UNL     1       9.553   3.165 -18.758  1.00  0.00     0.124 S 
ATOM     86  O   UNL     1       8.496   2.173 -18.580  1.00  0.00    -0.237 OA
ATOM     87  O   UNL     1       9.304   4.171 -19.787  1.00  0.00    -0.237 OA
ATOM     88  O   UNL     1      10.915   2.637 -18.723  1.00  0.00    -0.744 OA
ENDBRANCH  84  85
ENDBRANCH  65  79
BRANCH  66  89
ATOM     89  C   UNL     1       9.164  11.332  -6.651  1.00  0.00    -0.014 A 
ATOM     90  C   UNL     1       8.963  12.725  -6.680  1.00  0.00     0.010 A 
ATOM     91  C   UNL     1       9.479  10.719  -5.424  1.00  0.00     0.010 A 
ATOM     92  C   UNL     1       9.128  13.493  -5.522  1.00  0.00     0.020 A 
ATOM     93  C   UNL     1       9.608  11.479  -4.256  1.00  0.00     0.020 A 
ATOM     94  C   UNL     1       9.457  12.865  -4.319  1.00  0.00     0.054 A 
BRANCH  94  95
ATOM     95  S   UNL     1       9.678  13.880  -2.831  1.00  0.00     0.124 S 
ATOM     96  O   UNL     1      10.948  14.545  -3.104  1.00  0.00    -0.237 OA
ATOM     97  O   UNL     1       8.495  14.738  -2.856  1.00  0.00    -0.237 OA
ATOM     98  O   UNL     1       9.704  12.899  -1.748  1.00  0.00    -0.744 OA
ENDBRANCH  94  95
ENDBRANCH  66  89
BRANCH  78  99
ATOM     99  C   UNL     1      13.003  11.311 -12.482  1.00  0.00    -0.014 A 
ATOM    100  C   UNL     1      14.291  11.210 -11.929  1.00  0.00     0.010 A 
ATOM    101  C   UNL     1      12.792  12.166 -13.580  1.00  0.00     0.010 A 
ATOM    102  C   UNL     1      15.344  11.964 -12.456  1.00  0.00     0.020 A 
ATOM    103  C   UNL     1      13.848  12.895 -14.130  1.00  0.00     0.020 A 
ATOM    104  C   UNL     1      15.117  12.795 -13.558  1.00  0.00     0.054 A 
BRANCH 104 105
ATOM    105  S   UNL     1      16.516  13.703 -14.268  1.00  0.00     0.124 S 
ATOM    106  O   UNL     1      16.774  14.714 -13.246  1.00  0.00    -0.237 OA
ATOM    107  O   UNL     1      17.536  12.666 -14.398  1.00  0.00    -0.237 OA
ATOM    108  O   UNL     1      15.992  14.216 -15.532  1.00  0.00    -0.744 OA
ENDBRANCH 104 105
ENDBRANCH  78  99
ENDBRANCH  52  53
ENDBRANCH  44  47
ENDBRANCH  42  43
ENDBRANCH   1  42
TORSDOF 19
