REMARK SMILES CC(C)C[C@@H](CNC(=O)[C@@H]1CCOC1)C(=O)NCCCCNC(=O)c1ccc(-c2c3nc(c(-c4ccc(S(=O)(=O)[O-])cc4)c4ccc([nH]4)c(-c4ccc(S(=O)(=O)[O-])cc4)c4nc(c(-c5ccc(S(=O)(=O)[O-])cc5)c5ccc2[nH]5)C=C4)C=C3)cc1
REMARK SMILES IDX 19 1 18 2 17 3 15 4 16 5 5 7 4 8 2 9 1 10 3 11 6 12 7 13
REMARK SMILES IDX 8 14 9 16 10 17 11 18 14 19 12 20 13 21 20 22 21 23 22 24
REMARK SMILES IDX 23 25 24 27 25 28 26 29 84 30 27 31 83 32 28 33 29 34 30 35
REMARK SMILES IDX 77 36 31 37 82 38 76 39 78 40 32 41 81 42 75 43 74 44 33 46
REMARK SMILES IDX 63 47 44 48 62 49 45 50 48 51 61 52 79 53 46 54 47 55 60 57
REMARK SMILES IDX 80 58 49 59 34 60 35 61 43 62 36 63 42 64 37 65 38 66 39 67
REMARK SMILES IDX 40 68 41 69 64 70 65 71 73 72 66 73 72 74 67 75 68 76 69 77
REMARK SMILES IDX 70 78 71 79 50 80 51 81 59 82 52 83 58 84 53 85 54 86 55 87
REMARK SMILES IDX 56 88 57 89
REMARK H PARENT 17 6 7 15 22 26 78 45 48 56
REMARK Flexibility Score: inf
ROOT
ATOM      1  C   UNL     1      -3.565   4.004   1.280  1.00  0.00     0.023 C 
ENDROOT
BRANCH   1   2
ATOM      2  C   UNL     1      -3.136   2.818   2.136  1.00  0.00     0.116 C 
BRANCH   2   3
ATOM      3  N   UNL     1      -3.575   1.553   1.578  1.00  0.00    -0.356 N 
ATOM      4  C   UNL     1      -2.887   0.441   1.212  1.00  0.00     0.224 C 
ATOM      5  O   UNL     1      -3.549  -0.525   0.817  1.00  0.00    -0.275 OA
ATOM      6  H   UNL     1      -4.548   1.490   1.439  1.00  0.00     0.163 HD
BRANCH   4   7
ATOM      7  C   UNL     1      -1.367   0.334   1.288  1.00  0.00     0.098 C 
BRANCH   7   8
ATOM      8  C   UNL     1      -0.657   1.396   0.427  1.00  0.00     0.018 C 
BRANCH   8   9
ATOM      9  C   UNL     1       0.880   1.358   0.406  1.00  0.00    -0.017 C 
ATOM     10  C   UNL     1       1.431   0.027  -0.104  1.00  0.00     0.007 C 
ATOM     11  C   UNL     1       1.398   2.500  -0.478  1.00  0.00     0.007 C 
ENDBRANCH   8   9
ENDBRANCH   7   8
BRANCH   7  12
ATOM     12  C   UNL     1      -0.868   0.066   2.720  1.00  0.00     0.129 C 
BRANCH  12  13
ATOM     13  N   UNL     1      -1.019   1.145   3.673  1.00  0.00    -0.355 N 
ATOM     14  C   UNL     1      -1.735   1.267   4.818  1.00  0.00     0.225 C 
ATOM     15  H   UNL     1      -0.499   1.949   3.445  1.00  0.00     0.163 HD
ATOM     16  O   UNL     1      -1.724   2.394   5.331  1.00  0.00    -0.275 OA
BRANCH  14  17
ATOM     17  C   UNL     1      -2.461   0.137   5.537  1.00  0.00     0.106 C 
ATOM     18  C   UNL     1      -1.526  -0.824   6.234  1.00  0.00     0.044 C 
ATOM     19  C   UNL     1      -3.385  -0.748   4.737  1.00  0.00     0.173 C 
ATOM     20  C   UNL     1      -1.594  -2.092   5.415  1.00  0.00     0.161 C 
ATOM     21  O   UNL     1      -2.766  -2.035   4.601  1.00  0.00    -0.381 OA
ENDBRANCH  14  17
ENDBRANCH  12  13
ENDBRANCH   7  12
ENDBRANCH   4   7
ENDBRANCH   2   3
ENDBRANCH   1   2
BRANCH   1  22
ATOM     22  C   UNL     1      -5.053   4.333   1.369  1.00  0.00     0.023 C 
BRANCH  22  23
ATOM     23  C   UNL     1      -5.587   4.539   2.784  1.00  0.00     0.116 C 
BRANCH  23  24
ATOM     24  N   UNL     1      -4.847   5.543   3.538  1.00  0.00    -0.352 N 
ATOM     25  C   UNL     1      -5.339   6.588   4.284  1.00  0.00     0.251 C 
ATOM     26  H   UNL     1      -3.866   5.463   3.509  1.00  0.00     0.163 HD
ATOM     27  O   UNL     1      -4.584   7.433   4.753  1.00  0.00    -0.269 OA
BRANCH  25  28
ATOM     28  C   UNL     1      -6.798   6.695   4.480  1.00  0.00     0.039 A 
ATOM     29  C   UNL     1      -7.439   7.894   4.167  1.00  0.00     0.014 A 
ATOM     30  C   UNL     1      -7.531   5.583   4.904  1.00  0.00     0.014 A 
ATOM     31  C   UNL     1      -8.833   7.954   4.202  1.00  0.00     0.010 A 
ATOM     32  C   UNL     1      -8.919   5.623   4.863  1.00  0.00     0.010 A 
ATOM     33  C   UNL     1      -9.584   6.807   4.507  1.00  0.00    -0.014 A 
BRANCH  33  34
ATOM     34  C   UNL     1     -11.067   6.818   4.448  1.00  0.00     0.031 A 
ATOM     35  C   UNL     1     -11.871   6.571   5.694  1.00  0.00     0.074 A 
ATOM     36  C   UNL     1     -11.687   6.972   3.261  1.00  0.00     0.049 A 
ATOM     37  N   UNL     1     -13.168   6.471   5.832  1.00  0.00    -0.248 NA
ATOM     38  C   UNL     1     -11.117   6.383   6.945  1.00  0.00     0.031 C 
ATOM     39  C   UNL     1     -11.017   7.165   1.972  1.00  0.00     0.029 A 
ATOM     40  N   UNL     1     -13.022   6.980   2.944  1.00  0.00    -0.354 N 
ATOM     41  C   UNL     1     -13.384   6.189   7.175  1.00  0.00     0.074 A 
ATOM     42  C   UNL     1     -12.084   6.083   7.800  1.00  0.00     0.031 C 
ATOM     43  C   UNL     1     -11.944   7.298   1.010  1.00  0.00     0.029 A 
ATOM     44  C   UNL     1     -13.270   7.164   1.604  1.00  0.00     0.049 A 
ATOM     45  H   UNL     1     -13.735   6.866   3.613  1.00  0.00     0.167 HD
ATOM     46  C   UNL     1     -14.558   6.052   7.835  1.00  0.00     0.031 A 
ATOM     47  C   UNL     1     -14.434   7.214   0.928  1.00  0.00     0.031 A 
ATOM     48  C   UNL     1     -15.850   6.173   7.214  1.00  0.00     0.049 A 
ATOM     49  C   UNL     1     -15.727   7.071   1.683  1.00  0.00     0.074 A 
ATOM     50  C   UNL     1     -17.099   6.108   7.806  1.00  0.00     0.029 A 
ATOM     51  N   UNL     1     -16.058   6.387   5.860  1.00  0.00    -0.354 N 
ATOM     52  N   UNL     1     -15.912   6.870   2.966  1.00  0.00    -0.248 NA
ATOM     53  C   UNL     1     -16.967   7.175   0.902  1.00  0.00     0.031 C 
ATOM     54  C   UNL     1     -18.064   6.241   6.802  1.00  0.00     0.029 A 
ATOM     55  C   UNL     1     -17.416   6.439   5.593  1.00  0.00     0.049 A 
ATOM     56  H   UNL     1     -15.346   6.486   5.187  1.00  0.00     0.167 HD
ATOM     57  C   UNL     1     -17.290   6.846   3.149  1.00  0.00     0.074 A 
ATOM     58  C   UNL     1     -17.889   7.069   1.849  1.00  0.00     0.031 C 
ATOM     59  C   UNL     1     -17.995   6.660   4.292  1.00  0.00     0.031 A 
BRANCH  46  60
ATOM     60  C   UNL     1     -14.491   5.755   9.309  1.00  0.00    -0.014 A 
ATOM     61  C   UNL     1     -14.047   6.727  10.225  1.00  0.00     0.010 A 
ATOM     62  C   UNL     1     -14.891   4.495   9.790  1.00  0.00     0.010 A 
ATOM     63  C   UNL     1     -13.958   6.429  11.586  1.00  0.00     0.020 A 
ATOM     64  C   UNL     1     -14.830   4.202  11.156  1.00  0.00     0.020 A 
ATOM     65  C   UNL     1     -14.344   5.165  12.043  1.00  0.00     0.054 A 
BRANCH  65  66
ATOM     66  S   UNL     1     -14.226   4.808  13.817  1.00  0.00     0.124 S 
ATOM     67  O   UNL     1     -12.786   4.632  13.992  1.00  0.00    -0.237 OA
ATOM     68  O   UNL     1     -14.790   6.010  14.426  1.00  0.00    -0.237 OA
ATOM     69  O   UNL     1     -15.026   3.596  13.980  1.00  0.00    -0.744 OA
ENDBRANCH  65  66
ENDBRANCH  46  60
BRANCH  47  70
ATOM     70  C   UNL     1     -14.427   7.433  -0.544  1.00  0.00    -0.014 A 
ATOM     71  C   UNL     1     -14.831   8.668  -1.082  1.00  0.00     0.010 A 
ATOM     72  C   UNL     1     -13.994   6.416  -1.414  1.00  0.00     0.010 A 
ATOM     73  C   UNL     1     -14.814   8.878  -2.464  1.00  0.00     0.020 A 
ATOM     74  C   UNL     1     -13.952   6.631  -2.795  1.00  0.00     0.020 A 
ATOM     75  C   UNL     1     -14.372   7.859  -3.312  1.00  0.00     0.054 A 
BRANCH  75  76
ATOM     76  S   UNL     1     -14.299   8.175  -5.098  1.00  0.00     0.124 S 
ATOM     77  O   UNL     1     -15.707   8.104  -5.476  1.00  0.00    -0.237 OA
ATOM     78  O   UNL     1     -13.693   9.502  -5.160  1.00  0.00    -0.237 OA
ATOM     79  O   UNL     1     -13.458   7.091  -5.601  1.00  0.00    -0.744 OA
ENDBRANCH  75  76
ENDBRANCH  47  70
BRANCH  59  80
ATOM     80  C   UNL     1     -19.495   6.717   4.196  1.00  0.00    -0.014 A 
ATOM     81  C   UNL     1     -20.228   5.666   3.618  1.00  0.00     0.010 A 
ATOM     82  C   UNL     1     -20.184   7.814   4.746  1.00  0.00     0.010 A 
ATOM     83  C   UNL     1     -21.623   5.725   3.566  1.00  0.00     0.020 A 
ATOM     84  C   UNL     1     -21.579   7.864   4.719  1.00  0.00     0.020 A 
ATOM     85  C   UNL     1     -22.290   6.824   4.116  1.00  0.00     0.054 A 
BRANCH  85  86
ATOM     86  S   UNL     1     -24.103   6.856   4.080  1.00  0.00     0.124 S 
ATOM     87  O   UNL     1     -24.373   7.183   2.682  1.00  0.00    -0.237 OA
ATOM     88  O   UNL     1     -24.457   5.498   4.486  1.00  0.00    -0.237 OA
ATOM     89  O   UNL     1     -24.451   7.898   5.043  1.00  0.00    -0.744 OA
ENDBRANCH  85  86
ENDBRANCH  59  80
ENDBRANCH  33  34
ENDBRANCH  25  28
ENDBRANCH  23  24
ENDBRANCH  22  23
ENDBRANCH   1  22
TORSDOF 19
