REMARK SMILES Cc1c(-c2nn(-c3ccccc3)cc2/C=N/O)nnn1-c1ccc(C(=O)NCCCCNC(=O)c2ccc(-c3c4nc(c(-c5ccc(S(=O)(=O)[O-])cc5)c5ccc([nH]5)c(-c5ccc(S(=O)(=O)[O-])cc5)c5nc(c(-c6ccc(S(=O)(=O)[O-])cc6)c6ccc3[nH]6)C=C5)C=C4)cc2)cc1
REMARK SMILES IDX 29 1 28 2 27 3 25 4 26 5 24 7 21 8 22 9 96 10 23 11 95 12
REMARK SMILES IDX 20 13 1 14 2 15 3 16 18 17 19 18 4 19 5 20 14 21 6 22 13 23
REMARK SMILES IDX 15 24 16 25 17 26 7 28 8 29 12 30 9 31 11 32 10 33 30 34
REMARK SMILES IDX 31 35 32 36 33 37 34 39 35 40 36 41 94 42 37 43 93 44 38 45
REMARK SMILES IDX 39 46 40 47 87 48 41 49 92 50 86 51 88 52 42 53 91 54 85 55
REMARK SMILES IDX 84 56 43 58 73 59 54 60 72 61 55 62 58 63 71 64 89 65 56 66
REMARK SMILES IDX 57 67 70 69 90 70 59 71 44 72 45 73 53 74 46 75 52 76 47 77
REMARK SMILES IDX 48 78 49 79 50 80 51 81 74 82 75 83 83 84 76 85 82 86 77 87
REMARK SMILES IDX 78 88 79 89 80 90 81 91 60 92 61 93 69 94 62 95 68 96 63 97
REMARK SMILES IDX 64 98 65 99 66 100 67 101
REMARK H PARENT 27 6 17 27 32 38 88 57 58 68
REMARK Flexibility Score: inf
ROOT
ATOM      1  C   UNL     1       0.279   4.657  -5.712  1.00  0.00     0.023 C 
ENDROOT
BRANCH   1   2
ATOM      2  C   UNL     1      -0.567   4.718  -4.435  1.00  0.00     0.116 C 
BRANCH   2   3
ATOM      3  N   UNL     1      -1.903   4.212  -4.681  1.00  0.00    -0.352 N 
ATOM      4  C   UNL     1      -2.508   2.995  -4.506  1.00  0.00     0.251 C 
ATOM      5  O   UNL     1      -3.676   2.901  -4.891  1.00  0.00    -0.269 OA
ATOM      6  H   UNL     1      -2.509   4.892  -5.056  1.00  0.00     0.163 HD
BRANCH   4   7
ATOM      7  C   UNL     1      -1.875   1.810  -3.850  1.00  0.00     0.039 A 
ATOM      8  C   UNL     1      -0.916  -0.444  -2.460  1.00  0.00     0.067 A 
ATOM      9  C   UNL     1      -2.283  -0.315  -2.705  1.00  0.00     0.029 A 
ATOM     10  C   UNL     1      -0.020   0.502  -2.965  1.00  0.00     0.029 A 
ATOM     11  C   UNL     1      -2.755   0.824  -3.364  1.00  0.00     0.016 A 
ATOM     12  C   UNL     1      -0.502   1.597  -3.699  1.00  0.00     0.016 A 
BRANCH   8  13
ATOM     13  N   UNL     1      -0.454  -1.554  -1.721  1.00  0.00    -0.217 N 
ATOM     14  C   UNL     1       1.025  -0.432   0.029  1.00  0.00     0.069 C 
ATOM     15  C   UNL     1       0.476  -1.601  -0.699  1.00  0.00     0.071 A 
ATOM     16  C   UNL     1       0.614  -2.955  -0.463  1.00  0.00     0.137 A 
ATOM     17  N   UNL     1      -0.242  -3.665  -1.253  1.00  0.00    -0.128 NA
ATOM     18  N   UNL     1      -0.941  -2.795  -1.970  1.00  0.00    -0.061 NA
BRANCH  16  19
ATOM     19  C   UNL     1       1.430  -3.627   0.540  1.00  0.00     0.124 A 
ATOM     20  N   UNL     1       1.047  -3.712   1.819  1.00  0.00    -0.165 NA
ATOM     21  C   UNL     1       2.674  -4.256   0.305  1.00  0.00     0.044 A 
ATOM     22  N   UNL     1       2.084  -4.305   2.445  1.00  0.00    -0.240 N 
ATOM     23  C   UNL     1       3.092  -4.637   1.567  1.00  0.00     0.125 A 
BRANCH  21  24
ATOM     24  C   UNL     1       3.403  -4.502  -0.913  1.00  0.00     0.166 C 
ATOM     25  N   UNL     1       3.004  -3.978  -2.024  1.00  0.00    -0.097 NA
BRANCH  25  26
ATOM     26  O   UNL     1       3.847  -4.393  -3.062  1.00  0.00    -0.411 OA
ATOM     27  H   UNL     1       3.691  -4.098  -3.938  1.00  0.00     0.330 HD
ENDBRANCH  25  26
ENDBRANCH  21  24
BRANCH  22  28
ATOM     28  C   UNL     1       2.060  -4.524   3.842  1.00  0.00     0.065 A 
ATOM     29  C   UNL     1       0.834  -4.776   4.473  1.00  0.00     0.028 A 
ATOM     30  C   UNL     1       3.242  -4.478   4.591  1.00  0.00     0.028 A 
ATOM     31  C   UNL     1       0.797  -5.010   5.848  1.00  0.00     0.002 A 
ATOM     32  C   UNL     1       3.187  -4.662   5.975  1.00  0.00     0.002 A 
ATOM     33  C   UNL     1       1.970  -4.940   6.599  1.00  0.00     0.000 A 
ENDBRANCH  22  28
ENDBRANCH  16  19
ENDBRANCH   8  13
ENDBRANCH   4   7
ENDBRANCH   2   3
ENDBRANCH   1   2
BRANCH   1  34
ATOM     34  C   UNL     1      -0.052   5.742  -6.753  1.00  0.00     0.023 C 
BRANCH  34  35
ATOM     35  C   UNL     1       0.304   7.163  -6.325  1.00  0.00     0.116 C 
BRANCH  35  36
ATOM     36  N   UNL     1       1.734   7.330  -6.074  1.00  0.00    -0.352 N 
ATOM     37  C   UNL     1       2.382   8.396  -5.477  1.00  0.00     0.251 C 
ATOM     38  H   UNL     1       2.311   6.588  -6.367  1.00  0.00     0.163 HD
ATOM     39  O   UNL     1       3.571   8.589  -5.672  1.00  0.00    -0.269 OA
BRANCH  37  40
ATOM     40  C   UNL     1       1.610   9.290  -4.593  1.00  0.00     0.039 A 
ATOM     41  C   UNL     1       1.765  10.677  -4.656  1.00  0.00     0.014 A 
ATOM     42  C   UNL     1       0.705   8.713  -3.705  1.00  0.00     0.014 A 
ATOM     43  C   UNL     1       0.931  11.485  -3.883  1.00  0.00     0.010 A 
ATOM     44  C   UNL     1      -0.194   9.508  -3.034  1.00  0.00     0.010 A 
ATOM     45  C   UNL     1      -0.065  10.894  -3.089  1.00  0.00    -0.014 A 
BRANCH  45  46
ATOM     46  C   UNL     1      -1.075  11.714  -2.422  1.00  0.00     0.031 A 
ATOM     47  C   UNL     1      -1.857  12.600  -3.330  1.00  0.00     0.074 A 
ATOM     48  C   UNL     1      -1.455  11.514  -1.141  1.00  0.00     0.049 A 
ATOM     49  N   UNL     1      -1.845  13.891  -3.381  1.00  0.00    -0.248 NA
ATOM     50  C   UNL     1      -2.648  11.973  -4.404  1.00  0.00     0.031 C 
ATOM     51  C   UNL     1      -1.000  10.467  -0.217  1.00  0.00     0.029 A 
ATOM     52  N   UNL     1      -2.436  12.131  -0.427  1.00  0.00    -0.354 N 
ATOM     53  C   UNL     1      -2.797  14.248  -4.333  1.00  0.00     0.074 A 
ATOM     54  C   UNL     1      -3.110  13.042  -5.056  1.00  0.00     0.031 C 
ATOM     55  C   UNL     1      -1.864  10.367   0.818  1.00  0.00     0.029 A 
ATOM     56  C   UNL     1      -2.821  11.453   0.727  1.00  0.00     0.049 A 
ATOM     57  H   UNL     1      -2.840  12.985  -0.703  1.00  0.00     0.167 HD
ATOM     58  C   UNL     1      -3.441  15.450  -4.285  1.00  0.00     0.031 A 
ATOM     59  C   UNL     1      -3.865  11.751   1.542  1.00  0.00     0.031 A 
ATOM     60  C   UNL     1      -2.806  16.350  -3.357  1.00  0.00     0.049 A 
ATOM     61  C   UNL     1      -4.218  13.166   1.291  1.00  0.00     0.074 A 
ATOM     62  C   UNL     1      -1.557  16.924  -3.245  1.00  0.00     0.029 A 
ATOM     63  N   UNL     1      -3.393  16.460  -2.118  1.00  0.00    -0.354 N 
ATOM     64  N   UNL     1      -3.430  14.162   1.582  1.00  0.00    -0.248 NA
ATOM     65  C   UNL     1      -5.261  13.459   0.322  1.00  0.00     0.031 C 
ATOM     66  C   UNL     1      -1.279  16.931  -1.847  1.00  0.00     0.029 A 
ATOM     67  C   UNL     1      -2.399  16.433  -1.176  1.00  0.00     0.049 A 
ATOM     68  H   UNL     1      -4.357  16.544  -1.940  1.00  0.00     0.167 HD
ATOM     69  C   UNL     1      -3.583  15.051   0.529  1.00  0.00     0.074 A 
ATOM     70  C   UNL     1      -4.806  14.624  -0.148  1.00  0.00     0.031 C 
ATOM     71  C   UNL     1      -2.555  15.866   0.147  1.00  0.00     0.031 A 
BRANCH  58  72
ATOM     72  C   UNL     1      -4.871  15.668  -4.733  1.00  0.00    -0.014 A 
ATOM     73  C   UNL     1      -5.421  16.964  -4.634  1.00  0.00     0.010 A 
ATOM     74  C   UNL     1      -5.774  14.612  -4.970  1.00  0.00     0.010 A 
ATOM     75  C   UNL     1      -6.806  17.177  -4.682  1.00  0.00     0.020 A 
ATOM     76  C   UNL     1      -7.153  14.819  -5.064  1.00  0.00     0.020 A 
ATOM     77  C   UNL     1      -7.663  16.096  -4.881  1.00  0.00     0.054 A 
BRANCH  77  78
ATOM     78  S   UNL     1      -9.452  16.361  -4.830  1.00  0.00     0.124 S 
ATOM     79  O   UNL     1      -9.660  16.737  -3.436  1.00  0.00    -0.237 OA
ATOM     80  O   UNL     1      -9.634  17.428  -5.810  1.00  0.00    -0.237 OA
ATOM     81  O   UNL     1     -10.000  15.064  -5.220  1.00  0.00    -0.744 OA
ENDBRANCH  77  78
ENDBRANCH  58  72
BRANCH  59  82
ATOM     82  C   UNL     1      -4.736  10.846   2.331  1.00  0.00    -0.014 A 
ATOM     83  C   UNL     1      -5.567  11.351   3.349  1.00  0.00     0.010 A 
ATOM     84  C   UNL     1      -4.978   9.533   1.879  1.00  0.00     0.010 A 
ATOM     85  C   UNL     1      -6.648  10.601   3.842  1.00  0.00     0.020 A 
ATOM     86  C   UNL     1      -6.051   8.777   2.369  1.00  0.00     0.020 A 
ATOM     87  C   UNL     1      -6.899   9.326   3.329  1.00  0.00     0.054 A 
BRANCH  87  88
ATOM     88  S   UNL     1      -8.414   8.447   3.823  1.00  0.00     0.124 S 
ATOM     89  O   UNL     1      -8.127   8.087   5.208  1.00  0.00    -0.237 OA
ATOM     90  O   UNL     1      -9.446   9.463   3.634  1.00  0.00    -0.237 OA
ATOM     91  O   UNL     1      -8.478   7.323   2.890  1.00  0.00    -0.744 OA
ENDBRANCH  87  88
ENDBRANCH  59  82
BRANCH  71  92
ATOM     92  C   UNL     1      -1.384  16.026   1.090  1.00  0.00    -0.014 A 
ATOM     93  C   UNL     1      -0.544  14.970   1.500  1.00  0.00     0.010 A 
ATOM     94  C   UNL     1      -1.049  17.335   1.475  1.00  0.00     0.010 A 
ATOM     95  C   UNL     1       0.579  15.221   2.305  1.00  0.00     0.020 A 
ATOM     96  C   UNL     1       0.077  17.593   2.258  1.00  0.00     0.020 A 
ATOM     97  C   UNL     1       0.880  16.534   2.681  1.00  0.00     0.054 A 
BRANCH  97  98
ATOM     98  S   UNL     1       2.345  16.861   3.700  1.00  0.00     0.124 S 
ATOM     99  O   UNL     1       1.977  16.273   4.984  1.00  0.00    -0.237 OA
ATOM    100  O   UNL     1       3.409  16.172   2.973  1.00  0.00    -0.237 OA
ATOM    101  O   UNL     1       2.452  18.320   3.697  1.00  0.00    -0.744 OA
ENDBRANCH  97  98
ENDBRANCH  71  92
ENDBRANCH  45  46
ENDBRANCH  37  40
ENDBRANCH  35  36
ENDBRANCH  34  35
ENDBRANCH   1  34
TORSDOF 19
