REMARK SMILES O=C(NCCCCNC(=O)c1cccnc1Sc1cccc(C(F)(F)F)c1)c1ccc(-c2c3nc(c(-c4ccc(S(=O)(=O)[O-])cc4)c4ccc([nH]4)c(-c4ccc(S(=O)(=O)[O-])cc4)c4nc(c(-c5ccc(S(=O)(=O)[O-])cc5)c5ccc2[nH]5)C=C4)C=C3)cc1
REMARK SMILES IDX 5 1 4 2 3 3 1 4 2 5 28 7 29 8 87 9 30 10 86 11 31 12 32 13
REMARK SMILES IDX 33 14 80 15 34 16 85 17 79 18 81 19 35 20 84 21 78 22 77 23
REMARK SMILES IDX 36 25 66 26 47 27 65 28 48 29 51 30 64 31 82 32 49 33 50 34
REMARK SMILES IDX 63 36 83 37 52 38 37 39 38 40 46 41 39 42 45 43 40 44 41 45
REMARK SMILES IDX 42 46 43 47 44 48 67 49 68 50 76 51 69 52 75 53 70 54 71 55
REMARK SMILES IDX 72 56 73 57 74 58 53 59 54 60 62 61 55 62 61 63 56 64 57 65
REMARK SMILES IDX 58 66 59 67 60 68 6 69 7 70 8 71 9 72 10 74 11 75 12 76
REMARK SMILES IDX 16 77 13 78 15 79 14 80 17 81 18 82 19 83 27 84 20 85 22 86
REMARK SMILES IDX 21 87 23 88 24 89 25 90 26 91
REMARK H PARENT 3 6 81 24 51 35 8 73
REMARK Flexibility Score: inf
ROOT
ATOM      1  C   UNL     1       4.903  -0.681   2.303  1.00  0.00     0.023 C 
ENDROOT
BRANCH   1   2
ATOM      2  C   UNL     1       4.527  -0.903   0.843  1.00  0.00     0.116 C 
BRANCH   2   3
ATOM      3  N   UNL     1       3.093  -0.873   0.617  1.00  0.00    -0.352 N 
ATOM      4  O   UNL     1       1.107  -0.084  -0.069  1.00  0.00    -0.269 OA
ATOM      5  C   UNL     1       2.332  -0.008  -0.132  1.00  0.00     0.251 C 
ATOM      6  H   UNL     1       2.587  -1.584   1.071  1.00  0.00     0.163 HD
BRANCH   5   7
ATOM      7  C   UNL     1       2.963   1.025  -0.987  1.00  0.00     0.039 A 
ATOM      8  C   UNL     1       4.060   0.736  -1.804  1.00  0.00     0.014 A 
ATOM      9  C   UNL     1       2.406   2.308  -1.004  1.00  0.00     0.014 A 
ATOM     10  C   UNL     1       4.673   1.753  -2.537  1.00  0.00     0.010 A 
ATOM     11  C   UNL     1       2.979   3.310  -1.792  1.00  0.00     0.010 A 
ATOM     12  C   UNL     1       4.135   3.048  -2.544  1.00  0.00    -0.014 A 
BRANCH  12  13
ATOM     13  C   UNL     1       4.747   4.117  -3.374  1.00  0.00     0.031 A 
ATOM     14  C   UNL     1       5.375   5.324  -2.734  1.00  0.00     0.074 A 
ATOM     15  C   UNL     1       4.702   4.018  -4.717  1.00  0.00     0.049 A 
ATOM     16  N   UNL     1       5.874   6.392  -3.303  1.00  0.00    -0.248 NA
ATOM     17  C   UNL     1       5.441   5.337  -1.265  1.00  0.00     0.031 C 
ATOM     18  C   UNL     1       4.119   2.899  -5.460  1.00  0.00     0.029 A 
ATOM     19  N   UNL     1       5.143   4.874  -5.694  1.00  0.00    -0.354 N 
ATOM     20  C   UNL     1       6.286   7.218  -2.264  1.00  0.00     0.074 A 
ATOM     21  C   UNL     1       5.967   6.532  -1.030  1.00  0.00     0.031 C 
ATOM     22  C   UNL     1       4.245   3.134  -6.775  1.00  0.00     0.029 A 
ATOM     23  C   UNL     1       4.867   4.440  -6.968  1.00  0.00     0.049 A 
ATOM     24  H   UNL     1       5.611   5.718  -5.500  1.00  0.00     0.167 HD
ATOM     25  C   UNL     1       6.872   8.439  -2.333  1.00  0.00     0.031 A 
ATOM     26  C   UNL     1       5.060   5.033  -8.161  1.00  0.00     0.031 A 
ATOM     27  C   UNL     1       7.189   9.119  -3.560  1.00  0.00     0.049 A 
ATOM     28  C   UNL     1       5.694   6.392  -8.216  1.00  0.00     0.074 A 
ATOM     29  C   UNL     1       7.814  10.343  -3.730  1.00  0.00     0.029 A 
ATOM     30  N   UNL     1       6.900   8.639  -4.829  1.00  0.00    -0.354 N 
ATOM     31  N   UNL     1       6.102   7.146  -7.224  1.00  0.00    -0.248 NA
ATOM     32  C   UNL     1       5.896   6.980  -9.547  1.00  0.00     0.031 C 
ATOM     33  C   UNL     1       7.867  10.620  -5.101  1.00  0.00     0.029 A 
ATOM     34  C   UNL     1       7.315   9.549  -5.786  1.00  0.00     0.049 A 
ATOM     35  H   UNL     1       6.463   7.777  -5.021  1.00  0.00     0.167 HD
ATOM     36  C   UNL     1       6.625   8.291  -7.810  1.00  0.00     0.074 A 
ATOM     37  C   UNL     1       6.486   8.129  -9.244  1.00  0.00     0.031 C 
ATOM     38  C   UNL     1       7.173   9.376  -7.210  1.00  0.00     0.031 A 
BRANCH  25  39
ATOM     39  C   UNL     1       7.169   9.132  -1.030  1.00  0.00    -0.014 A 
ATOM     40  C   UNL     1       8.221   8.706  -0.199  1.00  0.00     0.010 A 
ATOM     41  C   UNL     1       6.384  10.230  -0.633  1.00  0.00     0.010 A 
ATOM     42  C   UNL     1       8.445   9.329   1.032  1.00  0.00     0.020 A 
ATOM     43  C   UNL     1       6.619  10.869   0.587  1.00  0.00     0.020 A 
ATOM     44  C   UNL     1       7.632  10.397   1.424  1.00  0.00     0.054 A 
BRANCH  44  45
ATOM     45  S   UNL     1       7.922  11.176   3.037  1.00  0.00     0.124 S 
ATOM     46  O   UNL     1       7.286  10.225   3.946  1.00  0.00    -0.237 OA
ATOM     47  O   UNL     1       9.380  11.235   3.112  1.00  0.00    -0.237 OA
ATOM     48  O   UNL     1       7.255  12.470   2.920  1.00  0.00    -0.744 OA
ENDBRANCH  44  45
ENDBRANCH  25  39
BRANCH  26  49
ATOM     49  C   UNL     1       4.625   4.325  -9.392  1.00  0.00    -0.014 A 
ATOM     50  C   UNL     1       5.565   3.688 -10.218  1.00  0.00     0.010 A 
ATOM     51  C   UNL     1       3.254   4.204  -9.688  1.00  0.00     0.010 A 
ATOM     52  C   UNL     1       5.141   2.925 -11.310  1.00  0.00     0.020 A 
ATOM     53  C   UNL     1       2.826   3.425 -10.766  1.00  0.00     0.020 A 
ATOM     54  C   UNL     1       3.773   2.790 -11.571  1.00  0.00     0.054 A 
BRANCH  54  55
ATOM     55  S   UNL     1       3.240   1.699 -12.919  1.00  0.00     0.124 S 
ATOM     56  O   UNL     1       3.480   2.530 -14.095  1.00  0.00    -0.237 OA
ATOM     57  O   UNL     1       4.125   0.547 -12.766  1.00  0.00    -0.237 OA
ATOM     58  O   UNL     1       1.836   1.438 -12.610  1.00  0.00    -0.744 OA
ENDBRANCH  54  55
ENDBRANCH  26  49
BRANCH  38  59
ATOM     59  C   UNL     1       7.697  10.470  -8.098  1.00  0.00    -0.014 A 
ATOM     60  C   UNL     1       6.825  11.394  -8.700  1.00  0.00     0.010 A 
ATOM     61  C   UNL     1       9.085  10.626  -8.259  1.00  0.00     0.010 A 
ATOM     62  C   UNL     1       7.336  12.453  -9.456  1.00  0.00     0.020 A 
ATOM     63  C   UNL     1       9.599  11.693  -8.999  1.00  0.00     0.020 A 
ATOM     64  C   UNL     1       8.720  12.597  -9.599  1.00  0.00     0.054 A 
BRANCH  64  65
ATOM     65  S   UNL     1       9.364  14.023 -10.518  1.00  0.00     0.124 S 
ATOM     66  O   UNL     1       9.149  13.614 -11.903  1.00  0.00    -0.237 OA
ATOM     67  O   UNL     1       8.520  15.119 -10.048  1.00  0.00    -0.237 OA
ATOM     68  O   UNL     1      10.762  14.100 -10.101  1.00  0.00    -0.744 OA
ENDBRANCH  64  65
ENDBRANCH  38  59
ENDBRANCH  12  13
ENDBRANCH   5   7
ENDBRANCH   2   3
ENDBRANCH   1   2
BRANCH   1  69
ATOM     69  C   UNL     1       4.418  -1.740   3.291  1.00  0.00     0.023 C 
BRANCH  69  70
ATOM     70  C   UNL     1       4.771  -3.183   2.946  1.00  0.00     0.116 C 
BRANCH  70  71
ATOM     71  N   UNL     1       6.191  -3.407   2.716  1.00  0.00    -0.352 N 
ATOM     72  C   UNL     1       7.000  -4.399   3.217  1.00  0.00     0.254 C 
ATOM     73  H   UNL     1       6.632  -2.759   2.119  1.00  0.00     0.163 HD
ATOM     74  O   UNL     1       8.126  -4.586   2.764  1.00  0.00    -0.269 OA
BRANCH  72  75
ATOM     75  C   UNL     1       6.471  -5.309   4.234  1.00  0.00     0.072 A 
ATOM     76  C   UNL     1       5.513  -6.235   3.781  1.00  0.00     0.018 A 
ATOM     77  C   UNL     1       6.868  -5.328   5.569  1.00  0.00     0.113 A 
ATOM     78  C   UNL     1       4.922  -7.117   4.672  1.00  0.00     0.021 A 
ATOM     79  N   UNL     1       6.272  -6.202   6.438  1.00  0.00    -0.249 NA
ATOM     80  C   UNL     1       5.328  -7.056   5.986  1.00  0.00     0.112 A 
BRANCH  77  81
ATOM     81  S   UNL     1       8.099  -4.379   6.431  1.00  0.00    -0.069 SA
BRANCH  81  82
ATOM     82  C   UNL     1       8.724  -3.095   5.390  1.00  0.00     0.014 A 
ATOM     83  C   UNL     1       9.992  -3.229   4.812  1.00  0.00     0.015 A 
ATOM     84  C   UNL     1       8.037  -1.886   5.247  1.00  0.00     0.028 A 
ATOM     85  C   UNL     1      10.546  -2.191   4.063  1.00  0.00     0.002 A 
ATOM     86  C   UNL     1       8.584  -0.831   4.495  1.00  0.00     0.057 A 
ATOM     87  C   UNL     1       9.845  -0.998   3.903  1.00  0.00     0.013 A 
BRANCH  86  88
ATOM     88  C   UNL     1       7.854   0.480   4.346  1.00  0.00     0.416 C 
ATOM     89  F   UNL     1       8.438   1.485   5.050  1.00  0.00    -0.166 F 
ATOM     90  F   UNL     1       7.802   0.900   3.051  1.00  0.00    -0.166 F 
ATOM     91  F   UNL     1       6.560   0.424   4.769  1.00  0.00    -0.166 F 
ENDBRANCH  86  88
ENDBRANCH  81  82
ENDBRANCH  77  81
ENDBRANCH  72  75
ENDBRANCH  70  71
ENDBRANCH  69  70
ENDBRANCH   1  69
TORSDOF 17
