REMARK SMILES CCC[C@@H](C[NH2+]C(C)C)C(=O)NCCCCNC(=O)c1ccc(-c2c3nc(c(-c4ccc(S(=O)(=O)[O-])cc4)c4ccc([nH]4)c(-c4ccc(S(=O)(=O)[O-])cc4)c4nc(c(-c5ccc(S(=O)(=O)[O-])cc5)c5ccc2[nH]5)C=C4)C=C3)cc1
REMARK SMILES IDX 14 1 13 2 12 3 10 4 11 5 4 7 3 8 2 9 1 10 5 11 6 12 7 15
REMARK SMILES IDX 8 16 9 17 15 18 16 19 17 20 18 21 19 23 20 24 21 25 79 26
REMARK SMILES IDX 22 27 78 28 23 29 24 30 25 31 72 32 26 33 77 34 71 35 73 36
REMARK SMILES IDX 27 37 76 38 70 39 69 40 28 42 58 43 39 44 57 45 40 46 43 47
REMARK SMILES IDX 56 48 74 49 41 50 42 51 55 53 75 54 44 55 29 56 30 57 38 58
REMARK SMILES IDX 31 59 37 60 32 61 33 62 34 63 35 64 36 65 59 66 60 67 68 68
REMARK SMILES IDX 61 69 67 70 62 71 63 72 64 73 65 74 66 75 45 76 46 77 54 78
REMARK SMILES IDX 47 79 53 80 48 81 49 82 50 83 51 84 52 85
REMARK H PARENT 12 6 6 13 6 14 17 22 73 41 43 52
REMARK Flexibility Score: inf
ROOT
ATOM      1  C   UNL     1       1.121   0.286   6.159  1.00  0.00     0.023 C 
ENDROOT
BRANCH   1   2
ATOM      2  C   UNL     1       0.259   1.123   5.225  1.00  0.00     0.116 C 
BRANCH   2   3
ATOM      3  N   UNL     1       0.980   2.226   4.625  1.00  0.00    -0.356 N 
ATOM      4  C   UNL     1       1.062   2.611   3.322  1.00  0.00     0.228 C 
ATOM      5  O   UNL     1       1.644   3.673   3.079  1.00  0.00    -0.275 OA
ATOM      6  H   UNL     1       1.489   2.784   5.256  1.00  0.00     0.163 HD
BRANCH   4   7
ATOM      7  C   UNL     1       0.482   1.780   2.172  1.00  0.00     0.133 C 
BRANCH   7   8
ATOM      8  C   UNL     1       1.141   0.390   2.074  1.00  0.00     0.019 C 
BRANCH   8   9
ATOM      9  C   UNL     1       0.667  -0.500   0.925  1.00  0.00    -0.002 C 
ATOM     10  C   UNL     1       1.071   0.018  -0.443  1.00  0.00     0.004 C 
ENDBRANCH   8   9
ENDBRANCH   7   8
BRANCH   7  11
ATOM     11  C   UNL     1      -1.059   1.882   2.098  1.00  0.00     0.274 C 
BRANCH  11  12
ATOM     12  N   UNL     1      -1.778   0.984   2.996  1.00  0.00    -0.344 N 
ATOM     13  H   UNL     1      -1.371   1.074   3.927  1.00  0.00     0.346 HD
ATOM     14  H   UNL     1      -1.682   0.047   2.604  1.00  0.00     0.346 HD
BRANCH  12  15
ATOM     15  C   UNL     1      -3.214   1.242   3.099  1.00  0.00     0.176 C 
ATOM     16  C   UNL     1      -3.983   0.418   2.071  1.00  0.00     0.075 C 
ATOM     17  C   UNL     1      -3.642   0.858   4.518  1.00  0.00     0.075 C 
ENDBRANCH  12  15
ENDBRANCH  11  12
ENDBRANCH   7  11
ENDBRANCH   4   7
ENDBRANCH   2   3
ENDBRANCH   1   2
BRANCH   1  18
ATOM     18  C   UNL     1       1.433   0.944   7.497  1.00  0.00     0.023 C 
BRANCH  18  19
ATOM     19  C   UNL     1       0.218   1.455   8.262  1.00  0.00     0.116 C 
BRANCH  19  20
ATOM     20  N   UNL     1      -0.801   0.438   8.481  1.00  0.00    -0.352 N 
ATOM     21  C   UNL     1      -1.493   0.147   9.632  1.00  0.00     0.251 C 
ATOM     22  H   UNL     1      -1.024  -0.116   7.698  1.00  0.00     0.163 HD
ATOM     23  O   UNL     1      -2.240  -0.826   9.675  1.00  0.00    -0.269 OA
BRANCH  21  24
ATOM     24  C   UNL     1      -1.304   1.000  10.823  1.00  0.00     0.039 A 
ATOM     25  C   UNL     1      -1.085   0.396  12.063  1.00  0.00     0.014 A 
ATOM     26  C   UNL     1      -1.306   2.393  10.707  1.00  0.00     0.014 A 
ATOM     27  C   UNL     1      -0.814   1.193  13.176  1.00  0.00     0.010 A 
ATOM     28  C   UNL     1      -0.938   3.177  11.794  1.00  0.00     0.010 A 
ATOM     29  C   UNL     1      -0.710   2.589  13.045  1.00  0.00    -0.014 A 
BRANCH  29  30
ATOM     30  C   UNL     1      -0.403   3.446  14.218  1.00  0.00     0.031 A 
ATOM     31  C   UNL     1      -1.409   4.464  14.688  1.00  0.00     0.074 A 
ATOM     32  C   UNL     1       0.790   3.337  14.836  1.00  0.00     0.049 A 
ATOM     33  N   UNL     1      -1.331   5.297  15.694  1.00  0.00    -0.248 NA
ATOM     34  C   UNL     1      -2.655   4.583  13.911  1.00  0.00     0.031 C 
ATOM     35  C   UNL     1       1.873   2.433  14.440  1.00  0.00     0.029 A 
ATOM     36  N   UNL     1       1.289   3.988  15.936  1.00  0.00    -0.354 N 
ATOM     37  C   UNL     1      -2.503   6.044  15.659  1.00  0.00     0.074 A 
ATOM     38  C   UNL     1      -3.245   5.614  14.495  1.00  0.00     0.031 C 
ATOM     39  C   UNL     1       2.890   2.556  15.309  1.00  0.00     0.029 A 
ATOM     40  C   UNL     1       2.546   3.567  16.304  1.00  0.00     0.049 A 
ATOM     41  H   UNL     1       0.794   4.690  16.417  1.00  0.00     0.167 HD
ATOM     42  C   UNL     1      -2.942   6.981  16.532  1.00  0.00     0.031 A 
ATOM     43  C   UNL     1       3.329   3.946  17.333  1.00  0.00     0.031 A 
ATOM     44  C   UNL     1      -2.211   7.394  17.700  1.00  0.00     0.049 A 
ATOM     45  C   UNL     1       2.813   4.976  18.301  1.00  0.00     0.074 A 
ATOM     46  C   UNL     1      -2.592   8.291  18.682  1.00  0.00     0.029 A 
ATOM     47  N   UNL     1      -0.949   6.934  18.044  1.00  0.00    -0.354 N 
ATOM     48  N   UNL     1       1.666   5.615  18.294  1.00  0.00    -0.248 NA
ATOM     49  C   UNL     1       3.690   5.321  19.428  1.00  0.00     0.031 C 
ATOM     50  C   UNL     1      -1.539   8.410  19.595  1.00  0.00     0.029 A 
ATOM     51  C   UNL     1      -0.527   7.543  19.214  1.00  0.00     0.049 A 
ATOM     52  H   UNL     1      -0.430   6.272  17.533  1.00  0.00     0.167 HD
ATOM     53  C   UNL     1       1.674   6.418  19.429  1.00  0.00     0.074 A 
ATOM     54  C   UNL     1       2.929   6.166  20.109  1.00  0.00     0.031 C 
ATOM     55  C   UNL     1       0.730   7.286  19.871  1.00  0.00     0.031 A 
BRANCH  42  56
ATOM     56  C   UNL     1      -4.279   7.618  16.252  1.00  0.00    -0.014 A 
ATOM     57  C   UNL     1      -5.472   6.879  16.357  1.00  0.00     0.010 A 
ATOM     58  C   UNL     1      -4.348   8.979  15.902  1.00  0.00     0.010 A 
ATOM     59  C   UNL     1      -6.703   7.475  16.071  1.00  0.00     0.020 A 
ATOM     60  C   UNL     1      -5.580   9.587  15.646  1.00  0.00     0.020 A 
ATOM     61  C   UNL     1      -6.749   8.825  15.715  1.00  0.00     0.054 A 
BRANCH  61  62
ATOM     62  S   UNL     1      -8.363   9.577  15.370  1.00  0.00     0.124 S 
ATOM     63  O   UNL     1      -8.697   8.992  14.073  1.00  0.00    -0.237 OA
ATOM     64  O   UNL     1      -9.177   9.119  16.493  1.00  0.00    -0.237 OA
ATOM     65  O   UNL     1      -8.082  11.011  15.352  1.00  0.00    -0.744 OA
ENDBRANCH  61  62
ENDBRANCH  42  56
BRANCH  43  66
ATOM     66  C   UNL     1       4.667   3.321  17.522  1.00  0.00    -0.014 A 
ATOM     67  C   UNL     1       4.901   2.442  18.595  1.00  0.00     0.010 A 
ATOM     68  C   UNL     1       5.716   3.598  16.626  1.00  0.00     0.010 A 
ATOM     69  C   UNL     1       6.163   1.870  18.782  1.00  0.00     0.020 A 
ATOM     70  C   UNL     1       6.971   3.005  16.793  1.00  0.00     0.020 A 
ATOM     71  C   UNL     1       7.190   2.154  17.878  1.00  0.00     0.054 A 
BRANCH  71  72
ATOM     72  S   UNL     1       8.806   1.363  18.113  1.00  0.00     0.124 S 
ATOM     73  O   UNL     1       9.336   2.091  19.261  1.00  0.00    -0.237 OA
ATOM     74  O   UNL     1       8.443  -0.030  18.358  1.00  0.00    -0.237 OA
ATOM     75  O   UNL     1       9.492   1.605  16.846  1.00  0.00    -0.744 OA
ENDBRANCH  71  72
ENDBRANCH  43  66
BRANCH  55  76
ATOM     76  C   UNL     1       1.008   8.004  21.165  1.00  0.00    -0.014 A 
ATOM     77  C   UNL     1       1.998   8.999  21.251  1.00  0.00     0.010 A 
ATOM     78  C   UNL     1       0.249   7.692  22.308  1.00  0.00     0.010 A 
ATOM     79  C   UNL     1       2.259   9.632  22.469  1.00  0.00     0.020 A 
ATOM     80  C   UNL     1       0.485   8.345  23.519  1.00  0.00     0.020 A 
ATOM     81  C   UNL     1       1.504   9.296  23.597  1.00  0.00     0.054 A 
BRANCH  81  82
ATOM     82  S   UNL     1       1.855  10.137  25.165  1.00  0.00     0.124 S 
ATOM     83  O   UNL     1       3.100   9.498  25.579  1.00  0.00    -0.237 OA
ATOM     84  O   UNL     1       1.970  11.536  24.760  1.00  0.00    -0.237 OA
ATOM     85  O   UNL     1       0.690   9.828  25.991  1.00  0.00    -0.744 OA
ENDBRANCH  81  82
ENDBRANCH  55  76
ENDBRANCH  29  30
ENDBRANCH  21  24
ENDBRANCH  19  20
ENDBRANCH  18  19
ENDBRANCH   1  18
TORSDOF 19
