REMARK SMILES CCc1ccc2c(CC(=O)NCCCCNC(=O)c3ccc(-c4c5nc(c(-c6ccc(S(=O)(=O)[O-])cc6)c6ccc([nH]6)c(-c6ccc(S(=O)(=O)[O-])cc6)c6nc(c(-c7ccc(S(=O)(=O)[O-])cc7)c7ccc4[nH]7)C=C6)C=C5)cc3)c(C(=O)c3cc(C)ccn3)[nH]c2c1
REMARK SMILES IDX 13 1 12 2 11 3 9 4 10 5 8 7 7 8 3 9 4 10 91 11 5 12 90 13
REMARK SMILES IDX 6 14 89 15 79 16 2 18 1 19 80 20 81 21 82 22 83 23 88 24
REMARK SMILES IDX 84 25 87 26 85 27 86 28 14 29 15 30 16 31 17 32 18 34 19 35
REMARK SMILES IDX 20 36 78 37 21 38 77 39 22 40 23 41 24 42 71 43 25 44 76 45
REMARK SMILES IDX 70 46 72 47 26 48 75 49 69 50 68 51 27 53 57 54 38 55 56 56
REMARK SMILES IDX 39 57 42 58 55 59 73 60 40 61 41 62 54 64 74 65 43 66 28 67
REMARK SMILES IDX 29 68 37 69 30 70 36 71 31 72 32 73 33 74 34 75 35 76 58 77
REMARK SMILES IDX 59 78 67 79 60 80 66 81 61 82 62 83 63 84 64 85 65 86 44 87
REMARK SMILES IDX 45 88 53 89 46 90 52 91 47 92 48 93 49 94 50 95 51 96
REMARK H PARENT 11 6 89 17 16 33 72 52 42 63
REMARK Flexibility Score: inf
ROOT
ATOM      1  C   UNL     1       3.577   5.715   3.399  1.00  0.00     0.023 C 
ENDROOT
BRANCH   1   2
ATOM      2  C   UNL     1       2.479   6.774   3.318  1.00  0.00     0.116 C 
BRANCH   2   3
ATOM      3  N   UNL     1       2.922   7.983   2.657  1.00  0.00    -0.356 N 
ATOM      4  C   UNL     1       2.621   8.450   1.409  1.00  0.00     0.224 C 
ATOM      5  O   UNL     1       2.960   9.608   1.148  1.00  0.00    -0.275 OA
ATOM      6  H   UNL     1       3.528   8.552   3.184  1.00  0.00     0.163 HD
BRANCH   4   7
ATOM      7  C   UNL     1       1.781   7.630   0.434  1.00  0.00     0.138 C 
BRANCH   7   8
ATOM      8  C   UNL     1       2.317   6.255   0.127  1.00  0.00    -0.002 A 
ATOM      9  C   UNL     1       0.964   2.311   0.863  1.00  0.00    -0.046 A 
ATOM     10  C   UNL     1       0.080   3.339   1.210  1.00  0.00     0.004 A 
ATOM     11  C   UNL     1       2.216   2.633   0.312  1.00  0.00     0.030 A 
ATOM     12  C   UNL     1       0.406   4.683   0.993  1.00  0.00     0.011 A 
ATOM     13  C   UNL     1       2.521   3.986   0.096  1.00  0.00     0.046 A 
ATOM     14  C   UNL     1       1.652   5.018   0.426  1.00  0.00     0.004 A 
ATOM     15  N   UNL     1       3.654   4.566  -0.421  1.00  0.00    -0.352 N 
ATOM     16  C   UNL     1       3.517   5.937  -0.512  1.00  0.00     0.093 A 
ATOM     17  H   UNL     1       4.460   4.069  -0.691  1.00  0.00     0.167 HD
BRANCH   9  18
ATOM     18  C   UNL     1       0.570   0.879   1.153  1.00  0.00     0.032 C 
ATOM     19  C   UNL     1       0.913  -0.108   0.044  1.00  0.00     0.009 C 
ENDBRANCH   9  18
BRANCH  16  20
ATOM     20  C   UNL     1       4.478   6.844  -1.130  1.00  0.00     0.227 C 
ATOM     21  O   UNL     1       4.286   8.053  -1.247  1.00  0.00    -0.285 OA
BRANCH  20  22
ATOM     22  C   UNL     1       5.717   6.287  -1.734  1.00  0.00     0.113 A 
ATOM     23  C   UNL     1       5.625   5.457  -2.848  1.00  0.00     0.036 A 
ATOM     24  N   UNL     1       6.887   6.656  -1.159  1.00  0.00    -0.253 NA
ATOM     25  C   UNL     1       6.807   4.971  -3.410  1.00  0.00    -0.047 A 
ATOM     26  C   UNL     1       8.015   6.198  -1.739  1.00  0.00     0.112 A 
ATOM     27  C   UNL     1       6.784   4.069  -4.607  1.00  0.00     0.044 C 
ATOM     28  C   UNL     1       8.025   5.362  -2.846  1.00  0.00     0.023 A 
ENDBRANCH  20  22
ENDBRANCH  16  20
ENDBRANCH   7   8
ENDBRANCH   4   7
ENDBRANCH   2   3
ENDBRANCH   1   2
BRANCH   1  29
ATOM     29  C   UNL     1       4.735   6.063   4.336  1.00  0.00     0.023 C 
BRANCH  29  30
ATOM     30  C   UNL     1       4.336   6.380   5.771  1.00  0.00     0.116 C 
BRANCH  30  31
ATOM     31  N   UNL     1       3.626   5.290   6.423  1.00  0.00    -0.352 N 
ATOM     32  C   UNL     1       3.724   4.863   7.725  1.00  0.00     0.251 C 
ATOM     33  H   UNL     1       2.993   4.793   5.856  1.00  0.00     0.163 HD
ATOM     34  O   UNL     1       3.142   3.840   8.082  1.00  0.00    -0.269 OA
BRANCH  32  35
ATOM     35  C   UNL     1       4.558   5.619   8.684  1.00  0.00     0.039 A 
ATOM     36  C   UNL     1       5.426   4.918   9.525  1.00  0.00     0.014 A 
ATOM     37  C   UNL     1       4.496   7.014   8.745  1.00  0.00     0.014 A 
ATOM     38  C   UNL     1       6.267   5.620  10.392  1.00  0.00     0.010 A 
ATOM     39  C   UNL     1       5.392   7.713   9.548  1.00  0.00     0.010 A 
ATOM     40  C   UNL     1       6.276   7.025  10.392  1.00  0.00    -0.014 A 
BRANCH  40  41
ATOM     41  C   UNL     1       7.177   7.790  11.292  1.00  0.00     0.031 A 
ATOM     42  C   UNL     1       6.596   8.676  12.363  1.00  0.00     0.074 A 
ATOM     43  C   UNL     1       8.512   7.727  11.120  1.00  0.00     0.049 A 
ATOM     44  N   UNL     1       7.213   9.444  13.224  1.00  0.00    -0.248 NA
ATOM     45  C   UNL     1       5.127   8.724  12.462  1.00  0.00     0.031 C 
ATOM     46  C   UNL     1       9.199   6.939  10.094  1.00  0.00     0.029 A 
ATOM     47  N   UNL     1       9.532   8.338  11.805  1.00  0.00    -0.354 N 
ATOM     48  C   UNL     1       6.211  10.077  13.952  1.00  0.00     0.074 A 
ATOM     49  C   UNL     1       4.948   9.649  13.392  1.00  0.00     0.031 C 
ATOM     50  C   UNL     1      10.526   7.087  10.241  1.00  0.00     0.029 A 
ATOM     51  C   UNL     1      10.785   8.008  11.343  1.00  0.00     0.049 A 
ATOM     52  H   UNL     1       9.381   8.955  12.557  1.00  0.00     0.167 HD
ATOM     53  C   UNL     1       6.328  10.918  15.008  1.00  0.00     0.031 A 
ATOM     54  C   UNL     1      12.004   8.401  11.761  1.00  0.00     0.031 A 
ATOM     55  C   UNL     1       7.585  11.335  15.568  1.00  0.00     0.049 A 
ATOM     56  C   UNL     1      12.110   9.339  12.933  1.00  0.00     0.074 A 
ATOM     57  C   UNL     1       7.812  12.150  16.664  1.00  0.00     0.029 A 
ATOM     58  N   UNL     1       8.830  10.970  15.077  1.00  0.00    -0.354 N 
ATOM     59  N   UNL     1      11.151   9.882  13.645  1.00  0.00    -0.248 NA
ATOM     60  C   UNL     1      13.465   9.700  13.370  1.00  0.00     0.031 C 
ATOM     61  C   UNL     1       9.194  12.316  16.806  1.00  0.00     0.029 A 
ATOM     62  C   UNL     1       9.829  11.553  15.838  1.00  0.00     0.049 A 
ATOM     63  H   UNL     1       8.981  10.383  14.301  1.00  0.00     0.167 HD
ATOM     64  C   UNL     1      11.788  10.618  14.639  1.00  0.00     0.074 A 
ATOM     65  C   UNL     1      13.212  10.441  14.440  1.00  0.00     0.031 C 
ATOM     66  C   UNL     1      11.243  11.366  15.630  1.00  0.00     0.031 A 
BRANCH  53  67
ATOM     67  C   UNL     1       5.053  11.443  15.618  1.00  0.00    -0.014 A 
ATOM     68  C   UNL     1       4.174  10.590  16.313  1.00  0.00     0.010 A 
ATOM     69  C   UNL     1       4.736  12.809  15.514  1.00  0.00     0.010 A 
ATOM     70  C   UNL     1       2.979  11.082  16.843  1.00  0.00     0.020 A 
ATOM     71  C   UNL     1       3.557  13.312  16.072  1.00  0.00     0.020 A 
ATOM     72  C   UNL     1       2.676  12.440  16.715  1.00  0.00     0.054 A 
BRANCH  72  73
ATOM     73  S   UNL     1       1.122  13.053  17.421  1.00  0.00     0.124 S 
ATOM     74  O   UNL     1       0.135  12.514  16.489  1.00  0.00    -0.237 OA
ATOM     75  O   UNL     1       1.117  12.456  18.754  1.00  0.00    -0.237 OA
ATOM     76  O   UNL     1       1.276  14.505  17.393  1.00  0.00    -0.744 OA
ENDBRANCH  72  73
ENDBRANCH  53  67
BRANCH  54  77
ATOM     77  C   UNL     1      13.225   7.877  11.088  1.00  0.00    -0.014 A 
ATOM     78  C   UNL     1      14.066   6.964  11.750  1.00  0.00     0.010 A 
ATOM     79  C   UNL     1      13.548   8.276   9.779  1.00  0.00     0.010 A 
ATOM     80  C   UNL     1      15.216   6.475  11.123  1.00  0.00     0.020 A 
ATOM     81  C   UNL     1      14.681   7.768   9.137  1.00  0.00     0.020 A 
ATOM     82  C   UNL     1      15.515   6.878   9.818  1.00  0.00     0.054 A 
BRANCH  82  83
ATOM     83  S   UNL     1      16.984   6.189   9.005  1.00  0.00     0.124 S 
ATOM     84  O   UNL     1      18.067   6.877   9.700  1.00  0.00    -0.237 OA
ATOM     85  O   UNL     1      16.858   4.761   9.284  1.00  0.00    -0.237 OA
ATOM     86  O   UNL     1      16.804   6.560   7.603  1.00  0.00    -0.744 OA
ENDBRANCH  82  83
ENDBRANCH  54  77
BRANCH  66  87
ATOM     87  C   UNL     1      12.188  12.007  16.614  1.00  0.00    -0.014 A 
ATOM     88  C   UNL     1      13.016  13.082  16.248  1.00  0.00     0.010 A 
ATOM     89  C   UNL     1      12.216  11.541  17.942  1.00  0.00     0.010 A 
ATOM     90  C   UNL     1      13.889  13.650  17.181  1.00  0.00     0.020 A 
ATOM     91  C   UNL     1      13.064  12.127  18.885  1.00  0.00     0.020 A 
ATOM     92  C   UNL     1      13.909  13.165  18.493  1.00  0.00     0.054 A 
BRANCH  92  93
ATOM     93  S   UNL     1      15.034  13.932  19.691  1.00  0.00     0.124 S 
ATOM     94  O   UNL     1      16.331  13.410  19.268  1.00  0.00    -0.237 OA
ATOM     95  O   UNL     1      14.825  15.360  19.460  1.00  0.00    -0.237 OA
ATOM     96  O   UNL     1      14.556  13.440  20.981  1.00  0.00    -0.744 OA
ENDBRANCH  92  93
ENDBRANCH  66  87
ENDBRANCH  40  41
ENDBRANCH  32  35
ENDBRANCH  30  31
ENDBRANCH  29  30
ENDBRANCH   1  29
TORSDOF 18
