REMARK SMILES O=C(NCCCCNC(=O)c1ccc(-c2c3nc(c(-c4ccc(S(=O)(=O)[O-])cc4)c4ccc([nH]4)c(-c4ccc(S(=O)(=O)[O-])cc4)c4nc(c(-c5ccc(S(=O)(=O)[O-])cc5)c5ccc2[nH]5)C=C4)C=C3)cc1)C1=N[C@@H]2NC=NN2[C@@H]([C@H]2C=NN=C2c2ccc(F)cc2)C1
REMARK SMILES IDX 6 1 5 2 4 3 3 4 1 5 2 6 71 8 72 9 91 10 73 11 78 12 74 13
REMARK SMILES IDX 77 14 75 15 76 17 79 18 80 19 83 20 81 21 82 22 84 23 85 24
REMARK SMILES IDX 90 25 86 26 89 27 87 28 88 29 7 30 8 31 9 32 10 34 11 35
REMARK SMILES IDX 12 36 70 37 13 38 69 39 14 40 15 41 16 42 63 43 17 44 68 45
REMARK SMILES IDX 62 46 64 47 18 48 67 49 61 50 60 51 19 53 49 54 30 55 48 56
REMARK SMILES IDX 31 57 34 58 47 59 65 60 32 61 33 62 46 64 66 65 35 66 20 67
REMARK SMILES IDX 21 68 29 69 22 70 28 71 23 72 24 73 25 74 26 75 27 76 50 77
REMARK SMILES IDX 51 78 59 79 52 80 58 81 53 82 54 83 55 84 56 85 57 86 36 87
REMARK SMILES IDX 37 88 45 89 38 90 44 91 39 92 40 93 41 94 42 95 43 96
REMARK H PARENT 3 7 74 16 8 33 64 52 34 63
REMARK Flexibility Score: inf
ROOT
ATOM      1  C   UNL     1      12.782  -0.200  -6.045  1.00  0.00     0.023 C 
ENDROOT
BRANCH   1   2
ATOM      2  C   UNL     1      11.914   0.664  -5.138  1.00  0.00     0.023 C 
BRANCH   2   3
ATOM      3  C   UNL     1      10.435   0.312  -5.021  1.00  0.00     0.116 C 
BRANCH   3   4
ATOM      4  N   UNL     1      10.126  -1.033  -4.587  1.00  0.00    -0.351 N 
ATOM      5  O   UNL     1       8.824  -2.740  -3.906  1.00  0.00    -0.268 OA
ATOM      6  C   UNL     1       8.978  -1.526  -4.001  1.00  0.00     0.265 C 
ATOM      7  H   UNL     1      10.840  -1.695  -4.732  1.00  0.00     0.163 HD
BRANCH   6   8
ATOM      8  C   UNL     1       7.925  -0.606  -3.353  1.00  0.00     0.106 C 
ATOM      9  N   UNL     1       7.502  -0.966  -2.190  1.00  0.00    -0.237 NA
ATOM     10  C   UNL     1       7.408   0.591  -4.105  1.00  0.00     0.090 C 
ATOM     11  C   UNL     1       6.725  -0.051  -1.398  1.00  0.00     0.319 C 
ATOM     12  C   UNL     1       6.354   1.356  -3.307  1.00  0.00     0.127 C 
ATOM     13  N   UNL     1       5.391  -0.403  -1.001  1.00  0.00    -0.335 N 
ATOM     14  N   UNL     1       6.604   1.358  -1.845  1.00  0.00    -0.249 NA
ATOM     15  C   UNL     1       4.797   0.805  -0.780  1.00  0.00     0.217 C 
ATOM     16  H   UNL     1       4.999  -1.301  -0.910  1.00  0.00     0.165 HD
ATOM     17  N   UNL     1       5.463   1.864  -1.165  1.00  0.00    -0.164 NA
BRANCH  12  18
ATOM     18  C   UNL     1       6.104   2.805  -3.760  1.00  0.00     0.109 C 
ATOM     19  C   UNL     1       7.286   3.704  -3.628  1.00  0.00     0.120 C 
ATOM     20  C   UNL     1       5.902   2.967  -5.233  1.00  0.00     0.081 C 
ATOM     21  N   UNL     1       7.635   4.254  -4.745  1.00  0.00    -0.162 NA
ATOM     22  N   UNL     1       6.763   3.778  -5.771  1.00  0.00    -0.155 NA
BRANCH  20  23
ATOM     23  C   UNL     1       4.899   2.190  -5.979  1.00  0.00    -0.001 A 
ATOM     24  C   UNL     1       3.765   1.665  -5.345  1.00  0.00     0.013 A 
ATOM     25  C   UNL     1       5.186   1.857  -7.307  1.00  0.00     0.013 A 
ATOM     26  C   UNL     1       2.959   0.751  -6.024  1.00  0.00     0.040 A 
ATOM     27  C   UNL     1       4.373   0.948  -7.981  1.00  0.00     0.040 A 
ATOM     28  C   UNL     1       3.277   0.393  -7.330  1.00  0.00     0.123 A 
ATOM     29  F   UNL     1       2.522  -0.513  -7.963  1.00  0.00    -0.207 F 
ENDBRANCH  20  23
ENDBRANCH  12  18
ENDBRANCH   6   8
ENDBRANCH   3   4
ENDBRANCH   2   3
ENDBRANCH   1   2
BRANCH   1  30
ATOM     30  C   UNL     1      12.299  -0.383  -7.477  1.00  0.00     0.116 C 
BRANCH  30  31
ATOM     31  N   UNL     1      12.183   0.862  -8.220  1.00  0.00    -0.352 N 
ATOM     32  C   UNL     1      12.796   1.269  -9.385  1.00  0.00     0.251 C 
ATOM     33  H   UNL     1      11.567   1.522  -7.826  1.00  0.00     0.163 HD
ATOM     34  O   UNL     1      12.633   2.417  -9.779  1.00  0.00    -0.269 OA
BRANCH  32  35
ATOM     35  C   UNL     1      13.672   0.347 -10.149  1.00  0.00     0.039 A 
ATOM     36  C   UNL     1      14.853   0.845 -10.709  1.00  0.00     0.014 A 
ATOM     37  C   UNL     1      13.331  -0.993 -10.342  1.00  0.00     0.014 A 
ATOM     38  C   UNL     1      15.716  -0.012 -11.401  1.00  0.00     0.010 A 
ATOM     39  C   UNL     1      14.236  -1.865 -10.944  1.00  0.00     0.010 A 
ATOM     40  C   UNL     1      15.431  -1.383 -11.498  1.00  0.00    -0.014 A 
BRANCH  40  41
ATOM     41  C   UNL     1      16.340  -2.319 -12.215  1.00  0.00     0.031 A 
ATOM     42  C   UNL     1      15.838  -3.070 -13.425  1.00  0.00     0.074 A 
ATOM     43  C   UNL     1      17.593  -2.533 -11.763  1.00  0.00     0.049 A 
ATOM     44  N   UNL     1      16.444  -3.983 -14.140  1.00  0.00    -0.248 NA
ATOM     45  C   UNL     1      14.466  -2.775 -13.873  1.00  0.00     0.031 C 
ATOM     46  C   UNL     1      18.192  -1.901 -10.585  1.00  0.00     0.029 A 
ATOM     47  N   UNL     1      18.590  -3.350 -12.239  1.00  0.00    -0.354 N 
ATOM     48  C   UNL     1      15.528  -4.373 -15.111  1.00  0.00     0.074 A 
ATOM     49  C   UNL     1      14.303  -3.651 -14.852  1.00  0.00     0.031 C 
ATOM     50  C   UNL     1      19.456  -2.333 -10.447  1.00  0.00     0.029 A 
ATOM     51  C   UNL     1      19.747  -3.304 -11.497  1.00  0.00     0.049 A 
ATOM     52  H   UNL     1      18.485  -3.915 -13.039  1.00  0.00     0.167 HD
ATOM     53  C   UNL     1      15.697  -5.228 -16.148  1.00  0.00     0.031 A 
ATOM     54  C   UNL     1      20.909  -3.974 -11.639  1.00  0.00     0.031 A 
ATOM     55  C   UNL     1      16.921  -5.934 -16.419  1.00  0.00     0.049 A 
ATOM     56  C   UNL     1      21.063  -4.935 -12.790  1.00  0.00     0.074 A 
ATOM     57  C   UNL     1      17.200  -6.803 -17.460  1.00  0.00     0.029 A 
ATOM     58  N   UNL     1      18.073  -5.842 -15.655  1.00  0.00    -0.354 N 
ATOM     59  N   UNL     1      20.195  -5.258 -13.720  1.00  0.00    -0.248 NA
ATOM     60  C   UNL     1      22.364  -5.606 -12.925  1.00  0.00     0.031 C 
ATOM     61  C   UNL     1      18.507  -7.271 -17.299  1.00  0.00     0.029 A 
ATOM     62  C   UNL     1      19.064  -6.641 -16.199  1.00  0.00     0.049 A 
ATOM     63  H   UNL     1      18.173  -5.290 -14.846  1.00  0.00     0.167 HD
ATOM     64  C   UNL     1      20.863  -6.131 -14.574  1.00  0.00     0.074 A 
ATOM     65  C   UNL     1      22.208  -6.274 -14.058  1.00  0.00     0.031 C 
ATOM     66  C   UNL     1      20.405  -6.756 -15.687  1.00  0.00     0.031 A 
BRANCH  53  67
ATOM     67  C   UNL     1      14.535  -5.431 -17.086  1.00  0.00    -0.014 A 
ATOM     68  C   UNL     1      14.119  -4.402 -17.950  1.00  0.00     0.010 A 
ATOM     69  C   UNL     1      13.895  -6.682 -17.155  1.00  0.00     0.010 A 
ATOM     70  C   UNL     1      13.070  -4.610 -18.848  1.00  0.00     0.020 A 
ATOM     71  C   UNL     1      12.865  -6.904 -18.074  1.00  0.00     0.020 A 
ATOM     72  C   UNL     1      12.453  -5.863 -18.908  1.00  0.00     0.054 A 
BRANCH  72  73
ATOM     73  S   UNL     1      11.133  -6.118 -20.125  1.00  0.00     0.124 S 
ATOM     74  O   UNL     1      10.051  -5.306 -19.572  1.00  0.00    -0.237 OA
ATOM     75  O   UNL     1      11.732  -5.611 -21.356  1.00  0.00    -0.237 OA
ATOM     76  O   UNL     1      10.905  -7.561 -20.093  1.00  0.00    -0.744 OA
ENDBRANCH  72  73
ENDBRANCH  53  67
BRANCH  54  77
ATOM     77  C   UNL     1      22.026  -3.769 -10.672  1.00  0.00    -0.014 A 
ATOM     78  C   UNL     1      23.236  -3.180 -11.081  1.00  0.00     0.010 A 
ATOM     79  C   UNL     1      21.900  -4.208  -9.341  1.00  0.00     0.010 A 
ATOM     80  C   UNL     1      24.314  -3.081 -10.196  1.00  0.00     0.020 A 
ATOM     81  C   UNL     1      22.963  -4.077  -8.442  1.00  0.00     0.020 A 
ATOM     82  C   UNL     1      24.172  -3.537  -8.883  1.00  0.00     0.054 A 
BRANCH  82  83
ATOM     83  S   UNL     1      25.583  -3.404  -7.750  1.00  0.00     0.124 S 
ATOM     84  O   UNL     1      26.474  -4.445  -8.253  1.00  0.00    -0.237 OA
ATOM     85  O   UNL     1      26.030  -2.030  -7.963  1.00  0.00    -0.237 OA
ATOM     86  O   UNL     1      24.994  -3.664  -6.439  1.00  0.00    -0.744 OA
ENDBRANCH  82  83
ENDBRANCH  54  77
BRANCH  66  87
ATOM     87  C   UNL     1      21.386  -7.590 -16.471  1.00  0.00    -0.014 A 
ATOM     88  C   UNL     1      21.893  -8.803 -15.973  1.00  0.00     0.010 A 
ATOM     89  C   UNL     1      21.778  -7.159 -17.752  1.00  0.00     0.010 A 
ATOM     90  C   UNL     1      22.813  -9.543 -16.721  1.00  0.00     0.020 A 
ATOM     91  C   UNL     1      22.670  -7.914 -18.518  1.00  0.00     0.020 A 
ATOM     92  C   UNL     1      23.198  -9.092 -17.987  1.00  0.00     0.054 A 
BRANCH  92  93
ATOM     93  S   UNL     1      24.378 -10.080 -18.946  1.00  0.00     0.124 S 
ATOM     94  O   UNL     1      25.628  -9.838 -18.230  1.00  0.00    -0.237 OA
ATOM     95  O   UNL     1      23.837 -11.431 -18.825  1.00  0.00    -0.237 OA
ATOM     96  O   UNL     1      24.307  -9.503 -20.286  1.00  0.00    -0.744 OA
ENDBRANCH  92  93
ENDBRANCH  66  87
ENDBRANCH  40  41
ENDBRANCH  32  35
ENDBRANCH  30  31
ENDBRANCH   1  30
TORSDOF 16
