REMARK SMILES C/C(=N\[NH+]=C1\NC(=O)[C@H](CC(=O)NCCCCNC(=O)c2ccc(-c3c4nc(c(-c5ccc(S(=O)(=O)[O-])cc5)c5ccc([nH]5)c(-c5ccc(S(=O)(=O)[O-])cc5)c5nc(c(-c6ccc(S(=O)(=O)[O-])cc6)c6ccc3[nH]6)C=C5)C=C4)cc2)S1)c1ccc([N+](=O)[O-])cc1
REMARK SMILES IDX 15 1 14 2 13 3 11 4 12 5 10 7 9 8 4 9 5 10 6 12 81 13 7 14
REMARK SMILES IDX 8 16 3 17 1 18 2 19 82 20 83 21 90 22 84 23 89 24 85 25
REMARK SMILES IDX 86 26 87 27 88 28 16 29 17 30 18 31 19 32 20 34 21 35 22 36
REMARK SMILES IDX 80 37 23 38 79 39 24 40 25 41 26 42 73 43 27 44 78 45 72 46
REMARK SMILES IDX 74 47 28 48 77 49 71 50 70 51 29 53 59 54 40 55 58 56 41 57
REMARK SMILES IDX 44 58 57 59 75 60 42 61 43 62 56 64 76 65 45 66 30 67 31 68
REMARK SMILES IDX 39 69 32 70 38 71 33 72 34 73 35 74 36 75 37 76 60 77 61 78
REMARK SMILES IDX 69 79 62 80 68 81 63 82 64 83 65 84 66 85 67 86 46 87 47 88
REMARK SMILES IDX 55 89 48 90 54 91 49 92 50 93 51 94 52 95 53 96
REMARK H PARENT 13 6 4 11 6 15 18 33 74 52 44 63
REMARK Flexibility Score: inf
ROOT
ATOM      1  C   UNL     1      -2.111   5.412  -2.380  1.00  0.00     0.023 C 
ENDROOT
BRANCH   1   2
ATOM      2  C   UNL     1      -3.311   4.473  -2.509  1.00  0.00     0.116 C 
BRANCH   2   3
ATOM      3  N   UNL     1      -3.284   3.700  -3.740  1.00  0.00    -0.356 N 
ATOM      4  C   UNL     1      -3.280   2.349  -3.931  1.00  0.00     0.221 C 
ATOM      5  O   UNL     1      -3.244   1.897  -5.074  1.00  0.00    -0.275 OA
ATOM      6  H   UNL     1      -3.267   4.235  -4.566  1.00  0.00     0.163 HD
BRANCH   4   7
ATOM      7  C   UNL     1      -3.287   1.420  -2.739  1.00  0.00     0.127 C 
BRANCH   7   8
ATOM      8  C   UNL     1      -1.870   0.991  -2.387  1.00  0.00     0.183 C 
ATOM      9  N   UNL     1      -0.418   1.592   1.132  1.00  0.00    -0.142 N 
ATOM     10  C   UNL     1      -1.000   1.505  -0.015  1.00  0.00     0.337 C 
ATOM     11  H   UNL     1      -0.086   2.449   1.484  1.00  0.00     0.343 HD
ATOM     12  N   UNL     1      -0.818   2.511  -0.893  1.00  0.00    -0.202 N 
ATOM     13  S   UNL     1      -1.836   0.167  -0.749  1.00  0.00    -0.020 SA
ATOM     14  C   UNL     1      -0.943   2.168  -2.201  1.00  0.00     0.322 C 
ATOM     15  H   UNL     1      -0.609   3.430  -0.606  1.00  0.00     0.316 HD
ATOM     16  O   UNL     1      -0.314   2.712  -3.098  1.00  0.00    -0.246 OA
BRANCH   9  17
ATOM     17  N   UNL     1      -0.287   0.405   1.843  1.00  0.00    -0.090 NA
ATOM     18  C   UNL     1       1.770   0.140   0.445  1.00  0.00     0.071 C 
ATOM     19  C   UNL     1       0.806  -0.257   1.561  1.00  0.00     0.088 C 
BRANCH  19  20
ATOM     20  C   UNL     1       1.114  -1.506   2.330  1.00  0.00    -0.000 A 
ATOM     21  C   UNL     1       0.131  -2.059   3.166  1.00  0.00     0.017 A 
ATOM     22  C   UNL     1       2.375  -2.116   2.262  1.00  0.00     0.017 A 
ATOM     23  C   UNL     1       0.407  -3.196   3.934  1.00  0.00     0.086 A 
ATOM     24  C   UNL     1       2.663  -3.245   3.032  1.00  0.00     0.086 A 
ATOM     25  C   UNL     1       1.679  -3.778   3.872  1.00  0.00     0.269 A 
BRANCH  25  26
ATOM     26  N   UNL     1       1.993  -4.948   4.699  1.00  0.00     0.062 N 
ATOM     27  O   UNL     1       1.094  -5.405   5.419  1.00  0.00    -0.258 OA
ATOM     28  O   UNL     1       3.142  -5.410   4.632  1.00  0.00    -0.258 OA
ENDBRANCH  25  26
ENDBRANCH  19  20
ENDBRANCH   9  17
ENDBRANCH   7   8
ENDBRANCH   4   7
ENDBRANCH   2   3
ENDBRANCH   1   2
BRANCH   1  29
ATOM     29  C   UNL     1      -2.129   6.608  -3.325  1.00  0.00     0.023 C 
BRANCH  29  30
ATOM     30  C   UNL     1      -3.297   7.557  -3.108  1.00  0.00     0.116 C 
BRANCH  30  31
ATOM     31  N   UNL     1      -3.322   8.117  -1.763  1.00  0.00    -0.352 N 
ATOM     32  C   UNL     1      -3.354   9.440  -1.377  1.00  0.00     0.251 C 
ATOM     33  H   UNL     1      -3.316   7.461  -1.029  1.00  0.00     0.163 HD
ATOM     34  O   UNL     1      -3.205   9.748  -0.207  1.00  0.00    -0.269 OA
BRANCH  32  35
ATOM     35  C   UNL     1      -3.541  10.473  -2.416  1.00  0.00     0.039 A 
ATOM     36  C   UNL     1      -2.658  11.552  -2.471  1.00  0.00     0.014 A 
ATOM     37  C   UNL     1      -4.548  10.326  -3.373  1.00  0.00     0.014 A 
ATOM     38  C   UNL     1      -2.731  12.441  -3.545  1.00  0.00     0.010 A 
ATOM     39  C   UNL     1      -4.562  11.158  -4.484  1.00  0.00     0.010 A 
ATOM     40  C   UNL     1      -3.652  12.222  -4.583  1.00  0.00    -0.014 A 
BRANCH  40  41
ATOM     41  C   UNL     1      -3.685  13.082  -5.792  1.00  0.00     0.031 A 
ATOM     42  C   UNL     1      -4.923  13.872  -6.111  1.00  0.00     0.074 A 
ATOM     43  C   UNL     1      -2.642  13.075  -6.646  1.00  0.00     0.049 A 
ATOM     44  N   UNL     1      -5.194  14.587  -7.171  1.00  0.00    -0.248 NA
ATOM     45  C   UNL     1      -6.015  13.823  -5.124  1.00  0.00     0.031 C 
ATOM     46  C   UNL     1      -1.403  12.311  -6.472  1.00  0.00     0.029 A 
ATOM     47  N   UNL     1      -2.463  13.725  -7.841  1.00  0.00    -0.354 N 
ATOM     48  C   UNL     1      -6.492  15.050  -6.992  1.00  0.00     0.074 A 
ATOM     49  C   UNL     1      -6.972  14.495  -5.746  1.00  0.00     0.031 C 
ATOM     50  C   UNL     1      -0.585  12.556  -7.508  1.00  0.00     0.029 A 
ATOM     51  C   UNL     1      -1.254  13.458  -8.440  1.00  0.00     0.049 A 
ATOM     52  H   UNL     1      -3.137  14.325  -8.234  1.00  0.00     0.167 HD
ATOM     53  C   UNL     1      -7.213  15.879  -7.783  1.00  0.00     0.031 A 
ATOM     54  C   UNL     1      -0.745  13.883  -9.612  1.00  0.00     0.031 A 
ATOM     55  C   UNL     1      -6.722  16.448  -9.008  1.00  0.00     0.049 A 
ATOM     56  C   UNL     1      -1.563  14.807 -10.472  1.00  0.00     0.074 A 
ATOM     57  C   UNL     1      -7.348  17.354  -9.847  1.00  0.00     0.029 A 
ATOM     58  N   UNL     1      -5.485  16.170  -9.568  1.00  0.00    -0.354 N 
ATOM     59  N   UNL     1      -2.765  15.285 -10.254  1.00  0.00    -0.248 NA
ATOM     60  C   UNL     1      -0.955  15.252 -11.733  1.00  0.00     0.031 C 
ATOM     61  C   UNL     1      -6.504  17.590 -10.938  1.00  0.00     0.029 A 
ATOM     62  C   UNL     1      -5.336  16.868 -10.754  1.00  0.00     0.049 A 
ATOM     63  H   UNL     1      -4.812  15.564  -9.180  1.00  0.00     0.167 HD
ATOM     64  C   UNL     1      -3.050  16.101 -11.342  1.00  0.00     0.074 A 
ATOM     65  C   UNL     1      -1.889  16.065 -12.208  1.00  0.00     0.031 C 
ATOM     66  C   UNL     1      -4.173  16.815 -11.603  1.00  0.00     0.031 A 
BRANCH  53  67
ATOM     67  C   UNL     1      -8.611  16.215  -7.339  1.00  0.00    -0.014 A 
ATOM     68  C   UNL     1      -8.838  17.039  -6.221  1.00  0.00     0.010 A 
ATOM     69  C   UNL     1      -9.713  15.717  -8.057  1.00  0.00     0.010 A 
ATOM     70  C   UNL     1     -10.140  17.320  -5.801  1.00  0.00     0.020 A 
ATOM     71  C   UNL     1     -11.018  16.018  -7.656  1.00  0.00     0.020 A 
ATOM     72  C   UNL     1     -11.222  16.802  -6.518  1.00  0.00     0.054 A 
BRANCH  72  73
ATOM     73  S   UNL     1     -12.903  17.190  -5.957  1.00  0.00     0.124 S 
ATOM     74  O   UNL     1     -13.035  16.326  -4.787  1.00  0.00    -0.237 OA
ATOM     75  O   UNL     1     -12.825  18.621  -5.676  1.00  0.00    -0.237 OA
ATOM     76  O   UNL     1     -13.741  16.827  -7.097  1.00  0.00    -0.744 OA
ENDBRANCH  72  73
ENDBRANCH  53  67
BRANCH  54  77
ATOM     77  C   UNL     1       0.614  13.450 -10.034  1.00  0.00    -0.014 A 
ATOM     78  C   UNL     1       1.688  14.358 -10.007  1.00  0.00     0.010 A 
ATOM     79  C   UNL     1       0.848  12.126 -10.447  1.00  0.00     0.010 A 
ATOM     80  C   UNL     1       2.967  13.954 -10.398  1.00  0.00     0.020 A 
ATOM     81  C   UNL     1       2.132  11.712 -10.816  1.00  0.00     0.020 A 
ATOM     82  C   UNL     1       3.182  12.632 -10.799  1.00  0.00     0.054 A 
BRANCH  82  83
ATOM     83  S   UNL     1       4.862  12.115 -11.247  1.00  0.00     0.124 S 
ATOM     84  O   UNL     1       5.019  12.709 -12.570  1.00  0.00    -0.237 OA
ATOM     85  O   UNL     1       5.671  12.709 -10.185  1.00  0.00    -0.237 OA
ATOM     86  O   UNL     1       4.788  10.656 -11.219  1.00  0.00    -0.744 OA
ENDBRANCH  82  83
ENDBRANCH  54  77
BRANCH  66  87
ATOM     87  C   UNL     1      -4.195  17.630 -12.866  1.00  0.00    -0.014 A 
ATOM     88  C   UNL     1      -4.358  17.015 -14.120  1.00  0.00     0.010 A 
ATOM     89  C   UNL     1      -4.120  19.032 -12.791  1.00  0.00     0.010 A 
ATOM     90  C   UNL     1      -4.422  17.788 -15.281  1.00  0.00     0.020 A 
ATOM     91  C   UNL     1      -4.208  19.810 -13.948  1.00  0.00     0.020 A 
ATOM     92  C   UNL     1      -4.348  19.182 -15.187  1.00  0.00     0.054 A 
BRANCH  92  93
ATOM     93  S   UNL     1      -4.492  20.168 -16.703  1.00  0.00     0.124 S 
ATOM     94  O   UNL     1      -3.180  19.976 -17.315  1.00  0.00    -0.237 OA
ATOM     95  O   UNL     1      -5.609  19.531 -17.396  1.00  0.00    -0.237 OA
ATOM     96  O   UNL     1      -4.760  21.518 -16.212  1.00  0.00    -0.744 OA
ENDBRANCH  92  93
ENDBRANCH  66  87
ENDBRANCH  40  41
ENDBRANCH  32  35
ENDBRANCH  30  31
ENDBRANCH  29  30
ENDBRANCH   1  29
TORSDOF 18
