REMARK SMILES CC(C)c1cc(C#N)cc2nc(-c3ccc(C(=O)NCCCCNC(=O)c4ccc(-c5c6nc(c(-c7ccc(S(=O)(=O)[O-])cc7)c7ccc([nH]7)c(-c7ccc(S(=O)(=O)[O-])cc7)c7nc(c(-c8ccc(S(=O)(=O)[O-])cc8)c8ccc5[nH]8)C=C7)C=C6)cc4)cc3)oc12
REMARK SMILES IDX 22 1 21 2 20 3 19 4 17 5 18 6 16 8 13 9 14 10 88 11 15 12
REMARK SMILES IDX 87 13 12 14 4 15 5 16 90 17 6 18 10 19 89 20 9 21 11 22 2 23
REMARK SMILES IDX 1 24 3 25 7 26 8 27 23 28 24 29 25 30 26 32 27 33 28 34
REMARK SMILES IDX 86 35 29 36 85 37 30 38 31 39 32 40 79 41 33 42 84 43 78 44
REMARK SMILES IDX 80 45 34 46 83 47 77 48 76 49 35 51 65 52 46 53 64 54 47 55
REMARK SMILES IDX 50 56 63 57 81 58 48 59 49 60 62 62 82 63 51 64 36 65 37 66
REMARK SMILES IDX 45 67 38 68 44 69 39 70 40 71 41 72 42 73 43 74 66 75 67 76
REMARK SMILES IDX 75 77 68 78 74 79 69 80 70 81 71 82 72 83 73 84 52 85 53 86
REMARK SMILES IDX 61 87 54 88 60 89 55 90 56 91 57 92 58 93 59 94
REMARK H PARENT 19 7 24 31 80 50 50 61
REMARK Flexibility Score: inf
ROOT
ATOM      1  C   UNL     1      -3.581 -12.388  -3.322  1.00  0.00     0.023 C 
ENDROOT
BRANCH   1   2
ATOM      2  C   UNL     1      -3.329 -10.902  -3.069  1.00  0.00     0.023 C 
BRANCH   2   3
ATOM      3  C   UNL     1      -3.783 -10.326  -1.733  1.00  0.00     0.116 C 
BRANCH   3   4
ATOM      4  N   UNL     1      -3.072 -10.827  -0.566  1.00  0.00    -0.352 N 
ATOM      5  C   UNL     1      -2.570 -10.178   0.544  1.00  0.00     0.251 C 
ATOM      6  O   UNL     1      -2.022 -10.848   1.419  1.00  0.00    -0.269 OA
ATOM      7  H   UNL     1      -2.923 -11.800  -0.568  1.00  0.00     0.163 HD
BRANCH   5   8
ATOM      8  C   UNL     1      -2.623  -8.695   0.707  1.00  0.00     0.039 A 
ATOM      9  C   UNL     1      -2.523  -5.873   0.899  1.00  0.00     0.037 A 
ATOM     10  C   UNL     1      -1.540  -6.652   1.516  1.00  0.00     0.014 A 
ATOM     11  C   UNL     1      -3.588  -6.525   0.260  1.00  0.00     0.014 A 
ATOM     12  C   UNL     1      -1.591  -8.055   1.418  1.00  0.00     0.014 A 
ATOM     13  C   UNL     1      -3.663  -7.916   0.207  1.00  0.00     0.014 A 
BRANCH   9  14
ATOM     14  C   UNL     1      -2.554  -4.417   0.925  1.00  0.00     0.227 A 
ATOM     15  C   UNL     1      -0.944  -1.268   0.737  1.00  0.00     0.001 A 
ATOM     16  C   UNL     1      -1.673  -0.053   0.695  1.00  0.00     0.027 A 
ATOM     17  C   UNL     1      -1.755  -2.409   0.813  1.00  0.00     0.158 A 
ATOM     18  C   UNL     1      -3.080  -0.005   0.691  1.00  0.00     0.055 A 
ATOM     19  C   UNL     1      -3.142  -2.393   0.802  1.00  0.00     0.111 A 
ATOM     20  O   UNL     1      -1.366  -3.726   0.909  1.00  0.00    -0.436 OA
ATOM     21  C   UNL     1      -3.832  -1.181   0.731  1.00  0.00     0.052 A 
ATOM     22  N   UNL     1      -3.633  -3.660   0.865  1.00  0.00    -0.209 NA
BRANCH  15  23
ATOM     23  C   UNL     1       0.570  -1.325   0.723  1.00  0.00     0.017 C 
ATOM     24  C   UNL     1       1.244  -0.129   0.038  1.00  0.00     0.012 C 
ATOM     25  C   UNL     1       1.103  -1.480   2.148  1.00  0.00     0.012 C 
ENDBRANCH  15  23
BRANCH  18  26
ATOM     26  C   UNL     1      -3.757   1.254   0.661  1.00  0.00     0.099 C 
ATOM     27  N   UNL     1      -4.313   2.281   0.651  1.00  0.00    -0.192 NA
ENDBRANCH  18  26
ENDBRANCH   9  14
ENDBRANCH   5   8
ENDBRANCH   3   4
ENDBRANCH   2   3
ENDBRANCH   1   2
BRANCH   1  28
ATOM     28  C   UNL     1      -5.003 -12.890  -3.069  1.00  0.00     0.116 C 
BRANCH  28  29
ATOM     29  N   UNL     1      -6.049 -12.120  -3.710  1.00  0.00    -0.352 N 
ATOM     30  C   UNL     1      -6.774 -12.247  -4.863  1.00  0.00     0.251 C 
ATOM     31  H   UNL     1      -6.295 -11.317  -3.196  1.00  0.00     0.163 HD
ATOM     32  O   UNL     1      -7.789 -11.547  -4.930  1.00  0.00    -0.269 OA
BRANCH  30  33
ATOM     33  C   UNL     1      -6.397 -13.072  -6.044  1.00  0.00     0.039 A 
ATOM     34  C   UNL     1      -5.258 -13.867  -6.152  1.00  0.00     0.014 A 
ATOM     35  C   UNL     1      -7.220 -12.923  -7.181  1.00  0.00     0.014 A 
ATOM     36  C   UNL     1      -4.880 -14.377  -7.394  1.00  0.00     0.010 A 
ATOM     37  C   UNL     1      -6.855 -13.444  -8.418  1.00  0.00     0.010 A 
ATOM     38  C   UNL     1      -5.646 -14.114  -8.538  1.00  0.00    -0.014 A 
BRANCH  38  39
ATOM     39  C   UNL     1      -5.190 -14.645  -9.822  1.00  0.00     0.031 A 
ATOM     40  C   UNL     1      -5.026 -16.125  -9.844  1.00  0.00     0.074 A 
ATOM     41  C   UNL     1      -4.963 -13.909 -10.932  1.00  0.00     0.049 A 
ATOM     42  N   UNL     1      -3.917 -16.781  -9.916  1.00  0.00    -0.248 NA
ATOM     43  C   UNL     1      -6.207 -16.968  -9.612  1.00  0.00     0.031 C 
ATOM     44  C   UNL     1      -5.263 -12.498 -11.186  1.00  0.00     0.029 A 
ATOM     45  N   UNL     1      -4.447 -14.319 -12.127  1.00  0.00    -0.354 N 
ATOM     46  C   UNL     1      -4.256 -18.129  -9.905  1.00  0.00     0.074 A 
ATOM     47  C   UNL     1      -5.664 -18.187  -9.594  1.00  0.00     0.031 C 
ATOM     48  C   UNL     1      -5.138 -12.238 -12.511  1.00  0.00     0.029 A 
ATOM     49  C   UNL     1      -4.593 -13.412 -13.172  1.00  0.00     0.049 A 
ATOM     50  H   UNL     1      -4.004 -15.191 -12.241  1.00  0.00     0.167 HD
ATOM     51  C   UNL     1      -3.380 -19.092 -10.306  1.00  0.00     0.031 A 
ATOM     52  C   UNL     1      -4.285 -13.609 -14.483  1.00  0.00     0.031 A 
ATOM     53  C   UNL     1      -2.034 -18.590 -10.374  1.00  0.00     0.049 A 
ATOM     54  C   UNL     1      -3.279 -14.699 -14.523  1.00  0.00     0.074 A 
ATOM     55  C   UNL     1      -1.137 -18.110  -9.443  1.00  0.00     0.029 A 
ATOM     56  N   UNL     1      -1.578 -18.165 -11.599  1.00  0.00    -0.354 N 
ATOM     57  N   UNL     1      -2.072 -14.575 -14.049  1.00  0.00    -0.248 NA
ATOM     58  C   UNL     1      -3.765 -16.062 -14.666  1.00  0.00     0.031 C 
ATOM     59  C   UNL     1      -0.487 -17.023 -10.092  1.00  0.00     0.029 A 
ATOM     60  C   UNL     1      -0.958 -16.957 -11.406  1.00  0.00     0.049 A 
ATOM     61  H   UNL     1      -1.679 -18.639 -12.456  1.00  0.00     0.167 HD
ATOM     62  C   UNL     1      -1.818 -15.785 -13.423  1.00  0.00     0.074 A 
ATOM     63  C   UNL     1      -2.870 -16.686 -13.897  1.00  0.00     0.031 C 
ATOM     64  C   UNL     1      -0.949 -15.878 -12.375  1.00  0.00     0.031 A 
BRANCH  51  65
ATOM     65  C   UNL     1      -3.778 -20.407 -10.917  1.00  0.00    -0.014 A 
ATOM     66  C   UNL     1      -5.068 -20.656 -11.425  1.00  0.00     0.010 A 
ATOM     67  C   UNL     1      -2.776 -21.354 -11.218  1.00  0.00     0.010 A 
ATOM     68  C   UNL     1      -5.358 -21.798 -12.174  1.00  0.00     0.020 A 
ATOM     69  C   UNL     1      -3.047 -22.484 -12.002  1.00  0.00     0.020 A 
ATOM     70  C   UNL     1      -4.342 -22.703 -12.466  1.00  0.00     0.054 A 
BRANCH  70  71
ATOM     71  S   UNL     1      -4.742 -24.136 -13.495  1.00  0.00     0.124 S 
ATOM     72  O   UNL     1      -5.653 -24.880 -12.630  1.00  0.00    -0.237 OA
ATOM     73  O   UNL     1      -5.351 -23.518 -14.669  1.00  0.00    -0.237 OA
ATOM     74  O   UNL     1      -3.445 -24.767 -13.725  1.00  0.00    -0.744 OA
ENDBRANCH  70  71
ENDBRANCH  51  65
BRANCH  52  75
ATOM     75  C   UNL     1      -5.147 -13.318 -15.666  1.00  0.00    -0.014 A 
ATOM     76  C   UNL     1      -6.544 -13.230 -15.509  1.00  0.00     0.010 A 
ATOM     77  C   UNL     1      -4.646 -13.471 -16.977  1.00  0.00     0.010 A 
ATOM     78  C   UNL     1      -7.411 -13.388 -16.598  1.00  0.00     0.020 A 
ATOM     79  C   UNL     1      -5.512 -13.628 -18.077  1.00  0.00     0.020 A 
ATOM     80  C   UNL     1      -6.891 -13.628 -17.870  1.00  0.00     0.054 A 
BRANCH  80  81
ATOM     81  S   UNL     1      -8.051 -14.039 -19.210  1.00  0.00     0.124 S 
ATOM     82  O   UNL     1      -8.561 -15.339 -18.781  1.00  0.00    -0.237 OA
ATOM     83  O   UNL     1      -9.010 -12.939 -19.147  1.00  0.00    -0.237 OA
ATOM     84  O   UNL     1      -7.211 -14.061 -20.404  1.00  0.00    -0.744 OA
ENDBRANCH  80  81
ENDBRANCH  52  75
BRANCH  64  85
ATOM     85  C   UNL     1      -0.068 -14.693 -12.032  1.00  0.00    -0.014 A 
ATOM     86  C   UNL     1       1.305 -14.949 -11.862  1.00  0.00     0.010 A 
ATOM     87  C   UNL     1      -0.560 -13.422 -11.668  1.00  0.00     0.010 A 
ATOM     88  C   UNL     1       2.154 -13.996 -11.299  1.00  0.00     0.020 A 
ATOM     89  C   UNL     1       0.297 -12.447 -11.127  1.00  0.00     0.020 A 
ATOM     90  C   UNL     1       1.644 -12.754 -10.921  1.00  0.00     0.054 A 
BRANCH  90  91
ATOM     91  S   UNL     1       2.777 -11.578 -10.129  1.00  0.00     0.124 S 
ATOM     92  O   UNL     1       3.016 -12.205  -8.831  1.00  0.00    -0.237 OA
ATOM     93  O   UNL     1       3.922 -11.573 -11.037  1.00  0.00    -0.237 OA
ATOM     94  O   UNL     1       2.019 -10.330 -10.084  1.00  0.00    -0.744 OA
ENDBRANCH  90  91
ENDBRANCH  64  85
ENDBRANCH  38  39
ENDBRANCH  30  33
ENDBRANCH  28  29
ENDBRANCH   1  28
TORSDOF 17
