REMARK SMILES CC(C)C[C@@H](CNC(=O)N(C)CCC#N)C(=O)NCCCCNC(=O)c1ccc(-c2c3nc(c(-c4ccc(S(=O)(=O)[O-])cc4)c4ccc([nH]4)c(-c4ccc(S(=O)(=O)[O-])cc4)c4nc(c(-c5ccc(S(=O)(=O)[O-])cc5)c5ccc2[nH]5)C=C4)C=C3)cc1
REMARK SMILES IDX 19 1 18 2 16 3 17 4 5 6 4 7 2 8 1 9 3 10 6 11 7 12 8 13 9 15
REMARK SMILES IDX 10 16 11 17 12 18 13 19 14 20 15 21 20 22 21 23 22 24 23 25
REMARK SMILES IDX 24 26 25 28 26 29 27 30 85 31 28 32 84 33 29 34 30 35 31 36
REMARK SMILES IDX 78 37 32 38 83 39 77 40 79 41 33 42 82 43 76 44 75 45 34 47
REMARK SMILES IDX 64 48 45 49 63 50 46 51 49 52 62 53 80 54 47 55 48 56 61 58
REMARK SMILES IDX 81 59 50 60 35 61 36 62 44 63 37 64 43 65 38 66 39 67 40 68
REMARK SMILES IDX 41 69 42 70 65 71 66 72 74 73 67 74 73 75 68 76 69 77 70 78
REMARK SMILES IDX 71 79 72 80 51 81 52 82 60 83 53 84 59 85 54 86 55 87 56 88
REMARK SMILES IDX 57 89 58 90
REMARK H PARENT 18 5 7 14 23 27 79 46 49 57
REMARK Flexibility Score: inf
ROOT
ATOM      1  C   UNL     1      -3.379  -2.965   1.389  1.00  0.00     0.116 C 
ENDROOT
BRANCH   1   2
ATOM      2  N   UNL     1      -3.765  -1.856   0.533  1.00  0.00    -0.356 N 
ATOM      3  C   UNL     1      -3.051  -1.110  -0.350  1.00  0.00     0.224 C 
ATOM      4  O   UNL     1      -3.693  -0.430  -1.160  1.00  0.00    -0.275 OA
ATOM      5  H   UNL     1      -4.713  -1.599   0.606  1.00  0.00     0.163 HD
BRANCH   3   6
ATOM      6  C   UNL     1      -1.522  -1.084  -0.412  1.00  0.00     0.098 C 
BRANCH   6   7
ATOM      7  C   UNL     1      -0.835  -0.934   0.960  1.00  0.00     0.018 C 
BRANCH   7   8
ATOM      8  C   UNL     1       0.703  -0.854   0.996  1.00  0.00    -0.017 C 
ATOM      9  C   UNL     1       1.274   0.259   0.121  1.00  0.00     0.007 C 
ATOM     10  C   UNL     1       1.156  -0.638   2.448  1.00  0.00     0.007 C 
ENDBRANCH   7   8
ENDBRANCH   6   7
BRANCH   6  11
ATOM     11  C   UNL     1      -0.990  -2.096  -1.449  1.00  0.00     0.131 C 
BRANCH  11  12
ATOM     12  N   UNL     1      -1.090  -3.492  -1.082  1.00  0.00    -0.337 N 
ATOM     13  C   UNL     1      -2.038  -4.417  -1.287  1.00  0.00     0.317 C 
ATOM     14  H   UNL     1      -0.309  -3.828  -0.586  1.00  0.00     0.165 HD
ATOM     15  O   UNL     1      -2.321  -5.045  -0.270  1.00  0.00    -0.249 OA
BRANCH  13  16
ATOM     16  N   UNL     1      -2.587  -4.731  -2.496  1.00  0.00    -0.327 N 
ATOM     17  C   UNL     1      -2.292  -4.116  -3.777  1.00  0.00     0.148 C 
BRANCH  16  18
ATOM     18  C   UNL     1      -3.557  -5.864  -2.550  1.00  0.00     0.136 C 
BRANCH  18  19
ATOM     19  C   UNL     1      -2.971  -7.293  -2.346  1.00  0.00     0.141 C 
BRANCH  19  20
ATOM     20  C   UNL     1      -2.756  -7.511  -0.857  1.00  0.00     0.064 C 
ATOM     21  N   UNL     1      -2.577  -7.692   0.378  1.00  0.00    -0.198 NA
ENDBRANCH  19  20
ENDBRANCH  18  19
ENDBRANCH  16  18
ENDBRANCH  13  16
ENDBRANCH  11  12
ENDBRANCH   6  11
ENDBRANCH   3   6
ENDBRANCH   1   2
BRANCH   1  22
ATOM     22  C   UNL     1      -3.715  -2.747   2.860  1.00  0.00     0.023 C 
BRANCH  22  23
ATOM     23  C   UNL     1      -5.182  -2.998   3.213  1.00  0.00     0.023 C 
BRANCH  23  24
ATOM     24  C   UNL     1      -5.736  -4.374   2.838  1.00  0.00     0.116 C 
BRANCH  24  25
ATOM     25  N   UNL     1      -4.991  -5.488   3.407  1.00  0.00    -0.352 N 
ATOM     26  C   UNL     1      -5.479  -6.638   3.984  1.00  0.00     0.251 C 
ATOM     27  H   UNL     1      -4.010  -5.409   3.374  1.00  0.00     0.163 HD
ATOM     28  O   UNL     1      -4.727  -7.430   4.546  1.00  0.00    -0.269 OA
BRANCH  26  29
ATOM     29  C   UNL     1      -6.936  -6.893   3.964  1.00  0.00     0.039 A 
ATOM     30  C   UNL     1      -7.583  -7.218   5.158  1.00  0.00     0.014 A 
ATOM     31  C   UNL     1      -7.665  -6.761   2.779  1.00  0.00     0.014 A 
ATOM     32  C   UNL     1      -8.975  -7.319   5.182  1.00  0.00     0.010 A 
ATOM     33  C   UNL     1      -9.056  -6.796   2.818  1.00  0.00     0.010 A 
ATOM     34  C   UNL     1      -9.726  -7.061   4.023  1.00  0.00    -0.014 A 
BRANCH  34  35
ATOM     35  C   UNL     1     -11.210  -7.026   4.058  1.00  0.00     0.031 A 
ATOM     36  C   UNL     1     -12.014  -8.023   3.270  1.00  0.00     0.074 A 
ATOM     37  C   UNL     1     -11.835  -6.044   4.740  1.00  0.00     0.049 A 
ATOM     38  N   UNL     1     -13.312  -8.104   3.126  1.00  0.00    -0.248 NA
ATOM     39  C   UNL     1     -11.261  -9.045   2.526  1.00  0.00     0.031 C 
ATOM     40  C   UNL     1     -11.170  -4.985   5.505  1.00  0.00     0.029 A 
ATOM     41  N   UNL     1     -13.172  -5.771   4.894  1.00  0.00    -0.354 N 
ATOM     42  C   UNL     1     -13.530  -9.168   2.260  1.00  0.00     0.074 A 
ATOM     43  C   UNL     1     -12.229  -9.677   1.879  1.00  0.00     0.031 C 
ATOM     44  C   UNL     1     -12.100  -4.197   6.068  1.00  0.00     0.029 A 
ATOM     45  C   UNL     1     -13.425  -4.668   5.676  1.00  0.00     0.049 A 
ATOM     46  H   UNL     1     -13.883  -6.313   4.482  1.00  0.00     0.167 HD
ATOM     47  C   UNL     1     -14.706  -9.686   1.831  1.00  0.00     0.031 A 
ATOM     48  C   UNL     1     -14.590  -4.097   6.036  1.00  0.00     0.031 A 
ATOM     49  C   UNL     1     -15.999  -9.195   2.228  1.00  0.00     0.049 A 
ATOM     50  C   UNL     1     -15.883  -4.699   5.559  1.00  0.00     0.074 A 
ATOM     51  C   UNL     1     -17.247  -9.696   1.900  1.00  0.00     0.029 A 
ATOM     52  N   UNL     1     -16.211  -8.091   3.039  1.00  0.00    -0.354 N 
ATOM     53  N   UNL     1     -16.069  -5.747   4.792  1.00  0.00    -0.248 NA
ATOM     54  C   UNL     1     -17.122  -4.047   6.003  1.00  0.00     0.031 C 
ATOM     55  C   UNL     1     -18.215  -8.871   2.482  1.00  0.00     0.029 A 
ATOM     56  C   UNL     1     -17.570  -7.884   3.208  1.00  0.00     0.049 A 
ATOM     57  H   UNL     1     -15.501  -7.537   3.436  1.00  0.00     0.167 HD
ATOM     58  C   UNL     1     -17.447  -5.896   4.684  1.00  0.00     0.074 A 
ATOM     59  C   UNL     1     -18.046  -4.838   5.472  1.00  0.00     0.031 C 
ATOM     60  C   UNL     1     -18.151  -6.827   3.996  1.00  0.00     0.031 A 
BRANCH  47  61
ATOM     61  C   UNL     1     -14.645 -10.848   0.876  1.00  0.00    -0.014 A 
ATOM     62  C   UNL     1     -14.235 -12.122   1.309  1.00  0.00     0.010 A 
ATOM     63  C   UNL     1     -15.032 -10.672  -0.464  1.00  0.00     0.010 A 
ATOM     64  C   UNL     1     -14.172 -13.189   0.409  1.00  0.00     0.020 A 
ATOM     65  C   UNL     1     -14.995 -11.743  -1.362  1.00  0.00     0.020 A 
ATOM     66  C   UNL     1     -14.546 -12.990  -0.923  1.00  0.00     0.054 A 
BRANCH  66  67
ATOM     67  S   UNL     1     -14.468 -14.394  -2.070  1.00  0.00     0.124 S 
ATOM     68  O   UNL     1     -13.032 -14.498  -2.319  1.00  0.00    -0.237 OA
ATOM     69  O   UNL     1     -15.050 -15.482  -1.288  1.00  0.00    -0.237 OA
ATOM     70  O   UNL     1     -15.268 -13.954  -3.211  1.00  0.00    -0.744 OA
ENDBRANCH  66  67
ENDBRANCH  47  61
BRANCH  48  71
ATOM     71  C   UNL     1     -14.590  -2.899   6.918  1.00  0.00    -0.014 A 
ATOM     72  C   UNL     1     -14.994  -3.007   8.261  1.00  0.00     0.010 A 
ATOM     73  C   UNL     1     -14.178  -1.648   6.426  1.00  0.00     0.010 A 
ATOM     74  C   UNL     1     -15.004  -1.883   9.090  1.00  0.00     0.020 A 
ATOM     75  C   UNL     1     -14.164  -0.526   7.259  1.00  0.00     0.020 A 
ATOM     76  C   UNL     1     -14.589  -0.648   8.584  1.00  0.00     0.054 A 
BRANCH  76  77
ATOM     77  S   UNL     1     -14.563   0.790   9.691  1.00  0.00     0.124 S 
ATOM     78  O   UNL     1     -15.977   1.140   9.766  1.00  0.00    -0.237 OA
ATOM     79  O   UNL     1     -13.980   0.240  10.912  1.00  0.00    -0.237 OA
ATOM     80  O   UNL     1     -13.715   1.748   8.983  1.00  0.00    -0.744 OA
ENDBRANCH  76  77
ENDBRANCH  48  71
BRANCH  60  81
ATOM     81  C   UNL     1     -19.651  -6.766   4.089  1.00  0.00    -0.014 A 
ATOM     82  C   UNL     1     -20.383  -5.781   3.403  1.00  0.00     0.010 A 
ATOM     83  C   UNL     1     -20.341  -7.743   4.830  1.00  0.00     0.010 A 
ATOM     84  C   UNL     1     -21.778  -5.758   3.478  1.00  0.00     0.020 A 
ATOM     85  C   UNL     1     -21.736  -7.737   4.889  1.00  0.00     0.020 A 
ATOM     86  C   UNL     1     -22.446  -6.736   4.222  1.00  0.00     0.054 A 
BRANCH  86  87
ATOM     87  S   UNL     1     -24.259  -6.716   4.267  1.00  0.00     0.124 S 
ATOM     88  O   UNL     1     -24.528  -5.626   5.201  1.00  0.00    -0.237 OA
ATOM     89  O   UNL     1     -24.614  -6.452   2.874  1.00  0.00    -0.237 OA
ATOM     90  O   UNL     1     -24.608  -8.051   4.748  1.00  0.00    -0.744 OA
ENDBRANCH  86  87
ENDBRANCH  60  81
ENDBRANCH  34  35
ENDBRANCH  26  29
ENDBRANCH  24  25
ENDBRANCH  23  24
ENDBRANCH  22  23
ENDBRANCH   1  22
TORSDOF 22
