REMARK SMILES CC(C)Cc1ccc([C@H](C)C(=O)NCCCCNC(=O)c2ccc(-c3c4nc(c(-c5ccc(S(=O)(=O)[O-])cc5)c5ccc([nH]5)c(-c5ccc(S(=O)(=O)[O-])cc5)c5nc(c(-c6ccc(S(=O)(=O)[O-])cc6)c6ccc3[nH]6)C=C5)C=C4)cc2)cc1
REMARK SMILES IDX 15 1 14 2 13 3 11 4 12 5 9 7 10 8 8 9 5 10 6 11 82 12 7 13
REMARK SMILES IDX 81 14 4 15 2 16 1 17 3 18 16 19 17 20 18 21 19 22 20 24
REMARK SMILES IDX 21 25 22 26 80 27 23 28 79 29 24 30 25 31 26 32 73 33 27 34
REMARK SMILES IDX 78 35 72 36 74 37 28 38 77 39 71 40 70 41 29 43 59 44 40 45
REMARK SMILES IDX 58 46 41 47 44 48 57 49 75 50 42 51 43 52 56 54 76 55 45 56
REMARK SMILES IDX 30 57 31 58 39 59 32 60 38 61 33 62 34 63 35 64 36 65 37 66
REMARK SMILES IDX 60 67 61 68 69 69 62 70 68 71 63 72 64 73 65 74 66 75 67 76
REMARK SMILES IDX 46 77 47 78 55 79 48 80 54 81 49 82 50 83 51 84 52 85 53 86
REMARK H PARENT 13 6 18 23 74 42 44 53
REMARK Flexibility Score: inf
ROOT
ATOM      1  C   UNL     1       0.824   3.146  -1.461  1.00  0.00     0.023 C 
ENDROOT
BRANCH   1   2
ATOM      2  C   UNL     1      -0.238   4.083  -2.026  1.00  0.00     0.116 C 
BRANCH   2   3
ATOM      3  N   UNL     1      -0.294   4.030  -3.475  1.00  0.00    -0.356 N 
ATOM      4  C   UNL     1      -1.342   3.735  -4.296  1.00  0.00     0.227 C 
ATOM      5  O   UNL     1      -1.160   3.817  -5.514  1.00  0.00    -0.274 OA
ATOM      6  H   UNL     1       0.551   4.237  -3.934  1.00  0.00     0.163 HD
BRANCH   4   7
ATOM      7  C   UNL     1      -2.695   3.283  -3.740  1.00  0.00     0.105 C 
ATOM      8  C   UNL     1      -2.555   1.857  -3.191  1.00  0.00     0.023 C 
BRANCH   7   9
ATOM      9  C   UNL     1      -3.358   4.313  -2.830  1.00  0.00    -0.036 A 
ATOM     10  C   UNL     1      -4.574   6.280  -1.188  1.00  0.00    -0.048 A 
ATOM     11  C   UNL     1      -4.538   4.939  -0.795  1.00  0.00     0.004 A 
ATOM     12  C   UNL     1      -3.985   6.636  -2.405  1.00  0.00     0.004 A 
ATOM     13  C   UNL     1      -3.960   3.965  -1.614  1.00  0.00     0.005 A 
ATOM     14  C   UNL     1      -3.387   5.665  -3.215  1.00  0.00     0.005 A 
BRANCH  10  15
ATOM     15  C   UNL     1      -5.236   7.321  -0.316  1.00  0.00     0.038 C 
BRANCH  15  16
ATOM     16  C   UNL     1      -6.778   7.341  -0.406  1.00  0.00    -0.013 C 
ATOM     17  C   UNL     1      -7.429   6.088   0.188  1.00  0.00     0.008 C 
ATOM     18  C   UNL     1      -7.318   8.576   0.322  1.00  0.00     0.008 C 
ENDBRANCH  15  16
ENDBRANCH  10  15
ENDBRANCH   7   9
ENDBRANCH   4   7
ENDBRANCH   2   3
ENDBRANCH   1   2
BRANCH   1  19
ATOM     19  C   UNL     1       2.262   3.522  -1.817  1.00  0.00     0.023 C 
BRANCH  19  20
ATOM     20  C   UNL     1       2.678   4.935  -1.424  1.00  0.00     0.116 C 
BRANCH  20  21
ATOM     21  N   UNL     1       2.566   5.184   0.006  1.00  0.00    -0.352 N 
ATOM     22  C   UNL     1       3.480   5.772   0.852  1.00  0.00     0.251 C 
ATOM     23  H   UNL     1       1.724   4.893   0.424  1.00  0.00     0.163 HD
ATOM     24  O   UNL     1       3.287   5.786   2.058  1.00  0.00    -0.269 OA
BRANCH  22  25
ATOM     25  C   UNL     1       4.713   6.357   0.281  1.00  0.00     0.039 A 
ATOM     26  C   UNL     1       5.947   6.008   0.833  1.00  0.00     0.014 A 
ATOM     27  C   UNL     1       4.647   7.210  -0.824  1.00  0.00     0.014 A 
ATOM     28  C   UNL     1       7.124   6.458   0.230  1.00  0.00     0.010 A 
ATOM     29  C   UNL     1       5.819   7.596  -1.465  1.00  0.00     0.010 A 
ATOM     30  C   UNL     1       7.069   7.224  -0.947  1.00  0.00    -0.014 A 
BRANCH  30  31
ATOM     31  C   UNL     1       8.303   7.647  -1.656  1.00  0.00     0.031 A 
ATOM     32  C   UNL     1       8.630   9.109  -1.786  1.00  0.00     0.074 A 
ATOM     33  C   UNL     1       9.087   6.723  -2.247  1.00  0.00     0.049 A 
ATOM     34  N   UNL     1       9.611   9.681  -2.436  1.00  0.00    -0.248 NA
ATOM     35  C   UNL     1       7.719  10.054  -1.119  1.00  0.00     0.031 C 
ATOM     36  C   UNL     1       8.861   5.276  -2.224  1.00  0.00     0.029 A 
ATOM     37  N   UNL     1      10.232   6.866  -2.991  1.00  0.00    -0.354 N 
ATOM     38  C   UNL     1       9.424  11.049  -2.276  1.00  0.00     0.074 A 
ATOM     39  C   UNL     1       8.209  11.222  -1.509  1.00  0.00     0.031 C 
ATOM     40  C   UNL     1       9.849   4.665  -2.897  1.00  0.00     0.029 A 
ATOM     41  C   UNL     1      10.755   5.675  -3.435  1.00  0.00     0.049 A 
ATOM     42  H   UNL     1      10.640   7.740  -3.188  1.00  0.00     0.167 HD
ATOM     43  C   UNL     1      10.201  12.069  -2.710  1.00  0.00     0.031 A 
ATOM     44  C   UNL     1      11.839   5.423  -4.195  1.00  0.00     0.031 A 
ATOM     45  C   UNL     1      11.415  11.894  -3.461  1.00  0.00     0.049 A 
ATOM     46  C   UNL     1      12.680   6.573  -4.679  1.00  0.00     0.074 A 
ATOM     47  C   UNL     1      12.301  12.861  -3.902  1.00  0.00     0.029 A 
ATOM     48  N   UNL     1      11.913  10.671  -3.883  1.00  0.00    -0.354 N 
ATOM     49  N   UNL     1      12.518   7.857  -4.468  1.00  0.00    -0.248 NA
ATOM     50  C   UNL     1      13.854   6.238  -5.496  1.00  0.00     0.031 C 
ATOM     51  C   UNL     1      13.313  12.225  -4.630  1.00  0.00     0.029 A 
ATOM     52  C   UNL     1      13.085  10.858  -4.596  1.00  0.00     0.049 A 
ATOM     53  H   UNL     1      11.496   9.798  -3.702  1.00  0.00     0.167 HD
ATOM     54  C   UNL     1      13.587   8.482  -5.099  1.00  0.00     0.074 A 
ATOM     55  C   UNL     1      14.393   7.434  -5.693  1.00  0.00     0.031 C 
ATOM     56  C   UNL     1      13.878   9.804  -5.177  1.00  0.00     0.031 A 
BRANCH  43  57
ATOM     57  C   UNL     1       9.749  13.468  -2.384  1.00  0.00    -0.014 A 
ATOM     58  C   UNL     1       9.780  13.952  -1.063  1.00  0.00     0.010 A 
ATOM     59  C   UNL     1       9.300  14.317  -3.412  1.00  0.00     0.010 A 
ATOM     60  C   UNL     1       9.319  15.237  -0.768  1.00  0.00     0.020 A 
ATOM     61  C   UNL     1       8.865  15.614  -3.126  1.00  0.00     0.020 A 
ATOM     62  C   UNL     1       8.857  16.058  -1.801  1.00  0.00     0.054 A 
BRANCH  62  63
ATOM     63  S   UNL     1       8.263  17.722  -1.391  1.00  0.00     0.124 S 
ATOM     64  O   UNL     1       6.965  17.435  -0.784  1.00  0.00    -0.237 OA
ATOM     65  O   UNL     1       9.289  18.213  -0.475  1.00  0.00    -0.237 OA
ATOM     66  O   UNL     1       8.210  18.399  -2.684  1.00  0.00    -0.744 OA
ENDBRANCH  62  63
ENDBRANCH  43  57
BRANCH  44  67
ATOM     67  C   UNL     1      12.206   4.019  -4.526  1.00  0.00    -0.014 A 
ATOM     68  C   UNL     1      13.332   3.423  -3.932  1.00  0.00     0.010 A 
ATOM     69  C   UNL     1      11.427   3.265  -5.423  1.00  0.00     0.010 A 
ATOM     70  C   UNL     1      13.683   2.105  -4.240  1.00  0.00     0.020 A 
ATOM     71  C   UNL     1      11.760   1.939  -5.714  1.00  0.00     0.020 A 
ATOM     72  C   UNL     1      12.893   1.371  -5.129  1.00  0.00     0.054 A 
BRANCH  72  73
ATOM     73  S   UNL     1      13.338  -0.354  -5.473  1.00  0.00     0.124 S 
ATOM     74  O   UNL     1      14.498  -0.201  -6.345  1.00  0.00    -0.237 OA
ATOM     75  O   UNL     1      13.613  -0.882  -4.139  1.00  0.00    -0.237 OA
ATOM     76  O   UNL     1      12.140  -0.894  -6.112  1.00  0.00    -0.744 OA
ENDBRANCH  72  73
ENDBRANCH  44  67
BRANCH  56  77
ATOM     77  C   UNL     1      15.141  10.196  -5.895  1.00  0.00    -0.014 A 
ATOM     78  C   UNL     1      15.232  10.138  -7.296  1.00  0.00     0.010 A 
ATOM     79  C   UNL     1      16.230  10.691  -5.155  1.00  0.00     0.010 A 
ATOM     80  C   UNL     1      16.400  10.547  -7.944  1.00  0.00     0.020 A 
ATOM     81  C   UNL     1      17.390  11.125  -5.801  1.00  0.00     0.020 A 
ATOM     82  C   UNL     1      17.472  11.040  -7.192  1.00  0.00     0.054 A 
BRANCH  82  83
ATOM     83  S   UNL     1      18.957  11.617  -8.060  1.00  0.00     0.124 S 
ATOM     84  O   UNL     1      19.584  10.361  -8.458  1.00  0.00    -0.237 OA
ATOM     85  O   UNL     1      18.402  12.416  -9.150  1.00  0.00    -0.237 OA
ATOM     86  O   UNL     1      19.678  12.379  -7.043  1.00  0.00    -0.744 OA
ENDBRANCH  82  83
ENDBRANCH  56  77
ENDBRANCH  30  31
ENDBRANCH  22  25
ENDBRANCH  20  21
ENDBRANCH  19  20
ENDBRANCH   1  19
TORSDOF 17
