REMARK SMILES Cc1ccc(OCCC(=O)N2C[C@H](O)C[C@@H]2C(=O)NCCCCNC(=O)c2ccc(-c3c4nc(c(-c5ccc(S(=O)(=O)[O-])cc5)c5ccc([nH]5)c(-c5ccc(S(=O)(=O)[O-])cc5)c5nc(c(-c6ccc(S(=O)(=O)[O-])cc6)c6ccc3[nH]6)C=C5)C=C4)cc2)cc1
REMARK SMILES IDX 20 1 19 2 17 3 18 4 16 6 11 7 12 8 13 9 15 10 9 11 10 12
REMARK SMILES IDX 8 13 7 14 6 15 5 16 1 17 2 18 3 19 88 20 4 21 87 22 14 23
REMARK SMILES IDX 21 25 22 26 23 27 24 28 25 29 26 31 27 32 28 33 86 34 29 35
REMARK SMILES IDX 85 36 30 37 31 38 32 39 79 40 33 41 84 42 78 43 80 44 34 45
REMARK SMILES IDX 83 46 77 47 76 48 35 50 65 51 46 52 64 53 47 54 50 55 63 56
REMARK SMILES IDX 81 57 48 58 49 59 62 61 82 62 51 63 36 64 37 65 45 66 38 67
REMARK SMILES IDX 44 68 39 69 40 70 41 71 42 72 43 73 66 74 67 75 75 76 68 77
REMARK SMILES IDX 74 78 69 79 70 80 71 81 72 82 73 83 52 84 53 85 61 86 54 87
REMARK SMILES IDX 60 88 55 89 56 90 57 91 58 92 59 93
REMARK H PARENT 19 5 14 24 24 30 80 49 50 60
REMARK Flexibility Score: inf
ROOT
ATOM      1  C   UNL     1      -3.198   0.591   4.026  1.00  0.00     0.116 C 
ENDROOT
BRANCH   1   2
ATOM      2  N   UNL     1      -1.877   0.419   4.625  1.00  0.00    -0.354 N 
ATOM      3  C   UNL     1      -0.691   0.985   4.229  1.00  0.00     0.242 C 
ATOM      4  O   UNL     1       0.127   1.242   5.122  1.00  0.00    -0.273 OA
ATOM      5  H   UNL     1      -1.832  -0.176   5.409  1.00  0.00     0.163 HD
BRANCH   3   6
ATOM      6  C   UNL     1      -0.253   1.050   2.741  1.00  0.00     0.177 C 
ATOM      7  N   UNL     1      -1.271   0.781   1.731  1.00  0.00    -0.328 N 
ATOM      8  C   UNL     1      -1.135  -0.573   1.214  1.00  0.00     0.152 C 
ATOM      9  C   UNL     1      -0.049  -1.243   2.049  1.00  0.00     0.136 C 
ATOM     10  C   UNL     1       0.792  -0.059   2.512  1.00  0.00     0.069 C 
BRANCH   7  11
ATOM     11  C   UNL     1      -1.955   1.799   1.087  1.00  0.00     0.226 C 
ATOM     12  O   UNL     1      -1.590   2.974   1.154  1.00  0.00    -0.275 OA
BRANCH  11  13
ATOM     13  C   UNL     1      -3.264   1.430   0.402  1.00  0.00     0.141 C 
BRANCH  13  14
ATOM     14  C   UNL     1      -3.333   1.730  -1.091  1.00  0.00     0.239 C 
BRANCH  14  15
ATOM     15  O   UNL     1      -2.790   0.687  -1.918  1.00  0.00    -0.493 OA
BRANCH  15  16
ATOM     16  C   UNL     1      -1.430   0.612  -2.024  1.00  0.00     0.119 A 
ATOM     17  C   UNL     1       2.761  -0.131  -1.464  1.00  0.00     0.044 C 
ATOM     18  C   UNL     1       1.323   0.142  -1.786  1.00  0.00    -0.051 A 
ATOM     19  C   UNL     1       0.459  -0.905  -2.131  1.00  0.00     0.007 A 
ATOM     20  C   UNL     1       0.814   1.440  -1.693  1.00  0.00     0.007 A 
ATOM     21  C   UNL     1      -0.914  -0.666  -2.263  1.00  0.00     0.046 A 
ATOM     22  C   UNL     1      -0.556   1.676  -1.823  1.00  0.00     0.046 A 
ENDBRANCH  15  16
ENDBRANCH  14  15
ENDBRANCH  13  14
ENDBRANCH  11  13
ENDBRANCH   7  11
BRANCH   9  23
ATOM     23  O   UNL     1      -0.570  -1.978   3.149  1.00  0.00    -0.391 OA
ATOM     24  H   UNL     1      -1.091  -1.388   3.715  1.00  0.00     0.211 HD
ENDBRANCH   9  23
ENDBRANCH   3   6
ENDBRANCH   1   2
BRANCH   1  25
ATOM     25  C   UNL     1      -3.828  -0.696   3.472  1.00  0.00     0.023 C 
BRANCH  25  26
ATOM     26  C   UNL     1      -4.249  -1.745   4.501  1.00  0.00     0.023 C 
BRANCH  26  27
ATOM     27  C   UNL     1      -5.400  -1.274   5.367  1.00  0.00     0.116 C 
BRANCH  27  28
ATOM     28  N   UNL     1      -6.732  -1.542   4.858  1.00  0.00    -0.352 N 
ATOM     29  C   UNL     1      -7.910  -1.236   5.537  1.00  0.00     0.251 C 
ATOM     30  H   UNL     1      -6.809  -1.968   3.974  1.00  0.00     0.163 HD
ATOM     31  O   UNL     1      -8.917  -1.909   5.474  1.00  0.00    -0.269 OA
BRANCH  29  32
ATOM     32  C   UNL     1      -7.918   0.089   6.207  1.00  0.00     0.039 A 
ATOM     33  C   UNL     1      -8.641   1.114   5.588  1.00  0.00     0.014 A 
ATOM     34  C   UNL     1      -6.974   0.370   7.189  1.00  0.00     0.014 A 
ATOM     35  C   UNL     1      -8.282   2.440   5.821  1.00  0.00     0.010 A 
ATOM     36  C   UNL     1      -6.538   1.673   7.321  1.00  0.00     0.010 A 
ATOM     37  C   UNL     1      -7.164   2.706   6.607  1.00  0.00    -0.014 A 
BRANCH  37  38
ATOM     38  C   UNL     1      -6.564   4.027   6.763  1.00  0.00     0.031 A 
ATOM     39  C   UNL     1      -6.744   4.734   8.059  1.00  0.00     0.074 A 
ATOM     40  C   UNL     1      -5.791   4.574   5.795  1.00  0.00     0.049 A 
ATOM     41  N   UNL     1      -6.545   5.997   8.236  1.00  0.00    -0.248 NA
ATOM     42  C   UNL     1      -7.251   4.069   9.263  1.00  0.00     0.031 C 
ATOM     43  C   UNL     1      -4.891   5.719   5.946  1.00  0.00     0.029 A 
ATOM     44  N   UNL     1      -5.806   4.354   4.414  1.00  0.00    -0.354 N 
ATOM     45  C   UNL     1      -6.553   6.224   9.593  1.00  0.00     0.074 A 
ATOM     46  C   UNL     1      -7.140   5.043  10.170  1.00  0.00     0.031 C 
ATOM     47  C   UNL     1      -4.705   6.284   4.744  1.00  0.00     0.029 A 
ATOM     48  C   UNL     1      -5.610   5.618   3.825  1.00  0.00     0.049 A 
ATOM     49  H   UNL     1      -5.928   3.494   3.950  1.00  0.00     0.167 HD
ATOM     50  C   UNL     1      -5.911   7.317  10.090  1.00  0.00     0.031 A 
ATOM     51  C   UNL     1      -6.533   6.261   3.047  1.00  0.00     0.031 A 
ATOM     52  C   UNL     1      -5.591   8.274   9.032  1.00  0.00     0.049 A 
ATOM     53  C   UNL     1      -6.917   7.633   3.572  1.00  0.00     0.074 A 
ATOM     54  C   UNL     1      -4.416   8.666   8.417  1.00  0.00     0.029 A 
ATOM     55  N   UNL     1      -6.630   8.792   8.264  1.00  0.00    -0.354 N 
ATOM     56  N   UNL     1      -6.651   8.058   4.777  1.00  0.00    -0.248 NA
ATOM     57  C   UNL     1      -7.667   8.620   2.797  1.00  0.00     0.031 C 
ATOM     58  C   UNL     1      -4.762   9.333   7.207  1.00  0.00     0.029 A 
ATOM     59  C   UNL     1      -6.143   9.389   7.119  1.00  0.00     0.049 A 
ATOM     60  H   UNL     1      -7.583   8.741   8.506  1.00  0.00     0.167 HD
ATOM     61  C   UNL     1      -7.172   9.313   4.959  1.00  0.00     0.074 A 
ATOM     62  C   UNL     1      -7.783   9.629   3.680  1.00  0.00     0.031 C 
ATOM     63  C   UNL     1      -7.067   9.974   6.152  1.00  0.00     0.031 A 
BRANCH  50  64
ATOM     64  C   UNL     1      -5.372   7.412  11.506  1.00  0.00    -0.014 A 
ATOM     65  C   UNL     1      -4.643   8.552  11.906  1.00  0.00     0.010 A 
ATOM     66  C   UNL     1      -5.430   6.362  12.447  1.00  0.00     0.010 A 
ATOM     67  C   UNL     1      -3.994   8.623  13.154  1.00  0.00     0.020 A 
ATOM     68  C   UNL     1      -4.817   6.431  13.706  1.00  0.00     0.020 A 
ATOM     69  C   UNL     1      -4.081   7.555  14.046  1.00  0.00     0.054 A 
BRANCH  69  70
ATOM     70  S   UNL     1      -3.205   7.621  15.631  1.00  0.00     0.124 S 
ATOM     71  O   UNL     1      -1.806   7.588  15.214  1.00  0.00    -0.237 OA
ATOM     72  O   UNL     1      -3.667   8.883  16.200  1.00  0.00    -0.237 OA
ATOM     73  O   UNL     1      -3.667   6.423  16.332  1.00  0.00    -0.744 OA
ENDBRANCH  69  70
ENDBRANCH  50  64
BRANCH  51  74
ATOM     74  C   UNL     1      -7.436   5.351   2.287  1.00  0.00    -0.014 A 
ATOM     75  C   UNL     1      -6.859   4.603   1.240  1.00  0.00     0.010 A 
ATOM     76  C   UNL     1      -8.637   4.905   2.864  1.00  0.00     0.010 A 
ATOM     77  C   UNL     1      -7.345   3.332   0.929  1.00  0.00     0.020 A 
ATOM     78  C   UNL     1      -9.135   3.633   2.543  1.00  0.00     0.020 A 
ATOM     79  C   UNL     1      -8.429   2.825   1.647  1.00  0.00     0.054 A 
BRANCH  79  80
ATOM     80  S   UNL     1      -8.747   1.036   1.556  1.00  0.00     0.124 S 
ATOM     81  O   UNL     1      -8.857   0.809   0.119  1.00  0.00    -0.237 OA
ATOM     82  O   UNL     1      -7.546   0.487   2.189  1.00  0.00    -0.237 OA
ATOM     83  O   UNL     1      -9.980   0.876   2.318  1.00  0.00    -0.744 OA
ENDBRANCH  79  80
ENDBRANCH  51  74
BRANCH  63  84
ATOM     84  C   UNL     1      -7.771  11.263   6.535  1.00  0.00    -0.014 A 
ATOM     85  C   UNL     1      -8.898  11.785   5.882  1.00  0.00     0.010 A 
ATOM     86  C   UNL     1      -7.348  11.945   7.705  1.00  0.00     0.010 A 
ATOM     87  C   UNL     1      -9.530  12.957   6.331  1.00  0.00     0.020 A 
ATOM     88  C   UNL     1      -7.997  13.086   8.189  1.00  0.00     0.020 A 
ATOM     89  C   UNL     1      -9.073  13.602   7.480  1.00  0.00     0.054 A 
BRANCH  89  90
ATOM     90  S   UNL     1      -9.934  15.075   8.087  1.00  0.00     0.124 S 
ATOM     91  O   UNL     1      -9.280  16.140   7.332  1.00  0.00    -0.237 OA
ATOM     92  O   UNL     1     -11.326  14.815   7.723  1.00  0.00    -0.237 OA
ATOM     93  O   UNL     1      -9.663  15.065   9.522  1.00  0.00    -0.744 OA
ENDBRANCH  89  90
ENDBRANCH  63  84
ENDBRANCH  37  38
ENDBRANCH  29  32
ENDBRANCH  27  28
ENDBRANCH  26  27
ENDBRANCH  25  26
ENDBRANCH   1  25
TORSDOF 20
