REMARK SMILES O=C(NCCCCNC(=O)[C@@H]1CC2(CCN(C(=O)C3(c4ccccc4F)CC3)CC2)C[NH2+]1)c1ccc(-c2c3nc(c(-c4ccc(S(=O)(=O)[O-])cc4)c4ccc([nH]4)c(-c4ccc(S(=O)(=O)[O-])cc4)c4nc(c(-c5ccc(S(=O)(=O)[O-])cc5)c5ccc2[nH]5)C=C4)C=C3)cc1
REMARK SMILES IDX 5 1 4 2 3 3 1 4 2 5 33 7 34 8 92 9 35 10 91 11 36 12 37 13
REMARK SMILES IDX 38 14 85 15 39 16 90 17 84 18 86 19 40 20 89 21 83 22 82 23
REMARK SMILES IDX 41 25 71 26 52 27 70 28 53 29 56 30 69 31 87 32 54 33 55 34
REMARK SMILES IDX 68 36 88 37 57 38 42 39 43 40 51 41 44 42 50 43 45 44 46 45
REMARK SMILES IDX 47 46 48 47 49 48 72 49 73 50 81 51 74 52 80 53 75 54 76 55
REMARK SMILES IDX 77 56 78 57 79 58 58 59 59 60 67 61 60 62 66 63 61 64 62 65
REMARK SMILES IDX 63 66 64 67 65 68 6 69 7 70 8 71 9 72 10 74 11 75 12 76
REMARK SMILES IDX 32 77 13 78 31 79 14 82 30 83 15 84 29 85 16 86 17 87 18 88
REMARK SMILES IDX 19 89 27 90 28 91 20 92 21 93 25 94 22 95 24 96 26 97 23 98
REMARK H PARENT 3 6 86 24 56 35 8 73 32 80 32 81
REMARK Flexibility Score: inf
ROOT
ATOM      1  C   UNL     1       4.884   2.812  -0.073  1.00  0.00     0.023 C 
ENDROOT
BRANCH   1   2
ATOM      2  C   UNL     1       4.530   1.407   0.398  1.00  0.00     0.116 C 
BRANCH   2   3
ATOM      3  N   UNL     1       3.097   1.170   0.447  1.00  0.00    -0.352 N 
ATOM      4  O   UNL     1       1.152   0.151  -0.061  1.00  0.00    -0.269 OA
ATOM      5  C   UNL     1       2.380   0.118  -0.074  1.00  0.00     0.251 C 
ATOM      6  H   UNL     1       2.568   1.855   0.916  1.00  0.00     0.163 HD
BRANCH   5   7
ATOM      7  C   UNL     1       3.090  -1.038  -0.668  1.00  0.00     0.039 A 
ATOM      8  C   UNL     1       4.181  -1.617  -0.016  1.00  0.00     0.014 A 
ATOM      9  C   UNL     1       2.644  -1.558  -1.887  1.00  0.00     0.014 A 
ATOM     10  C   UNL     1       4.895  -2.638  -0.634  1.00  0.00     0.010 A 
ATOM     11  C   UNL     1       3.319  -2.635  -2.472  1.00  0.00     0.010 A 
ATOM     12  C   UNL     1       4.459  -3.174  -1.857  1.00  0.00    -0.014 A 
BRANCH  12  13
ATOM     13  C   UNL     1       5.143  -4.371  -2.409  1.00  0.00     0.031 A 
ATOM     14  C   UNL     1       5.912  -4.314  -3.699  1.00  0.00     0.074 A 
ATOM     15  C   UNL     1       5.062  -5.524  -1.715  1.00  0.00     0.049 A 
ATOM     16  N   UNL     1       6.572  -5.273  -4.299  1.00  0.00    -0.248 NA
ATOM     17  C   UNL     1       5.946  -3.027  -4.412  1.00  0.00     0.031 C 
ATOM     18  C   UNL     1       4.323  -5.701  -0.460  1.00  0.00     0.029 A 
ATOM     19  N   UNL     1       5.609  -6.758  -1.952  1.00  0.00    -0.354 N 
ATOM     20  C   UNL     1       7.082  -4.716  -5.466  1.00  0.00     0.074 A 
ATOM     21  C   UNL     1       6.647  -3.336  -5.498  1.00  0.00     0.031 C 
ATOM     22  C   UNL     1       4.491  -6.958  -0.023  1.00  0.00     0.029 A 
ATOM     23  C   UNL     1       5.295  -7.691  -0.992  1.00  0.00     0.049 A 
ATOM     24  H   UNL     1       6.172  -6.958  -2.735  1.00  0.00     0.167 HD
ATOM     25  C   UNL     1       7.842  -5.306  -6.420  1.00  0.00     0.031 A 
ATOM     26  C   UNL     1       5.596  -9.000  -0.909  1.00  0.00     0.031 A 
ATOM     27  C   UNL     1       8.280  -6.678  -6.374  1.00  0.00     0.049 A 
ATOM     28  C   UNL     1       6.420  -9.628  -1.995  1.00  0.00     0.074 A 
ATOM     29  C   UNL     1       9.107  -7.344  -7.263  1.00  0.00     0.029 A 
ATOM     30  N   UNL     1       7.920  -7.596  -5.401  1.00  0.00    -0.354 N 
ATOM     31  N   UNL     1       6.947  -9.063  -3.054  1.00  0.00    -0.248 NA
ATOM     32  C   UNL     1       6.685 -11.067  -1.877  1.00  0.00     0.031 C 
ATOM     33  C   UNL     1       9.201  -8.680  -6.858  1.00  0.00     0.029 A 
ATOM     34  C   UNL     1       8.475  -8.832  -5.688  1.00  0.00     0.049 A 
ATOM     35  H   UNL     1       7.353  -7.399  -4.620  1.00  0.00     0.167 HD
ATOM     36  C   UNL     1       7.611 -10.080  -3.729  1.00  0.00     0.074 A 
ATOM     37  C   UNL     1       7.445 -11.285  -2.942  1.00  0.00     0.031 C 
ATOM     38  C   UNL     1       8.289 -10.023  -4.901  1.00  0.00     0.031 A 
BRANCH  25  39
ATOM     39  C   UNL     1       8.246  -4.488  -7.619  1.00  0.00    -0.014 A 
ATOM     40  C   UNL     1       9.268  -3.526  -7.533  1.00  0.00     0.010 A 
ATOM     41  C   UNL     1       7.674  -4.770  -8.873  1.00  0.00     0.010 A 
ATOM     42  C   UNL     1       9.703  -2.854  -8.680  1.00  0.00     0.020 A 
ATOM     43  C   UNL     1       8.119  -4.114 -10.025  1.00  0.00     0.020 A 
ATOM     44  C   UNL     1       9.128  -3.155  -9.920  1.00  0.00     0.054 A 
BRANCH  44  45
ATOM     45  S   UNL     1       9.759  -2.317 -11.401  1.00  0.00     0.124 S 
ATOM     46  O   UNL     1       9.220  -0.969 -11.236  1.00  0.00    -0.237 OA
ATOM     47  O   UNL     1      11.206  -2.437 -11.245  1.00  0.00    -0.237 OA
ATOM     48  O   UNL     1       9.188  -3.085 -12.505  1.00  0.00    -0.744 OA
ENDBRANCH  44  45
ENDBRANCH  25  39
BRANCH  26  49
ATOM     49  C   UNL     1       5.069  -9.812   0.220  1.00  0.00    -0.014 A 
ATOM     50  C   UNL     1       5.932 -10.326   1.203  1.00  0.00     0.010 A 
ATOM     51  C   UNL     1       3.690 -10.075   0.312  1.00  0.00     0.010 A 
ATOM     52  C   UNL     1       5.427 -11.112   2.244  1.00  0.00     0.020 A 
ATOM     53  C   UNL     1       3.178 -10.834   1.367  1.00  0.00     0.020 A 
ATOM     54  C   UNL     1       4.053 -11.363   2.316  1.00  0.00     0.054 A 
BRANCH  54  55
ATOM     55  S   UNL     1       3.410 -12.361   3.688  1.00  0.00     0.124 S 
ATOM     56  O   UNL     1       3.746 -13.714   3.258  1.00  0.00    -0.237 OA
ATOM     57  O   UNL     1       4.164 -11.854   4.832  1.00  0.00    -0.237 OA
ATOM     58  O   UNL     1       1.985 -12.041   3.701  1.00  0.00    -0.744 OA
ENDBRANCH  54  55
ENDBRANCH  26  49
BRANCH  38  59
ATOM     59  C   UNL     1       8.903 -11.303  -5.396  1.00  0.00    -0.014 A 
ATOM     60  C   UNL     1       8.102 -12.325  -5.935  1.00  0.00     0.010 A 
ATOM     61  C   UNL     1      10.299 -11.471  -5.354  1.00  0.00     0.010 A 
ATOM     62  C   UNL     1       8.684 -13.508  -6.395  1.00  0.00     0.020 A 
ATOM     63  C   UNL     1      10.886 -12.643  -5.836  1.00  0.00     0.020 A 
ATOM     64  C   UNL     1      10.073 -13.661  -6.340  1.00  0.00     0.054 A 
BRANCH  64  65
ATOM     65  S   UNL     1      10.809 -15.191  -6.977  1.00  0.00     0.124 S 
ATOM     66  O   UNL     1      10.502 -16.141  -5.912  1.00  0.00    -0.237 OA
ATOM     67  O   UNL     1      10.089 -15.398  -8.231  1.00  0.00    -0.237 OA
ATOM     68  O   UNL     1      12.224 -14.858  -7.126  1.00  0.00    -0.744 OA
ENDBRANCH  64  65
ENDBRANCH  38  59
ENDBRANCH  12  13
ENDBRANCH   5   7
ENDBRANCH   2   3
ENDBRANCH   1   2
BRANCH   1  69
ATOM     69  C   UNL     1       4.403   3.950   0.827  1.00  0.00     0.023 C 
BRANCH  69  70
ATOM     70  C   UNL     1       4.789   3.830   2.300  1.00  0.00     0.116 C 
BRANCH  70  71
ATOM     71  N   UNL     1       6.224   3.746   2.505  1.00  0.00    -0.351 N 
ATOM     72  C   UNL     1       7.014   4.497   3.331  1.00  0.00     0.278 C 
ATOM     73  H   UNL     1       6.691   3.057   1.979  1.00  0.00     0.163 HD
ATOM     74  O   UNL     1       8.182   4.146   3.508  1.00  0.00    -0.268 OA
BRANCH  72  75
ATOM     75  C   UNL     1       6.408   5.742   4.008  1.00  0.00     0.273 C 
ATOM     76  C   UNL     1       6.180   6.878   3.025  1.00  0.00     0.088 C 
ATOM     77  N   UNL     1       7.309   6.337   5.013  1.00  0.00    -0.336 N 
ATOM     78  C   UNL     1       7.498   7.684   3.012  1.00  0.00     0.029 C 
ATOM     79  C   UNL     1       8.224   7.228   4.293  1.00  0.00     0.268 C 
ATOM     80  H   UNL     1       7.836   5.605   5.489  1.00  0.00     0.346 HD
ATOM     81  H   UNL     1       6.780   6.851   5.718  1.00  0.00     0.346 HD
ATOM     82  C   UNL     1       7.196   9.206   3.024  1.00  0.00     0.034 C 
ATOM     83  C   UNL     1       8.376   7.347   1.777  1.00  0.00     0.034 C 
ATOM     84  C   UNL     1       6.633   9.685   1.676  1.00  0.00     0.120 C 
ATOM     85  C   UNL     1       7.820   7.933   0.479  1.00  0.00     0.120 C 
ATOM     86  N   UNL     1       7.585   9.366   0.626  1.00  0.00    -0.342 N 
ATOM     87  C   UNL     1       8.609  10.217   0.204  1.00  0.00     0.233 C 
ATOM     88  O   UNL     1       9.746   9.784   0.014  1.00  0.00    -0.274 OA
BRANCH  87  89
ATOM     89  C   UNL     1       8.339  11.664  -0.187  1.00  0.00     0.077 C 
ATOM     90  C   UNL     1       7.592  12.723   0.622  1.00  0.00     0.023 C 
ATOM     91  C   UNL     1       9.076  12.681   0.704  1.00  0.00     0.023 C 
BRANCH  89  92
ATOM     92  C   UNL     1       8.427  11.903  -1.710  1.00  0.00     0.003 A 
ATOM     93  C   UNL     1       7.277  12.049  -2.508  1.00  0.00     0.008 A 
ATOM     94  C   UNL     1       9.665  11.942  -2.378  1.00  0.00     0.127 A 
ATOM     95  C   UNL     1       7.367  12.214  -3.896  1.00  0.00     0.001 A 
ATOM     96  C   UNL     1       9.765  12.089  -3.761  1.00  0.00     0.039 A 
ATOM     97  F   UNL     1      10.804  11.849  -1.675  1.00  0.00    -0.207 F 
ATOM     98  C   UNL     1       8.611  12.222  -4.524  1.00  0.00     0.003 A 
ENDBRANCH  89  92
ENDBRANCH  87  89
ENDBRANCH  72  75
ENDBRANCH  70  71
ENDBRANCH  69  70
ENDBRANCH   1  69
TORSDOF 16
