REMARK SMILES CSc1ccc(/C=C2\C(C)=C(CC(=O)NCCCCNC(=O)c3ccc(-c4c5nc(c(-c6ccc(S(=O)(=O)[O-])cc6)c6ccc([nH]6)c(-c6ccc(S(=O)(=O)[O-])cc6)c6nc(c(-c7ccc(S(=O)(=O)[O-])cc7)c7ccc4[nH]7)C=C6)C=C5)cc3)c3cc(F)ccc32)cc1
REMARK SMILES IDX 17 1 16 2 15 3 13 4 14 5 12 7 11 8 7 9 8 10 9 11 89 12 10 13
REMARK SMILES IDX 83 14 88 15 84 16 87 17 85 18 86 19 6 20 3 21 4 22 91 23
REMARK SMILES IDX 5 24 90 25 2 26 1 27 18 28 19 29 20 30 21 31 22 33 23 34
REMARK SMILES IDX 24 35 82 36 25 37 81 38 26 39 27 40 28 41 75 42 29 43 80 44
REMARK SMILES IDX 74 45 76 46 30 47 79 48 73 49 72 50 31 52 61 53 42 54 60 55
REMARK SMILES IDX 43 56 46 57 59 58 77 59 44 60 45 61 58 63 78 64 47 65 32 66
REMARK SMILES IDX 33 67 41 68 34 69 40 70 35 71 36 72 37 73 38 74 39 75 62 76
REMARK SMILES IDX 63 77 71 78 64 79 70 80 65 81 66 82 67 83 68 84 69 85 48 86
REMARK SMILES IDX 49 87 57 88 50 89 56 90 51 91 52 92 53 93 54 94 55 95
REMARK H PARENT 15 6 20 32 76 51 46 62
REMARK Flexibility Score: inf
ROOT
ATOM      1  C   UNL     1      -1.104   0.289   8.326  1.00  0.00     0.023 C 
ENDROOT
BRANCH   1   2
ATOM      2  C   UNL     1      -0.345   1.259   9.228  1.00  0.00     0.116 C 
BRANCH   2   3
ATOM      3  N   UNL     1       0.368   0.565  10.280  1.00  0.00    -0.356 N 
ATOM      4  C   UNL     1       1.638   0.063  10.226  1.00  0.00     0.224 C 
ATOM      5  O   UNL     1       2.073  -0.584  11.178  1.00  0.00    -0.275 OA
ATOM      6  H   UNL     1      -0.115   0.441  11.128  1.00  0.00     0.163 HD
BRANCH   4   7
ATOM      7  C   UNL     1       2.477   0.318   8.988  1.00  0.00     0.136 C 
BRANCH   7   8
ATOM      8  C   UNL     1       2.067  -0.642   7.890  1.00  0.00    -0.027 C 
ATOM      9  C   UNL     1       3.189   1.034   5.117  1.00  0.00     0.017 C 
ATOM     10  C   UNL     1       2.911   0.002   5.930  1.00  0.00    -0.014 C 
ATOM     11  C   UNL     1       1.651  -0.226   6.660  1.00  0.00    -0.039 C 
ATOM     12  C   UNL     1       3.749  -1.155   6.337  1.00  0.00    -0.010 A 
ATOM     13  C   UNL     1       0.762  -1.174   5.816  1.00  0.00     0.045 C 
ATOM     14  C   UNL     1       3.135  -1.597   7.532  1.00  0.00    -0.011 A 
ATOM     15  C   UNL     1       4.418  -2.059   5.528  1.00  0.00     0.012 A 
ATOM     16  C   UNL     1       3.160  -2.917   7.951  1.00  0.00     0.048 A 
ATOM     17  C   UNL     1       4.420  -3.407   5.925  1.00  0.00     0.040 A 
ATOM     18  C   UNL     1       3.791  -3.820   7.113  1.00  0.00     0.123 A 
ATOM     19  F   UNL     1       3.687  -5.130   7.375  1.00  0.00    -0.207 F 
BRANCH   9  20
ATOM     20  C   UNL     1       2.233   1.982   4.467  1.00  0.00    -0.025 A 
ATOM     21  C   UNL     1       0.856   2.661   2.145  1.00  0.00     0.007 A 
ATOM     22  C   UNL     1       0.199   1.963   3.148  1.00  0.00     0.015 A 
ATOM     23  C   UNL     1       2.072   3.280   2.430  1.00  0.00     0.015 A 
ATOM     24  C   UNL     1       0.872   1.686   4.332  1.00  0.00     0.009 A 
ATOM     25  C   UNL     1       2.764   2.940   3.597  1.00  0.00     0.009 A 
BRANCH  21  26
ATOM     26  S   UNL     1       0.297   2.505   0.461  1.00  0.00    -0.130 SA
ATOM     27  C   UNL     1       0.840   0.778   0.204  1.00  0.00     0.091 C 
ENDBRANCH  21  26
ENDBRANCH   9  20
ENDBRANCH   7   8
ENDBRANCH   4   7
ENDBRANCH   2   3
ENDBRANCH   1   2
BRANCH   1  28
ATOM     28  C   UNL     1      -2.332  -0.370   8.928  1.00  0.00     0.023 C 
BRANCH  28  29
ATOM     29  C   UNL     1      -3.284   0.599   9.584  1.00  0.00     0.116 C 
BRANCH  29  30
ATOM     30  N   UNL     1      -3.642   1.717   8.724  1.00  0.00    -0.352 N 
ATOM     31  C   UNL     1      -4.825   2.422   8.712  1.00  0.00     0.251 C 
ATOM     32  H   UNL     1      -2.959   2.003   8.076  1.00  0.00     0.163 HD
ATOM     33  O   UNL     1      -5.039   3.274   7.877  1.00  0.00    -0.269 OA
BRANCH  31  34
ATOM     34  C   UNL     1      -5.836   2.060   9.725  1.00  0.00     0.039 A 
ATOM     35  C   UNL     1      -7.122   1.735   9.298  1.00  0.00     0.014 A 
ATOM     36  C   UNL     1      -5.468   1.937  11.068  1.00  0.00     0.014 A 
ATOM     37  C   UNL     1      -8.035   1.237  10.224  1.00  0.00     0.010 A 
ATOM     38  C   UNL     1      -6.343   1.341  11.961  1.00  0.00     0.010 A 
ATOM     39  C   UNL     1      -7.642   1.010  11.554  1.00  0.00    -0.014 A 
BRANCH  39  40
ATOM     40  C   UNL     1      -8.593   0.468  12.550  1.00  0.00     0.031 A 
ATOM     41  C   UNL     1      -8.975   1.305  13.739  1.00  0.00     0.074 A 
ATOM     42  C   UNL     1      -9.068  -0.784  12.411  1.00  0.00     0.049 A 
ATOM     43  N   UNL     1      -9.763   1.006  14.738  1.00  0.00    -0.248 NA
ATOM     44  C   UNL     1      -8.363   2.642  13.836  1.00  0.00     0.031 C 
ATOM     45  C   UNL     1      -8.719  -1.711  11.330  1.00  0.00     0.029 A 
ATOM     46  N   UNL     1      -9.946  -1.495  13.187  1.00  0.00    -0.354 N 
ATOM     47  C   UNL     1      -9.731   2.109  15.582  1.00  0.00     0.074 A 
ATOM     48  C   UNL     1      -8.789   3.050  15.020  1.00  0.00     0.031 C 
ATOM     49  C   UNL     1      -9.399  -2.856  11.498  1.00  0.00     0.029 A 
ATOM     50  C   UNL     1     -10.204  -2.758  12.712  1.00  0.00     0.049 A 
ATOM     51  H   UNL     1     -10.354  -1.135  14.008  1.00  0.00     0.167 HD
ATOM     52  C   UNL     1     -10.447   2.335  16.709  1.00  0.00     0.031 A 
ATOM     53  C   UNL     1     -11.000  -3.728  13.200  1.00  0.00     0.031 A 
ATOM     54  C   UNL     1     -11.387   1.397  17.257  1.00  0.00     0.049 A 
ATOM     55  C   UNL     1     -11.796  -3.455  14.446  1.00  0.00     0.074 A 
ATOM     56  C   UNL     1     -12.198   1.539  18.368  1.00  0.00     0.029 A 
ATOM     57  N   UNL     1     -11.643   0.139  16.730  1.00  0.00    -0.354 N 
ATOM     58  N   UNL     1     -11.806  -2.378  15.197  1.00  0.00    -0.248 NA
ATOM     59  C   UNL     1     -12.705  -4.516  14.898  1.00  0.00     0.031 C 
ATOM     60  C   UNL     1     -12.911   0.347  18.540  1.00  0.00     0.029 A 
ATOM     61  C   UNL     1     -12.589  -0.513  17.501  1.00  0.00     0.049 A 
ATOM     62  H   UNL     1     -11.214  -0.234  15.926  1.00  0.00     0.167 HD
ATOM     63  C   UNL     1     -12.739  -2.623  16.198  1.00  0.00     0.074 A 
ATOM     64  C   UNL     1     -13.284  -3.942  15.944  1.00  0.00     0.031 C 
ATOM     65  C   UNL     1     -13.113  -1.829  17.233  1.00  0.00     0.031 A 
BRANCH  52  66
ATOM     66  C   UNL     1     -10.228   3.651  17.408  1.00  0.00    -0.014 A 
ATOM     67  C   UNL     1     -10.628   4.863  16.813  1.00  0.00     0.010 A 
ATOM     68  C   UNL     1      -9.613   3.682  18.672  1.00  0.00     0.010 A 
ATOM     69  C   UNL     1     -10.363   6.083  17.440  1.00  0.00     0.020 A 
ATOM     70  C   UNL     1      -9.377   4.899  19.319  1.00  0.00     0.020 A 
ATOM     71  C   UNL     1      -9.732   6.093  18.687  1.00  0.00     0.054 A 
BRANCH  71  72
ATOM     72  S   UNL     1      -9.399   7.690  19.478  1.00  0.00     0.124 S 
ATOM     73  O   UNL     1      -8.288   8.197  18.676  1.00  0.00    -0.237 OA
ATOM     74  O   UNL     1     -10.665   8.399  19.315  1.00  0.00    -0.237 OA
ATOM     75  O   UNL     1      -9.062   7.332  20.854  1.00  0.00    -0.744 OA
ENDBRANCH  71  72
ENDBRANCH  52  66
BRANCH  53  76
ATOM     76  C   UNL     1     -11.094  -5.031  12.488  1.00  0.00    -0.014 A 
ATOM     77  C   UNL     1     -12.254  -5.377  11.773  1.00  0.00     0.010 A 
ATOM     78  C   UNL     1     -10.001  -5.918  12.489  1.00  0.00     0.010 A 
ATOM     79  C   UNL     1     -12.323  -6.590  11.080  1.00  0.00     0.020 A 
ATOM     80  C   UNL     1     -10.057  -7.118  11.774  1.00  0.00     0.020 A 
ATOM     81  C   UNL     1     -11.221  -7.450  11.081  1.00  0.00     0.054 A 
BRANCH  81  82
ATOM     82  S   UNL     1     -11.308  -8.985  10.116  1.00  0.00     0.124 S 
ATOM     83  O   UNL     1     -12.207  -9.802  10.925  1.00  0.00    -0.237 OA
ATOM     84  O   UNL     1     -11.848  -8.524   8.839  1.00  0.00    -0.237 OA
ATOM     85  O   UNL     1      -9.919  -9.437  10.069  1.00  0.00    -0.744 OA
ENDBRANCH  81  82
ENDBRANCH  53  76
BRANCH  65  86
ATOM     86  C   UNL     1     -14.185  -2.352  18.151  1.00  0.00    -0.014 A 
ATOM     87  C   UNL     1     -13.927  -3.399  19.054  1.00  0.00     0.010 A 
ATOM     88  C   UNL     1     -15.455  -1.748  18.144  1.00  0.00     0.010 A 
ATOM     89  C   UNL     1     -14.934  -3.857  19.907  1.00  0.00     0.020 A 
ATOM     90  C   UNL     1     -16.455  -2.183  19.016  1.00  0.00     0.020 A 
ATOM     91  C   UNL     1     -16.192  -3.247  19.881  1.00  0.00     0.054 A 
BRANCH  91  92
ATOM     92  S   UNL     1     -17.472  -3.836  21.023  1.00  0.00     0.124 S 
ATOM     93  O   UNL     1     -17.856  -5.109  20.418  1.00  0.00    -0.237 OA
ATOM     94  O   UNL     1     -16.751  -3.935  22.290  1.00  0.00    -0.237 OA
ATOM     95  O   UNL     1     -18.490  -2.790  20.973  1.00  0.00    -0.744 OA
ENDBRANCH  91  92
ENDBRANCH  65  86
ENDBRANCH  39  40
ENDBRANCH  31  34
ENDBRANCH  29  30
ENDBRANCH  28  29
ENDBRANCH   1  28
TORSDOF 17
