REMARK SMILES O=C(NCCCCNC(=O)C1(NC(=O)c2nc(C3CC3)n[nH]2)CCCCC1)c1ccc(-c2c3nc(c(-c4ccc(S(=O)(=O)[O-])cc4)c4ccc([nH]4)c(-c4ccc(S(=O)(=O)[O-])cc4)c4nc(c(-c5ccc(S(=O)(=O)[O-])cc5)c5ccc2[nH]5)C=C4)C=C3)cc1
REMARK SMILES IDX 5 1 4 2 3 3 1 4 2 5 28 7 29 8 87 9 30 10 86 11 31 12 32 13
REMARK SMILES IDX 33 14 80 15 34 16 85 17 79 18 81 19 35 20 84 21 78 22 77 23
REMARK SMILES IDX 36 25 66 26 47 27 65 28 48 29 51 30 64 31 82 32 49 33 50 34
REMARK SMILES IDX 63 36 83 37 52 38 37 39 38 40 46 41 39 42 45 43 40 44 41 45
REMARK SMILES IDX 42 46 43 47 44 48 67 49 68 50 76 51 69 52 75 53 70 54 71 55
REMARK SMILES IDX 72 56 73 57 74 58 53 59 54 60 62 61 55 62 61 63 56 64 57 65
REMARK SMILES IDX 58 66 59 67 60 68 6 69 7 70 8 71 9 72 10 74 11 75 23 76
REMARK SMILES IDX 27 77 24 78 26 79 25 80 12 81 13 82 14 84 15 85 16 86 22 87
REMARK SMILES IDX 17 88 21 89 18 91 19 92 20 93
REMARK H PARENT 3 6 81 24 51 35 8 73 12 83 22 90
REMARK Flexibility Score: inf
ROOT
ATOM      1  C   UNL     1       4.955   1.659   2.562  1.00  0.00     0.023 C 
ENDROOT
BRANCH   1   2
ATOM      2  C   UNL     1       4.624   0.715   1.409  1.00  0.00     0.116 C 
BRANCH   2   3
ATOM      3  N   UNL     1       3.209   0.413   1.272  1.00  0.00    -0.352 N 
ATOM      4  O   UNL     1       1.256   0.082   0.197  1.00  0.00    -0.269 OA
ATOM      5  C   UNL     1       2.449   0.344   0.124  1.00  0.00     0.251 C 
ATOM      6  H   UNL     1       2.728   0.233   2.112  1.00  0.00     0.163 HD
BRANCH   5   7
ATOM      7  C   UNL     1       3.068   0.647  -1.187  1.00  0.00     0.039 A 
ATOM      8  C   UNL     1       4.205  -0.032  -1.632  1.00  0.00     0.014 A 
ATOM      9  C   UNL     1       2.500   1.657  -1.969  1.00  0.00     0.014 A 
ATOM     10  C   UNL     1       4.842   0.380  -2.806  1.00  0.00     0.010 A 
ATOM     11  C   UNL     1       3.117   2.042  -3.162  1.00  0.00     0.010 A 
ATOM     12  C   UNL     1       4.315   1.433  -3.571  1.00  0.00    -0.014 A 
BRANCH  12  13
ATOM     13  C   UNL     1       5.006   1.903  -4.801  1.00  0.00     0.031 A 
ATOM     14  C   UNL     1       5.654   3.261  -4.846  1.00  0.00     0.074 A 
ATOM     15  C   UNL     1       5.016   1.124  -5.899  1.00  0.00     0.049 A 
ATOM     16  N   UNL     1       6.245   3.861  -5.849  1.00  0.00    -0.248 NA
ATOM     17  C   UNL     1       5.629   4.050  -3.605  1.00  0.00     0.031 C 
ATOM     18  C   UNL     1       4.416  -0.207  -5.992  1.00  0.00     0.029 A 
ATOM     19  N   UNL     1       5.534   1.349  -7.150  1.00  0.00    -0.354 N 
ATOM     20  C   UNL     1       6.643   5.104  -5.371  1.00  0.00     0.074 A 
ATOM     21  C   UNL     1       6.209   5.179  -3.991  1.00  0.00     0.031 C 
ATOM     22  C   UNL     1       4.592  -0.678  -7.237  1.00  0.00     0.029 A 
ATOM     23  C   UNL     1       5.279   0.332  -8.038  1.00  0.00     0.049 A 
ATOM     24  H   UNL     1       6.039   2.160  -7.388  1.00  0.00     0.167 HD
ATOM     25  C   UNL     1       7.308   6.092  -6.018  1.00  0.00     0.031 A 
ATOM     26  C   UNL     1       5.538   0.229  -9.356  1.00  0.00     0.031 A 
ATOM     27  C   UNL     1       7.734   6.021  -7.392  1.00  0.00     0.049 A 
ATOM     28  C   UNL     1       6.251   1.345 -10.064  1.00  0.00     0.074 A 
ATOM     29  C   UNL     1       8.460   6.952  -8.116  1.00  0.00     0.029 A 
ATOM     30  N   UNL     1       7.461   4.970  -8.254  1.00  0.00    -0.354 N 
ATOM     31  N   UNL     1       6.672   2.488  -9.579  1.00  0.00    -0.248 NA
ATOM     32  C   UNL     1       6.531   1.155 -11.494  1.00  0.00     0.031 C 
ATOM     33  C   UNL     1       8.582   6.486  -9.430  1.00  0.00     0.029 A 
ATOM     34  C   UNL     1       7.976   5.242  -9.511  1.00  0.00     0.049 A 
ATOM     35  H   UNL     1       6.973   4.151  -8.009  1.00  0.00     0.167 HD
ATOM     36  C   UNL     1       7.279   3.149 -10.640  1.00  0.00     0.074 A 
ATOM     37  C   UNL     1       7.181   2.274 -11.791  1.00  0.00     0.031 C 
ATOM     38  C   UNL     1       7.868   4.371 -10.655  1.00  0.00     0.031 A 
BRANCH  25  39
ATOM     39  C   UNL     1       7.584   7.358  -5.250  1.00  0.00    -0.014 A 
ATOM     40  C   UNL     1       8.547   7.397  -4.226  1.00  0.00     0.010 A 
ATOM     41  C   UNL     1       6.882   8.534  -5.574  1.00  0.00     0.010 A 
ATOM     42  C   UNL     1       8.763   8.573  -3.502  1.00  0.00     0.020 A 
ATOM     43  C   UNL     1       7.112   9.719  -4.868  1.00  0.00     0.020 A 
ATOM     44  C   UNL     1       8.034   9.724  -3.819  1.00  0.00     0.054 A 
BRANCH  44  45
ATOM     45  S   UNL     1       8.315  11.232  -2.852  1.00  0.00     0.124 S 
ATOM     46  O   UNL     1       7.599  10.932  -1.615  1.00  0.00    -0.237 OA
ATOM     47  O   UNL     1       9.771  11.277  -2.738  1.00  0.00    -0.237 OA
ATOM     48  O   UNL     1       7.726  12.286  -3.674  1.00  0.00    -0.744 OA
ENDBRANCH  44  45
ENDBRANCH  25  39
BRANCH  26  49
ATOM     49  C   UNL     1       5.089  -0.987 -10.082  1.00  0.00    -0.014 A 
ATOM     50  C   UNL     1       6.008  -1.982 -10.451  1.00  0.00     0.010 A 
ATOM     51  C   UNL     1       3.718  -1.187 -10.334  1.00  0.00     0.010 A 
ATOM     52  C   UNL     1       5.563  -3.165 -11.049  1.00  0.00     0.020 A 
ATOM     53  C   UNL     1       3.268  -2.377 -10.911  1.00  0.00     0.020 A 
ATOM     54  C   UNL     1       4.194  -3.358 -11.266  1.00  0.00     0.054 A 
BRANCH  54  55
ATOM     55  S   UNL     1       3.629  -4.944 -11.943  1.00  0.00     0.124 S 
ATOM     56  O   UNL     1       3.962  -4.807 -13.357  1.00  0.00    -0.237 OA
ATOM     57  O   UNL     1       4.429  -5.912 -11.195  1.00  0.00    -0.237 OA
ATOM     58  O   UNL     1       2.201  -4.958 -11.632  1.00  0.00    -0.744 OA
ENDBRANCH  54  55
ENDBRANCH  26  49
BRANCH  38  59
ATOM     59  C   UNL     1       8.474   4.838 -11.950  1.00  0.00    -0.014 A 
ATOM     60  C   UNL     1       7.667   5.302 -13.004  1.00  0.00     0.010 A 
ATOM     61  C   UNL     1       9.873   4.884 -12.086  1.00  0.00     0.010 A 
ATOM     62  C   UNL     1       8.249   5.792 -14.176  1.00  0.00     0.020 A 
ATOM     63  C   UNL     1      10.459   5.392 -13.249  1.00  0.00     0.020 A 
ATOM     64  C   UNL     1       9.642   5.836 -14.291  1.00  0.00     0.054 A 
BRANCH  64  65
ATOM     65  S   UNL     1      10.376   6.539 -15.794  1.00  0.00     0.124 S 
ATOM     66  O   UNL     1      10.177   5.464 -16.762  1.00  0.00    -0.237 OA
ATOM     67  O   UNL     1       9.573   7.740 -16.014  1.00  0.00    -0.237 OA
ATOM     68  O   UNL     1      11.766   6.789 -15.417  1.00  0.00    -0.744 OA
ENDBRANCH  64  65
ENDBRANCH  38  59
ENDBRANCH  12  13
ENDBRANCH   5   7
ENDBRANCH   2   3
ENDBRANCH   1   2
BRANCH   1  69
ATOM     69  C   UNL     1       4.510   1.231   3.964  1.00  0.00     0.023 C 
BRANCH  69  70
ATOM     70  C   UNL     1       4.909  -0.175   4.406  1.00  0.00     0.116 C 
BRANCH  70  71
ATOM     71  N   UNL     1       6.342  -0.393   4.451  1.00  0.00    -0.354 N 
ATOM     72  C   UNL     1       7.077  -1.385   5.053  1.00  0.00     0.245 C 
ATOM     73  H   UNL     1       6.876   0.280   3.971  1.00  0.00     0.163 HD
ATOM     74  O   UNL     1       8.306  -1.286   4.956  1.00  0.00    -0.272 OA
BRANCH  72  75
ATOM     75  C   UNL     1       6.421  -2.425   6.032  1.00  0.00     0.119 C 
ATOM     76  C   UNL     1       7.346  -3.643   6.287  1.00  0.00     0.038 C 
ATOM     77  C   UNL     1       6.304  -1.629   7.372  1.00  0.00     0.038 C 
ATOM     78  C   UNL     1       6.886  -4.500   7.472  1.00  0.00     0.003 C 
ATOM     79  C   UNL     1       5.908  -2.467   8.587  1.00  0.00     0.003 C 
ATOM     80  C   UNL     1       6.802  -3.686   8.757  1.00  0.00     0.000 C 
BRANCH  75  81
ATOM     81  N   UNL     1       5.079  -2.905   5.630  1.00  0.00    -0.335 N 
ATOM     82  C   UNL     1       4.651  -3.513   4.468  1.00  0.00     0.289 C 
ATOM     83  H   UNL     1       4.375  -2.766   6.303  1.00  0.00     0.165 HD
ATOM     84  O   UNL     1       3.503  -3.958   4.470  1.00  0.00    -0.266 OA
BRANCH  82  85
ATOM     85  C   UNL     1       5.438  -3.442   3.261  1.00  0.00     0.214 A 
ATOM     86  N   UNL     1       6.748  -3.482   3.118  1.00  0.00    -0.207 NA
ATOM     87  N   UNL     1       4.879  -3.172   2.043  1.00  0.00    -0.255 N 
ATOM     88  C   UNL     1       6.937  -3.032   1.833  1.00  0.00     0.154 A 
ATOM     89  N   UNL     1       5.810  -2.774   1.162  1.00  0.00    -0.158 NA
ATOM     90  H   UNL     1       3.920  -3.258   1.839  1.00  0.00     0.192 HD
BRANCH  88  91
ATOM     91  C   UNL     1       8.300  -2.743   1.231  1.00  0.00     0.060 C 
ATOM     92  C   UNL     1       9.551  -3.048   2.020  1.00  0.00     0.012 C 
ATOM     93  C   UNL     1       9.192  -3.895   0.839  1.00  0.00     0.012 C 
ENDBRANCH  88  91
ENDBRANCH  82  85
ENDBRANCH  75  81
ENDBRANCH  72  75
ENDBRANCH  70  71
ENDBRANCH  69  70
ENDBRANCH   1  69
TORSDOF 17
