REMARK SMILES Cc1ccc(C(F)(F)F)cc1/C=C/C(=O)NCCCCNC(=O)c1ccc(-c2c3nc(c(-c4ccc(S(=O)(=O)[O-])cc4)c4ccc([nH]4)c(-c4ccc(S(=O)(=O)[O-])cc4)c4nc(c(-c5ccc(S(=O)(=O)[O-])cc5)c5ccc2[nH]5)C=C4)C=C3)cc1
REMARK SMILES IDX 19 1 18 2 17 3 16 4 14 5 15 6 13 8 12 9 11 10 1 11 2 12 3 13
REMARK SMILES IDX 4 14 10 15 5 16 6 17 7 18 8 19 9 20 20 21 21 22 22 23 23 25
REMARK SMILES IDX 24 26 25 27 83 28 26 29 82 30 27 31 28 32 29 33 76 34 30 35
REMARK SMILES IDX 81 36 75 37 77 38 31 39 80 40 74 41 73 42 32 44 62 45 43 46
REMARK SMILES IDX 61 47 44 48 47 49 60 50 78 51 45 52 46 53 59 55 79 56 48 57
REMARK SMILES IDX 33 58 34 59 42 60 35 61 41 62 36 63 37 64 38 65 39 66 40 67
REMARK SMILES IDX 63 68 64 69 72 70 65 71 71 72 66 73 67 74 68 75 69 76 70 77
REMARK SMILES IDX 49 78 50 79 58 80 51 81 57 82 52 83 53 84 54 85 55 86 56 87
REMARK H PARENT 16 7 21 24 77 43 47 54
REMARK Flexibility Score: inf
ROOT
ATOM      1  C   UNL     1       4.954   4.331  -2.051  1.00  0.00     0.023 C 
ENDROOT
BRANCH   1   2
ATOM      2  C   UNL     1       4.165   3.306  -1.228  1.00  0.00     0.023 C 
BRANCH   2   3
ATOM      3  C   UNL     1       3.521   3.863   0.050  1.00  0.00     0.116 C 
BRANCH   3   4
ATOM      4  N   UNL     1       2.483   4.845  -0.230  1.00  0.00    -0.353 N 
ATOM      5  C   UNL     1       1.131   4.750  -0.115  1.00  0.00     0.243 C 
ATOM      6  O   UNL     1       0.422   5.745  -0.252  1.00  0.00    -0.270 OA
ATOM      7  H   UNL     1       2.811   5.715  -0.553  1.00  0.00     0.163 HD
BRANCH   5   8
ATOM      8  C   UNL     1       0.499   3.459   0.230  1.00  0.00     0.072 C 
ATOM      9  C   UNL     1       0.695   2.352  -0.502  1.00  0.00     0.014 C 
BRANCH   9  10
ATOM     10  C   UNL     1       0.027   1.074  -0.231  1.00  0.00    -0.022 A 
ATOM     11  C   UNL     1       2.261  -0.174  -0.082  1.00  0.00     0.045 C 
ATOM     12  C   UNL     1       0.755  -0.118  -0.058  1.00  0.00    -0.044 A 
ATOM     13  C   UNL     1       0.059  -1.327   0.102  1.00  0.00     0.004 A 
ATOM     14  C   UNL     1      -1.336  -1.355   0.115  1.00  0.00     0.013 A 
ATOM     15  C   UNL     1      -1.378   1.034  -0.213  1.00  0.00     0.021 A 
ATOM     16  C   UNL     1      -2.071  -0.173  -0.033  1.00  0.00     0.056 A 
BRANCH  16  17
ATOM     17  C   UNL     1      -3.576  -0.216  -0.035  1.00  0.00     0.416 C 
ATOM     18  F   UNL     1      -4.077  -0.842  -1.138  1.00  0.00    -0.166 F 
ATOM     19  F   UNL     1      -4.085  -0.891   1.034  1.00  0.00    -0.166 F 
ATOM     20  F   UNL     1      -4.164   1.013  -0.011  1.00  0.00    -0.166 F 
ENDBRANCH  16  17
ENDBRANCH   9  10
ENDBRANCH   5   8
ENDBRANCH   3   4
ENDBRANCH   2   3
ENDBRANCH   1   2
BRANCH   1  21
ATOM     21  C   UNL     1       6.204   4.826  -1.334  1.00  0.00     0.116 C 
BRANCH  21  22
ATOM     22  N   UNL     1       7.454   4.487  -1.993  1.00  0.00    -0.352 N 
ATOM     23  C   UNL     1       8.742   4.848  -1.604  1.00  0.00     0.251 C 
ATOM     24  H   UNL     1       7.382   3.939  -2.808  1.00  0.00     0.163 HD
ATOM     25  O   UNL     1       9.698   4.723  -2.326  1.00  0.00    -0.269 OA
BRANCH  23  26
ATOM     26  C   UNL     1       8.901   5.287  -0.195  1.00  0.00     0.039 A 
ATOM     27  C   UNL     1       9.585   4.420   0.665  1.00  0.00     0.014 A 
ATOM     28  C   UNL     1       8.147   6.345   0.301  1.00  0.00     0.014 A 
ATOM     29  C   UNL     1       9.355   4.496   2.037  1.00  0.00     0.010 A 
ATOM     30  C   UNL     1       7.844   6.356   1.650  1.00  0.00     0.010 A 
ATOM     31  C   UNL     1       8.405   5.399   2.511  1.00  0.00    -0.014 A 
BRANCH  31  32
ATOM     32  C   UNL     1       7.845   5.352   3.860  1.00  0.00     0.031 A 
ATOM     33  C   UNL     1       8.152   6.425   4.837  1.00  0.00     0.074 A 
ATOM     34  C   UNL     1       6.941   4.400   4.184  1.00  0.00     0.049 A 
ATOM     35  N   UNL     1       7.996   6.324   6.116  1.00  0.00    -0.248 NA
ATOM     36  C   UNL     1       8.739   7.698   4.432  1.00  0.00     0.031 C 
ATOM     37  C   UNL     1       6.018   4.427   5.317  1.00  0.00     0.029 A 
ATOM     38  N   UNL     1       6.815   3.101   3.683  1.00  0.00    -0.354 N 
ATOM     39  C   UNL     1       8.126   7.591   6.645  1.00  0.00     0.074 A 
ATOM     40  C   UNL     1       8.707   8.376   5.582  1.00  0.00     0.031 C 
ATOM     41  C   UNL     1       5.666   3.168   5.614  1.00  0.00     0.029 A 
ATOM     42  C   UNL     1       6.467   2.291   4.778  1.00  0.00     0.049 A 
ATOM     43  H   UNL     1       6.944   2.812   2.751  1.00  0.00     0.167 HD
ATOM     44  C   UNL     1       7.573   7.877   7.860  1.00  0.00     0.031 A 
ATOM     45  C   UNL     1       7.209   1.237   5.228  1.00  0.00     0.031 A 
ATOM     46  C   UNL     1       7.078   6.673   8.530  1.00  0.00     0.049 A 
ATOM     47  C   UNL     1       7.609   1.365   6.682  1.00  0.00     0.074 A 
ATOM     48  C   UNL     1       5.811   6.149   8.728  1.00  0.00     0.029 A 
ATOM     49  N   UNL     1       7.976   5.672   8.886  1.00  0.00    -0.354 N 
ATOM     50  N   UNL     1       7.498   2.468   7.367  1.00  0.00    -0.248 NA
ATOM     51  C   UNL     1       8.214   0.288   7.463  1.00  0.00     0.031 C 
ATOM     52  C   UNL     1       5.954   4.792   9.119  1.00  0.00     0.029 A 
ATOM     53  C   UNL     1       7.305   4.503   9.187  1.00  0.00     0.049 A 
ATOM     54  H   UNL     1       8.954   5.782   8.918  1.00  0.00     0.167 HD
ATOM     55  C   UNL     1       8.007   2.286   8.625  1.00  0.00     0.074 A 
ATOM     56  C   UNL     1       8.429   0.897   8.644  1.00  0.00     0.031 C 
ATOM     57  C   UNL     1       8.048   3.299   9.538  1.00  0.00     0.031 A 
BRANCH  44  58
ATOM     58  C   UNL     1       7.199   9.286   8.296  1.00  0.00    -0.014 A 
ATOM     59  C   UNL     1       6.179   9.474   9.254  1.00  0.00     0.010 A 
ATOM     60  C   UNL     1       7.733  10.465   7.742  1.00  0.00     0.010 A 
ATOM     61  C   UNL     1       5.649  10.743   9.548  1.00  0.00     0.020 A 
ATOM     62  C   UNL     1       7.198  11.736   8.001  1.00  0.00     0.020 A 
ATOM     63  C   UNL     1       6.142  11.867   8.891  1.00  0.00     0.054 A 
BRANCH  63  64
ATOM     64  S   UNL     1       5.388  13.485   9.194  1.00  0.00     0.124 S 
ATOM     65  O   UNL     1       3.991  13.254   8.834  1.00  0.00    -0.237 OA
ATOM     66  O   UNL     1       5.648  13.692  10.616  1.00  0.00    -0.237 OA
ATOM     67  O   UNL     1       6.114  14.380   8.295  1.00  0.00    -0.744 OA
ENDBRANCH  63  64
ENDBRANCH  44  58
BRANCH  45  68
ATOM     68  C   UNL     1       8.007   0.552   4.177  1.00  0.00    -0.014 A 
ATOM     69  C   UNL     1       7.293  -0.207   3.226  1.00  0.00     0.010 A 
ATOM     70  C   UNL     1       9.301   1.003   3.864  1.00  0.00     0.010 A 
ATOM     71  C   UNL     1       7.779  -0.346   1.925  1.00  0.00     0.020 A 
ATOM     72  C   UNL     1       9.792   0.860   2.558  1.00  0.00     0.020 A 
ATOM     73  C   UNL     1       8.993   0.252   1.585  1.00  0.00     0.054 A 
BRANCH  73  74
ATOM     74  S   UNL     1       9.388   0.415  -0.182  1.00  0.00     0.124 S 
ATOM     75  O   UNL     1       9.364  -0.972  -0.637  1.00  0.00    -0.237 OA
ATOM     76  O   UNL     1       8.285   1.252  -0.652  1.00  0.00    -0.237 OA
ATOM     77  O   UNL     1      10.700   1.055  -0.173  1.00  0.00    -0.744 OA
ENDBRANCH  73  74
ENDBRANCH  45  68
BRANCH  57  78
ATOM     78  C   UNL     1       8.731   3.245  10.880  1.00  0.00    -0.014 A 
ATOM     79  C   UNL     1       9.844   2.439  11.164  1.00  0.00     0.010 A 
ATOM     80  C   UNL     1       8.319   4.152  11.886  1.00  0.00     0.010 A 
ATOM     81  C   UNL     1      10.482   2.494  12.412  1.00  0.00     0.020 A 
ATOM     82  C   UNL     1       8.971   4.243  13.118  1.00  0.00     0.020 A 
ATOM     83  C   UNL     1      10.039   3.394  13.383  1.00  0.00     0.054 A 
BRANCH  83  84
ATOM     84  S   UNL     1      10.909   3.515  14.967  1.00  0.00     0.124 S 
ATOM     85  O   UNL     1      10.189   2.538  15.781  1.00  0.00    -0.237 OA
ATOM     86  O   UNL     1      12.281   3.150  14.620  1.00  0.00    -0.237 OA
ATOM     87  O   UNL     1      10.723   4.912  15.351  1.00  0.00    -0.744 OA
ENDBRANCH  83  84
ENDBRANCH  57  78
ENDBRANCH  31  32
ENDBRANCH  23  26
ENDBRANCH  21  22
ENDBRANCH   1  21
TORSDOF 16
