REMARK SMILES Cc1n[nH]c(C(=O)Nc2cc(C(=O)NCCCCNC(=O)c3ccc(-c4c5nc(c(-c6ccc(S(=O)(=O)[O-])cc6)c6ccc([nH]6)c(-c6ccc(S(=O)(=O)[O-])cc6)c6nc(c(-c7ccc(S(=O)(=O)[O-])cc7)c7ccc4[nH]7)C=C6)C=C5)cc3)[nH]n2)n1
REMARK SMILES IDX 17 1 16 2 15 3 14 4 12 5 13 6 11 8 9 9 10 10 83 11 82 12
REMARK SMILES IDX 8 14 6 15 7 16 5 18 1 19 2 20 3 21 84 22 4 23 18 25 19 26
REMARK SMILES IDX 20 27 21 29 22 30 23 31 81 32 24 33 80 34 25 35 26 36 27 37
REMARK SMILES IDX 74 38 28 39 79 40 73 41 75 42 29 43 78 44 72 45 71 46 30 48
REMARK SMILES IDX 60 49 41 50 59 51 42 52 45 53 58 54 76 55 43 56 44 57 57 59
REMARK SMILES IDX 77 60 46 61 31 62 32 63 40 64 33 65 39 66 34 67 35 68 36 69
REMARK SMILES IDX 37 70 38 71 61 72 62 73 70 74 63 75 69 76 64 77 65 78 66 79
REMARK SMILES IDX 67 80 68 81 47 82 48 83 56 84 49 85 55 86 50 87 51 88 52 89
REMARK SMILES IDX 53 90 54 91
REMARK H PARENT 14 7 82 13 8 17 4 24 19 28 75 47 45 58
REMARK Flexibility Score: inf
ROOT
ATOM      1  C   UNL     1      -5.246   2.780   3.136  1.00  0.00     0.023 C 
ENDROOT
BRANCH   1   2
ATOM      2  C   UNL     1      -4.009   3.337   2.416  1.00  0.00     0.023 C 
BRANCH   2   3
ATOM      3  C   UNL     1      -3.796   2.804   0.996  1.00  0.00     0.116 C 
BRANCH   3   4
ATOM      4  N   UNL     1      -4.729   3.394   0.052  1.00  0.00    -0.351 N 
ATOM      5  C   UNL     1      -4.615   4.459  -0.809  1.00  0.00     0.269 C 
ATOM      6  O   UNL     1      -5.560   4.710  -1.539  1.00  0.00    -0.268 OA
ATOM      7  H   UNL     1      -5.606   2.949   0.025  1.00  0.00     0.163 HD
BRANCH   5   8
ATOM      8  C   UNL     1      -3.389   5.210  -0.897  1.00  0.00     0.125 A 
ATOM      9  C   UNL     1      -1.317   5.988  -0.931  1.00  0.00     0.155 A 
ATOM     10  C   UNL     1      -2.263   5.340  -0.114  1.00  0.00     0.082 A 
ATOM     11  N   UNL     1      -1.887   6.521  -2.005  1.00  0.00    -0.157 NA
ATOM     12  N   UNL     1      -3.143   6.028  -1.975  1.00  0.00    -0.271 N 
ATOM     13  H   UNL     1      -3.819   6.234  -2.661  1.00  0.00     0.190 HD
BRANCH   9  14
ATOM     14  N   UNL     1       0.036   6.052  -0.742  1.00  0.00    -0.302 N 
ATOM     15  C   UNL     1       0.849   5.085  -0.180  1.00  0.00     0.294 C 
ATOM     16  O   UNL     1       1.932   5.458   0.277  1.00  0.00    -0.265 OA
ATOM     17  H   UNL     1       0.480   6.879  -1.039  1.00  0.00     0.172 HD
BRANCH  15  18
ATOM     18  C   UNL     1       0.467   3.675  -0.275  1.00  0.00     0.214 A 
ATOM     19  C   UNL     1       0.942   0.182   0.160  1.00  0.00     0.092 C 
ATOM     20  C   UNL     1       0.480   1.551  -0.153  1.00  0.00     0.148 A 
ATOM     21  N   UNL     1      -0.526   1.791  -0.997  1.00  0.00    -0.159 NA
ATOM     22  N   UNL     1       1.079   2.680   0.350  1.00  0.00    -0.207 NA
ATOM     23  N   UNL     1      -0.454   3.122  -1.124  1.00  0.00    -0.255 N 
ATOM     24  H   UNL     1      -1.001   3.643  -1.756  1.00  0.00     0.192 HD
ENDBRANCH  15  18
ENDBRANCH   9  14
ENDBRANCH   5   8
ENDBRANCH   3   4
ENDBRANCH   2   3
ENDBRANCH   1   2
BRANCH   1  25
ATOM     25  C   UNL     1      -5.210   1.278   3.399  1.00  0.00     0.116 C 
BRANCH  25  26
ATOM     26  N   UNL     1      -4.113   0.872   4.280  1.00  0.00    -0.352 N 
ATOM     27  C   UNL     1      -3.703  -0.418   4.577  1.00  0.00     0.251 C 
ATOM     28  H   UNL     1      -3.609   1.599   4.712  1.00  0.00     0.163 HD
ATOM     29  O   UNL     1      -3.095  -0.664   5.612  1.00  0.00    -0.269 OA
BRANCH  27  30
ATOM     30  C   UNL     1      -4.001  -1.484   3.604  1.00  0.00     0.039 A 
ATOM     31  C   UNL     1      -4.457  -2.746   3.992  1.00  0.00     0.014 A 
ATOM     32  C   UNL     1      -3.862  -1.159   2.259  1.00  0.00     0.014 A 
ATOM     33  C   UNL     1      -4.857  -3.643   3.001  1.00  0.00     0.010 A 
ATOM     34  C   UNL     1      -4.424  -1.964   1.305  1.00  0.00     0.010 A 
ATOM     35  C   UNL     1      -4.863  -3.233   1.656  1.00  0.00    -0.014 A 
BRANCH  35  36
ATOM     36  C   UNL     1      -5.425  -4.073   0.604  1.00  0.00     0.031 A 
ATOM     37  C   UNL     1      -6.805  -4.560   0.872  1.00  0.00     0.074 A 
ATOM     38  C   UNL     1      -4.848  -4.232  -0.609  1.00  0.00     0.049 A 
ATOM     39  N   UNL     1      -7.157  -5.763   1.179  1.00  0.00    -0.248 NA
ATOM     40  C   UNL     1      -7.900  -3.580   0.963  1.00  0.00     0.031 C 
ATOM     41  C   UNL     1      -3.648  -3.586  -1.157  1.00  0.00     0.029 A 
ATOM     42  N   UNL     1      -5.298  -4.948  -1.672  1.00  0.00    -0.354 N 
ATOM     43  C   UNL     1      -8.544  -5.749   1.271  1.00  0.00     0.074 A 
ATOM     44  C   UNL     1      -8.925  -4.359   1.319  1.00  0.00     0.031 C 
ATOM     45  C   UNL     1      -3.620  -3.738  -2.501  1.00  0.00     0.029 A 
ATOM     46  C   UNL     1      -4.686  -4.645  -2.885  1.00  0.00     0.049 A 
ATOM     47  H   UNL     1      -6.004  -5.629  -1.591  1.00  0.00     0.167 HD
ATOM     48  C   UNL     1      -9.279  -6.876   1.056  1.00  0.00     0.031 A 
ATOM     49  C   UNL     1      -5.047  -5.101  -4.113  1.00  0.00     0.031 A 
ATOM     50  C   UNL     1      -8.445  -8.053   1.026  1.00  0.00     0.049 A 
ATOM     51  C   UNL     1      -5.833  -6.340  -3.887  1.00  0.00     0.074 A 
ATOM     52  C   UNL     1      -7.567  -8.640   1.917  1.00  0.00     0.029 A 
ATOM     53  N   UNL     1      -8.118  -8.557  -0.213  1.00  0.00    -0.354 N 
ATOM     54  N   UNL     1      -5.316  -7.426  -3.384  1.00  0.00    -0.248 NA
ATOM     55  C   UNL     1      -7.277  -6.215  -3.754  1.00  0.00     0.031 C 
ATOM     56  C   UNL     1      -6.457  -9.042   1.117  1.00  0.00     0.029 A 
ATOM     57  C   UNL     1      -6.762  -8.767  -0.218  1.00  0.00     0.049 A 
ATOM     58  H   UNL     1      -8.739  -8.733  -0.955  1.00  0.00     0.167 HD
ATOM     59  C   UNL     1      -6.272  -7.894  -2.495  1.00  0.00     0.074 A 
ATOM     60  C   UNL     1      -7.492  -7.156  -2.829  1.00  0.00     0.031 C 
ATOM     61  C   UNL     1      -5.924  -8.619  -1.390  1.00  0.00     0.031 A 
BRANCH  48  62
ATOM     62  C   UNL     1     -10.670  -6.883   0.472  1.00  0.00    -0.014 A 
ATOM     63  C   UNL     1     -11.343  -8.116   0.345  1.00  0.00     0.010 A 
ATOM     64  C   UNL     1     -11.223  -5.778  -0.206  1.00  0.00     0.010 A 
ATOM     65  C   UNL     1     -12.465  -8.251  -0.482  1.00  0.00     0.020 A 
ATOM     66  C   UNL     1     -12.367  -5.893  -1.000  1.00  0.00     0.020 A 
ATOM     67  C   UNL     1     -12.960  -7.138  -1.161  1.00  0.00     0.054 A 
BRANCH  67  68
ATOM     68  S   UNL     1     -14.346  -7.345  -2.305  1.00  0.00     0.124 S 
ATOM     69  O   UNL     1     -13.756  -8.184  -3.342  1.00  0.00    -0.237 OA
ATOM     70  O   UNL     1     -15.348  -7.989  -1.460  1.00  0.00    -0.237 OA
ATOM     71  O   UNL     1     -14.664  -5.977  -2.707  1.00  0.00    -0.744 OA
ENDBRANCH  67  68
ENDBRANCH  48  62
BRANCH  49  72
ATOM     72  C   UNL     1      -5.042  -4.385  -5.417  1.00  0.00    -0.014 A 
ATOM     73  C   UNL     1      -5.311  -5.074  -6.617  1.00  0.00     0.010 A 
ATOM     74  C   UNL     1      -5.085  -2.977  -5.453  1.00  0.00     0.010 A 
ATOM     75  C   UNL     1      -5.699  -4.386  -7.781  1.00  0.00     0.020 A 
ATOM     76  C   UNL     1      -5.465  -2.283  -6.611  1.00  0.00     0.020 A 
ATOM     77  C   UNL     1      -5.804  -2.993  -7.761  1.00  0.00     0.054 A 
BRANCH  77  78
ATOM     78  S   UNL     1      -6.523  -2.127  -9.191  1.00  0.00     0.124 S 
ATOM     79  O   UNL     1      -5.476  -2.262 -10.198  1.00  0.00    -0.237 OA
ATOM     80  O   UNL     1      -7.744  -2.887  -9.442  1.00  0.00    -0.237 OA
ATOM     81  O   UNL     1      -6.737  -0.767  -8.696  1.00  0.00    -0.744 OA
ENDBRANCH  77  78
ENDBRANCH  49  72
BRANCH  61  82
ATOM     82  C   UNL     1      -4.503  -9.123  -1.263  1.00  0.00    -0.014 A 
ATOM     83  C   UNL     1      -3.366  -8.289  -1.222  1.00  0.00     0.010 A 
ATOM     84  C   UNL     1      -4.331 -10.495  -1.008  1.00  0.00     0.010 A 
ATOM     85  C   UNL     1      -2.093  -8.823  -0.959  1.00  0.00     0.020 A 
ATOM     86  C   UNL     1      -3.072 -11.028  -0.727  1.00  0.00     0.020 A 
ATOM     87  C   UNL     1      -1.955 -10.193  -0.713  1.00  0.00     0.054 A 
BRANCH  87  88
ATOM     88  S   UNL     1      -0.317 -10.879  -0.337  1.00  0.00     0.124 S 
ATOM     89  O   UNL     1       0.388 -10.730  -1.607  1.00  0.00    -0.237 OA
ATOM     90  O   UNL     1       0.154 -10.023   0.749  1.00  0.00    -0.237 OA
ATOM     91  O   UNL     1      -0.600 -12.260   0.053  1.00  0.00    -0.744 OA
ENDBRANCH  87  88
ENDBRANCH  61  82
ENDBRANCH  35  36
ENDBRANCH  27  30
ENDBRANCH  25  26
ENDBRANCH   1  25
TORSDOF 16
