REMARK SMILES Cc1ccccc1OC1(C(=O)NCCCCNC(=O)c2ccc(-c3c4nc(c(-c5ccc(S(=O)(=O)[O-])cc5)c5ccc([nH]5)c(-c5ccc(S(=O)(=O)[O-])cc5)c5nc(c(-c6ccc(S(=O)(=O)[O-])cc6)c6ccc3[nH]6)C=C5)C=C4)cc2)CCN(C(=O)[C@H]2CCCCO2)CC1
REMARK SMILES IDX 15 1 14 2 13 3 12 4 10 5 11 6 9 8 80 9 92 10 81 11 91 12
REMARK SMILES IDX 82 13 83 14 84 15 8 16 7 17 1 18 2 19 3 20 4 21 6 22 5 23
REMARK SMILES IDX 85 24 86 25 90 26 87 27 89 28 88 29 16 30 17 31 18 32 19 34
REMARK SMILES IDX 20 35 21 36 79 37 22 38 78 39 23 40 24 41 25 42 72 43 26 44
REMARK SMILES IDX 77 45 71 46 73 47 27 48 76 49 70 50 69 51 28 53 58 54 39 55
REMARK SMILES IDX 57 56 40 57 43 58 56 59 74 60 41 61 42 62 55 64 75 65 44 66
REMARK SMILES IDX 29 67 30 68 38 69 31 70 37 71 32 72 33 73 34 74 35 75 36 76
REMARK SMILES IDX 59 77 60 78 68 79 61 80 67 81 62 82 63 83 64 84 65 85 66 86
REMARK SMILES IDX 45 87 46 88 54 89 47 90 53 91 48 92 49 93 50 94 51 95 52 96
REMARK H PARENT 12 7 17 33 73 52 43 63
REMARK Flexibility Score: inf
ROOT
ATOM      1  C   UNL     1      10.335  -4.716  -3.325  1.00  0.00     0.023 C 
ENDROOT
BRANCH   1   2
ATOM      2  C   UNL     1       9.184  -4.335  -2.400  1.00  0.00     0.023 C 
BRANCH   2   3
ATOM      3  C   UNL     1       7.802  -4.263  -3.065  1.00  0.00     0.116 C 
BRANCH   3   4
ATOM      4  N   UNL     1       7.214  -5.566  -3.318  1.00  0.00    -0.353 N 
ATOM      5  C   UNL     1       6.237  -6.303  -2.715  1.00  0.00     0.264 C 
ATOM      6  O   UNL     1       5.961  -7.349  -3.321  1.00  0.00    -0.270 OA
ATOM      7  H   UNL     1       7.608  -6.019  -4.098  1.00  0.00     0.163 HD
BRANCH   5   8
ATOM      8  C   UNL     1       5.517  -5.912  -1.359  1.00  0.00     0.190 C 
ATOM      9  C   UNL     1       6.564  -5.901  -0.251  1.00  0.00     0.080 C 
ATOM     10  C   UNL     1       4.644  -4.670  -1.576  1.00  0.00     0.080 C 
ATOM     11  C   UNL     1       6.970  -4.529   0.252  1.00  0.00     0.124 C 
ATOM     12  C   UNL     1       5.066  -3.381  -0.870  1.00  0.00     0.124 C 
ATOM     13  N   UNL     1       5.891  -3.560   0.322  1.00  0.00    -0.340 N 
ATOM     14  C   UNL     1       5.931  -2.668   1.401  1.00  0.00     0.251 C 
ATOM     15  O   UNL     1       6.747  -2.817   2.317  1.00  0.00    -0.272 OA
BRANCH   8  16
ATOM     16  O   UNL     1       4.660  -7.085  -1.195  1.00  0.00    -0.477 OA
BRANCH  16  17
ATOM     17  C   UNL     1       3.703  -7.442  -0.299  1.00  0.00     0.123 A 
ATOM     18  C   UNL     1       3.957  -5.790   1.678  1.00  0.00     0.048 C 
ATOM     19  C   UNL     1       3.335  -6.940   0.957  1.00  0.00    -0.009 A 
ATOM     20  C   UNL     1       2.311  -7.591   1.692  1.00  0.00     0.007 A 
ATOM     21  C   UNL     1       1.634  -8.697   1.194  1.00  0.00     0.001 A 
ATOM     22  C   UNL     1       2.999  -8.568  -0.778  1.00  0.00     0.047 A 
ATOM     23  C   UNL     1       1.976  -9.186  -0.053  1.00  0.00     0.004 A 
ENDBRANCH  16  17
ENDBRANCH   8  16
BRANCH  14  24
ATOM     24  C   UNL     1       4.876  -1.544   1.476  1.00  0.00     0.207 C 
ATOM     25  C   UNL     1       3.627  -2.128   2.151  1.00  0.00     0.042 C 
ATOM     26  O   UNL     1       5.411  -0.461   2.246  1.00  0.00    -0.368 OA
ATOM     27  C   UNL     1       2.622  -1.056   2.550  1.00  0.00     0.006 C 
ATOM     28  C   UNL     1       4.483   0.593   2.459  1.00  0.00     0.161 C 
ATOM     29  C   UNL     1       3.313   0.084   3.284  1.00  0.00     0.029 C 
ENDBRANCH  14  24
ENDBRANCH   5   8
ENDBRANCH   3   4
ENDBRANCH   2   3
ENDBRANCH   1   2
BRANCH   1  30
ATOM     30  C   UNL     1      10.656  -3.634  -4.350  1.00  0.00     0.116 C 
BRANCH  30  31
ATOM     31  N   UNL     1      11.952  -2.998  -4.162  1.00  0.00    -0.352 N 
ATOM     32  C   UNL     1      12.584  -2.111  -5.020  1.00  0.00     0.251 C 
ATOM     33  H   UNL     1      12.434  -3.223  -3.333  1.00  0.00     0.163 HD
ATOM     34  O   UNL     1      13.754  -1.791  -4.881  1.00  0.00    -0.269 OA
BRANCH  32  35
ATOM     35  C   UNL     1      11.746  -1.473  -6.058  1.00  0.00     0.039 A 
ATOM     36  C   UNL     1      11.466  -0.110  -5.909  1.00  0.00     0.014 A 
ATOM     37  C   UNL     1      11.023  -2.261  -6.949  1.00  0.00     0.014 A 
ATOM     38  C   UNL     1      10.327   0.422  -6.507  1.00  0.00     0.010 A 
ATOM     39  C   UNL     1       9.837  -1.759  -7.449  1.00  0.00     0.010 A 
ATOM     40  C   UNL     1       9.460  -0.433  -7.185  1.00  0.00    -0.014 A 
BRANCH  40  41
ATOM     41  C   UNL     1       8.102  -0.068  -7.579  1.00  0.00     0.031 A 
ATOM     42  C   UNL     1       7.763   0.086  -9.015  1.00  0.00     0.074 A 
ATOM     43  C   UNL     1       7.122   0.020  -6.650  1.00  0.00     0.049 A 
ATOM     44  N   UNL     1       6.714   0.693  -9.465  1.00  0.00    -0.248 NA
ATOM     45  C   UNL     1       8.649  -0.381 -10.077  1.00  0.00     0.031 C 
ATOM     46  C   UNL     1       5.683   0.003  -6.901  1.00  0.00     0.029 A 
ATOM     47  N   UNL     1       7.221   0.373  -5.301  1.00  0.00    -0.354 N 
ATOM     48  C   UNL     1       6.620   0.411 -10.811  1.00  0.00     0.074 A 
ATOM     49  C   UNL     1       7.903  -0.150 -11.159  1.00  0.00     0.031 C 
ATOM     50  C   UNL     1       5.062   0.614  -5.881  1.00  0.00     0.029 A 
ATOM     51  C   UNL     1       6.095   1.167  -5.022  1.00  0.00     0.049 A 
ATOM     52  H   UNL     1       7.935   0.117  -4.674  1.00  0.00     0.167 HD
ATOM     53  C   UNL     1       5.417   0.531 -11.444  1.00  0.00     0.031 A 
ATOM     54  C   UNL     1       6.148   2.462  -4.591  1.00  0.00     0.031 A 
ATOM     55  C   UNL     1       4.428   1.205 -10.600  1.00  0.00     0.049 A 
ATOM     56  C   UNL     1       5.406   3.425  -5.493  1.00  0.00     0.074 A 
ATOM     57  C   UNL     1       3.338   0.763  -9.868  1.00  0.00     0.029 A 
ATOM     58  N   UNL     1       4.659   2.518 -10.204  1.00  0.00    -0.354 N 
ATOM     59  N   UNL     1       4.975   3.118  -6.684  1.00  0.00    -0.248 NA
ATOM     60  C   UNL     1       5.140   4.822  -5.153  1.00  0.00     0.031 C 
ATOM     61  C   UNL     1       2.977   1.792  -8.957  1.00  0.00     0.029 A 
ATOM     62  C   UNL     1       3.824   2.866  -9.159  1.00  0.00     0.049 A 
ATOM     63  H   UNL     1       5.326   3.117 -10.611  1.00  0.00     0.167 HD
ATOM     64  C   UNL     1       4.416   4.219  -7.275  1.00  0.00     0.074 A 
ATOM     65  C   UNL     1       4.522   5.258  -6.266  1.00  0.00     0.031 C 
ATOM     66  C   UNL     1       3.929   4.186  -8.550  1.00  0.00     0.031 A 
BRANCH  53  67
ATOM     67  C   UNL     1       5.060  -0.231 -12.711  1.00  0.00    -0.014 A 
ATOM     68  C   UNL     1       3.705  -0.481 -13.020  1.00  0.00     0.010 A 
ATOM     69  C   UNL     1       5.997  -0.816 -13.584  1.00  0.00     0.010 A 
ATOM     70  C   UNL     1       3.320  -1.345 -14.062  1.00  0.00     0.020 A 
ATOM     71  C   UNL     1       5.633  -1.699 -14.612  1.00  0.00     0.020 A 
ATOM     72  C   UNL     1       4.293  -1.975 -14.833  1.00  0.00     0.054 A 
BRANCH  72  73
ATOM     73  S   UNL     1       3.800  -3.165 -16.107  1.00  0.00     0.124 S 
ATOM     74  O   UNL     1       3.052  -4.156 -15.338  1.00  0.00    -0.237 OA
ATOM     75  O   UNL     1       3.009  -2.342 -17.017  1.00  0.00    -0.237 OA
ATOM     76  O   UNL     1       5.072  -3.640 -16.649  1.00  0.00    -0.744 OA
ENDBRANCH  72  73
ENDBRANCH  53  67
BRANCH  54  77
ATOM     77  C   UNL     1       7.357   2.795  -3.791  1.00  0.00    -0.014 A 
ATOM     78  C   UNL     1       7.449   2.228  -2.502  1.00  0.00     0.010 A 
ATOM     79  C   UNL     1       8.529   3.237  -4.430  1.00  0.00     0.010 A 
ATOM     80  C   UNL     1       8.694   1.926  -1.950  1.00  0.00     0.020 A 
ATOM     81  C   UNL     1       9.781   2.940  -3.873  1.00  0.00     0.020 A 
ATOM     82  C   UNL     1       9.849   2.220  -2.676  1.00  0.00     0.054 A 
BRANCH  82  83
ATOM     83  S   UNL     1      11.405   1.441  -2.148  1.00  0.00     0.124 S 
ATOM     84  O   UNL     1      11.539   1.910  -0.773  1.00  0.00    -0.237 OA
ATOM     85  O   UNL     1      11.088   0.023  -2.309  1.00  0.00    -0.237 OA
ATOM     86  O   UNL     1      12.381   1.973  -3.094  1.00  0.00    -0.744 OA
ENDBRANCH  82  83
ENDBRANCH  54  77
BRANCH  66  87
ATOM     87  C   UNL     1       3.443   5.378  -9.338  1.00  0.00    -0.014 A 
ATOM     88  C   UNL     1       3.896   6.692  -9.140  1.00  0.00     0.010 A 
ATOM     89  C   UNL     1       2.575   5.155 -10.434  1.00  0.00     0.010 A 
ATOM     90  C   UNL     1       3.457   7.744  -9.959  1.00  0.00     0.020 A 
ATOM     91  C   UNL     1       2.165   6.189 -11.281  1.00  0.00     0.020 A 
ATOM     92  C   UNL     1       2.591   7.486 -11.022  1.00  0.00     0.054 A 
BRANCH  92  93
ATOM     93  S   UNL     1       2.082   8.832 -12.123  1.00  0.00     0.124 S 
ATOM     94  O   UNL     1       0.854   9.294 -11.483  1.00  0.00    -0.237 OA
ATOM     95  O   UNL     1       3.210   9.759 -12.055  1.00  0.00    -0.237 OA
ATOM     96  O   UNL     1       1.909   8.167 -13.412  1.00  0.00    -0.744 OA
ENDBRANCH  92  93
ENDBRANCH  66  87
ENDBRANCH  40  41
ENDBRANCH  32  35
ENDBRANCH  30  31
ENDBRANCH   1  30
TORSDOF 17
