REMARK SMILES CC(=O)c1ccc(N2/C(=[NH+]/C(=O)CCC(=O)NCCCCNC(=O)c3ccc(-c4c5nc(c(-c6ccc(S(=O)(=O)[O-])cc6)c6ccc([nH]6)c(-c6ccc(S(=O)(=O)[O-])cc6)c6nc(c(-c7ccc(S(=O)(=O)[O-])cc7)c7ccc4[nH]7)C=C6)C=C5)cc3)S[C@H]3CS(=O)(=O)C[C@@H]32)cc1
REMARK SMILES IDX 19 1 18 2 17 3 15 4 16 5 14 7 13 8 11 9 8 10 9 11 92 12
REMARK SMILES IDX 10 13 85 14 86 15 91 16 87 18 88 19 12 20 89 21 90 22 7 23
REMARK SMILES IDX 4 24 5 25 94 26 6 27 93 28 2 29 1 30 3 31 20 32 21 33 22 34
REMARK SMILES IDX 23 35 24 37 25 38 26 39 84 40 27 41 83 42 28 43 29 44 30 45
REMARK SMILES IDX 77 46 31 47 82 48 76 49 78 50 32 51 81 52 75 53 74 54 33 56
REMARK SMILES IDX 63 57 44 58 62 59 45 60 48 61 61 62 79 63 46 64 47 65 60 67
REMARK SMILES IDX 80 68 49 69 34 70 35 71 43 72 36 73 42 74 37 75 38 76 39 77
REMARK SMILES IDX 40 78 41 79 64 80 65 81 73 82 66 83 72 84 67 85 68 86 69 87
REMARK SMILES IDX 70 88 71 89 50 90 51 91 59 92 52 93 58 94 53 95 54 96 55 97
REMARK SMILES IDX 56 98 57 99
REMARK H PARENT 17 6 10 17 22 36 78 55 48 66
REMARK Flexibility Score: inf
ROOT
ATOM      1  C   UNL     1       5.923  -1.543   6.445  1.00  0.00     0.023 C 
ENDROOT
BRANCH   1   2
ATOM      2  C   UNL     1       6.918  -0.515   5.894  1.00  0.00     0.116 C 
BRANCH   2   3
ATOM      3  N   UNL     1       6.340   0.795   5.608  1.00  0.00    -0.356 N 
ATOM      4  C   UNL     1       6.005   1.834   6.418  1.00  0.00     0.220 C 
ATOM      5  O   UNL     1       5.564   2.861   5.899  1.00  0.00    -0.275 OA
ATOM      6  H   UNL     1       6.160   0.955   4.654  1.00  0.00     0.163 HD
BRANCH   4   7
ATOM      7  C   UNL     1       6.176   1.737   7.912  1.00  0.00     0.112 C 
BRANCH   7   8
ATOM      8  C   UNL     1       4.828   1.940   8.608  1.00  0.00     0.138 C 
BRANCH   8   9
ATOM      9  C   UNL     1       4.165   0.597   8.782  1.00  0.00     0.308 C 
ATOM     10  N   UNL     1       1.226  -1.168   7.355  1.00  0.00    -0.217 N 
ATOM     11  C   UNL     1       2.309  -0.681   8.140  1.00  0.00     0.319 C 
ATOM     12  C   UNL     1       0.654  -2.418   7.930  1.00  0.00     0.212 C 
ATOM     13  N   UNL     1       3.077   0.348   7.960  1.00  0.00    -0.204 N 
ATOM     14  S   UNL     1       2.540  -1.837   9.517  1.00  0.00    -0.029 SA
ATOM     15  C   UNL     1       1.892  -3.142   8.492  1.00  0.00     0.120 C 
ATOM     16  C   UNL     1       0.026  -3.501   7.085  1.00  0.00     0.188 C 
ATOM     17  H   UNL     1       2.882   0.969   7.221  1.00  0.00     0.316 HD
ATOM     18  C   UNL     1       1.512  -4.450   9.128  1.00  0.00     0.156 C 
ATOM     19  S   UNL     1       0.038  -4.902   8.234  1.00  0.00     0.155 S 
ATOM     20  O   UNL     1       4.730  -0.196   9.537  1.00  0.00    -0.247 OA
ATOM     21  O   UNL     1       0.271  -6.141   7.525  1.00  0.00    -0.229 OA
ATOM     22  O   UNL     1      -1.077  -4.749   9.140  1.00  0.00    -0.229 OA
BRANCH  10  23
ATOM     23  C   UNL     1       0.802  -0.712   6.090  1.00  0.00     0.128 A 
ATOM     24  C   UNL     1       0.031  -0.004   3.409  1.00  0.00     0.018 A 
ATOM     25  C   UNL     1      -0.927  -0.280   4.391  1.00  0.00     0.016 A 
ATOM     26  C   UNL     1       1.368  -0.026   3.777  1.00  0.00     0.016 A 
ATOM     27  C   UNL     1      -0.544  -0.665   5.698  1.00  0.00     0.052 A 
ATOM     28  C   UNL     1       1.716  -0.299   5.113  1.00  0.00     0.052 A 
BRANCH  24  29
ATOM     29  C   UNL     1      -0.396   0.432   2.047  1.00  0.00     0.159 C 
ATOM     30  C   UNL     1       0.430   0.038   0.843  1.00  0.00     0.093 C 
ATOM     31  O   UNL     1      -1.420   1.100   1.932  1.00  0.00    -0.295 OA
ENDBRANCH  24  29
ENDBRANCH  10  23
ENDBRANCH   8   9
ENDBRANCH   7   8
ENDBRANCH   4   7
ENDBRANCH   2   3
ENDBRANCH   1   2
BRANCH   1  32
ATOM     32  C   UNL     1       4.677  -1.705   5.582  1.00  0.00     0.023 C 
BRANCH  32  33
ATOM     33  C   UNL     1       4.598  -2.869   4.606  1.00  0.00     0.116 C 
BRANCH  33  34
ATOM     34  N   UNL     1       4.171  -4.103   5.239  1.00  0.00    -0.352 N 
ATOM     35  C   UNL     1       3.103  -4.957   5.091  1.00  0.00     0.251 C 
ATOM     36  H   UNL     1       4.793  -4.399   5.942  1.00  0.00     0.163 HD
ATOM     37  O   UNL     1       3.072  -5.891   5.897  1.00  0.00    -0.269 OA
BRANCH  35  38
ATOM     38  C   UNL     1       1.957  -4.791   4.135  1.00  0.00     0.039 A 
ATOM     39  C   UNL     1       0.782  -5.525   4.407  1.00  0.00     0.014 A 
ATOM     40  C   UNL     1       1.942  -3.970   3.012  1.00  0.00     0.014 A 
ATOM     41  C   UNL     1      -0.402  -5.346   3.675  1.00  0.00     0.010 A 
ATOM     42  C   UNL     1       0.761  -3.779   2.276  1.00  0.00     0.010 A 
ATOM     43  C   UNL     1      -0.423  -4.459   2.602  1.00  0.00    -0.014 A 
BRANCH  43  44
ATOM     44  C   UNL     1      -1.562  -4.430   1.646  1.00  0.00     0.031 A 
ATOM     45  C   UNL     1      -1.394  -5.181   0.352  1.00  0.00     0.074 A 
ATOM     46  C   UNL     1      -2.704  -3.757   1.889  1.00  0.00     0.049 A 
ATOM     47  N   UNL     1      -2.155  -5.194  -0.709  1.00  0.00    -0.248 NA
ATOM     48  C   UNL     1      -0.186  -6.020   0.240  1.00  0.00     0.031 C 
ATOM     49  C   UNL     1      -3.034  -3.051   3.126  1.00  0.00     0.029 A 
ATOM     50  N   UNL     1      -3.805  -3.553   1.089  1.00  0.00    -0.354 N 
ATOM     51  C   UNL     1      -1.515  -6.031  -1.616  1.00  0.00     0.074 A 
ATOM     52  C   UNL     1      -0.281  -6.466  -1.001  1.00  0.00     0.031 C 
ATOM     53  C   UNL     1      -4.247  -2.480   2.996  1.00  0.00     0.029 A 
ATOM     54  C   UNL     1      -4.769  -2.749   1.657  1.00  0.00     0.049 A 
ATOM     55  H   UNL     1      -3.895  -3.947   0.191  1.00  0.00     0.167 HD
ATOM     56  C   UNL     1      -1.923  -6.422  -2.845  1.00  0.00     0.031 A 
ATOM     57  C   UNL     1      -5.925  -2.275   1.145  1.00  0.00     0.031 A 
ATOM     58  C   UNL     1      -3.148  -5.993  -3.458  1.00  0.00     0.049 A 
ATOM     59  C   UNL     1      -6.308  -2.641  -0.273  1.00  0.00     0.074 A 
ATOM     60  C   UNL     1      -3.642  -6.317  -4.709  1.00  0.00     0.029 A 
ATOM     61  N   UNL     1      -4.076  -5.154  -2.863  1.00  0.00    -0.354 N 
ATOM     62  N   UNL     1      -5.687  -3.428  -1.122  1.00  0.00    -0.248 NA
ATOM     63  C   UNL     1      -7.553  -2.059  -0.800  1.00  0.00     0.031 C 
ATOM     64  C   UNL     1      -4.846  -5.630  -4.891  1.00  0.00     0.029 A 
ATOM     65  C   UNL     1      -5.134  -4.935  -3.727  1.00  0.00     0.049 A 
ATOM     66  H   UNL     1      -3.995  -4.770  -1.960  1.00  0.00     0.167 HD
ATOM     67  C   UNL     1      -6.489  -3.466  -2.262  1.00  0.00     0.074 A 
ATOM     68  C   UNL     1      -7.643  -2.638  -1.989  1.00  0.00     0.031 C 
ATOM     69  C   UNL     1      -6.289  -4.127  -3.429  1.00  0.00     0.031 A 
BRANCH  56  70
ATOM     70  C   UNL     1      -1.017  -7.348  -3.610  1.00  0.00    -0.014 A 
ATOM     71  C   UNL     1      -0.843  -8.686  -3.209  1.00  0.00     0.010 A 
ATOM     72  C   UNL     1      -0.352  -6.883  -4.758  1.00  0.00     0.010 A 
ATOM     73  C   UNL     1       0.007  -9.532  -3.924  1.00  0.00     0.020 A 
ATOM     74  C   UNL     1       0.473  -7.736  -5.495  1.00  0.00     0.020 A 
ATOM     75  C   UNL     1       0.658  -9.051  -5.065  1.00  0.00     0.054 A 
BRANCH  75  76
ATOM     76  S   UNL     1       1.726 -10.184  -5.993  1.00  0.00     0.124 S 
ATOM     77  O   UNL     1       2.855 -10.350  -5.080  1.00  0.00    -0.237 OA
ATOM     78  O   UNL     1       0.875 -11.360  -6.159  1.00  0.00    -0.237 OA
ATOM     79  O   UNL     1       2.023  -9.453  -7.222  1.00  0.00    -0.744 OA
ENDBRANCH  75  76
ENDBRANCH  56  70
BRANCH  57  80
ATOM     80  C   UNL     1      -6.817  -1.382   1.947  1.00  0.00    -0.014 A 
ATOM     81  C   UNL     1      -8.115  -1.796   2.303  1.00  0.00     0.010 A 
ATOM     82  C   UNL     1      -6.403  -0.084   2.299  1.00  0.00     0.010 A 
ATOM     83  C   UNL     1      -8.991  -0.922   2.956  1.00  0.00     0.020 A 
ATOM     84  C   UNL     1      -7.265   0.783   2.982  1.00  0.00     0.020 A 
ATOM     85  C   UNL     1      -8.561   0.365   3.289  1.00  0.00     0.054 A 
BRANCH  85  86
ATOM     86  S   UNL     1      -9.711   1.477   4.147  1.00  0.00     0.124 S 
ATOM     87  O   UNL     1     -10.662   1.807   3.091  1.00  0.00    -0.237 OA
ATOM     88  O   UNL     1     -10.226   0.631   5.221  1.00  0.00    -0.237 OA
ATOM     89  O   UNL     1      -8.858   2.579   4.588  1.00  0.00    -0.744 OA
ENDBRANCH  85  86
ENDBRANCH  57  80
BRANCH  69  90
ATOM     90  C   UNL     1      -7.364  -4.041  -4.483  1.00  0.00    -0.014 A 
ATOM     91  C   UNL     1      -7.597  -2.856  -5.203  1.00  0.00     0.010 A 
ATOM     92  C   UNL     1      -8.103  -5.195  -4.807  1.00  0.00     0.010 A 
ATOM     93  C   UNL     1      -8.569  -2.820  -6.207  1.00  0.00     0.020 A 
ATOM     94  C   UNL     1      -9.053  -5.171  -5.831  1.00  0.00     0.020 A 
ATOM     95  C   UNL     1      -9.289  -3.978  -6.517  1.00  0.00     0.054 A 
BRANCH  95  96
ATOM     96  S   UNL     1     -10.507  -3.917  -7.859  1.00  0.00     0.124 S 
ATOM     97  O   UNL     1     -11.575  -3.119  -7.265  1.00  0.00    -0.237 OA
ATOM     98  O   UNL     1      -9.762  -3.269  -8.936  1.00  0.00    -0.237 OA
ATOM     99  O   UNL     1     -10.836  -5.321  -8.095  1.00  0.00    -0.744 OA
ENDBRANCH  95  96
ENDBRANCH  69  90
ENDBRANCH  43  44
ENDBRANCH  35  38
ENDBRANCH  33  34
ENDBRANCH  32  33
ENDBRANCH   1  32
TORSDOF 18
