REMARK SMILES CCCCCCNC(=O)Oc1cccc(-c2ccc([C@@H](C)C(=O)NCCCCNC(=O)c3ccc(-c4c5nc(c(-c6ccc(S(=O)(=O)[O-])cc6)c6ccc([nH]6)c(-c6ccc(S(=O)(=O)[O-])cc6)c6nc(c(-c7ccc(S(=O)(=O)[O-])cc7)c7ccc4[nH]7)C=C6)C=C5)cc3)cc2N)c1
REMARK SMILES IDX 20 1 21 2 19 3 16 4 17 5 93 6 18 7 92 8 15 9 11 10 12 11
REMARK SMILES IDX 95 12 13 13 14 14 10 15 8 16 7 17 9 19 6 20 5 21 4 22 3 23
REMARK SMILES IDX 2 24 1 25 94 26 22 29 23 30 24 31 25 33 26 34 27 35 28 36
REMARK SMILES IDX 29 37 30 38 31 40 32 41 33 42 91 43 34 44 90 45 35 46 36 47
REMARK SMILES IDX 37 48 84 49 38 50 89 51 83 52 85 53 39 54 88 55 82 56 81 57
REMARK SMILES IDX 40 59 70 60 51 61 69 62 52 63 55 64 68 65 86 66 53 67 54 68
REMARK SMILES IDX 67 70 87 71 56 72 41 73 42 74 50 75 43 76 49 77 44 78 45 79
REMARK SMILES IDX 46 80 47 81 48 82 71 83 72 84 80 85 73 86 79 87 74 88 75 89
REMARK SMILES IDX 76 90 77 91 78 92 57 93 58 94 66 95 59 96 65 97 60 98 61 99
REMARK SMILES IDX 62 100 63 101 64 102
REMARK H PARENT 7 18 94 27 94 28 24 32 29 39 85 58 55 69
REMARK Flexibility Score: inf
ROOT
ATOM      1  C   UNL     1      -4.615  -5.287  12.386  1.00  0.00     0.105 C 
ATOM      2  C   UNL     1      -5.810  -5.567  13.296  1.00  0.00     0.023 C 
ENDROOT
BRANCH   1   3
ATOM      3  C   UNL     1      -4.907  -5.317  10.894  1.00  0.00    -0.034 A 
ATOM      4  C   UNL     1      -5.202  -5.410   8.053  1.00  0.00     0.005 A 
ATOM      5  C   UNL     1      -5.709  -6.421   8.890  1.00  0.00     0.011 A 
ATOM      6  C   UNL     1      -4.640  -4.273   8.680  1.00  0.00     0.040 A 
ATOM      7  C   UNL     1      -5.620  -6.344  10.282  1.00  0.00     0.005 A 
ATOM      8  C   UNL     1      -4.428  -4.285  10.072  1.00  0.00     0.030 A 
BRANCH   4   9
ATOM      9  C   UNL     1      -5.287  -5.590   6.580  1.00  0.00    -0.013 A 
ATOM     10  C   UNL     1      -4.327  -5.412   4.349  1.00  0.00     0.133 A 
ATOM     11  C   UNL     1      -5.481  -5.933   3.773  1.00  0.00     0.047 A 
ATOM     12  C   UNL     1      -4.214  -5.260   5.733  1.00  0.00     0.056 A 
ATOM     13  C   UNL     1      -6.538  -6.308   4.594  1.00  0.00     0.004 A 
ATOM     14  C   UNL     1      -6.446  -6.123   5.978  1.00  0.00     0.009 A 
BRANCH  10  15
ATOM     15  O   UNL     1      -3.365  -4.890   3.467  1.00  0.00    -0.410 OA
BRANCH  15  16
ATOM     16  C   UNL     1      -2.020  -5.151   3.678  1.00  0.00     0.412 C 
ATOM     17  N   UNL     1      -1.205  -4.395   2.880  1.00  0.00    -0.321 N 
ATOM     18  H   UNL     1      -0.238  -4.563   2.951  1.00  0.00     0.167 HD
ATOM     19  O   UNL     1      -1.560  -5.960   4.471  1.00  0.00    -0.224 OA
BRANCH  17  20
ATOM     20  C   UNL     1      -1.620  -3.371   1.942  1.00  0.00     0.119 C 
BRANCH  20  21
ATOM     21  C   UNL     1      -1.029  -2.004   2.287  1.00  0.00     0.021 C 
BRANCH  21  22
ATOM     22  C   UNL     1       0.500  -1.924   2.201  1.00  0.00     0.002 C 
BRANCH  22  23
ATOM     23  C   UNL     1       1.103  -2.287   0.840  1.00  0.00    -0.000 C 
BRANCH  23  24
ATOM     24  C   UNL     1       0.617  -1.443  -0.340  1.00  0.00    -0.003 C 
ATOM     25  C   UNL     1       0.983   0.028  -0.218  1.00  0.00     0.004 C 
ENDBRANCH  23  24
ENDBRANCH  22  23
ENDBRANCH  21  22
ENDBRANCH  20  21
ENDBRANCH  17  20
ENDBRANCH  15  16
ENDBRANCH  10  15
ENDBRANCH   4   9
BRANCH   6  26
ATOM     26  N   UNL     1      -4.186  -3.164   7.962  1.00  0.00    -0.398 N 
ATOM     27  H   UNL     1      -4.317  -3.121   6.987  1.00  0.00     0.156 HD
ATOM     28  H   UNL     1      -3.734  -2.426   8.431  1.00  0.00     0.156 HD
ENDBRANCH   6  26
ENDBRANCH   1   3
BRANCH   1  29
ATOM     29  C   UNL     1      -3.329  -6.025  12.793  1.00  0.00     0.227 C 
ATOM     30  O   UNL     1      -2.333  -5.374  13.133  1.00  0.00    -0.274 OA
ATOM     31  N   UNL     1      -3.210  -7.380  12.838  1.00  0.00    -0.356 N 
ATOM     32  H   UNL     1      -2.348  -7.698  13.192  1.00  0.00     0.163 HD
BRANCH  31  33
ATOM     33  C   UNL     1      -4.121  -8.440  12.459  1.00  0.00     0.116 C 
BRANCH  33  34
ATOM     34  C   UNL     1      -3.851  -8.949  11.042  1.00  0.00     0.023 C 
BRANCH  34  35
ATOM     35  C   UNL     1      -2.829 -10.078  10.946  1.00  0.00     0.023 C 
BRANCH  35  36
ATOM     36  C   UNL     1      -3.204 -11.355  11.687  1.00  0.00     0.116 C 
BRANCH  36  37
ATOM     37  N   UNL     1      -4.483 -11.923  11.283  1.00  0.00    -0.352 N 
ATOM     38  C   UNL     1      -4.840 -13.252  11.230  1.00  0.00     0.251 C 
ATOM     39  H   UNL     1      -5.177 -11.278  11.016  1.00  0.00     0.163 HD
ATOM     40  O   UNL     1      -5.935 -13.587  10.791  1.00  0.00    -0.269 OA
BRANCH  38  41
ATOM     41  C   UNL     1      -3.860 -14.268  11.666  1.00  0.00     0.039 A 
ATOM     42  C   UNL     1      -3.547 -15.320  10.803  1.00  0.00     0.014 A 
ATOM     43  C   UNL     1      -3.192 -14.126  12.884  1.00  0.00     0.014 A 
ATOM     44  C   UNL     1      -2.501 -16.186  11.130  1.00  0.00     0.010 A 
ATOM     45  C   UNL     1      -2.096 -14.933  13.164  1.00  0.00     0.010 A 
ATOM     46  C   UNL     1      -1.738 -15.971  12.290  1.00  0.00    -0.014 A 
BRANCH  46  47
ATOM     47  C   UNL     1      -0.552 -16.809  12.599  1.00  0.00     0.031 A 
ATOM     48  C   UNL     1      -0.522 -17.644  13.849  1.00  0.00     0.074 A 
ATOM     49  C   UNL     1       0.528 -16.759  11.793  1.00  0.00     0.049 A 
ATOM     50  N   UNL     1       0.436 -18.407  14.308  1.00  0.00    -0.248 NA
ATOM     51  C   UNL     1      -1.713 -17.590  14.714  1.00  0.00     0.031 C 
ATOM     52  C   UNL     1       0.648 -15.939  10.585  1.00  0.00     0.029 A 
ATOM     53  N   UNL     1       1.735 -17.408  11.873  1.00  0.00    -0.354 N 
ATOM     54  C   UNL     1      -0.026 -18.905  15.521  1.00  0.00     0.074 A 
ATOM     55  C   UNL     1      -1.325 -18.313  15.753  1.00  0.00     0.031 C 
ATOM     56  C   UNL     1       1.846 -16.159  10.021  1.00  0.00     0.029 A 
ATOM     57  C   UNL     1       2.595 -17.103  10.844  1.00  0.00     0.049 A 
ATOM     58  H   UNL     1       1.964 -18.033  12.598  1.00  0.00     0.167 HD
ATOM     59  C   UNL     1       0.566 -19.792  16.356  1.00  0.00     0.031 A 
ATOM     60  C   UNL     1       3.846 -17.533  10.589  1.00  0.00     0.031 A 
ATOM     61  C   UNL     1       1.854 -20.385  16.114  1.00  0.00     0.049 A 
ATOM     62  C   UNL     1       4.480 -18.528  11.521  1.00  0.00     0.074 A 
ATOM     63  C   UNL     1       2.511 -21.348  16.860  1.00  0.00     0.029 A 
ATOM     64  N   UNL     1       2.684 -20.067  15.050  1.00  0.00    -0.354 N 
ATOM     65  N   UNL     1       3.991 -19.056  12.619  1.00  0.00    -0.248 NA
ATOM     66  C   UNL     1       5.829 -18.996  11.174  1.00  0.00     0.031 C 
ATOM     67  C   UNL     1       3.763 -21.571  16.276  1.00  0.00     0.029 A 
ATOM     68  C   UNL     1       3.861 -20.792  15.133  1.00  0.00     0.049 A 
ATOM     69  H   UNL     1       2.469 -19.419  14.340  1.00  0.00     0.167 HD
ATOM     70  C   UNL     1       4.964 -19.934  13.082  1.00  0.00     0.074 A 
ATOM     71  C   UNL     1       6.061 -19.879  12.136  1.00  0.00     0.031 C 
ATOM     72  C   UNL     1       4.949 -20.717  14.190  1.00  0.00     0.031 A 
BRANCH  59  73
ATOM     73  C   UNL     1      -0.178 -20.160  17.614  1.00  0.00    -0.014 A 
ATOM     74  C   UNL     1      -1.373 -20.902  17.565  1.00  0.00     0.010 A 
ATOM     75  C   UNL     1       0.328 -19.763  18.865  1.00  0.00     0.010 A 
ATOM     76  C   UNL     1      -2.078 -21.189  18.737  1.00  0.00     0.020 A 
ATOM     77  C   UNL     1      -0.358 -20.077  20.043  1.00  0.00     0.020 A 
ATOM     78  C   UNL     1      -1.569 -20.768  19.968  1.00  0.00     0.054 A 
BRANCH  78  79
ATOM     79  S   UNL     1      -2.506 -21.150  21.473  1.00  0.00     0.124 S 
ATOM     80  O   UNL     1      -3.626 -20.216  21.375  1.00  0.00    -0.237 OA
ATOM     81  O   UNL     1      -2.847 -22.559  21.290  1.00  0.00    -0.237 OA
ATOM     82  O   UNL     1      -1.560 -20.876  22.551  1.00  0.00    -0.744 OA
ENDBRANCH  78  79
ENDBRANCH  59  73
BRANCH  60  83
ATOM     83  C   UNL     1       4.563 -17.041   9.381  1.00  0.00    -0.014 A 
ATOM     84  C   UNL     1       4.764 -17.887   8.277  1.00  0.00     0.010 A 
ATOM     85  C   UNL     1       5.008 -15.708   9.310  1.00  0.00     0.010 A 
ATOM     86  C   UNL     1       5.402 -17.413   7.127  1.00  0.00     0.020 A 
ATOM     87  C   UNL     1       5.622 -15.222   8.152  1.00  0.00     0.020 A 
ATOM     88  C   UNL     1       5.821 -16.080   7.069  1.00  0.00     0.054 A 
BRANCH  88  89
ATOM     89  S   UNL     1       6.575 -15.467   5.536  1.00  0.00     0.124 S 
ATOM     90  O   UNL     1       7.889 -16.102   5.569  1.00  0.00    -0.237 OA
ATOM     91  O   UNL     1       5.657 -15.962   4.513  1.00  0.00    -0.237 OA
ATOM     92  O   UNL     1       6.576 -14.016   5.712  1.00  0.00    -0.744 OA
ENDBRANCH  88  89
ENDBRANCH  60  83
BRANCH  72  93
ATOM     93  C   UNL     1       6.147 -21.596  14.432  1.00  0.00    -0.014 A 
ATOM     94  C   UNL     1       7.378 -21.054  14.841  1.00  0.00     0.010 A 
ATOM     95  C   UNL     1       6.022 -22.991  14.301  1.00  0.00     0.010 A 
ATOM     96  C   UNL     1       8.472 -21.889  15.083  1.00  0.00     0.020 A 
ATOM     97  C   UNL     1       7.105 -23.832  14.570  1.00  0.00     0.020 A 
ATOM     98  C   UNL     1       8.328 -23.273  14.945  1.00  0.00     0.054 A 
BRANCH  98  99
ATOM     99  S   UNL     1       9.751 -24.339  15.305  1.00  0.00     0.124 S 
ATOM    100  O   UNL     1      10.604 -24.109  14.143  1.00  0.00    -0.237 OA
ATOM    101  O   UNL     1      10.247 -23.796  16.568  1.00  0.00    -0.237 OA
ATOM    102  O   UNL     1       9.168 -25.676  15.396  1.00  0.00    -0.744 OA
ENDBRANCH  98  99
ENDBRANCH  72  93
ENDBRANCH  46  47
ENDBRANCH  38  41
ENDBRANCH  36  37
ENDBRANCH  35  36
ENDBRANCH  34  35
ENDBRANCH  33  34
ENDBRANCH  31  33
ENDBRANCH   1  29
TORSDOF 24
