REMARK SMILES CC1(C)CCC[C@@H]1Nc1nc2c(cc1C(=O)NCCCCNC(=O)c1ccc(-c3c4nc(c(-c5ccc(S(=O)(=O)[O-])cc5)c5ccc([nH]5)c(-c5ccc(S(=O)(=O)[O-])cc5)c5nc(c(-c6ccc(S(=O)(=O)[O-])cc6)c6ccc3[nH]6)C=C5)C=C4)cc1)CCC2
REMARK SMILES IDX 20 1 19 2 18 3 17 4 15 5 16 6 14 8 9 9 10 10 11 11 13 12
REMARK SMILES IDX 12 13 87 14 85 15 86 16 8 17 7 19 1 20 2 21 3 22 4 23 5 24
REMARK SMILES IDX 6 25 21 26 22 27 23 28 24 30 25 31 26 32 84 33 27 34 83 35
REMARK SMILES IDX 28 36 29 37 30 38 77 39 31 40 82 41 76 42 78 43 32 44 81 45
REMARK SMILES IDX 75 46 74 47 33 49 63 50 44 51 62 52 45 53 48 54 61 55 79 56
REMARK SMILES IDX 46 57 47 58 60 60 80 61 49 62 34 63 35 64 43 65 36 66 42 67
REMARK SMILES IDX 37 68 38 69 39 70 40 71 41 72 64 73 65 74 73 75 66 76 72 77
REMARK SMILES IDX 67 78 68 79 69 80 70 81 71 82 50 83 51 84 59 85 52 86 58 87
REMARK SMILES IDX 53 88 54 89 55 90 56 91 57 92
REMARK H PARENT 17 7 8 18 22 29 78 48 48 59
REMARK Flexibility Score: inf
ROOT
ATOM      1  C   UNL     1       3.356   1.192   2.880  1.00  0.00     0.023 C 
ENDROOT
BRANCH   1   2
ATOM      2  C   UNL     1       3.064   2.311   1.860  1.00  0.00     0.023 C 
BRANCH   2   3
ATOM      3  C   UNL     1       1.645   2.465   1.322  1.00  0.00     0.116 C 
BRANCH   3   4
ATOM      4  N   UNL     1       0.667   3.099   2.166  1.00  0.00    -0.352 N 
ATOM      5  C   UNL     1      -0.541   3.678   1.828  1.00  0.00     0.255 C 
ATOM      6  O   UNL     1      -1.323   3.890   2.763  1.00  0.00    -0.269 OA
ATOM      7  H   UNL     1       0.892   3.125   3.124  1.00  0.00     0.163 HD
BRANCH   5   8
ATOM      8  C   UNL     1      -0.925   4.208   0.479  1.00  0.00     0.082 A 
ATOM      9  C   UNL     1      -0.858   3.622  -0.797  1.00  0.00     0.139 A 
ATOM     10  N   UNL     1      -1.233   4.291  -1.927  1.00  0.00    -0.235 NA
ATOM     11  C   UNL     1      -1.759   5.508  -1.796  1.00  0.00     0.046 A 
ATOM     12  C   UNL     1      -1.504   5.507   0.555  1.00  0.00     0.023 A 
ATOM     13  C   UNL     1      -1.931   6.148  -0.593  1.00  0.00    -0.025 A 
ATOM     14  C   UNL     1      -2.331   6.295  -2.936  1.00  0.00     0.057 C 
ATOM     15  C   UNL     1      -2.649   7.442  -0.777  1.00  0.00     0.038 C 
ATOM     16  C   UNL     1      -2.467   7.678  -2.289  1.00  0.00     0.011 C 
BRANCH   9  17
ATOM     17  N   UNL     1      -0.486   2.386  -1.209  1.00  0.00    -0.366 N 
ATOM     18  H   UNL     1       0.013   2.368  -2.058  1.00  0.00     0.162 HD
BRANCH  17  19
ATOM     19  C   UNL     1      -0.699   1.106  -0.612  1.00  0.00     0.086 C 
ATOM     20  C   UNL     1       1.589   0.227  -1.423  1.00  0.00     0.013 C 
ATOM     21  C   UNL     1       0.075   0.005  -1.390  1.00  0.00    -0.015 C 
ATOM     22  C   UNL     1      -0.332  -0.176  -2.872  1.00  0.00     0.013 C 
ATOM     23  C   UNL     1      -0.419  -1.207  -0.584  1.00  0.00     0.008 C 
ATOM     24  C   UNL     1      -1.931  -0.937  -0.406  1.00  0.00     0.003 C 
ATOM     25  C   UNL     1      -2.126   0.581  -0.598  1.00  0.00     0.025 C 
ENDBRANCH  17  19
ENDBRANCH   9  17
ENDBRANCH   5   8
ENDBRANCH   3   4
ENDBRANCH   2   3
ENDBRANCH   1   2
BRANCH   1  26
ATOM     26  C   UNL     1       2.570  -0.124   2.835  1.00  0.00     0.116 C 
BRANCH  26  27
ATOM     27  N   UNL     1       2.717  -0.882   1.601  1.00  0.00    -0.352 N 
ATOM     28  C   UNL     1       3.231  -2.130   1.338  1.00  0.00     0.251 C 
ATOM     29  H   UNL     1       2.387  -0.412   0.802  1.00  0.00     0.163 HD
ATOM     30  O   UNL     1       3.302  -2.555   0.199  1.00  0.00    -0.269 OA
BRANCH  28  31
ATOM     31  C   UNL     1       3.699  -2.943   2.465  1.00  0.00     0.039 A 
ATOM     32  C   UNL     1       5.031  -3.360   2.494  1.00  0.00     0.014 A 
ATOM     33  C   UNL     1       2.822  -3.213   3.514  1.00  0.00     0.014 A 
ATOM     34  C   UNL     1       5.521  -3.961   3.649  1.00  0.00     0.010 A 
ATOM     35  C   UNL     1       3.326  -3.752   4.684  1.00  0.00     0.010 A 
ATOM     36  C   UNL     1       4.681  -4.107   4.764  1.00  0.00    -0.014 A 
BRANCH  36  37
ATOM     37  C   UNL     1       5.198  -4.594   6.057  1.00  0.00     0.031 A 
ATOM     38  C   UNL     1       4.723  -5.909   6.588  1.00  0.00     0.074 A 
ATOM     39  C   UNL     1       5.989  -3.784   6.786  1.00  0.00     0.049 A 
ATOM     40  N   UNL     1       4.960  -6.459   7.747  1.00  0.00    -0.248 NA
ATOM     41  C   UNL     1       3.833  -6.693   5.715  1.00  0.00     0.031 C 
ATOM     42  C   UNL     1       6.449  -2.454   6.373  1.00  0.00     0.029 A 
ATOM     43  N   UNL     1       6.531  -3.951   8.032  1.00  0.00    -0.354 N 
ATOM     44  C   UNL     1       4.227  -7.637   7.756  1.00  0.00     0.074 A 
ATOM     45  C   UNL     1       3.508  -7.706   6.504  1.00  0.00     0.031 C 
ATOM     46  C   UNL     1       7.222  -1.937   7.341  1.00  0.00     0.029 A 
ATOM     47  C   UNL     1       7.288  -2.883   8.450  1.00  0.00     0.049 A 
ATOM     48  H   UNL     1       6.392  -4.759   8.577  1.00  0.00     0.167 HD
ATOM     49  C   UNL     1       4.176  -8.583   8.721  1.00  0.00     0.031 A 
ATOM     50  C   UNL     1       7.960  -2.691   9.600  1.00  0.00     0.031 A 
ATOM     51  C   UNL     1       4.919  -8.504   9.947  1.00  0.00     0.049 A 
ATOM     52  C   UNL     1       7.930  -3.773  10.637  1.00  0.00     0.074 A 
ATOM     53  C   UNL     1       5.004  -9.436  10.964  1.00  0.00     0.029 A 
ATOM     54  N   UNL     1       5.713  -7.427  10.316  1.00  0.00    -0.354 N 
ATOM     55  N   UNL     1       7.280  -4.913  10.608  1.00  0.00    -0.248 NA
ATOM     56  C   UNL     1       8.723  -3.557  11.853  1.00  0.00     0.031 C 
ATOM     57  C   UNL     1       5.828  -8.908  11.963  1.00  0.00     0.029 A 
ATOM     58  C   UNL     1       6.284  -7.664  11.551  1.00  0.00     0.049 A 
ATOM     59  H   UNL     1       5.849  -6.614   9.777  1.00  0.00     0.167 HD
ATOM     60  C   UNL     1       7.594  -5.559  11.796  1.00  0.00     0.074 A 
ATOM     61  C   UNL     1       8.498  -4.684  12.519  1.00  0.00     0.031 C 
ATOM     62  C   UNL     1       7.175  -6.767  12.245  1.00  0.00     0.031 A 
BRANCH  49  63
ATOM     63  C   UNL     1       3.289  -9.771   8.474  1.00  0.00    -0.014 A 
ATOM     64  C   UNL     1       3.639 -10.748   7.525  1.00  0.00     0.010 A 
ATOM     65  C   UNL     1       2.093  -9.915   9.199  1.00  0.00     0.010 A 
ATOM     66  C   UNL     1       2.788 -11.826   7.274  1.00  0.00     0.020 A 
ATOM     67  C   UNL     1       1.249 -11.006   8.967  1.00  0.00     0.020 A 
ATOM     68  C   UNL     1       1.597 -11.947   7.996  1.00  0.00     0.054 A 
BRANCH  68  69
ATOM     69  S   UNL     1       0.512 -13.356   7.640  1.00  0.00     0.124 S 
ATOM     70  O   UNL     1       0.128 -13.101   6.253  1.00  0.00    -0.237 OA
ATOM     71  O   UNL     1       1.400 -14.497   7.846  1.00  0.00    -0.237 OA
ATOM     72  O   UNL     1      -0.567 -13.222   8.615  1.00  0.00    -0.744 OA
ENDBRANCH  68  69
ENDBRANCH  49  63
BRANCH  50  73
ATOM     73  C   UNL     1       8.749  -1.444   9.774  1.00  0.00    -0.014 A 
ATOM     74  C   UNL     1      10.133  -1.450   9.529  1.00  0.00     0.010 A 
ATOM     75  C   UNL     1       8.108  -0.225  10.062  1.00  0.00     0.010 A 
ATOM     76  C   UNL     1      10.859  -0.256   9.542  1.00  0.00     0.020 A 
ATOM     77  C   UNL     1       8.829   0.974  10.064  1.00  0.00     0.020 A 
ATOM     78  C   UNL     1      10.198   0.951   9.792  1.00  0.00     0.054 A 
BRANCH  78  79
ATOM     79  S   UNL     1      11.149   2.495   9.690  1.00  0.00     0.124 S 
ATOM     80  O   UNL     1      12.139   2.318  10.747  1.00  0.00    -0.237 OA
ATOM     81  O   UNL     1      11.665   2.447   8.324  1.00  0.00    -0.237 OA
ATOM     82  O   UNL     1      10.149   3.532   9.936  1.00  0.00    -0.744 OA
ENDBRANCH  78  79
ENDBRANCH  50  73
BRANCH  62  83
ATOM     83  C   UNL     1       7.689  -7.225  13.578  1.00  0.00    -0.014 A 
ATOM     84  C   UNL     1       7.111  -6.751  14.767  1.00  0.00     0.010 A 
ATOM     85  C   UNL     1       8.669  -8.232  13.634  1.00  0.00     0.010 A 
ATOM     86  C   UNL     1       7.503  -7.283  15.996  1.00  0.00     0.020 A 
ATOM     87  C   UNL     1       9.051  -8.777  14.860  1.00  0.00     0.020 A 
ATOM     88  C   UNL     1       8.463  -8.300  16.034  1.00  0.00     0.054 A 
BRANCH  88  89
ATOM     89  S   UNL     1       8.892  -9.023  17.640  1.00  0.00     0.124 S 
ATOM     90  O   UNL     1       9.487  -7.887  18.338  1.00  0.00    -0.237 OA
ATOM     91  O   UNL     1       7.593  -9.462  18.144  1.00  0.00    -0.237 OA
ATOM     92  O   UNL     1       9.821 -10.099  17.301  1.00  0.00    -0.744 OA
ENDBRANCH  88  89
ENDBRANCH  62  83
ENDBRANCH  36  37
ENDBRANCH  28  31
ENDBRANCH  26  27
ENDBRANCH   1  26
TORSDOF 16
