REMARK SMILES O=C(NCCCCNC(=O)c1ccc2nc(-n3cccc3)sc2c1)c1ccc(-c2c3nc(c(-c4ccc(S(=O)(=O)[O-])cc4)c4ccc([nH]4)c(-c4ccc(S(=O)(=O)[O-])cc4)c4nc(c(-c5ccc(S(=O)(=O)[O-])cc5)c5ccc2[nH]5)C=C4)C=C3)cc1
REMARK SMILES IDX 4 1 3 2 1 3 2 4 25 6 26 7 84 8 27 9 83 10 28 11 29 12 30 13
REMARK SMILES IDX 77 14 31 15 82 16 76 17 78 18 32 19 81 20 75 21 74 22 33 24
REMARK SMILES IDX 63 25 44 26 62 27 45 28 48 29 61 30 79 31 46 32 47 33 60 35
REMARK SMILES IDX 80 36 49 37 34 38 35 39 43 40 36 41 42 42 37 43 38 44 39 45
REMARK SMILES IDX 40 46 41 47 64 48 65 49 73 50 66 51 72 52 67 53 68 54 69 55
REMARK SMILES IDX 70 56 71 57 50 58 51 59 59 60 52 61 58 62 53 63 54 64 55 65
REMARK SMILES IDX 56 66 57 67 5 68 6 69 7 70 8 71 9 72 10 74 11 75 12 76 24 77
REMARK SMILES IDX 13 78 23 79 14 80 22 81 15 82 16 83 17 84 18 85 21 86 19 87
REMARK SMILES IDX 20 88
REMARK H PARENT 3 5 78 23 48 34 8 73
REMARK Flexibility Score: inf
ROOT
ATOM      1  C   UNL     1       4.665   0.268   1.136  1.00  0.00     0.116 C 
ENDROOT
BRANCH   1   2
ATOM      2  N   UNL     1       3.263  -0.041   0.930  1.00  0.00    -0.352 N 
ATOM      3  O   UNL     1       1.237  -0.222   0.038  1.00  0.00    -0.269 OA
ATOM      4  C   UNL     1       2.333   0.341  -0.005  1.00  0.00     0.251 C 
ATOM      5  H   UNL     1       2.899  -0.658   1.606  1.00  0.00     0.163 HD
BRANCH   4   6
ATOM      6  C   UNL     1       2.551   1.420  -1.007  1.00  0.00     0.039 A 
ATOM      7  C   UNL     1       3.799   1.774  -1.519  1.00  0.00     0.014 A 
ATOM      8  C   UNL     1       1.411   2.100  -1.476  1.00  0.00     0.014 A 
ATOM      9  C   UNL     1       3.918   2.839  -2.407  1.00  0.00     0.010 A 
ATOM     10  C   UNL     1       1.520   3.151  -2.391  1.00  0.00     0.010 A 
ATOM     11  C   UNL     1       2.782   3.526  -2.852  1.00  0.00    -0.014 A 
BRANCH  11  12
ATOM     12  C   UNL     1       2.987   4.500  -3.952  1.00  0.00     0.031 A 
ATOM     13  C   UNL     1       3.161   3.788  -5.301  1.00  0.00     0.074 A 
ATOM     14  C   UNL     1       3.169   5.811  -3.606  1.00  0.00     0.049 A 
ATOM     15  N   UNL     1       4.000   4.027  -6.261  1.00  0.00    -0.248 NA
ATOM     16  C   UNL     1       2.371   2.557  -5.569  1.00  0.00     0.031 C 
ATOM     17  C   UNL     1       2.894   6.375  -2.266  1.00  0.00     0.029 A 
ATOM     18  N   UNL     1       3.627   6.925  -4.281  1.00  0.00    -0.354 N 
ATOM     19  C   UNL     1       3.750   3.092  -7.294  1.00  0.00     0.074 A 
ATOM     20  C   UNL     1       2.802   2.156  -6.768  1.00  0.00     0.031 C 
ATOM     21  C   UNL     1       3.256   7.677  -2.206  1.00  0.00     0.029 A 
ATOM     22  C   UNL     1       3.814   8.084  -3.481  1.00  0.00     0.049 A 
ATOM     23  H   UNL     1       3.812   6.917  -5.248  1.00  0.00     0.167 HD
ATOM     24  C   UNL     1       4.260   3.211  -8.556  1.00  0.00     0.031 A 
ATOM     25  C   UNL     1       4.433   9.265  -3.796  1.00  0.00     0.031 A 
ATOM     26  C   UNL     1       5.106   4.352  -8.637  1.00  0.00     0.049 A 
ATOM     27  C   UNL     1       4.851   9.138  -5.200  1.00  0.00     0.074 A 
ATOM     28  C   UNL     1       6.368   4.635  -8.187  1.00  0.00     0.029 A 
ATOM     29  N   UNL     1       4.499   5.520  -9.027  1.00  0.00    -0.354 N 
ATOM     30  N   UNL     1       4.067   9.229  -6.228  1.00  0.00    -0.248 NA
ATOM     31  C   UNL     1       6.263   8.846  -5.490  1.00  0.00     0.031 C 
ATOM     32  C   UNL     1       6.315   6.015  -7.887  1.00  0.00     0.029 A 
ATOM     33  C   UNL     1       5.078   6.525  -8.295  1.00  0.00     0.049 A 
ATOM     34  H   UNL     1       3.788   5.617  -9.701  1.00  0.00     0.167 HD
ATOM     35  C   UNL     1       4.809   8.639  -7.218  1.00  0.00     0.074 A 
ATOM     36  C   UNL     1       6.194   8.743  -6.815  1.00  0.00     0.031 C 
ATOM     37  C   UNL     1       4.254   7.667  -7.983  1.00  0.00     0.031 A 
BRANCH  24  38
ATOM     38  C   UNL     1       3.897   2.546  -9.863  1.00  0.00    -0.014 A 
ATOM     39  C   UNL     1       4.766   2.781 -10.964  1.00  0.00     0.010 A 
ATOM     40  C   UNL     1       2.634   2.012 -10.147  1.00  0.00     0.010 A 
ATOM     41  C   UNL     1       4.341   2.646 -12.286  1.00  0.00     0.020 A 
ATOM     42  C   UNL     1       2.213   1.831 -11.479  1.00  0.00     0.020 A 
ATOM     43  C   UNL     1       3.047   2.206 -12.535  1.00  0.00     0.054 A 
BRANCH  43  44
ATOM     44  S   UNL     1       2.457   2.213 -14.250  1.00  0.00     0.124 S 
ATOM     45  O   UNL     1       2.300   3.639 -14.515  1.00  0.00    -0.237 OA
ATOM     46  O   UNL     1       3.553   1.562 -14.966  1.00  0.00    -0.237 OA
ATOM     47  O   UNL     1       1.219   1.440 -14.190  1.00  0.00    -0.744 OA
ENDBRANCH  43  44
ENDBRANCH  24  38
BRANCH  25  48
ATOM     48  C   UNL     1       4.901  10.527  -3.100  1.00  0.00    -0.014 A 
ATOM     49  C   UNL     1       4.596  10.928  -1.794  1.00  0.00     0.010 A 
ATOM     50  C   UNL     1       5.803  11.380  -3.803  1.00  0.00     0.010 A 
ATOM     51  C   UNL     1       5.266  12.023  -1.190  1.00  0.00     0.020 A 
ATOM     52  C   UNL     1       6.504  12.431  -3.209  1.00  0.00     0.020 A 
ATOM     53  C   UNL     1       6.251  12.734  -1.886  1.00  0.00     0.054 A 
BRANCH  53  54
ATOM     54  S   UNL     1       7.304  13.959  -1.054  1.00  0.00     0.124 S 
ATOM     55  O   UNL     1       6.503  15.175  -1.143  1.00  0.00    -0.237 OA
ATOM     56  O   UNL     1       7.457  13.397   0.286  1.00  0.00    -0.237 OA
ATOM     57  O   UNL     1       8.527  13.955  -1.857  1.00  0.00    -0.744 OA
ENDBRANCH  53  54
ENDBRANCH  25  48
BRANCH  37  58
ATOM     58  C   UNL     1       2.732   7.686  -8.032  1.00  0.00    -0.014 A 
ATOM     59  C   UNL     1       2.067   8.783  -8.609  1.00  0.00     0.010 A 
ATOM     60  C   UNL     1       1.937   6.692  -7.424  1.00  0.00     0.010 A 
ATOM     61  C   UNL     1       0.669   8.888  -8.574  1.00  0.00     0.020 A 
ATOM     62  C   UNL     1       0.535   6.787  -7.385  1.00  0.00     0.020 A 
ATOM     63  C   UNL     1      -0.092   7.890  -7.962  1.00  0.00     0.054 A 
BRANCH  63  64
ATOM     64  S   UNL     1      -1.900   8.073  -7.917  1.00  0.00     0.124 S 
ATOM     65  O   UNL     1      -2.079   9.345  -7.221  1.00  0.00    -0.237 OA
ATOM     66  O   UNL     1      -2.252   8.083  -9.334  1.00  0.00    -0.237 OA
ATOM     67  O   UNL     1      -2.356   6.898  -7.174  1.00  0.00    -0.744 OA
ENDBRANCH  63  64
ENDBRANCH  37  58
ENDBRANCH  11  12
ENDBRANCH   4   6
ENDBRANCH   1   2
BRANCH   1  68
ATOM     68  C   UNL     1       4.961   1.688   1.617  1.00  0.00     0.023 C 
BRANCH  68  69
ATOM     69  C   UNL     1       4.418   2.037   3.005  1.00  0.00     0.023 C 
BRANCH  69  70
ATOM     70  C   UNL     1       4.855   1.111   4.136  1.00  0.00     0.116 C 
BRANCH  70  71
ATOM     71  N   UNL     1       6.299   1.063   4.292  1.00  0.00    -0.352 N 
ATOM     72  C   UNL     1       7.059   1.261   5.420  1.00  0.00     0.251 C 
ATOM     73  H   UNL     1       6.806   0.861   3.472  1.00  0.00     0.163 HD
ATOM     74  O   UNL     1       8.274   1.288   5.365  1.00  0.00    -0.269 OA
BRANCH  72  75
ATOM     75  C   UNL     1       6.384   1.443   6.721  1.00  0.00     0.041 A 
ATOM     76  C   UNL     1       5.576   0.431   7.239  1.00  0.00     0.016 A 
ATOM     77  C   UNL     1       6.614   2.633   7.423  1.00  0.00     0.035 A 
ATOM     78  C   UNL     1       4.966   0.594   8.485  1.00  0.00     0.031 A 
ATOM     79  C   UNL     1       5.964   2.794   8.656  1.00  0.00     0.057 A 
ATOM     80  C   UNL     1       5.169   1.785   9.213  1.00  0.00     0.084 A 
ATOM     81  S   UNL     1       5.945   4.160   9.708  1.00  0.00    -0.096 S 
ATOM     82  N   UNL     1       4.651   2.061  10.466  1.00  0.00    -0.219 NA
ATOM     83  C   UNL     1       4.965   3.294  10.793  1.00  0.00     0.194 A 
BRANCH  83  84
ATOM     84  N   UNL     1       4.545   3.885  11.992  1.00  0.00    -0.300 N 
ATOM     85  C   UNL     1       4.532   5.226  12.346  1.00  0.00     0.093 A 
ATOM     86  C   UNL     1       4.024   3.186  13.072  1.00  0.00     0.093 A 
ATOM     87  C   UNL     1       4.000   5.360  13.611  1.00  0.00     0.020 A 
ATOM     88  C   UNL     1       3.704   4.064  14.081  1.00  0.00     0.020 A 
ENDBRANCH  83  84
ENDBRANCH  72  75
ENDBRANCH  70  71
ENDBRANCH  69  70
ENDBRANCH  68  69
ENDBRANCH   1  68
TORSDOF 15
