REMARK SMILES COc1cc(OC)cc(-c2ccc(C(=O)NCCCCNC(=O)c3ccc(-c4c5nc(c(-c6ccc(S(=O)(=O)[O-])cc6)c6ccc([nH]6)c(-c6ccc(S(=O)(=O)[O-])cc6)c6nc(c(-c7ccc(S(=O)(=O)[O-])cc7)c7ccc4[nH]7)C=C6)C=C5)cc3)o2)c1
REMARK SMILES IDX 19 1 18 2 17 3 16 4 14 5 15 6 13 8 10 9 11 10 84 11 12 12
REMARK SMILES IDX 9 13 3 14 4 15 85 16 5 17 8 18 2 19 1 20 6 21 7 22 20 23
REMARK SMILES IDX 21 24 22 25 23 27 24 28 25 29 83 30 26 31 82 32 27 33 28 34
REMARK SMILES IDX 29 35 76 36 30 37 81 38 75 39 77 40 31 41 80 42 74 43 73 44
REMARK SMILES IDX 32 46 62 47 43 48 61 49 44 50 47 51 60 52 78 53 45 54 46 55
REMARK SMILES IDX 59 57 79 58 48 59 33 60 34 61 42 62 35 63 41 64 36 65 37 66
REMARK SMILES IDX 38 67 39 68 40 69 63 70 64 71 72 72 65 73 71 74 66 75 67 76
REMARK SMILES IDX 68 77 69 78 70 79 49 80 50 81 58 82 51 83 57 84 52 85 53 86
REMARK SMILES IDX 54 87 55 88 56 89
REMARK H PARENT 16 7 21 26 77 45 47 56
REMARK Flexibility Score: inf
ROOT
ATOM      1  C   UNL     1      10.523   2.148   6.307  1.00  0.00     0.023 C 
ENDROOT
BRANCH   1   2
ATOM      2  C   UNL     1       9.354   2.315   5.329  1.00  0.00     0.023 C 
BRANCH   2   3
ATOM      3  C   UNL     1       8.790   0.991   4.815  1.00  0.00     0.116 C 
BRANCH   3   4
ATOM      4  N   UNL     1       7.859   0.417   5.763  1.00  0.00    -0.349 N 
ATOM      5  C   UNL     1       6.482   0.448   5.811  1.00  0.00     0.287 C 
ATOM      6  O   UNL     1       5.963  -0.195   6.726  1.00  0.00    -0.266 OA
ATOM      7  H   UNL     1       8.281  -0.080   6.500  1.00  0.00     0.163 HD
BRANCH   5   8
ATOM      8  C   UNL     1       5.709   1.182   4.823  1.00  0.00     0.192 A 
ATOM      9  C   UNL     1       3.836   1.654   3.749  1.00  0.00     0.135 A 
ATOM     10  C   UNL     1       4.810   2.429   3.171  1.00  0.00     0.052 A 
ATOM     11  O   UNL     1       4.359   0.901   4.750  1.00  0.00    -0.451 OA
ATOM     12  C   UNL     1       5.993   2.173   3.896  1.00  0.00     0.057 A 
BRANCH   9  13
ATOM     13  C   UNL     1       2.409   1.574   3.519  1.00  0.00     0.025 A 
ATOM     14  C   UNL     1       0.578   1.250   1.969  1.00  0.00     0.123 A 
ATOM     15  C   UNL     1      -0.277   1.877   2.880  1.00  0.00     0.092 A 
ATOM     16  C   UNL     1       1.926   1.105   2.290  1.00  0.00     0.058 A 
ATOM     17  C   UNL     1       0.191   2.329   4.118  1.00  0.00     0.123 A 
ATOM     18  C   UNL     1       1.532   2.146   4.448  1.00  0.00     0.058 A 
BRANCH  14  19
ATOM     19  O   UNL     1       0.002   0.894   0.780  1.00  0.00    -0.497 OA
ATOM     20  C   UNL     1       0.712  -0.052  -0.011  1.00  0.00     0.278 C 
ENDBRANCH  14  19
BRANCH  17  21
ATOM     21  O   UNL     1      -0.740   2.960   4.898  1.00  0.00    -0.497 OA
ATOM     22  C   UNL     1      -0.237   3.696   6.008  1.00  0.00     0.278 C 
ENDBRANCH  17  21
ENDBRANCH   9  13
ENDBRANCH   5   8
ENDBRANCH   3   4
ENDBRANCH   2   3
ENDBRANCH   1   2
BRANCH   1  23
ATOM     23  C   UNL     1      11.735   1.409   5.743  1.00  0.00     0.116 C 
BRANCH  23  24
ATOM     24  N   UNL     1      12.253   2.006   4.522  1.00  0.00    -0.352 N 
ATOM     25  C   UNL     1      13.558   2.099   4.100  1.00  0.00     0.251 C 
ATOM     26  H   UNL     1      11.581   2.395   3.917  1.00  0.00     0.163 HD
ATOM     27  O   UNL     1      13.833   2.749   3.097  1.00  0.00    -0.269 OA
BRANCH  25  28
ATOM     28  C   UNL     1      14.623   1.444   4.887  1.00  0.00     0.039 A 
ATOM     29  C   UNL     1      15.767   2.177   5.208  1.00  0.00     0.014 A 
ATOM     30  C   UNL     1      14.480   0.127   5.333  1.00  0.00     0.014 A 
ATOM     31  C   UNL     1      16.738   1.609   6.032  1.00  0.00     0.010 A 
ATOM     32  C   UNL     1      15.412  -0.409   6.217  1.00  0.00     0.010 A 
ATOM     33  C   UNL     1      16.551   0.326   6.577  1.00  0.00    -0.014 A 
BRANCH  33  34
ATOM     34  C   UNL     1      17.536  -0.245   7.531  1.00  0.00     0.031 A 
ATOM     35  C   UNL     1      18.306  -1.489   7.177  1.00  0.00     0.074 A 
ATOM     36  C   UNL     1      17.714   0.344   8.731  1.00  0.00     0.049 A 
ATOM     37  N   UNL     1      19.198  -2.132   7.886  1.00  0.00    -0.248 NA
ATOM     38  C   UNL     1      18.027  -2.103   5.868  1.00  0.00     0.031 C 
ATOM     39  C   UNL     1      16.991   1.525   9.211  1.00  0.00     0.029 A 
ATOM     40  N   UNL     1      18.560   0.034   9.766  1.00  0.00    -0.354 N 
ATOM     41  C   UNL     1      19.591  -3.216   7.109  1.00  0.00     0.074 A 
ATOM     42  C   UNL     1      18.791  -3.184   5.905  1.00  0.00     0.031 C 
ATOM     43  C   UNL     1      17.447   1.857  10.430  1.00  0.00     0.029 A 
ATOM     44  C   UNL     1      18.464   0.893  10.836  1.00  0.00     0.049 A 
ATOM     45  H   UNL     1      19.178  -0.732   9.744  1.00  0.00     0.167 HD
ATOM     46  C   UNL     1      20.553  -4.136   7.359  1.00  0.00     0.031 A 
ATOM     47  C   UNL     1      19.117   0.902  12.015  1.00  0.00     0.031 A 
ATOM     48  C   UNL     1      21.348  -4.167   8.559  1.00  0.00     0.049 A 
ATOM     49  C   UNL     1      20.161  -0.151  12.277  1.00  0.00     0.074 A 
ATOM     50  C   UNL     1      22.363  -5.045   8.895  1.00  0.00     0.029 A 
ATOM     51  N   UNL     1      21.222  -3.279   9.616  1.00  0.00    -0.354 N 
ATOM     52  N   UNL     1      20.559  -1.131  11.500  1.00  0.00    -0.248 NA
ATOM     53  C   UNL     1      20.857  -0.086  13.570  1.00  0.00     0.031 C 
ATOM     54  C   UNL     1      22.819  -4.718  10.175  1.00  0.00     0.029 A 
ATOM     55  C   UNL     1      22.131  -3.597  10.611  1.00  0.00     0.049 A 
ATOM     56  H   UNL     1      20.581  -2.532   9.654  1.00  0.00     0.167 HD
ATOM     57  C   UNL     1      21.571  -1.779  12.200  1.00  0.00     0.074 A 
ATOM     58  C   UNL     1      21.743  -1.064  13.447  1.00  0.00     0.031 C 
ATOM     59  C   UNL     1      22.292  -2.872  11.845  1.00  0.00     0.031 A 
BRANCH  46  60
ATOM     60  C   UNL     1      20.819  -5.175   6.302  1.00  0.00    -0.014 A 
ATOM     61  C   UNL     1      21.429  -4.820   5.085  1.00  0.00     0.010 A 
ATOM     62  C   UNL     1      20.527  -6.529   6.550  1.00  0.00     0.010 A 
ATOM     63  C   UNL     1      21.722  -5.793   4.127  1.00  0.00     0.020 A 
ATOM     64  C   UNL     1      20.845  -7.510   5.606  1.00  0.00     0.020 A 
ATOM     65  C   UNL     1      21.433  -7.134   4.396  1.00  0.00     0.054 A 
BRANCH  65  66
ATOM     66  S   UNL     1      21.878  -8.380   3.156  1.00  0.00     0.124 S 
ATOM     67  O   UNL     1      20.920  -8.098   2.089  1.00  0.00    -0.237 OA
ATOM     68  O   UNL     1      23.268  -8.046   2.855  1.00  0.00    -0.237 OA
ATOM     69  O   UNL     1      21.680  -9.649   3.851  1.00  0.00    -0.744 OA
ENDBRANCH  65  66
ENDBRANCH  46  60
BRANCH  47  70
ATOM     70  C   UNL     1      18.802   1.932  13.044  1.00  0.00    -0.014 A 
ATOM     71  C   UNL     1      19.756   2.896  13.418  1.00  0.00     0.010 A 
ATOM     72  C   UNL     1      17.551   1.929  13.687  1.00  0.00     0.010 A 
ATOM     73  C   UNL     1      19.484   3.803  14.447  1.00  0.00     0.020 A 
ATOM     74  C   UNL     1      17.260   2.857  14.691  1.00  0.00     0.020 A 
ATOM     75  C   UNL     1      18.238   3.773  15.080  1.00  0.00     0.054 A 
BRANCH  75  76
ATOM     76  S   UNL     1      17.903   4.958  16.413  1.00  0.00     0.124 S 
ATOM     77  O   UNL     1      18.708   4.421  17.505  1.00  0.00    -0.237 OA
ATOM     78  O   UNL     1      18.370   6.218  15.840  1.00  0.00    -0.237 OA
ATOM     79  O   UNL     1      16.456   4.864  16.596  1.00  0.00    -0.744 OA
ENDBRANCH  75  76
ENDBRANCH  47  70
BRANCH  59  80
ATOM     80  C   UNL     1      23.361  -3.334  12.801  1.00  0.00    -0.014 A 
ATOM     81  C   UNL     1      23.034  -3.917  14.039  1.00  0.00     0.010 A 
ATOM     82  C   UNL     1      24.715  -3.212  12.438  1.00  0.00     0.010 A 
ATOM     83  C   UNL     1      24.042  -4.324  14.916  1.00  0.00     0.020 A 
ATOM     84  C   UNL     1      25.725  -3.650  13.298  1.00  0.00     0.020 A 
ATOM     85  C   UNL     1      25.382  -4.186  14.540  1.00  0.00     0.054 A 
BRANCH  85  86
ATOM     86  S   UNL     1      26.671  -4.744  15.687  1.00  0.00     0.124 S 
ATOM     87  O   UNL     1      26.620  -3.718  16.724  1.00  0.00    -0.237 OA
ATOM     88  O   UNL     1      26.192  -6.066  16.087  1.00  0.00    -0.237 OA
ATOM     89  O   UNL     1      27.883  -4.747  14.872  1.00  0.00    -0.744 OA
ENDBRANCH  85  86
ENDBRANCH  59  80
ENDBRANCH  33  34
ENDBRANCH  25  28
ENDBRANCH  23  24
ENDBRANCH   1  23
TORSDOF 17
