REMARK SMILES Cc1ccc(-c2ccc(/C=C(\C#N)C3N=c4ccccc4=N3)o2)cc1C(=O)NCCCCNC(=O)c1ccc(-c2c3nc(c(-c4ccc(S(=O)(=O)[O-])cc4)c4ccc([nH]4)c(-c4ccc(S(=O)(=O)[O-])cc4)c4nc(c(-c5ccc(S(=O)(=O)[O-])cc5)c5ccc2[nH]5)C=C4)C=C3)cc1
REMARK SMILES IDX 30 1 29 2 28 3 26 4 27 5 25 7 1 8 2 9 3 10 4 11 24 12 5 13
REMARK SMILES IDX 6 14 7 15 23 16 8 17 9 18 10 19 11 20 12 21 13 22 14 23
REMARK SMILES IDX 15 24 22 25 16 26 21 27 17 28 20 29 18 30 19 31 31 32 32 33
REMARK SMILES IDX 33 34 34 35 35 37 36 38 37 39 95 40 38 41 94 42 39 43 40 44
REMARK SMILES IDX 41 45 88 46 42 47 93 48 87 49 89 50 43 51 92 52 86 53 85 54
REMARK SMILES IDX 44 56 74 57 55 58 73 59 56 60 59 61 72 62 90 63 57 64 58 65
REMARK SMILES IDX 71 67 91 68 60 69 45 70 46 71 54 72 47 73 53 74 48 75 49 76
REMARK SMILES IDX 50 77 51 78 52 79 75 80 76 81 84 82 77 83 83 84 78 85 79 86
REMARK SMILES IDX 80 87 81 88 82 89 61 90 62 91 70 92 63 93 69 94 64 95 65 96
REMARK SMILES IDX 66 97 67 98 68 99
REMARK H PARENT 28 6 33 36 89 55 59 66
REMARK Flexibility Score: inf
ROOT
ATOM      1  C   UNL     1       4.099   1.285  -1.106  1.00  0.00     0.023 C 
ENDROOT
BRANCH   1   2
ATOM      2  C   UNL     1       3.430   1.662   0.228  1.00  0.00     0.116 C 
BRANCH   2   3
ATOM      3  N   UNL     1       2.250   2.454  -0.016  1.00  0.00    -0.352 N 
ATOM      4  C   UNL     1       0.942   2.163  -0.278  1.00  0.00     0.251 C 
ATOM      5  O   UNL     1       0.265   3.154  -0.591  1.00  0.00    -0.269 OA
ATOM      6  H   UNL     1       2.427   3.421   0.013  1.00  0.00     0.163 HD
BRANCH   4   7
ATOM      7  C   UNL     1       0.238   0.830  -0.150  1.00  0.00     0.043 A 
ATOM      8  C   UNL     1       2.032  -0.993  -0.691  1.00  0.00     0.045 C 
ATOM      9  C   UNL     1       0.698  -0.505  -0.219  1.00  0.00    -0.038 A 
ATOM     10  C   UNL     1      -0.198  -1.567   0.052  1.00  0.00     0.005 A 
ATOM     11  C   UNL     1      -1.558  -1.354   0.195  1.00  0.00     0.012 A 
ATOM     12  C   UNL     1      -1.164   1.004  -0.019  1.00  0.00     0.026 A 
ATOM     13  C   UNL     1      -2.057  -0.066   0.081  1.00  0.00     0.018 A 
BRANCH  13  14
ATOM     14  C   UNL     1      -3.482   0.140  -0.042  1.00  0.00     0.134 A 
ATOM     15  C   UNL     1      -4.277   0.765  -0.971  1.00  0.00     0.051 A 
ATOM     16  O   UNL     1      -4.246  -0.461   0.898  1.00  0.00    -0.457 OA
ATOM     17  C   UNL     1      -5.609   0.506  -0.570  1.00  0.00     0.051 A 
ATOM     18  C   UNL     1      -5.565  -0.236   0.607  1.00  0.00     0.128 A 
BRANCH  18  19
ATOM     19  C   UNL     1      -6.647  -0.709   1.396  1.00  0.00     0.066 C 
ATOM     20  C   UNL     1      -6.518  -1.425   2.531  1.00  0.00     0.080 C 
BRANCH  20  21
ATOM     21  C   UNL     1      -5.253  -1.822   3.086  1.00  0.00     0.099 C 
ATOM     22  N   UNL     1      -4.278  -2.194   3.574  1.00  0.00    -0.193 NA
ENDBRANCH  20  21
BRANCH  20  23
ATOM     23  C   UNL     1      -7.751  -1.868   3.279  1.00  0.00     0.263 C 
ATOM     24  N   UNL     1      -7.897  -3.346   3.191  1.00  0.00    -0.251 NA
ATOM     25  N   UNL     1      -7.704  -1.427   4.699  1.00  0.00    -0.251 NA
ATOM     26  C   UNL     1      -7.884  -3.701   4.429  1.00  0.00     0.086 A 
ATOM     27  C   UNL     1      -7.768  -2.542   5.341  1.00  0.00     0.086 A 
ATOM     28  C   UNL     1      -7.982  -5.051   4.988  1.00  0.00     0.030 A 
ATOM     29  C   UNL     1      -7.756  -2.765   6.789  1.00  0.00     0.030 A 
ATOM     30  C   UNL     1      -7.972  -5.168   6.323  1.00  0.00     0.002 A 
ATOM     31  C   UNL     1      -7.861  -4.031   7.218  1.00  0.00     0.002 A 
ENDBRANCH  20  23
ENDBRANCH  18  19
ENDBRANCH  13  14
ENDBRANCH   4   7
ENDBRANCH   2   3
ENDBRANCH   1   2
BRANCH   1  32
ATOM     32  C   UNL     1       4.959   2.360  -1.755  1.00  0.00     0.023 C 
BRANCH  32  33
ATOM     33  C   UNL     1       6.224   2.646  -0.985  1.00  0.00     0.116 C 
BRANCH  33  34
ATOM     34  N   UNL     1       7.415   1.918  -1.388  1.00  0.00    -0.352 N 
ATOM     35  C   UNL     1       8.713   2.357  -1.119  1.00  0.00     0.251 C 
ATOM     36  H   UNL     1       7.301   1.070  -1.876  1.00  0.00     0.163 HD
ATOM     37  O   UNL     1       9.628   2.306  -1.929  1.00  0.00    -0.269 OA
BRANCH  35  38
ATOM     38  C   UNL     1       8.971   2.782   0.279  1.00  0.00     0.039 A 
ATOM     39  C   UNL     1       9.820   1.997   1.070  1.00  0.00     0.014 A 
ATOM     40  C   UNL     1       8.080   3.671   0.858  1.00  0.00     0.014 A 
ATOM     41  C   UNL     1       9.588   1.919   2.434  1.00  0.00     0.010 A 
ATOM     42  C   UNL     1       7.684   3.409   2.133  1.00  0.00     0.010 A 
ATOM     43  C   UNL     1       8.437   2.526   2.909  1.00  0.00    -0.014 A 
BRANCH  43  44
ATOM     44  C   UNL     1       7.945   2.468   4.261  1.00  0.00     0.031 A 
ATOM     45  C   UNL     1       8.301   3.640   5.082  1.00  0.00     0.074 A 
ATOM     46  C   UNL     1       6.978   1.550   4.482  1.00  0.00     0.049 A 
ATOM     47  N   UNL     1       8.232   3.696   6.357  1.00  0.00    -0.248 NA
ATOM     48  C   UNL     1       8.840   4.885   4.504  1.00  0.00     0.031 C 
ATOM     49  C   UNL     1       5.961   1.471   5.520  1.00  0.00     0.029 A 
ATOM     50  N   UNL     1       6.869   0.323   3.827  1.00  0.00    -0.354 N 
ATOM     51  C   UNL     1       8.259   5.038   6.686  1.00  0.00     0.074 A 
ATOM     52  C   UNL     1       8.820   5.712   5.551  1.00  0.00     0.031 C 
ATOM     53  C   UNL     1       5.558   0.188   5.637  1.00  0.00     0.029 A 
ATOM     54  C   UNL     1       6.398  -0.616   4.756  1.00  0.00     0.049 A 
ATOM     55  H   UNL     1       7.084   0.147   2.883  1.00  0.00     0.167 HD
ATOM     56  C   UNL     1       7.570   5.433   7.791  1.00  0.00     0.031 A 
ATOM     57  C   UNL     1       7.274  -1.577   5.189  1.00  0.00     0.031 A 
ATOM     58  C   UNL     1       7.021   4.253   8.459  1.00  0.00     0.049 A 
ATOM     59  C   UNL     1       7.728  -1.290   6.609  1.00  0.00     0.074 A 
ATOM     60  C   UNL     1       5.759   3.683   8.441  1.00  0.00     0.029 A 
ATOM     61  N   UNL     1       7.897   3.265   8.890  1.00  0.00    -0.354 N 
ATOM     62  N   UNL     1       7.763  -0.096   7.143  1.00  0.00    -0.248 NA
ATOM     63  C   UNL     1       8.068  -2.338   7.567  1.00  0.00     0.031 C 
ATOM     64  C   UNL     1       5.910   2.300   8.748  1.00  0.00     0.029 A 
ATOM     65  C   UNL     1       7.256   2.042   8.956  1.00  0.00     0.049 A 
ATOM     66  H   UNL     1       8.844   3.415   9.116  1.00  0.00     0.167 HD
ATOM     67  C   UNL     1       8.027  -0.200   8.482  1.00  0.00     0.074 A 
ATOM     68  C   UNL     1       8.241  -1.622   8.693  1.00  0.00     0.031 C 
ATOM     69  C   UNL     1       8.008   0.858   9.347  1.00  0.00     0.031 A 
BRANCH  56  70
ATOM     70  C   UNL     1       7.120   6.841   8.100  1.00  0.00    -0.014 A 
ATOM     71  C   UNL     1       6.132   7.011   9.092  1.00  0.00     0.010 A 
ATOM     72  C   UNL     1       7.559   8.015   7.456  1.00  0.00     0.010 A 
ATOM     73  C   UNL     1       5.585   8.261   9.401  1.00  0.00     0.020 A 
ATOM     74  C   UNL     1       7.018   9.280   7.755  1.00  0.00     0.020 A 
ATOM     75  C   UNL     1       6.029   9.392   8.727  1.00  0.00     0.054 A 
BRANCH  75  76
ATOM     76  S   UNL     1       5.311  10.996   9.162  1.00  0.00     0.124 S 
ATOM     77  O   UNL     1       3.900  10.806   8.836  1.00  0.00    -0.237 OA
ATOM     78  O   UNL     1       5.620  11.100  10.586  1.00  0.00    -0.237 OA
ATOM     79  O   UNL     1       6.022  11.941   8.304  1.00  0.00    -0.744 OA
ENDBRANCH  75  76
ENDBRANCH  56  70
BRANCH  57  80
ATOM     80  C   UNL     1       8.109  -2.117   4.059  1.00  0.00    -0.014 A 
ATOM     81  C   UNL     1       7.416  -2.846   3.060  1.00  0.00     0.010 A 
ATOM     82  C   UNL     1       9.341  -1.531   3.717  1.00  0.00     0.010 A 
ATOM     83  C   UNL     1       7.824  -2.800   1.721  1.00  0.00     0.020 A 
ATOM     84  C   UNL     1       9.764  -1.507   2.373  1.00  0.00     0.020 A 
ATOM     85  C   UNL     1       8.960  -2.071   1.378  1.00  0.00     0.054 A 
BRANCH  85  86
ATOM     86  S   UNL     1       9.237  -1.706  -0.386  1.00  0.00     0.124 S 
ATOM     87  O   UNL     1       9.412  -3.040  -0.953  1.00  0.00    -0.237 OA
ATOM     88  O   UNL     1       7.996  -1.018  -0.758  1.00  0.00    -0.237 OA
ATOM     89  O   UNL     1      10.432  -0.872  -0.374  1.00  0.00    -0.744 OA
ENDBRANCH  85  86
ENDBRANCH  57  80
BRANCH  69  90
ATOM     90  C   UNL     1       8.641   0.863  10.716  1.00  0.00    -0.014 A 
ATOM     91  C   UNL     1       9.619  -0.054  11.121  1.00  0.00     0.010 A 
ATOM     92  C   UNL     1       8.362   1.937  11.599  1.00  0.00     0.010 A 
ATOM     93  C   UNL     1      10.216   0.038  12.381  1.00  0.00     0.020 A 
ATOM     94  C   UNL     1       9.009   2.085  12.822  1.00  0.00     0.020 A 
ATOM     95  C   UNL     1       9.903   1.104  13.225  1.00  0.00     0.054 A 
BRANCH  95  96
ATOM     96  S   UNL     1      10.687   1.204  14.845  1.00  0.00     0.124 S 
ATOM     97  O   UNL     1       9.925   0.215  15.602  1.00  0.00    -0.237 OA
ATOM     98  O   UNL     1      12.072   0.842  14.555  1.00  0.00    -0.237 OA
ATOM     99  O   UNL     1      10.482   2.594  15.246  1.00  0.00    -0.744 OA
ENDBRANCH  95  96
ENDBRANCH  69  90
ENDBRANCH  43  44
ENDBRANCH  35  38
ENDBRANCH  33  34
ENDBRANCH  32  33
ENDBRANCH   1  32
TORSDOF 18
