REMARK SMILES CC(C)C[C@H](NC(=O)[C@@H](NC(=O)[C@H](C)NC(=O)CNC(=O)OCc1ccccc1)C(C)C)C(=O)NCCCCNC(=O)c1ccc(-c2c3nc(c(-c4ccc(S(=O)(=O)[O-])cc4)c4ccc([nH]4)c(-c4ccc(S(=O)(=O)[O-])cc4)c4nc(c(-c5ccc(S(=O)(=O)[O-])cc5)c5ccc2[nH]5)C=C4)C=C3)cc1
REMARK SMILES IDX 5 1 4 2 2 3 1 4 3 5 33 6 34 7 35 8 36 10 37 11 38 12 39 13
REMARK SMILES IDX 40 14 41 15 42 17 43 18 44 19 102 20 45 21 101 22 46 23
REMARK SMILES IDX 47 24 48 25 95 26 49 27 100 28 94 29 96 30 50 31 99 32 93 33
REMARK SMILES IDX 92 34 51 36 81 37 62 38 80 39 63 40 66 41 79 42 97 43 64 44
REMARK SMILES IDX 65 45 78 47 98 48 67 49 52 50 53 51 61 52 54 53 60 54 55 55
REMARK SMILES IDX 56 56 57 57 58 58 59 59 82 60 83 61 91 62 84 63 90 64 85 65
REMARK SMILES IDX 86 66 87 67 88 68 89 69 68 70 69 71 77 72 70 73 76 74 71 75
REMARK SMILES IDX 72 76 73 77 74 78 75 79 6 80 7 81 8 83 9 84 10 85 11 86
REMARK SMILES IDX 12 88 13 89 14 90 15 91 16 92 17 94 18 95 19 96 20 97 21 99
REMARK SMILES IDX 22 100 23 101 24 102 25 103 29 104 26 105 28 106 27 107
REMARK SMILES IDX 30 108 31 109 32 110
REMARK H PARENT 35 9 40 16 96 35 66 46 6 82 10 87 15 93 19 98
REMARK Flexibility Score: inf
ROOT
ATOM      1  C   UNL     1       3.044  -0.109  -2.014  1.00  0.00     0.171 C 
ENDROOT
BRANCH   1   2
ATOM      2  C   UNL     1       1.833   0.727  -2.403  1.00  0.00     0.038 C 
BRANCH   2   3
ATOM      3  C   UNL     1       2.008   2.057  -3.154  1.00  0.00    -0.015 C 
ATOM      4  C   UNL     1       2.864   1.942  -4.413  1.00  0.00     0.007 C 
ATOM      5  C   UNL     1       0.608   2.558  -3.545  1.00  0.00     0.007 C 
ENDBRANCH   2   3
ENDBRANCH   1   2
BRANCH   1   6
ATOM      6  C   UNL     1       4.237   0.764  -1.568  1.00  0.00     0.242 C 
ATOM      7  O   UNL     1       5.294   0.787  -2.200  1.00  0.00    -0.273 OA
ATOM      8  N   UNL     1       4.135   1.536  -0.446  1.00  0.00    -0.354 N 
ATOM      9  H   UNL     1       4.940   2.047  -0.204  1.00  0.00     0.163 HD
BRANCH   8  10
ATOM     10  C   UNL     1       2.995   1.701   0.436  1.00  0.00     0.116 C 
BRANCH  10  11
ATOM     11  C   UNL     1       3.381   2.302   1.779  1.00  0.00     0.023 C 
BRANCH  11  12
ATOM     12  C   UNL     1       3.926   3.725   1.690  1.00  0.00     0.023 C 
BRANCH  12  13
ATOM     13  C   UNL     1       3.041   4.692   0.913  1.00  0.00     0.116 C 
BRANCH  13  14
ATOM     14  N   UNL     1       1.713   4.818   1.500  1.00  0.00    -0.352 N 
ATOM     15  C   UNL     1       1.142   5.918   2.095  1.00  0.00     0.251 C 
ATOM     16  H   UNL     1       1.152   4.010   1.466  1.00  0.00     0.163 HD
ATOM     17  O   UNL     1       0.096   5.816   2.726  1.00  0.00    -0.269 OA
BRANCH  15  18
ATOM     18  C   UNL     1       1.831   7.216   1.977  1.00  0.00     0.039 A 
ATOM     19  C   UNL     1       2.132   7.941   3.130  1.00  0.00     0.014 A 
ATOM     20  C   UNL     1       2.249   7.663   0.721  1.00  0.00     0.014 A 
ATOM     21  C   UNL     1       2.925   9.085   3.028  1.00  0.00     0.010 A 
ATOM     22  C   UNL     1       3.112   8.747   0.634  1.00  0.00     0.010 A 
ATOM     23  C   UNL     1       3.455   9.472   1.786  1.00  0.00    -0.014 A 
BRANCH  23  24
ATOM     24  C   UNL     1       4.368  10.636   1.663  1.00  0.00     0.031 A 
ATOM     25  C   UNL     1       3.963  11.819   0.825  1.00  0.00     0.074 A 
ATOM     26  C   UNL     1       5.584  10.600   2.244  1.00  0.00     0.049 A 
ATOM     27  N   UNL     1       4.640  12.902   0.546  1.00  0.00    -0.248 NA
ATOM     28  C   UNL     1       2.633  11.764   0.193  1.00  0.00     0.031 C 
ATOM     29  C   UNL     1       6.113   9.490   3.042  1.00  0.00     0.029 A 
ATOM     30  N   UNL     1       6.600  11.523   2.251  1.00  0.00    -0.354 N 
ATOM     31  C   UNL     1       3.832  13.643  -0.308  1.00  0.00     0.074 A 
ATOM     32  C   UNL     1       2.638  12.863  -0.545  1.00  0.00     0.031 C 
ATOM     33  C   UNL     1       7.338   9.812   3.487  1.00  0.00     0.029 A 
ATOM     34  C   UNL     1       7.701  11.129   2.975  1.00  0.00     0.049 A 
ATOM     35  H   UNL     1       6.546  12.386   1.781  1.00  0.00     0.167 HD
ATOM     36  C   UNL     1       4.052  14.872  -0.830  1.00  0.00     0.031 A 
ATOM     37  C   UNL     1       8.872  11.757   3.199  1.00  0.00     0.031 A 
ATOM     38  C   UNL     1       5.232  15.653  -0.573  1.00  0.00     0.049 A 
ATOM     39  C   UNL     1       9.094  13.123   2.607  1.00  0.00     0.074 A 
ATOM     40  C   UNL     1       5.521  16.937  -0.999  1.00  0.00     0.029 A 
ATOM     41  N   UNL     1       6.317  15.223   0.175  1.00  0.00    -0.354 N 
ATOM     42  N   UNL     1       8.285  13.839   1.863  1.00  0.00    -0.248 NA
ATOM     43  C   UNL     1      10.381  13.769   2.894  1.00  0.00     0.031 C 
ATOM     44  C   UNL     1       6.806  17.264  -0.553  1.00  0.00     0.029 A 
ATOM     45  C   UNL     1       7.290  16.207   0.202  1.00  0.00     0.049 A 
ATOM     46  H   UNL     1       6.386  14.348   0.621  1.00  0.00     0.167 HD
ATOM     47  C   UNL     1       8.954  15.034   1.619  1.00  0.00     0.074 A 
ATOM     48  C   UNL     1      10.226  14.948   2.306  1.00  0.00     0.031 C 
ATOM     49  C   UNL     1       8.550  16.106   0.894  1.00  0.00     0.031 A 
BRANCH  36  50
ATOM     50  C   UNL     1       2.993  15.446  -1.733  1.00  0.00    -0.014 A 
ATOM     51  C   UNL     1       1.742  15.843  -1.227  1.00  0.00     0.010 A 
ATOM     52  C   UNL     1       3.266  15.628  -3.101  1.00  0.00     0.010 A 
ATOM     53  C   UNL     1       0.769  16.373  -2.079  1.00  0.00     0.020 A 
ATOM     54  C   UNL     1       2.307  16.186  -3.951  1.00  0.00     0.020 A 
ATOM     55  C   UNL     1       1.058  16.540  -3.437  1.00  0.00     0.054 A 
BRANCH  55  56
ATOM     56  S   UNL     1      -0.213  17.257  -4.513  1.00  0.00     0.124 S 
ATOM     57  O   UNL     1      -1.173  16.160  -4.615  1.00  0.00    -0.237 OA
ATOM     58  O   UNL     1      -0.664  18.416  -3.747  1.00  0.00    -0.237 OA
ATOM     59  O   UNL     1       0.509  17.569  -5.743  1.00  0.00    -0.744 OA
ENDBRANCH  55  56
ENDBRANCH  36  50
BRANCH  37  60
ATOM     60  C   UNL     1       9.918  11.112   4.040  1.00  0.00    -0.014 A 
ATOM     61  C   UNL     1      10.225  11.624   5.314  1.00  0.00     0.010 A 
ATOM     62  C   UNL     1      10.613   9.980   3.575  1.00  0.00     0.010 A 
ATOM     63  C   UNL     1      11.220  11.032   6.096  1.00  0.00     0.020 A 
ATOM     64  C   UNL     1      11.589   9.368   4.366  1.00  0.00     0.020 A 
ATOM     65  C   UNL     1      11.896   9.906   5.617  1.00  0.00     0.054 A 
BRANCH  65  66
ATOM     66  S   UNL     1      13.154   9.129   6.669  1.00  0.00     0.124 S 
ATOM     67  O   UNL     1      14.254  10.084   6.582  1.00  0.00    -0.237 OA
ATOM     68  O   UNL     1      12.481   9.053   7.963  1.00  0.00    -0.237 OA
ATOM     69  O   UNL     1      13.390   7.840   6.022  1.00  0.00    -0.744 OA
ENDBRANCH  65  66
ENDBRANCH  37  60
BRANCH  49  70
ATOM     70  C   UNL     1       9.476  17.292   0.835  1.00  0.00    -0.014 A 
ATOM     71  C   UNL     1      10.667  17.253   0.090  1.00  0.00     0.010 A 
ATOM     72  C   UNL     1       9.113  18.484   1.490  1.00  0.00     0.010 A 
ATOM     73  C   UNL     1      11.495  18.377   0.026  1.00  0.00     0.020 A 
ATOM     74  C   UNL     1       9.924  19.618   1.403  1.00  0.00     0.020 A 
ATOM     75  C   UNL     1      11.117  19.552   0.683  1.00  0.00     0.054 A 
BRANCH  75  76
ATOM     76  S   UNL     1      12.187  21.011   0.546  1.00  0.00     0.124 S 
ATOM     77  O   UNL     1      13.308  20.647   1.407  1.00  0.00    -0.237 OA
ATOM     78  O   UNL     1      12.482  21.059  -0.884  1.00  0.00    -0.237 OA
ATOM     79  O   UNL     1      11.350  22.102   1.040  1.00  0.00    -0.744 OA
ENDBRANCH  75  76
ENDBRANCH  49  70
ENDBRANCH  23  24
ENDBRANCH  15  18
ENDBRANCH  13  14
ENDBRANCH  12  13
ENDBRANCH  11  12
ENDBRANCH  10  11
ENDBRANCH   8  10
ENDBRANCH   1   6
BRANCH   1  80
ATOM     80  N   UNL     1       2.823  -1.076  -0.919  1.00  0.00    -0.343 N 
ATOM     81  C   UNL     1       1.889  -1.895  -0.413  1.00  0.00     0.243 C 
ATOM     82  H   UNL     1       3.641  -1.143  -0.375  1.00  0.00     0.164 HD
ATOM     83  O   UNL     1       2.252  -2.451   0.638  1.00  0.00    -0.273 OA
BRANCH  81  84
ATOM     84  C   UNL     1       0.499  -2.285  -0.988  1.00  0.00     0.174 C 
BRANCH  84  85
ATOM     85  N   UNL     1      -0.312  -1.336  -1.759  1.00  0.00    -0.342 N 
ATOM     86  C   UNL     1      -0.677  -1.159  -3.050  1.00  0.00     0.242 C 
ATOM     87  H   UNL     1      -0.695  -0.638  -1.180  1.00  0.00     0.164 HD
ATOM     88  O   UNL     1      -1.669  -0.435  -3.222  1.00  0.00    -0.273 OA
BRANCH  86  89
ATOM     89  C   UNL     1      -0.033  -1.827  -4.285  1.00  0.00     0.168 C 
ATOM     90  C   UNL     1      -0.815  -3.067  -4.704  1.00  0.00     0.041 C 
BRANCH  89  91
ATOM     91  N   UNL     1       1.406  -2.068  -4.297  1.00  0.00    -0.343 N 
ATOM     92  C   UNL     1       2.302  -1.797  -5.299  1.00  0.00     0.240 C 
ATOM     93  H   UNL     1       1.781  -2.476  -3.483  1.00  0.00     0.164 HD
ATOM     94  O   UNL     1       3.491  -2.040  -5.075  1.00  0.00    -0.273 OA
BRANCH  92  95
ATOM     95  C   UNL     1       1.872  -1.144  -6.627  1.00  0.00     0.219 C 
BRANCH  95  96
ATOM     96  N   UNL     1       0.956  -1.986  -7.367  1.00  0.00    -0.312 N 
ATOM     97  C   UNL     1      -0.369  -1.754  -7.562  1.00  0.00     0.407 C 
ATOM     98  H   UNL     1       1.329  -2.805  -7.767  1.00  0.00     0.167 HD
ATOM     99  O   UNL     1      -1.104  -2.680  -7.891  1.00  0.00    -0.225 OA
BRANCH  97 100
ATOM    100  O   UNL     1      -0.748  -0.494  -7.245  1.00  0.00    -0.445 OA
BRANCH 100 101
ATOM    101  C   UNL     1      -2.152  -0.254  -7.035  1.00  0.00     0.270 C 
BRANCH 101 102
ATOM    102  C   UNL     1      -2.947  -0.327  -8.307  1.00  0.00    -0.011 A 
ATOM    103  C   UNL     1      -2.917   0.724  -9.229  1.00  0.00     0.007 A 
ATOM    104  C   UNL     1      -3.657  -1.495  -8.620  1.00  0.00     0.007 A 
ATOM    105  C   UNL     1      -3.556   0.589 -10.462  1.00  0.00     0.000 A 
ATOM    106  C   UNL     1      -4.275  -1.637  -9.859  1.00  0.00     0.000 A 
ATOM    107  C   UNL     1      -4.218  -0.597 -10.782  1.00  0.00     0.000 A 
ENDBRANCH 101 102
ENDBRANCH 100 101
ENDBRANCH  97 100
ENDBRANCH  95  96
ENDBRANCH  92  95
ENDBRANCH  89  91
ENDBRANCH  86  89
ENDBRANCH  84  85
BRANCH  84 108
ATOM    108  C   UNL     1       0.370  -3.754  -1.476  1.00  0.00     0.015 C 
ATOM    109  C   UNL     1       1.284  -4.764  -0.780  1.00  0.00     0.010 C 
ATOM    110  C   UNL     1      -1.083  -4.241  -1.321  1.00  0.00     0.010 C 
ENDBRANCH  84 108
ENDBRANCH  81  84
ENDBRANCH   1  80
TORSDOF 27
