REMARK SMILES O=C(NCCCCNC(=O)[C@H]1C=C[C@@H](NC(=O)c2ccc(Cl)cn2)C1)c1ccc(-c2c3nc(c(-c4ccc(S(=O)(=O)[O-])cc4)c4ccc([nH]4)c(-c4ccc(S(=O)(=O)[O-])cc4)c4nc(c(-c5ccc(S(=O)(=O)[O-])cc5)c5ccc2[nH]5)C=C4)C=C3)cc1
REMARK SMILES IDX 5 1 4 2 3 3 1 4 2 5 26 7 27 8 85 9 28 10 84 11 29 12 30 13
REMARK SMILES IDX 31 14 78 15 32 16 83 17 77 18 79 19 33 20 82 21 76 22 75 23
REMARK SMILES IDX 34 25 64 26 45 27 63 28 46 29 49 30 62 31 80 32 47 33 48 34
REMARK SMILES IDX 61 36 81 37 50 38 35 39 36 40 44 41 37 42 43 43 38 44 39 45
REMARK SMILES IDX 40 46 41 47 42 48 65 49 66 50 74 51 67 52 73 53 68 54 69 55
REMARK SMILES IDX 70 56 71 57 72 58 51 59 52 60 60 61 53 62 59 63 54 64 55 65
REMARK SMILES IDX 56 66 57 67 58 68 6 69 7 70 8 71 9 72 10 74 11 75 12 76
REMARK SMILES IDX 25 77 13 78 14 79 15 80 16 81 17 83 18 84 19 85 24 86 20 87
REMARK SMILES IDX 23 88 21 89 22 90
REMARK H PARENT 3 6 79 24 49 35 8 73 15 82
REMARK Flexibility Score: inf
ROOT
ATOM      1  C   UNL     1       4.902  -1.391  -2.373  1.00  0.00     0.023 C 
ENDROOT
BRANCH   1   2
ATOM      2  C   UNL     1       4.568  -0.465  -1.210  1.00  0.00     0.116 C 
BRANCH   2   3
ATOM      3  N   UNL     1       3.152  -0.141  -1.117  1.00  0.00    -0.352 N 
ATOM      4  O   UNL     1       1.181   0.192  -0.063  1.00  0.00    -0.269 OA
ATOM      5  C   UNL     1       2.395   0.029   0.018  1.00  0.00     0.251 C 
ATOM      6  H   UNL     1       2.678  -0.031  -1.973  1.00  0.00     0.163 HD
BRANCH   5   7
ATOM      7  C   UNL     1       3.058  -0.026   1.336  1.00  0.00     0.039 A 
ATOM      8  C   UNL     1       4.214   0.722   1.576  1.00  0.00     0.014 A 
ATOM      9  C   UNL     1       2.541  -0.868   2.323  1.00  0.00     0.014 A 
ATOM     10  C   UNL     1       4.924   0.528   2.754  1.00  0.00     0.010 A 
ATOM     11  C   UNL     1       3.219  -1.008   3.536  1.00  0.00     0.010 A 
ATOM     12  C   UNL     1       4.432  -0.335   3.748  1.00  0.00    -0.014 A 
BRANCH  12  13
ATOM     13  C   UNL     1       5.179  -0.474   5.021  1.00  0.00     0.031 A 
ATOM     14  C   UNL     1       5.844  -1.770   5.395  1.00  0.00     0.074 A 
ATOM     15  C   UNL     1       5.283   0.601   5.826  1.00  0.00     0.049 A 
ATOM     16  N   UNL     1       6.556  -2.049   6.458  1.00  0.00    -0.248 NA
ATOM     17  C   UNL     1       5.691  -2.898   4.463  1.00  0.00     0.031 C 
ATOM     18  C   UNL     1       4.678   1.910   5.563  1.00  0.00     0.029 A 
ATOM     19  N   UNL     1       5.949   0.774   7.010  1.00  0.00    -0.354 N 
ATOM     20  C   UNL     1       6.921  -3.384   6.333  1.00  0.00     0.074 A 
ATOM     21  C   UNL     1       6.336  -3.866   5.100  1.00  0.00     0.031 C 
ATOM     22  C   UNL     1       5.040   2.763   6.533  1.00  0.00     0.029 A 
ATOM     23  C   UNL     1       5.852   2.050   7.511  1.00  0.00     0.049 A 
ATOM     24  H   UNL     1       6.448   0.054   7.459  1.00  0.00     0.167 HD
ATOM     25  C   UNL     1       7.677  -4.137   7.170  1.00  0.00     0.031 A 
ATOM     26  C   UNL     1       6.349   2.587   8.640  1.00  0.00     0.031 A 
ATOM     27  C   UNL     1       8.254  -3.651   8.396  1.00  0.00     0.049 A 
ATOM     28  C   UNL     1       7.164   1.726   9.558  1.00  0.00     0.074 A 
ATOM     29  C   UNL     1       9.045  -4.333   9.306  1.00  0.00     0.029 A 
ATOM     30  N   UNL     1       8.104  -2.362   8.886  1.00  0.00    -0.354 N 
ATOM     31  N   UNL     1       7.507   0.468   9.415  1.00  0.00    -0.248 NA
ATOM     32  C   UNL     1       7.658   2.355  10.790  1.00  0.00     0.031 C 
ATOM     33  C   UNL     1       9.341  -3.466  10.365  1.00  0.00     0.029 A 
ATOM     34  C   UNL     1       8.772  -2.232  10.092  1.00  0.00     0.049 A 
ATOM     35  H   UNL     1       7.597  -1.645   8.442  1.00  0.00     0.167 HD
ATOM     36  C   UNL     1       8.264   0.155  10.537  1.00  0.00     0.074 A 
ATOM     37  C   UNL     1       8.348   1.362  11.336  1.00  0.00     0.031 C 
ATOM     38  C   UNL     1       8.834  -1.026  10.877  1.00  0.00     0.031 A 
BRANCH  25  39
ATOM     39  C   UNL     1       7.904  -5.578   6.796  1.00  0.00    -0.014 A 
ATOM     40  C   UNL     1       8.789  -5.929   5.761  1.00  0.00     0.010 A 
ATOM     41  C   UNL     1       7.258  -6.597   7.520  1.00  0.00     0.010 A 
ATOM     42  C   UNL     1       8.996  -7.272   5.433  1.00  0.00     0.020 A 
ATOM     43  C   UNL     1       7.479  -7.942   7.208  1.00  0.00     0.020 A 
ATOM     44  C   UNL     1       8.333  -8.270   6.154  1.00  0.00     0.054 A 
BRANCH  44  45
ATOM     45  S   UNL     1       8.630 -10.007   5.718  1.00  0.00     0.124 S 
ATOM     46  O   UNL     1       7.841 -10.147   4.496  1.00  0.00    -0.237 OA
ATOM     47  O   UNL     1      10.078 -10.052   5.537  1.00  0.00    -0.237 OA
ATOM     48  O   UNL     1       8.126 -10.745   6.873  1.00  0.00    -0.744 OA
ENDBRANCH  44  45
ENDBRANCH  25  39
BRANCH  26  49
ATOM     49  C   UNL     1       6.071   4.011   8.959  1.00  0.00    -0.014 A 
ATOM     50  C   UNL     1       7.087   4.977   8.863  1.00  0.00     0.010 A 
ATOM     51  C   UNL     1       4.772   4.413   9.322  1.00  0.00     0.010 A 
ATOM     52  C   UNL     1       6.811   6.320   9.134  1.00  0.00     0.020 A 
ATOM     53  C   UNL     1       4.487   5.757   9.569  1.00  0.00     0.020 A 
ATOM     54  C   UNL     1       5.512   6.702   9.484  1.00  0.00     0.054 A 
BRANCH  54  55
ATOM     55  S   UNL     1       5.155   8.457   9.768  1.00  0.00     0.124 S 
ATOM     56  O   UNL     1       5.660   8.652  11.123  1.00  0.00    -0.237 OA
ATOM     57  O   UNL     1       5.917   9.114   8.708  1.00  0.00    -0.237 OA
ATOM     58  O   UNL     1       3.704   8.537   9.620  1.00  0.00    -0.744 OA
ENDBRANCH  54  55
ENDBRANCH  26  49
BRANCH  38  59
ATOM     59  C   UNL     1       9.611  -1.060  12.164  1.00  0.00    -0.014 A 
ATOM     60  C   UNL     1       8.951  -1.079  13.405  1.00  0.00     0.010 A 
ATOM     61  C   UNL     1      11.016  -1.101  12.128  1.00  0.00     0.010 A 
ATOM     62  C   UNL     1       9.686  -1.104  14.593  1.00  0.00     0.020 A 
ATOM     63  C   UNL     1      11.753  -1.149  13.313  1.00  0.00     0.020 A 
ATOM     64  C   UNL     1      11.083  -1.134  14.539  1.00  0.00     0.054 A 
BRANCH  64  65
ATOM     65  S   UNL     1      12.018  -1.199  16.092  1.00  0.00     0.124 S 
ATOM     66  O   UNL     1      11.955   0.189  16.542  1.00  0.00    -0.237 OA
ATOM     67  O   UNL     1      11.255  -2.154  16.891  1.00  0.00    -0.237 OA
ATOM     68  O   UNL     1      13.341  -1.661  15.678  1.00  0.00    -0.744 OA
ENDBRANCH  64  65
ENDBRANCH  38  59
ENDBRANCH  12  13
ENDBRANCH   5   7
ENDBRANCH   2   3
ENDBRANCH   1   2
BRANCH   1  69
ATOM     69  C   UNL     1       4.484  -0.881  -3.752  1.00  0.00     0.023 C 
BRANCH  69  70
ATOM     70  C   UNL     1       5.018   0.505  -4.102  1.00  0.00     0.116 C 
BRANCH  70  71
ATOM     71  N   UNL     1       6.449   0.501  -4.322  1.00  0.00    -0.356 N 
ATOM     72  C   UNL     1       7.166   0.565  -5.478  1.00  0.00     0.227 C 
ATOM     73  H   UNL     1       6.992   0.444  -3.503  1.00  0.00     0.163 HD
ATOM     74  O   UNL     1       8.396   0.488  -5.392  1.00  0.00    -0.274 OA
BRANCH  72  75
ATOM     75  C   UNL     1       6.508   0.752  -6.847  1.00  0.00     0.103 C 
ATOM     76  C   UNL     1       5.497  -0.294  -7.203  1.00  0.00    -0.016 C 
ATOM     77  C   UNL     1       5.749   2.078  -7.002  1.00  0.00     0.047 C 
ATOM     78  C   UNL     1       4.377   0.249  -7.693  1.00  0.00    -0.006 C 
ATOM     79  C   UNL     1       4.451   1.741  -7.749  1.00  0.00     0.106 C 
BRANCH  79  80
ATOM     80  N   UNL     1       3.274   2.269  -7.094  1.00  0.00    -0.344 N 
ATOM     81  C   UNL     1       2.223   2.963  -7.646  1.00  0.00     0.270 C 
ATOM     82  H   UNL     1       3.218   2.110  -6.124  1.00  0.00     0.164 HD
ATOM     83  O   UNL     1       1.301   3.357  -6.939  1.00  0.00    -0.267 OA
BRANCH  81  84
ATOM     84  C   UNL     1       2.208   3.206  -9.111  1.00  0.00     0.128 A 
ATOM     85  C   UNL     1       2.059   2.133  -9.985  1.00  0.00     0.036 A 
ATOM     86  N   UNL     1       2.381   4.492  -9.510  1.00  0.00    -0.250 NA
ATOM     87  C   UNL     1       2.116   2.389 -11.354  1.00  0.00     0.024 A 
ATOM     88  C   UNL     1       2.405   4.707 -10.845  1.00  0.00     0.132 A 
ATOM     89  C   UNL     1       2.290   3.698 -11.792  1.00  0.00     0.059 A 
ATOM     90  Cl  UNL     1       2.369   4.051 -13.469  1.00  0.00    -0.083 Cl
ENDBRANCH  81  84
ENDBRANCH  79  80
ENDBRANCH  72  75
ENDBRANCH  70  71
ENDBRANCH  69  70
ENDBRANCH   1  69
TORSDOF 16
