REMARK SMILES CCOc1ccc(NC(=O)CC2(CC(=O)NCCCCNC(=O)c3ccc(-c4c5nc(c(-c6ccc(S(=O)(=O)[O-])cc6)c6ccc([nH]6)c(-c6ccc(S(=O)(=O)[O-])cc6)c6nc(c(-c7ccc(S(=O)(=O)[O-])cc7)c7ccc4[nH]7)C=C6)C=C5)cc3)CCCCC2)cc1
REMARK SMILES IDX 17 1 16 2 14 3 15 4 13 6 12 7 84 8 88 9 85 10 87 11 86 12
REMARK SMILES IDX 11 13 9 14 8 15 10 17 7 18 4 19 5 20 90 21 6 22 89 23 3 24
REMARK SMILES IDX 2 25 1 26 18 27 19 28 20 29 21 30 22 31 23 33 24 34 25 35
REMARK SMILES IDX 83 36 26 37 82 38 27 39 28 40 29 41 76 42 30 43 81 44 75 45
REMARK SMILES IDX 77 46 31 47 80 48 74 49 73 50 32 52 62 53 43 54 61 55 44 56
REMARK SMILES IDX 47 57 60 58 78 59 45 60 46 61 59 63 79 64 48 65 33 66 34 67
REMARK SMILES IDX 42 68 35 69 41 70 36 71 37 72 38 73 39 74 40 75 63 76 64 77
REMARK SMILES IDX 72 78 65 79 71 80 66 81 67 82 68 83 69 84 70 85 49 86 50 87
REMARK SMILES IDX 58 88 51 89 57 90 52 91 53 92 54 93 55 94 56 95
REMARK H PARENT 16 5 8 16 21 32 77 51 47 62
REMARK Flexibility Score: inf
ROOT
ATOM      1  C   UNL     1       6.862   6.904   3.464  1.00  0.00     0.116 C 
ENDROOT
BRANCH   1   2
ATOM      2  N   UNL     1       6.936   5.697   2.685  1.00  0.00    -0.356 N 
ATOM      3  C   UNL     1       6.036   4.695   2.548  1.00  0.00     0.220 C 
ATOM      4  O   UNL     1       6.248   3.893   1.633  1.00  0.00    -0.275 OA
ATOM      5  H   UNL     1       7.769   5.581   2.173  1.00  0.00     0.163 HD
BRANCH   3   6
ATOM      6  C   UNL     1       4.771   4.599   3.406  1.00  0.00     0.107 C 
BRANCH   6   7
ATOM      7  C   UNL     1       4.782   4.099   4.895  1.00  0.00    -0.012 C 
ATOM      8  C   UNL     1       3.325   3.652   5.273  1.00  0.00     0.008 C 
ATOM      9  C   UNL     1       5.081   5.239   5.916  1.00  0.00     0.008 C 
ATOM     10  C   UNL     1       2.282   4.770   5.281  1.00  0.00     0.001 C 
ATOM     11  C   UNL     1       4.082   6.398   5.925  1.00  0.00     0.001 C 
ATOM     12  C   UNL     1       2.672   5.908   6.211  1.00  0.00     0.000 C 
BRANCH   7  13
ATOM     13  C   UNL     1       5.745   2.895   5.229  1.00  0.00     0.108 C 
BRANCH  13  14
ATOM     14  C   UNL     1       6.681   2.299   4.190  1.00  0.00     0.224 C 
ATOM     15  N   UNL     1       6.244   1.533   3.150  1.00  0.00    -0.326 N 
ATOM     16  H   UNL     1       6.956   1.204   2.555  1.00  0.00     0.169 HD
ATOM     17  O   UNL     1       7.890   2.554   4.255  1.00  0.00    -0.275 OA
BRANCH  15  18
ATOM     18  C   UNL     1       4.952   1.138   2.787  1.00  0.00     0.041 A 
ATOM     19  C   UNL     1       2.308   0.848   1.979  1.00  0.00     0.119 A 
ATOM     20  C   UNL     1       2.662   0.564   3.295  1.00  0.00     0.048 A 
ATOM     21  C   UNL     1       3.278   1.175   1.040  1.00  0.00     0.048 A 
ATOM     22  C   UNL     1       3.995   0.698   3.697  1.00  0.00     0.030 A 
ATOM     23  C   UNL     1       4.610   1.274   1.437  1.00  0.00     0.030 A 
BRANCH  19  24
ATOM     24  O   UNL     1       0.990   0.971   1.643  1.00  0.00    -0.494 OA
BRANCH  24  25
ATOM     25  C   UNL     1       0.410  -0.275   1.256  1.00  0.00     0.226 C 
ATOM     26  C   UNL     1       0.508  -0.453  -0.249  1.00  0.00     0.049 C 
ENDBRANCH  24  25
ENDBRANCH  19  24
ENDBRANCH  15  18
ENDBRANCH  13  14
ENDBRANCH   7  13
ENDBRANCH   6   7
ENDBRANCH   3   6
ENDBRANCH   1   2
BRANCH   1  27
ATOM     27  C   UNL     1       7.835   6.866   4.638  1.00  0.00     0.023 C 
BRANCH  27  28
ATOM     28  C   UNL     1       9.209   7.453   4.364  1.00  0.00     0.023 C 
BRANCH  28  29
ATOM     29  C   UNL     1       9.204   8.886   3.858  1.00  0.00     0.116 C 
BRANCH  29  30
ATOM     30  N   UNL     1       8.390   9.806   4.646  1.00  0.00    -0.352 N 
ATOM     31  C   UNL     1       8.601  11.157   4.825  1.00  0.00     0.251 C 
ATOM     32  H   UNL     1       7.605   9.420   5.098  1.00  0.00     0.163 HD
ATOM     33  O   UNL     1       7.876  11.827   5.542  1.00  0.00    -0.269 OA
BRANCH  31  34
ATOM     34  C   UNL     1       9.777  11.747   4.157  1.00  0.00     0.039 A 
ATOM     35  C   UNL     1      10.788  12.300   4.942  1.00  0.00     0.014 A 
ATOM     36  C   UNL     1       9.946  11.567   2.782  1.00  0.00     0.014 A 
ATOM     37  C   UNL     1      12.019  12.593   4.355  1.00  0.00     0.010 A 
ATOM     38  C   UNL     1      11.199  11.771   2.224  1.00  0.00     0.010 A 
ATOM     39  C   UNL     1      12.249  12.280   3.004  1.00  0.00    -0.014 A 
BRANCH  39  40
ATOM     40  C   UNL     1      13.575  12.490   2.374  1.00  0.00     0.031 A 
ATOM     41  C   UNL     1      13.695  13.444   1.217  1.00  0.00     0.074 A 
ATOM     42  C   UNL     1      14.643  11.777   2.785  1.00  0.00     0.049 A 
ATOM     43  N   UNL     1      14.726  13.685   0.451  1.00  0.00    -0.248 NA
ATOM     44  C   UNL     1      12.484  14.200   0.851  1.00  0.00     0.031 C 
ATOM     45  C   UNL     1      14.645  10.785   3.866  1.00  0.00     0.029 A 
ATOM     46  N   UNL     1      15.940  11.774   2.337  1.00  0.00    -0.354 N 
ATOM     47  C   UNL     1      14.282  14.599  -0.497  1.00  0.00     0.074 A 
ATOM     48  C   UNL     1      12.876  14.824  -0.248  1.00  0.00     0.031 C 
ATOM     49  C   UNL     1      15.889  10.299   4.017  1.00  0.00     0.029 A 
ATOM     50  C   UNL     1      16.764  10.912   3.024  1.00  0.00     0.049 A 
ATOM     51  H   UNL     1      16.253  12.338   1.592  1.00  0.00     0.167 HD
ATOM     52  C   UNL     1      14.988  15.223  -1.468  1.00  0.00     0.031 A 
ATOM     53  C   UNL     1      18.076  10.649   2.867  1.00  0.00     0.031 A 
ATOM     54  C   UNL     1      16.393  15.030  -1.689  1.00  0.00     0.049 A 
ATOM     55  C   UNL     1      18.841  11.371   1.790  1.00  0.00     0.074 A 
ATOM     56  C   UNL     1      17.210  15.638  -2.626  1.00  0.00     0.029 A 
ATOM     57  N   UNL     1      17.196  14.177  -0.947  1.00  0.00    -0.354 N 
ATOM     58  N   UNL     1      18.408  12.255   0.923  1.00  0.00    -0.248 NA
ATOM     59  C   UNL     1      20.275  11.068   1.678  1.00  0.00     0.031 C 
ATOM     60  C   UNL     1      18.506  15.138  -2.462  1.00  0.00     0.029 A 
ATOM     61  C   UNL     1      18.500  14.248  -1.399  1.00  0.00     0.049 A 
ATOM     62  H   UNL     1      16.883  13.607  -0.208  1.00  0.00     0.167 HD
ATOM     63  C   UNL     1      19.523  12.636   0.185  1.00  0.00     0.074 A 
ATOM     64  C   UNL     1      20.650  11.896   0.714  1.00  0.00     0.031 C 
ATOM     65  C   UNL     1      19.608  13.518  -0.841  1.00  0.00     0.031 A 
BRANCH  52  66
ATOM     66  C   UNL     1      14.246  16.197  -2.341  1.00  0.00    -0.014 A 
ATOM     67  C   UNL     1      13.821  17.436  -1.828  1.00  0.00     0.010 A 
ATOM     68  C   UNL     1      13.992  15.887  -3.688  1.00  0.00     0.010 A 
ATOM     69  C   UNL     1      13.122  18.334  -2.637  1.00  0.00     0.020 A 
ATOM     70  C   UNL     1      13.316  16.795  -4.509  1.00  0.00     0.020 A 
ATOM     71  C   UNL     1      12.871  18.006  -3.972  1.00  0.00     0.054 A 
BRANCH  71  72
ATOM     72  S   UNL     1      11.987  19.203  -5.009  1.00  0.00     0.124 S 
ATOM     73  O   UNL     1      10.613  19.050  -4.537  1.00  0.00    -0.237 OA
ATOM     74  O   UNL     1      12.632  20.467  -4.662  1.00  0.00    -0.237 OA
ATOM     75  O   UNL     1      12.235  18.733  -6.369  1.00  0.00    -0.744 OA
ENDBRANCH  71  72
ENDBRANCH  52  66
BRANCH  53  76
ATOM     76  C   UNL     1      18.767   9.678   3.759  1.00  0.00    -0.014 A 
ATOM     77  C   UNL     1      19.694  10.132   4.716  1.00  0.00     0.010 A 
ATOM     78  C   UNL     1      18.534   8.297   3.635  1.00  0.00     0.010 A 
ATOM     79  C   UNL     1      20.405   9.222   5.503  1.00  0.00     0.020 A 
ATOM     80  C   UNL     1      19.226   7.385   4.439  1.00  0.00     0.020 A 
ATOM     81  C   UNL     1      20.172   7.852   5.353  1.00  0.00     0.054 A 
BRANCH  81  82
ATOM     82  S   UNL     1      21.100   6.685   6.388  1.00  0.00     0.124 S 
ATOM     83  O   UNL     1      22.392   6.644   5.712  1.00  0.00    -0.237 OA
ATOM     84  O   UNL     1      21.089   7.337   7.695  1.00  0.00    -0.237 OA
ATOM     85  O   UNL     1      20.309   5.458   6.306  1.00  0.00    -0.744 OA
ENDBRANCH  81  82
ENDBRANCH  53  76
BRANCH  65  86
ATOM     86  C   UNL     1      20.969  13.771  -1.423  1.00  0.00    -0.014 A 
ATOM     87  C   UNL     1      21.581  12.834  -2.273  1.00  0.00     0.010 A 
ATOM     88  C   UNL     1      21.614  14.994  -1.165  1.00  0.00     0.010 A 
ATOM     89  C   UNL     1      22.829  13.107  -2.837  1.00  0.00     0.020 A 
ATOM     90  C   UNL     1      22.852  15.279  -1.744  1.00  0.00     0.020 A 
ATOM     91  C   UNL     1      23.457  14.327  -2.568  1.00  0.00     0.054 A 
BRANCH  91  92
ATOM     92  S   UNL     1      25.052  14.683  -3.355  1.00  0.00     0.124 S 
ATOM     93  O   UNL     1      25.973  13.889  -2.546  1.00  0.00    -0.237 OA
ATOM     94  O   UNL     1      24.850  14.212  -4.723  1.00  0.00    -0.237 OA
ATOM     95  O   UNL     1      25.190  16.131  -3.217  1.00  0.00    -0.744 OA
ENDBRANCH  91  92
ENDBRANCH  65  86
ENDBRANCH  39  40
ENDBRANCH  31  34
ENDBRANCH  29  30
ENDBRANCH  28  29
ENDBRANCH  27  28
ENDBRANCH   1  27
TORSDOF 20
