REMARK SMILES CCN1C(=O)C[C@@H](C(=O)NCCCCNC(=O)c2ccc(-c3c4nc(c(-c5ccc(S(=O)(=O)[O-])cc5)c5ccc([nH]5)c(-c5ccc(S(=O)(=O)[O-])cc5)c5nc(c(-c6ccc(S(=O)(=O)[O-])cc6)c6ccc3[nH]6)C=C5)C=C4)cc2)[C@H]1c1ccccc1C1CC1
REMARK SMILES IDX 13 1 12 2 11 3 10 4 8 5 9 6 7 8 3 9 4 10 78 11 5 12 6 13
REMARK SMILES IDX 2 14 1 15 79 16 80 17 84 18 81 19 83 20 82 21 85 22 86 23
REMARK SMILES IDX 87 24 14 25 15 26 16 27 17 29 18 30 19 31 77 32 20 33 76 34
REMARK SMILES IDX 21 35 22 36 23 37 70 38 24 39 75 40 69 41 71 42 25 43 74 44
REMARK SMILES IDX 68 45 67 46 26 48 56 49 37 50 55 51 38 52 41 53 54 54 72 55
REMARK SMILES IDX 39 56 40 57 53 59 73 60 42 61 27 62 28 63 36 64 29 65 35 66
REMARK SMILES IDX 30 67 31 68 32 69 33 70 34 71 57 72 58 73 66 74 59 75 65 76
REMARK SMILES IDX 60 77 61 78 62 79 63 80 64 81 43 82 44 83 52 84 45 85 51 86
REMARK SMILES IDX 46 87 47 88 48 89 49 90 50 91
REMARK H PARENT 10 7 15 28 71 47 41 58
REMARK Flexibility Score: inf
ROOT
ATOM      1  C   UNL     1       6.084   4.900  -0.054  1.00  0.00     0.023 C 
ENDROOT
BRANCH   1   2
ATOM      2  C   UNL     1       5.234   4.750   1.210  1.00  0.00     0.023 C 
BRANCH   2   3
ATOM      3  C   UNL     1       4.013   5.671   1.283  1.00  0.00     0.116 C 
BRANCH   3   4
ATOM      4  N   UNL     1       3.057   5.370   0.241  1.00  0.00    -0.356 N 
ATOM      5  C   UNL     1       1.875   4.709   0.216  1.00  0.00     0.226 C 
ATOM      6  O   UNL     1       1.253   4.879  -0.835  1.00  0.00    -0.275 OA
ATOM      7  H   UNL     1       3.322   5.722  -0.640  1.00  0.00     0.163 HD
BRANCH   5   8
ATOM      8  C   UNL     1       1.253   4.005   1.428  1.00  0.00     0.115 C 
ATOM      9  N   UNL     1       0.981   1.632   1.404  1.00  0.00    -0.335 N 
ATOM     10  C   UNL     1       2.108   1.870   2.159  1.00  0.00     0.223 C 
ATOM     11  C   UNL     1       0.222   2.860   1.181  1.00  0.00     0.128 C 
ATOM     12  O   UNL     1       2.870   1.031   2.629  1.00  0.00    -0.275 OA
ATOM     13  C   UNL     1       2.197   3.340   2.433  1.00  0.00     0.116 C 
BRANCH   9  14
ATOM     14  C   UNL     1       0.433   0.290   1.264  1.00  0.00     0.117 C 
ATOM     15  C   UNL     1       1.031  -0.468   0.091  1.00  0.00     0.027 C 
ENDBRANCH   9  14
BRANCH  11  16
ATOM     16  C   UNL     1      -0.687   2.816  -0.034  1.00  0.00    -0.021 A 
ATOM     17  C   UNL     1      -0.062   2.556  -1.283  1.00  0.00     0.006 A 
ATOM     18  C   UNL     1      -2.099   2.987   0.005  1.00  0.00    -0.040 A 
ATOM     19  C   UNL     1      -0.756   2.563  -2.487  1.00  0.00     0.000 A 
ATOM     20  C   UNL     1      -2.762   2.990  -1.255  1.00  0.00     0.004 A 
ATOM     21  C   UNL     1      -2.114   2.799  -2.475  1.00  0.00     0.000 A 
BRANCH  18  22
ATOM     22  C   UNL     1      -3.035   3.161   1.206  1.00  0.00     0.019 C 
ATOM     23  C   UNL     1      -2.827   2.623   2.595  1.00  0.00     0.009 C 
ATOM     24  C   UNL     1      -2.730   4.106   2.336  1.00  0.00     0.009 C 
ENDBRANCH  18  22
ENDBRANCH  11  16
ENDBRANCH   5   8
ENDBRANCH   3   4
ENDBRANCH   2   3
ENDBRANCH   1   2
BRANCH   1  25
ATOM     25  C   UNL     1       6.519   6.321  -0.381  1.00  0.00     0.116 C 
BRANCH  25  26
ATOM     26  N   UNL     1       7.166   6.986   0.738  1.00  0.00    -0.352 N 
ATOM     27  C   UNL     1       8.265   7.808   0.737  1.00  0.00     0.251 C 
ATOM     28  H   UNL     1       6.759   6.825   1.620  1.00  0.00     0.163 HD
ATOM     29  O   UNL     1       8.747   8.188   1.799  1.00  0.00    -0.269 OA
BRANCH  27  30
ATOM     30  C   UNL     1       8.881   8.194  -0.548  1.00  0.00     0.039 A 
ATOM     31  C   UNL     1      10.265   8.075  -0.687  1.00  0.00     0.014 A 
ATOM     32  C   UNL     1       8.097   8.637  -1.617  1.00  0.00     0.014 A 
ATOM     33  C   UNL     1      10.855   8.340  -1.923  1.00  0.00     0.010 A 
ATOM     34  C   UNL     1       8.677   8.828  -2.867  1.00  0.00     0.010 A 
ATOM     35  C   UNL     1      10.062   8.681  -3.032  1.00  0.00    -0.014 A 
BRANCH  35  36
ATOM     36  C   UNL     1      10.674   8.856  -4.372  1.00  0.00     0.031 A 
ATOM     37  C   UNL     1      10.644  10.194  -5.058  1.00  0.00     0.074 A 
ATOM     38  C   UNL     1      11.224   7.790  -4.987  1.00  0.00     0.049 A 
ATOM     39  N   UNL     1      11.144  10.534  -6.218  1.00  0.00    -0.248 NA
ATOM     40  C   UNL     1       9.944  11.286  -4.363  1.00  0.00     0.031 C 
ATOM     41  C   UNL     1      11.261   6.427  -4.449  1.00  0.00     0.029 A 
ATOM     42  N   UNL     1      11.861   7.684  -6.197  1.00  0.00    -0.354 N 
ATOM     43  C   UNL     1      10.814  11.872  -6.396  1.00  0.00     0.074 A 
ATOM     44  C   UNL     1      10.024  12.268  -5.250  1.00  0.00     0.031 C 
ATOM     45  C   UNL     1      11.922   5.633  -5.305  1.00  0.00     0.029 A 
ATOM     46  C   UNL     1      12.323   6.417  -6.468  1.00  0.00     0.049 A 
ATOM     47  H   UNL     1      11.976   8.443  -6.814  1.00  0.00     0.167 HD
ATOM     48  C   UNL     1      11.156  12.703  -7.410  1.00  0.00     0.031 A 
ATOM     49  C   UNL     1      12.997   5.940  -7.532  1.00  0.00     0.031 A 
ATOM     50  C   UNL     1      11.943  12.303  -8.547  1.00  0.00     0.049 A 
ATOM     51  C   UNL     1      13.367   6.883  -8.643  1.00  0.00     0.074 A 
ATOM     52  C   UNL     1      12.392  13.082  -9.599  1.00  0.00     0.029 A 
ATOM     53  N   UNL     1      12.394  11.013  -8.785  1.00  0.00    -0.354 N 
ATOM     54  N   UNL     1      13.115   8.165  -8.754  1.00  0.00    -0.248 NA
ATOM     55  C   UNL     1      14.127   6.316  -9.764  1.00  0.00     0.031 C 
ATOM     56  C   UNL     1      13.066  12.252 -10.502  1.00  0.00     0.029 A 
ATOM     57  C   UNL     1      13.092  10.968  -9.981  1.00  0.00     0.049 A 
ATOM     58  H   UNL     1      12.240  10.243  -8.191  1.00  0.00     0.167 HD
ATOM     59  C   UNL     1      13.703   8.564  -9.949  1.00  0.00     0.074 A 
ATOM     60  C   UNL     1      14.346   7.391 -10.508  1.00  0.00     0.031 C 
ATOM     61  C   UNL     1      13.710   9.788 -10.533  1.00  0.00     0.031 A 
BRANCH  48  62
ATOM     62  C   UNL     1      10.673  14.128  -7.335  1.00  0.00    -0.014 A 
ATOM     63  C   UNL     1      11.185  15.021  -6.375  1.00  0.00     0.010 A 
ATOM     64  C   UNL     1       9.724  14.595  -8.263  1.00  0.00     0.010 A 
ATOM     65  C   UNL     1      10.729  16.340  -6.319  1.00  0.00     0.020 A 
ATOM     66  C   UNL     1       9.287  15.923  -8.229  1.00  0.00     0.020 A 
ATOM     67  C   UNL     1       9.780  16.783  -7.246  1.00  0.00     0.054 A 
BRANCH  67  68
ATOM     68  S   UNL     1       9.227  18.508  -7.165  1.00  0.00     0.124 S 
ATOM     69  O   UNL     1       8.398  18.503  -5.962  1.00  0.00    -0.237 OA
ATOM     70  O   UNL     1      10.484  19.243  -7.058  1.00  0.00    -0.237 OA
ATOM     71  O   UNL     1       8.502  18.700  -8.418  1.00  0.00    -0.744 OA
ENDBRANCH  67  68
ENDBRANCH  48  62
BRANCH  49  72
ATOM     72  C   UNL     1      13.383   4.503  -7.584  1.00  0.00    -0.014 A 
ATOM     73  C   UNL     1      14.730   4.118  -7.465  1.00  0.00     0.010 A 
ATOM     74  C   UNL     1      12.400   3.509  -7.740  1.00  0.00     0.010 A 
ATOM     75  C   UNL     1      15.089   2.768  -7.522  1.00  0.00     0.020 A 
ATOM     76  C   UNL     1      12.752   2.156  -7.768  1.00  0.00     0.020 A 
ATOM     77  C   UNL     1      14.097   1.795  -7.671  1.00  0.00     0.054 A 
BRANCH  77  78
ATOM     78  S   UNL     1      14.581   0.047  -7.693  1.00  0.00     0.124 S 
ATOM     79  O   UNL     1      15.194  -0.082  -9.011  1.00  0.00    -0.237 OA
ATOM     80  O   UNL     1      15.495  -0.041  -6.557  1.00  0.00    -0.237 OA
ATOM     81  O   UNL     1      13.314  -0.660  -7.519  1.00  0.00    -0.744 OA
ENDBRANCH  77  78
ENDBRANCH  49  72
BRANCH  61  82
ATOM     82  C   UNL     1      14.452   9.919 -11.837  1.00  0.00    -0.014 A 
ATOM     83  C   UNL     1      13.970   9.320 -13.015  1.00  0.00     0.010 A 
ATOM     84  C   UNL     1      15.644  10.666 -11.886  1.00  0.00     0.010 A 
ATOM     85  C   UNL     1      14.694   9.419 -14.205  1.00  0.00     0.020 A 
ATOM     86  C   UNL     1      16.354  10.795 -13.083  1.00  0.00     0.020 A 
ATOM     87  C   UNL     1      15.886  10.151 -14.230  1.00  0.00     0.054 A 
BRANCH  87  88
ATOM     88  S   UNL     1      16.805  10.270 -15.788  1.00  0.00     0.124 S 
ATOM     89  O   UNL     1      17.394   8.938 -15.895  1.00  0.00    -0.237 OA
ATOM     90  O   UNL     1      15.755  10.573 -16.758  1.00  0.00    -0.237 OA
ATOM     91  O   UNL     1      17.755  11.354 -15.548  1.00  0.00    -0.744 OA
ENDBRANCH  87  88
ENDBRANCH  61  82
ENDBRANCH  35  36
ENDBRANCH  27  30
ENDBRANCH  25  26
ENDBRANCH   1  25
TORSDOF 17
