REMARK SMILES COc1ccc(-c2[nH]nc3nc(-c4ccc(C(F)(F)F)cc4)cc(C(=O)NCCCCNC(=O)c4ccc(-c5c6nc(c(-c7ccc(S(=O)(=O)[O-])cc7)c7ccc([nH]7)c(-c7ccc(S(=O)(=O)[O-])cc7)c7nc(c(-c8ccc(S(=O)(=O)[O-])cc8)c8ccc5[nH]8)C=C7)C=C6)cc4)c23)cc1
REMARK SMILES IDX 30 1 29 2 28 3 27 4 25 5 26 6 24 8 7 9 8 10 95 11 9 12 10 14
REMARK SMILES IDX 11 15 23 16 12 17 6 18 3 19 4 20 97 21 5 22 96 23 2 24 1 25
REMARK SMILES IDX 13 26 14 27 22 28 15 29 21 30 16 31 17 32 18 33 19 34 20 35
REMARK SMILES IDX 31 36 32 37 33 38 34 40 35 41 36 42 94 43 37 44 93 45 38 46
REMARK SMILES IDX 39 47 40 48 87 49 41 50 92 51 86 52 88 53 42 54 91 55 85 56
REMARK SMILES IDX 84 57 43 59 73 60 54 61 72 62 55 63 58 64 71 65 89 66 56 67
REMARK SMILES IDX 57 68 70 70 90 71 59 72 44 73 45 74 53 75 46 76 52 77 47 78
REMARK SMILES IDX 48 79 49 80 50 81 51 82 74 83 75 84 83 85 76 86 82 87 77 88
REMARK SMILES IDX 78 89 79 90 80 91 81 92 60 93 61 94 69 95 62 96 68 97 63 98
REMARK SMILES IDX 64 99 65 100 66 101 67 102
REMARK H PARENT 27 7 8 13 32 39 88 58 58 69
REMARK Flexibility Score: inf
ROOT
ATOM      1  C   UNL     1       7.884  -6.125  -1.281  1.00  0.00     0.023 C 
ENDROOT
BRANCH   1   2
ATOM      2  C   UNL     1       7.089  -6.752  -2.441  1.00  0.00     0.023 C 
BRANCH   2   3
ATOM      3  C   UNL     1       5.711  -7.296  -2.063  1.00  0.00     0.116 C 
BRANCH   3   4
ATOM      4  N   UNL     1       4.719  -6.258  -1.885  1.00  0.00    -0.352 N 
ATOM      5  C   UNL     1       3.734  -5.688  -2.648  1.00  0.00     0.252 C 
ATOM      6  O   UNL     1       2.965  -4.986  -2.002  1.00  0.00    -0.269 OA
ATOM      7  H   UNL     1       4.764  -5.859  -0.986  1.00  0.00     0.163 HD
BRANCH   5   8
ATOM      8  C   UNL     1       3.533  -5.900  -4.101  1.00  0.00     0.055 A 
ATOM      9  C   UNL     1       1.645  -4.288  -4.691  1.00  0.00     0.075 A 
ATOM     10  N   UNL     1       0.933  -4.166  -5.863  1.00  0.00    -0.275 N 
ATOM     11  C   UNL     1       2.554  -5.310  -4.933  1.00  0.00     0.059 A 
ATOM     12  N   UNL     1       1.333  -4.962  -6.863  1.00  0.00    -0.154 NA
ATOM     13  H   UNL     1       0.182  -3.536  -5.959  1.00  0.00     0.190 HD
ATOM     14  C   UNL     1       2.308  -5.684  -6.313  1.00  0.00     0.182 A 
ATOM     15  N   UNL     1       2.999  -6.661  -6.955  1.00  0.00    -0.226 NA
ATOM     16  C   UNL     1       4.273  -6.819  -4.853  1.00  0.00     0.043 A 
ATOM     17  C   UNL     1       3.956  -7.215  -6.175  1.00  0.00     0.074 A 
BRANCH   9  18
ATOM     18  C   UNL     1       1.331  -3.404  -3.573  1.00  0.00     0.001 A 
ATOM     19  C   UNL     1       0.755  -1.808  -1.329  1.00  0.00     0.118 A 
ATOM     20  C   UNL     1      -0.203  -2.686  -1.836  1.00  0.00     0.047 A 
ATOM     21  C   UNL     1       1.999  -1.714  -1.953  1.00  0.00     0.047 A 
ATOM     22  C   UNL     1       0.076  -3.473  -2.956  1.00  0.00     0.014 A 
ATOM     23  C   UNL     1       2.278  -2.494  -3.084  1.00  0.00     0.014 A 
BRANCH  19  24
ATOM     24  O   UNL     1       0.386  -1.144  -0.193  1.00  0.00    -0.497 OA
ATOM     25  C   UNL     1       1.028   0.100   0.042  1.00  0.00     0.278 C 
ENDBRANCH  19  24
ENDBRANCH   9  18
BRANCH  17  26
ATOM     26  C   UNL     1       4.690  -8.369  -6.723  1.00  0.00     0.000 A 
ATOM     27  C   UNL     1       5.508  -8.256  -7.852  1.00  0.00     0.011 A 
ATOM     28  C   UNL     1       4.668  -9.600  -6.036  1.00  0.00     0.011 A 
ATOM     29  C   UNL     1       6.325  -9.324  -8.247  1.00  0.00     0.014 A 
ATOM     30  C   UNL     1       5.480 -10.666  -6.428  1.00  0.00     0.014 A 
ATOM     31  C   UNL     1       6.332 -10.533  -7.530  1.00  0.00     0.056 A 
BRANCH  31  32
ATOM     32  C   UNL     1       7.250 -11.657  -7.941  1.00  0.00     0.416 C 
ATOM     33  F   UNL     1       6.999 -12.101  -9.204  1.00  0.00    -0.166 F 
ATOM     34  F   UNL     1       8.561 -11.284  -7.933  1.00  0.00    -0.166 F 
ATOM     35  F   UNL     1       7.172 -12.753  -7.137  1.00  0.00    -0.166 F 
ENDBRANCH  31  32
ENDBRANCH  17  26
ENDBRANCH   5   8
ENDBRANCH   3   4
ENDBRANCH   2   3
ENDBRANCH   1   2
BRANCH   1  36
ATOM     36  C   UNL     1       8.186  -7.055  -0.107  1.00  0.00     0.116 C 
BRANCH  36  37
ATOM     37  N   UNL     1       8.917  -8.267  -0.495  1.00  0.00    -0.352 N 
ATOM     38  C   UNL     1       9.116  -9.434   0.235  1.00  0.00     0.251 C 
ATOM     39  H   UNL     1       9.321  -8.252  -1.393  1.00  0.00     0.163 HD
ATOM     40  O   UNL     1      10.048 -10.178  -0.017  1.00  0.00    -0.269 OA
BRANCH  38  41
ATOM     41  C   UNL     1       8.144  -9.774   1.292  1.00  0.00     0.039 A 
ATOM     42  C   UNL     1       8.492 -10.355   2.513  1.00  0.00     0.014 A 
ATOM     43  C   UNL     1       6.822  -9.463   1.016  1.00  0.00     0.014 A 
ATOM     44  C   UNL     1       7.488 -10.553   3.465  1.00  0.00     0.010 A 
ATOM     45  C   UNL     1       5.903  -9.423   2.019  1.00  0.00     0.010 A 
ATOM     46  C   UNL     1       6.196 -10.075   3.203  1.00  0.00    -0.014 A 
BRANCH  46  47
ATOM     47  C   UNL     1       5.101 -10.156   4.155  1.00  0.00     0.031 A 
ATOM     48  C   UNL     1       5.322  -9.365   5.392  1.00  0.00     0.074 A 
ATOM     49  C   UNL     1       3.886 -10.636   3.798  1.00  0.00     0.049 A 
ATOM     50  N   UNL     1       5.601  -9.812   6.570  1.00  0.00    -0.248 NA
ATOM     51  C   UNL     1       5.437  -7.900   5.272  1.00  0.00     0.031 C 
ATOM     52  C   UNL     1       3.427 -11.089   2.475  1.00  0.00     0.029 A 
ATOM     53  N   UNL     1       2.745 -10.693   4.527  1.00  0.00    -0.354 N 
ATOM     54  C   UNL     1       5.667  -8.692   7.393  1.00  0.00     0.074 A 
ATOM     55  C   UNL     1       5.804  -7.562   6.511  1.00  0.00     0.031 C 
ATOM     56  C   UNL     1       2.074 -11.123   2.448  1.00  0.00     0.029 A 
ATOM     57  C   UNL     1       1.578 -10.868   3.788  1.00  0.00     0.049 A 
ATOM     58  H   UNL     1       2.741 -10.617   5.508  1.00  0.00     0.167 HD
ATOM     59  C   UNL     1       5.314  -8.759   8.709  1.00  0.00     0.031 A 
ATOM     60  C   UNL     1       0.303 -10.768   4.251  1.00  0.00     0.031 A 
ATOM     61  C   UNL     1       5.123 -10.129   9.123  1.00  0.00     0.049 A 
ATOM     62  C   UNL     1       0.384 -10.897   5.731  1.00  0.00     0.074 A 
ATOM     63  C   UNL     1       5.919 -11.255   9.163  1.00  0.00     0.029 A 
ATOM     64  N   UNL     1       3.821 -10.579   9.169  1.00  0.00    -0.354 N 
ATOM     65  N   UNL     1       0.782 -11.984   6.334  1.00  0.00    -0.248 NA
ATOM     66  C   UNL     1       0.518  -9.671   6.505  1.00  0.00     0.031 C 
ATOM     67  C   UNL     1       5.068 -12.316   8.736  1.00  0.00     0.029 A 
ATOM     68  C   UNL     1       3.781 -11.801   8.553  1.00  0.00     0.049 A 
ATOM     69  H   UNL     1       3.058 -10.106   9.573  1.00  0.00     0.167 HD
ATOM     70  C   UNL     1       1.604 -11.542   7.362  1.00  0.00     0.074 A 
ATOM     71  C   UNL     1       1.341 -10.105   7.465  1.00  0.00     0.031 C 
ATOM     72  C   UNL     1       2.632 -12.310   7.833  1.00  0.00     0.031 A 
BRANCH  59  73
ATOM     73  C   UNL     1       4.715  -7.618   9.499  1.00  0.00    -0.014 A 
ATOM     74  C   UNL     1       4.363  -7.858  10.845  1.00  0.00     0.010 A 
ATOM     75  C   UNL     1       4.230  -6.429   8.919  1.00  0.00     0.010 A 
ATOM     76  C   UNL     1       3.486  -7.013  11.533  1.00  0.00     0.020 A 
ATOM     77  C   UNL     1       3.389  -5.554   9.611  1.00  0.00     0.020 A 
ATOM     78  C   UNL     1       2.989  -5.875  10.901  1.00  0.00     0.054 A 
BRANCH  78  79
ATOM     79  S   UNL     1       1.766  -4.854  11.756  1.00  0.00     0.124 S 
ATOM     80  O   UNL     1       0.625  -5.761  11.837  1.00  0.00    -0.237 OA
ATOM     81  O   UNL     1       2.437  -4.563  13.020  1.00  0.00    -0.237 OA
ATOM     82  O   UNL     1       1.596  -3.708  10.867  1.00  0.00    -0.744 OA
ENDBRANCH  78  79
ENDBRANCH  59  73
BRANCH  60  83
ATOM     83  C   UNL     1      -0.903 -10.234   3.558  1.00  0.00    -0.014 A 
ATOM     84  C   UNL     1      -2.196 -10.418   4.089  1.00  0.00     0.010 A 
ATOM     85  C   UNL     1      -0.759  -9.286   2.523  1.00  0.00     0.010 A 
ATOM     86  C   UNL     1      -3.285  -9.640   3.648  1.00  0.00     0.020 A 
ATOM     87  C   UNL     1      -1.839  -8.510   2.076  1.00  0.00     0.020 A 
ATOM     88  C   UNL     1      -3.094  -8.672   2.658  1.00  0.00     0.054 A 
BRANCH  88  89
ATOM     89  S   UNL     1      -4.459  -7.547   2.223  1.00  0.00     0.124 S 
ATOM     90  O   UNL     1      -5.393  -8.437   1.540  1.00  0.00    -0.237 OA
ATOM     91  O   UNL     1      -4.895  -7.055   3.527  1.00  0.00    -0.237 OA
ATOM     92  O   UNL     1      -3.822  -6.546   1.369  1.00  0.00    -0.744 OA
ENDBRANCH  88  89
ENDBRANCH  60  83
BRANCH  72  93
ATOM     93  C   UNL     1       2.714 -13.762   7.416  1.00  0.00    -0.014 A 
ATOM     94  C   UNL     1       2.924 -14.198   6.093  1.00  0.00     0.010 A 
ATOM     95  C   UNL     1       2.776 -14.711   8.451  1.00  0.00     0.010 A 
ATOM     96  C   UNL     1       3.179 -15.553   5.819  1.00  0.00     0.020 A 
ATOM     97  C   UNL     1       3.047 -16.053   8.188  1.00  0.00     0.020 A 
ATOM     98  C   UNL     1       3.242 -16.472   6.872  1.00  0.00     0.054 A 
BRANCH  98  99
ATOM     99  S   UNL     1       3.629 -18.212   6.530  1.00  0.00     0.124 S 
ATOM    100  O   UNL     1       2.434 -18.670   5.826  1.00  0.00    -0.237 OA
ATOM    101  O   UNL     1       4.842 -18.124   5.720  1.00  0.00    -0.237 OA
ATOM    102  O   UNL     1       3.823 -18.794   7.858  1.00  0.00    -0.744 OA
ENDBRANCH  98  99
ENDBRANCH  72  93
ENDBRANCH  46  47
ENDBRANCH  38  41
ENDBRANCH  36  37
ENDBRANCH   1  36
TORSDOF 18
