REMARK SMILES O=C(CS(=O)(=O)NCc1ccc(N2CCOCC2)nc1)NCCCCNC(=O)c1ccc(-c2c3nc(c(-c4ccc(S(=O)(=O)[O-])cc4)c4ccc([nH]4)c(-c4ccc(S(=O)(=O)[O-])cc4)c4nc(c(-c5ccc(S(=O)(=O)[O-])cc5)c5ccc2[nH]5)C=C4)C=C3)cc1
REMARK SMILES IDX 22 1 21 2 1 3 2 4 3 6 4 7 5 8 6 9 7 10 8 12 9 13 10 14 20 15
REMARK SMILES IDX 11 16 19 17 12 18 13 19 14 20 18 21 15 22 17 23 16 24 23 25
REMARK SMILES IDX 24 26 25 27 26 28 27 29 28 31 29 32 30 33 88 34 31 35 87 36
REMARK SMILES IDX 32 37 33 38 34 39 81 40 35 41 86 42 80 43 82 44 36 45 85 46
REMARK SMILES IDX 79 47 78 48 37 50 67 51 48 52 66 53 49 54 52 55 65 56 83 57
REMARK SMILES IDX 50 58 51 59 64 61 84 62 53 63 38 64 39 65 47 66 40 67 46 68
REMARK SMILES IDX 41 69 42 70 43 71 44 72 45 73 68 74 69 75 77 76 70 77 76 78
REMARK SMILES IDX 71 79 72 80 73 81 74 82 75 83 54 84 55 85 63 86 56 87 62 88
REMARK SMILES IDX 57 89 58 90 59 91 60 92 61 93
REMARK H PARENT 21 5 7 11 26 30 82 49 52 60
REMARK Flexibility Score: inf
ROOT
ATOM      1  C   UNL     1       2.147   1.737  -1.869  1.00  0.00     0.116 C 
ENDROOT
BRANCH   1   2
ATOM      2  N   UNL     1       2.797   0.966  -0.824  1.00  0.00    -0.355 N 
ATOM      3  O   UNL     1       0.901  -0.095  -0.094  1.00  0.00    -0.274 OA
ATOM      4  C   UNL     1       2.118   0.071  -0.023  1.00  0.00     0.236 C 
ATOM      5  H   UNL     1       3.763   1.088  -0.681  1.00  0.00     0.163 HD
BRANCH   4   6
ATOM      6  C   UNL     1       2.935  -0.651   1.004  1.00  0.00     0.253 C 
BRANCH   6   7
ATOM      7  S   UNL     1       4.064  -1.794   0.263  1.00  0.00     0.220 S 
ATOM      8  O   UNL     1       4.785  -1.107  -0.790  1.00  0.00    -0.212 OA
ATOM      9  O   UNL     1       4.792  -2.426   1.340  1.00  0.00    -0.212 OA
BRANCH   7  10
ATOM     10  N   UNL     1       3.132  -3.022  -0.373  1.00  0.00    -0.210 NA
ATOM     11  H   UNL     1       2.450  -3.256   0.348  1.00  0.00     0.141 HD
BRANCH  10  12
ATOM     12  C   UNL     1       2.371  -2.896  -1.620  1.00  0.00     0.135 C 
BRANCH  12  13
ATOM     13  C   UNL     1       3.169  -2.554  -2.838  1.00  0.00    -0.015 A 
ATOM     14  C   UNL     1       2.841  -1.462  -3.639  1.00  0.00     0.010 A 
ATOM     15  C   UNL     1       4.288  -3.287  -3.206  1.00  0.00     0.118 A 
ATOM     16  C   UNL     1       3.669  -1.116  -4.705  1.00  0.00     0.047 A 
ATOM     17  N   UNL     1       5.103  -2.965  -4.232  1.00  0.00    -0.239 NA
ATOM     18  C   UNL     1       4.807  -1.874  -4.961  1.00  0.00     0.128 A 
BRANCH  18  19
ATOM     19  N   UNL     1       5.715  -1.467  -5.891  1.00  0.00    -0.352 N 
ATOM     20  C   UNL     1       6.963  -0.869  -5.442  1.00  0.00     0.146 C 
ATOM     21  C   UNL     1       5.483  -1.501  -7.325  1.00  0.00     0.146 C 
ATOM     22  C   UNL     1       7.089   0.505  -6.108  1.00  0.00     0.181 C 
ATOM     23  C   UNL     1       5.688  -0.095  -7.910  1.00  0.00     0.181 C 
ATOM     24  O   UNL     1       6.966   0.449  -7.538  1.00  0.00    -0.378 OA
ENDBRANCH  18  19
ENDBRANCH  12  13
ENDBRANCH  10  12
ENDBRANCH   7  10
ENDBRANCH   6   7
ENDBRANCH   4   6
ENDBRANCH   1   2
BRANCH   1  25
ATOM     25  C   UNL     1       2.353   3.242  -1.730  1.00  0.00     0.023 C 
BRANCH  25  26
ATOM     26  C   UNL     1       3.805   3.723  -1.772  1.00  0.00     0.023 C 
BRANCH  26  27
ATOM     27  C   UNL     1       4.621   3.365  -3.013  1.00  0.00     0.116 C 
BRANCH  27  28
ATOM     28  N   UNL     1       4.111   3.936  -4.247  1.00  0.00    -0.352 N 
ATOM     29  C   UNL     1       4.740   4.421  -5.374  1.00  0.00     0.251 C 
ATOM     30  H   UNL     1       3.128   3.986  -4.287  1.00  0.00     0.163 HD
ATOM     31  O   UNL     1       4.018   4.902  -6.250  1.00  0.00    -0.269 OA
BRANCH  29  32
ATOM     32  C   UNL     1       6.220   4.392  -5.592  1.00  0.00     0.039 A 
ATOM     33  C   UNL     1       6.768   5.218  -6.593  1.00  0.00     0.014 A 
ATOM     34  C   UNL     1       7.083   3.541  -4.906  1.00  0.00     0.014 A 
ATOM     35  C   UNL     1       8.144   5.201  -6.883  1.00  0.00     0.010 A 
ATOM     36  C   UNL     1       8.450   3.534  -5.174  1.00  0.00     0.010 A 
ATOM     37  C   UNL     1       8.992   4.353  -6.168  1.00  0.00    -0.014 A 
BRANCH  37  38
ATOM     38  C   UNL     1      10.465   4.350  -6.298  1.00  0.00     0.031 A 
ATOM     39  C   UNL     1      11.178   3.307  -7.109  1.00  0.00     0.074 A 
ATOM     40  C   UNL     1      11.145   5.136  -5.442  1.00  0.00     0.049 A 
ATOM     41  N   UNL     1      12.464   3.087  -7.210  1.00  0.00    -0.248 NA
ATOM     42  C   UNL     1      10.344   2.373  -7.880  1.00  0.00     0.031 C 
ATOM     43  C   UNL     1      10.528   6.090  -4.515  1.00  0.00     0.029 A 
ATOM     44  N   UNL     1      12.479   5.191  -5.143  1.00  0.00    -0.354 N 
ATOM     45  C   UNL     1      12.601   2.006  -8.072  1.00  0.00     0.074 A 
ATOM     46  C   UNL     1      11.262   1.581  -8.424  1.00  0.00     0.031 C 
ATOM     47  C   UNL     1      11.474   6.578  -3.699  1.00  0.00     0.029 A 
ATOM     48  C   UNL     1      12.758   5.989  -4.061  1.00  0.00     0.049 A 
ATOM     49  H   UNL     1      13.169   4.707  -5.652  1.00  0.00     0.167 HD
ATOM     50  C   UNL     1      13.743   1.436  -8.533  1.00  0.00     0.031 A 
ATOM     51  C   UNL     1      13.920   6.221  -3.423  1.00  0.00     0.031 A 
ATOM     52  C   UNL     1      15.065   1.848  -8.123  1.00  0.00     0.049 A 
ATOM     53  C   UNL     1      15.175   5.607  -3.964  1.00  0.00     0.074 A 
ATOM     54  C   UNL     1      16.292   1.429  -8.609  1.00  0.00     0.029 A 
ATOM     55  N   UNL     1      15.332   2.752  -7.104  1.00  0.00    -0.354 N 
ATOM     56  N   UNL     1      15.307   4.719  -4.920  1.00  0.00    -0.248 NA
ATOM     57  C   UNL     1      16.439   6.069  -3.381  1.00  0.00     0.031 C 
ATOM     58  C   UNL     1      17.298   2.038  -7.848  1.00  0.00     0.029 A 
ATOM     59  C   UNL     1      16.700   2.883  -6.927  1.00  0.00     0.049 A 
ATOM     60  H   UNL     1      14.648   3.232  -6.582  1.00  0.00     0.167 HD
ATOM     61  C   UNL     1      16.675   4.547  -5.085  1.00  0.00     0.074 A 
ATOM     62  C   UNL     1      17.324   5.426  -4.131  1.00  0.00     0.031 C 
ATOM     63  C   UNL     1      17.333   3.746  -5.960  1.00  0.00     0.031 A 
BRANCH  50  64
ATOM     64  C   UNL     1      13.629   0.329  -9.555  1.00  0.00    -0.014 A 
ATOM     65  C   UNL     1      13.155   0.598 -10.853  1.00  0.00     0.010 A 
ATOM     66  C   UNL     1      14.094  -0.967  -9.261  1.00  0.00     0.010 A 
ATOM     67  C   UNL     1      13.124  -0.407 -11.825  1.00  0.00     0.020 A 
ATOM     68  C   UNL     1      14.088  -1.970 -10.238  1.00  0.00     0.020 A 
ATOM     69  C   UNL     1      13.592  -1.686 -11.512  1.00  0.00     0.054 A 
BRANCH  69  70
ATOM     70  S   UNL     1      13.590  -2.953 -12.812  1.00  0.00     0.124 S 
ATOM     71  O   UNL     1      12.166  -3.248 -12.945  1.00  0.00    -0.237 OA
ATOM     72  O   UNL     1      14.193  -2.253 -13.943  1.00  0.00    -0.237 OA
ATOM     73  O   UNL     1      14.399  -4.032 -12.249  1.00  0.00    -0.744 OA
ENDBRANCH  69  70
ENDBRANCH  50  64
BRANCH  51  74
ATOM     74  C   UNL     1      13.936   7.156  -2.271  1.00  0.00    -0.014 A 
ATOM     75  C   UNL     1      14.365   8.481  -2.455  1.00  0.00     0.010 A 
ATOM     76  C   UNL     1      13.440   6.759  -1.016  1.00  0.00     0.010 A 
ATOM     77  C   UNL     1      14.307   9.394  -1.401  1.00  0.00     0.020 A 
ATOM     78  C   UNL     1      13.362   7.676   0.036  1.00  0.00     0.020 A 
ATOM     79  C   UNL     1      13.801   8.988  -0.163  1.00  0.00     0.054 A 
BRANCH  79  80
ATOM     80  S   UNL     1      13.664  10.218   1.163  1.00  0.00     0.124 S 
ATOM     81  O   UNL     1      15.056  10.391   1.562  1.00  0.00    -0.237 OA
ATOM     82  O   UNL     1      13.055  11.355   0.476  1.00  0.00    -0.237 OA
ATOM     83  O   UNL     1      12.805   9.564   2.148  1.00  0.00    -0.744 OA
ENDBRANCH  79  80
ENDBRANCH  51  74
BRANCH  63  84
ATOM     84  C   UNL     1      18.837   3.807  -5.941  1.00  0.00    -0.014 A 
ATOM     85  C   UNL     1      19.575   3.260  -4.876  1.00  0.00     0.010 A 
ATOM     86  C   UNL     1      19.520   4.404  -7.016  1.00  0.00     0.010 A 
ATOM     87  C   UNL     1      20.970   3.348  -4.867  1.00  0.00     0.020 A 
ATOM     88  C   UNL     1      20.916   4.467  -7.024  1.00  0.00     0.020 A 
ATOM     89  C   UNL     1      21.631   3.954  -5.940  1.00  0.00     0.054 A 
BRANCH  89  90
ATOM     90  S   UNL     1      23.442   4.034  -5.916  1.00  0.00     0.124 S 
ATOM     91  O   UNL     1      23.687   5.083  -4.930  1.00  0.00    -0.237 OA
ATOM     92  O   UNL     1      23.818   2.684  -5.503  1.00  0.00    -0.237 OA
ATOM     93  O   UNL     1      23.792   4.378  -7.292  1.00  0.00    -0.744 OA
ENDBRANCH  89  90
ENDBRANCH  63  84
ENDBRANCH  37  38
ENDBRANCH  29  32
ENDBRANCH  27  28
ENDBRANCH  26  27
ENDBRANCH  25  26
ENDBRANCH   1  25
TORSDOF 19
