REMARK SMILES Cc1cc(SCC(=O)NCCCCNC(=O)c2ccc(-c3c4nc(c(-c5ccc(S(=O)(=O)[O-])cc5)c5ccc([nH]5)c(-c5ccc(S(=O)(=O)[O-])cc5)c5nc(c(-c6ccc(S(=O)(=O)[O-])cc6)c6ccc3[nH]6)C=C5)C=C4)cc2)c2cc(I)ccc2n1
REMARK SMILES IDX 12 1 11 2 10 3 9 4 7 5 8 6 6 8 5 9 4 10 1 11 2 12 3 13 84 14
REMARK SMILES IDX 83 15 77 16 82 17 78 18 81 19 79 20 80 21 13 22 14 23 15 24
REMARK SMILES IDX 16 26 17 27 18 28 76 29 19 30 75 31 20 32 21 33 22 34 69 35
REMARK SMILES IDX 23 36 74 37 68 38 70 39 24 40 73 41 67 42 66 43 25 45 55 46
REMARK SMILES IDX 36 47 54 48 37 49 40 50 53 51 71 52 38 53 39 54 52 56 72 57
REMARK SMILES IDX 41 58 26 59 27 60 35 61 28 62 34 63 29 64 30 65 31 66 32 67
REMARK SMILES IDX 33 68 56 69 57 70 65 71 58 72 64 73 59 74 60 75 61 76 62 77
REMARK SMILES IDX 63 78 42 79 43 80 51 81 44 82 50 83 45 84 46 85 47 86 48 87
REMARK SMILES IDX 49 88
REMARK H PARENT 9 7 14 25 70 44 40 55
REMARK Flexibility Score: inf
ROOT
ATOM      1  C   UNL     1       1.593  -5.457  -4.535  1.00  0.00     0.023 C 
ENDROOT
BRANCH   1   2
ATOM      2  C   UNL     1       1.948  -6.074  -3.178  1.00  0.00     0.023 C 
BRANCH   2   3
ATOM      3  C   UNL     1       3.383  -5.828  -2.713  1.00  0.00     0.116 C 
BRANCH   3   4
ATOM      4  N   UNL     1       3.662  -4.414  -2.555  1.00  0.00    -0.355 N 
ATOM      5  C   UNL     1       3.824  -3.680  -1.420  1.00  0.00     0.230 C 
ATOM      6  O   UNL     1       4.035  -2.470  -1.540  1.00  0.00    -0.274 OA
ATOM      7  H   UNL     1       3.746  -3.908  -3.395  1.00  0.00     0.163 HD
BRANCH   5   8
ATOM      8  C   UNL     1       3.842  -4.333  -0.052  1.00  0.00     0.174 C 
BRANCH   8   9
ATOM      9  S   UNL     1       2.253  -5.034   0.493  1.00  0.00    -0.115 SA
BRANCH   9  10
ATOM     10  C   UNL     1       1.037  -3.709   0.328  1.00  0.00     0.019 A 
ATOM     11  C   UNL     1       0.824   0.061   0.084  1.00  0.00     0.067 C 
ATOM     12  C   UNL     1       0.451  -1.389   0.172  1.00  0.00     0.039 A 
ATOM     13  C   UNL     1       1.420  -2.368   0.314  1.00  0.00     0.039 A 
ATOM     14  N   UNL     1      -0.866  -1.675   0.106  1.00  0.00    -0.253 NA
ATOM     15  C   UNL     1      -1.256  -2.954   0.151  1.00  0.00     0.072 A 
ATOM     16  C   UNL     1      -0.351  -4.033   0.255  1.00  0.00     0.015 A 
ATOM     17  C   UNL     1      -2.620  -3.209   0.092  1.00  0.00     0.030 A 
ATOM     18  C   UNL     1      -0.888  -5.351   0.286  1.00  0.00     0.026 A 
ATOM     19  C   UNL     1      -3.136  -4.506   0.131  1.00  0.00     0.017 A 
ATOM     20  C   UNL     1      -2.263  -5.577   0.226  1.00  0.00     0.014 A 
ATOM     21  I   UNL     1      -3.000  -7.518   0.284  1.00  0.00    -0.044 I 
ENDBRANCH   9  10
ENDBRANCH   8   9
ENDBRANCH   5   8
ENDBRANCH   3   4
ENDBRANCH   2   3
ENDBRANCH   1   2
BRANCH   1  22
ATOM     22  C   UNL     1       2.495  -5.856  -5.699  1.00  0.00     0.116 C 
BRANCH  22  23
ATOM     23  N   UNL     1       2.500  -7.287  -5.958  1.00  0.00    -0.352 N 
ATOM     24  C   UNL     1       2.448  -7.944  -7.166  1.00  0.00     0.251 C 
ATOM     25  H   UNL     1       2.549  -7.864  -5.162  1.00  0.00     0.163 HD
ATOM     26  O   UNL     1       2.358  -9.169  -7.197  1.00  0.00    -0.269 OA
BRANCH  24  27
ATOM     27  C   UNL     1       2.453  -7.165  -8.423  1.00  0.00     0.039 A 
ATOM     28  C   UNL     1       3.388  -6.148  -8.630  1.00  0.00     0.014 A 
ATOM     29  C   UNL     1       1.478  -7.432  -9.388  1.00  0.00     0.014 A 
ATOM     30  C   UNL     1       3.252  -5.300  -9.726  1.00  0.00     0.010 A 
ATOM     31  C   UNL     1       1.384  -6.619 -10.521  1.00  0.00     0.010 A 
ATOM     32  C   UNL     1       2.240  -5.517 -10.675  1.00  0.00    -0.014 A 
BRANCH  32  33
ATOM     33  C   UNL     1       2.072  -4.573 -11.809  1.00  0.00     0.031 A 
ATOM     34  C   UNL     1       0.847  -3.701 -11.900  1.00  0.00     0.074 A 
ATOM     35  C   UNL     1       3.046  -4.464 -12.733  1.00  0.00     0.049 A 
ATOM     36  N   UNL     1       0.526  -2.831 -12.824  1.00  0.00    -0.248 NA
ATOM     37  C   UNL     1      -0.143  -3.815 -10.816  1.00  0.00     0.031 C 
ATOM     38  C   UNL     1       4.297  -5.223 -12.728  1.00  0.00     0.029 A 
ATOM     39  N   UNL     1       3.149  -3.658 -13.840  1.00  0.00    -0.354 N 
ATOM     40  C   UNL     1      -0.702  -2.305 -12.441  1.00  0.00     0.074 A 
ATOM     41  C   UNL     1      -1.085  -2.969 -11.215  1.00  0.00     0.031 C 
ATOM     42  C   UNL     1       5.063  -4.811 -13.749  1.00  0.00     0.029 A 
ATOM     43  C   UNL     1       4.333  -3.809 -14.521  1.00  0.00     0.049 A 
ATOM     44  H   UNL     1       2.443  -3.031 -14.118  1.00  0.00     0.167 HD
ATOM     45  C   UNL     1      -1.438  -1.347 -13.053  1.00  0.00     0.031 A 
ATOM     46  C   UNL     1       4.783  -3.222 -15.649  1.00  0.00     0.031 A 
ATOM     47  C   UNL     1      -1.047  -0.680 -14.266  1.00  0.00     0.049 A 
ATOM     48  C   UNL     1       3.918  -2.215 -16.349  1.00  0.00     0.074 A 
ATOM     49  C   UNL     1      -1.728   0.307 -14.956  1.00  0.00     0.029 A 
ATOM     50  N   UNL     1       0.125  -0.922 -14.966  1.00  0.00    -0.354 N 
ATOM     51  N   UNL     1       2.749  -1.748 -15.984  1.00  0.00    -0.248 NA
ATOM     52  C   UNL     1       4.420  -1.665 -17.616  1.00  0.00     0.031 C 
ATOM     53  C   UNL     1      -0.995   0.625 -16.101  1.00  0.00     0.029 A 
ATOM     54  C   UNL     1       0.173  -0.121 -16.094  1.00  0.00     0.049 A 
ATOM     55  H   UNL     1       0.819  -1.568 -14.700  1.00  0.00     0.167 HD
ATOM     56  C   UNL     1       2.377  -0.843 -16.971  1.00  0.00     0.074 A 
ATOM     57  C   UNL     1       3.450  -0.818 -17.944  1.00  0.00     0.031 C 
ATOM     58  C   UNL     1       1.245  -0.105 -17.058  1.00  0.00     0.031 A 
BRANCH  45  59
ATOM     59  C   UNL     1      -2.752  -0.951 -12.434  1.00  0.00    -0.014 A 
ATOM     60  C   UNL     1      -3.956  -1.289 -13.078  1.00  0.00     0.010 A 
ATOM     61  C   UNL     1      -2.794  -0.147 -11.280  1.00  0.00     0.010 A 
ATOM     62  C   UNL     1      -5.178  -0.814 -12.595  1.00  0.00     0.020 A 
ATOM     63  C   UNL     1      -4.017   0.311 -10.781  1.00  0.00     0.020 A 
ATOM     64  C   UNL     1      -5.199  -0.008 -11.454  1.00  0.00     0.054 A 
BRANCH  64  65
ATOM     65  S   UNL     1      -6.793   0.610 -10.843  1.00  0.00     0.124 S 
ATOM     66  O   UNL     1      -7.060   1.722 -11.749  1.00  0.00    -0.237 OA
ATOM     67  O   UNL     1      -7.667  -0.552 -10.992  1.00  0.00    -0.237 OA
ATOM     68  O   UNL     1      -6.504   0.984  -9.460  1.00  0.00    -0.744 OA
ENDBRANCH  64  65
ENDBRANCH  45  59
BRANCH  46  69
ATOM     69  C   UNL     1       6.131  -3.588 -16.160  1.00  0.00    -0.014 A 
ATOM     70  C   UNL     1       6.369  -4.876 -16.678  1.00  0.00     0.010 A 
ATOM     71  C   UNL     1       7.207  -2.694 -16.028  1.00  0.00     0.010 A 
ATOM     72  C   UNL     1       7.667  -5.285 -16.991  1.00  0.00     0.020 A 
ATOM     73  C   UNL     1       8.504  -3.092 -16.365  1.00  0.00     0.020 A 
ATOM     74  C   UNL     1       8.729  -4.397 -16.812  1.00  0.00     0.054 A 
BRANCH  74  75
ATOM     75  S   UNL     1      10.416  -4.970 -17.153  1.00  0.00     0.124 S 
ATOM     76  O   UNL     1      10.722  -5.731 -15.944  1.00  0.00    -0.237 OA
ATOM     77  O   UNL     1      10.248  -5.763 -18.368  1.00  0.00    -0.237 OA
ATOM     78  O   UNL     1      11.170  -3.731 -17.320  1.00  0.00    -0.744 OA
ENDBRANCH  74  75
ENDBRANCH  46  69
BRANCH  58  79
ATOM     79  C   UNL     1       1.073   0.805 -18.243  1.00  0.00    -0.014 A 
ATOM     80  C   UNL     1       1.135   2.199 -18.064  1.00  0.00     0.010 A 
ATOM     81  C   UNL     1       0.680   0.287 -19.489  1.00  0.00     0.010 A 
ATOM     82  C   UNL     1       0.759   3.062 -19.096  1.00  0.00     0.020 A 
ATOM     83  C   UNL     1       0.325   1.148 -20.531  1.00  0.00     0.020 A 
ATOM     84  C   UNL     1       0.338   2.529 -20.318  1.00  0.00     0.054 A 
BRANCH  84  85
ATOM     85  S   UNL     1      -0.215   3.662 -21.622  1.00  0.00     0.124 S 
ATOM     86  O   UNL     1      -1.553   4.026 -21.166  1.00  0.00    -0.237 OA
ATOM     87  O   UNL     1       0.781   4.729 -21.567  1.00  0.00    -0.237 OA
ATOM     88  O   UNL     1      -0.168   2.841 -22.830  1.00  0.00    -0.744 OA
ENDBRANCH  84  85
ENDBRANCH  58  79
ENDBRANCH  32  33
ENDBRANCH  24  27
ENDBRANCH  22  23
ENDBRANCH   1  22
TORSDOF 16
