REMARK SMILES O=C(NCCCCNC(=O)c1ccccc1C(=O)Nc1ccc(N2C(=O)[C@H]3[C@@H]4CC[C@@H](C4)[C@@H]3C2=O)cc1)c1ccc(-c2c3nc(c(-c4ccc(S(=O)(=O)[O-])cc4)c4ccc([nH]4)c(-c4ccc(S(=O)(=O)[O-])cc4)c4nc(c(-c5ccc(S(=O)(=O)[O-])cc5)c5ccc2[nH]5)C=C4)C=C3)cc1
REMARK SMILES IDX 5 1 4 2 3 3 1 4 2 5 38 7 39 8 97 9 40 10 96 11 41 12 42 13
REMARK SMILES IDX 43 14 90 15 44 16 95 17 89 18 91 19 45 20 94 21 88 22 87 23
REMARK SMILES IDX 46 25 76 26 57 27 75 28 58 29 61 30 74 31 92 32 59 33 60 34
REMARK SMILES IDX 73 36 93 37 62 38 47 39 48 40 56 41 49 42 55 43 50 44 51 45
REMARK SMILES IDX 52 46 53 47 54 48 77 49 78 50 86 51 79 52 85 53 80 54 81 55
REMARK SMILES IDX 82 56 83 57 84 58 63 59 64 60 72 61 65 62 71 63 66 64 67 65
REMARK SMILES IDX 68 66 69 67 70 68 6 69 7 70 8 71 9 72 10 74 11 75 12 76
REMARK SMILES IDX 16 77 13 78 15 79 14 80 17 81 18 82 19 83 20 85 21 86 37 87
REMARK SMILES IDX 22 88 36 89 23 90 24 91 25 92 34 93 26 94 27 95 33 96 35 97
REMARK SMILES IDX 28 98 31 99 29 100 32 101 30 102
REMARK H PARENT 3 6 91 24 61 35 8 73 19 84
REMARK Flexibility Score: inf
ROOT
ATOM      1  C   UNL     1       4.423  -1.259   2.452  1.00  0.00     0.023 C 
ENDROOT
BRANCH   1   2
ATOM      2  C   UNL     1       4.181  -1.243   0.944  1.00  0.00     0.116 C 
BRANCH   2   3
ATOM      3  N   UNL     1       2.786  -1.065   0.588  1.00  0.00    -0.352 N 
ATOM      4  O   UNL     1       0.908  -0.003  -0.037  1.00  0.00    -0.269 OA
ATOM      5  C   UNL     1       2.133   0.020   0.057  1.00  0.00     0.251 C 
ATOM      6  H   UNL     1       2.215  -1.850   0.754  1.00  0.00     0.163 HD
BRANCH   5   7
ATOM      7  C   UNL     1       2.879   1.224  -0.374  1.00  0.00     0.039 A 
ATOM      8  C   UNL     1       4.016   1.137  -1.182  1.00  0.00     0.014 A 
ATOM      9  C   UNL     1       2.386   2.478  -0.002  1.00  0.00     0.014 A 
ATOM     10  C   UNL     1       4.727   2.292  -1.513  1.00  0.00     0.010 A 
ATOM     11  C   UNL     1       3.060   3.639  -0.394  1.00  0.00     0.010 A 
ATOM     12  C   UNL     1       4.253   3.557  -1.129  1.00  0.00    -0.014 A 
BRANCH  12  13
ATOM     13  C   UNL     1       4.974   4.795  -1.532  1.00  0.00     0.031 A 
ATOM     14  C   UNL     1       5.578   5.708  -0.498  1.00  0.00     0.074 A 
ATOM     15  C   UNL     1       5.057   5.118  -2.838  1.00  0.00     0.049 A 
ATOM     16  N   UNL     1       6.185   6.856  -0.664  1.00  0.00    -0.248 NA
ATOM     17  C   UNL     1       5.478   5.280   0.906  1.00  0.00     0.031 C 
ATOM     18  C   UNL     1       4.513   4.321  -3.941  1.00  0.00     0.029 A 
ATOM     19  N   UNL     1       5.622   6.203  -3.461  1.00  0.00    -0.354 N 
ATOM     20  C   UNL     1       6.521   7.299   0.611  1.00  0.00     0.074 A 
ATOM     21  C   UNL     1       6.022   6.308   1.542  1.00  0.00     0.031 C 
ATOM     22  C   UNL     1       4.788   4.933  -5.102  1.00  0.00     0.029 A 
ATOM     23  C   UNL     1       5.470   6.194  -4.827  1.00  0.00     0.049 A 
ATOM     24  H   UNL     1       6.092   6.919  -2.975  1.00  0.00     0.167 HD
ATOM     25  C   UNL     1       7.184   8.425   0.973  1.00  0.00     0.031 A 
ATOM     26  C   UNL     1       5.810   7.106  -5.758  1.00  0.00     0.031 A 
ATOM     27  C   UNL     1       7.663   9.416   0.043  1.00  0.00     0.049 A 
ATOM     28  C   UNL     1       6.499   8.372  -5.330  1.00  0.00     0.074 A 
ATOM     29  C   UNL     1       8.373  10.574   0.310  1.00  0.00     0.029 A 
ATOM     30  N   UNL     1       7.472   9.376  -1.331  1.00  0.00    -0.354 N 
ATOM     31  N   UNL     1       6.842   8.754  -4.123  1.00  0.00    -0.248 NA
ATOM     32  C   UNL     1       6.853   9.325  -6.390  1.00  0.00     0.031 C 
ATOM     33  C   UNL     1       8.553  11.266  -0.892  1.00  0.00     0.029 A 
ATOM     34  C   UNL     1       8.024  10.502  -1.920  1.00  0.00     0.049 A 
ATOM     35  H   UNL     1       7.011   8.653  -1.816  1.00  0.00     0.167 HD
ATOM     36  C   UNL     1       7.481   9.979  -4.282  1.00  0.00     0.074 A 
ATOM     37  C   UNL     1       7.484  10.268  -5.702  1.00  0.00     0.031 C 
ATOM     38  C   UNL     1       8.022  10.784  -3.335  1.00  0.00     0.031 A 
BRANCH  25  39
ATOM     39  C   UNL     1       7.398   8.665   2.447  1.00  0.00    -0.014 A 
ATOM     40  C   UNL     1       8.266   7.857   3.205  1.00  0.00     0.010 A 
ATOM     41  C   UNL     1       6.743   9.739   3.081  1.00  0.00     0.010 A 
ATOM     42  C   UNL     1       8.430   8.082   4.575  1.00  0.00     0.020 A 
ATOM     43  C   UNL     1       6.929   9.987   4.444  1.00  0.00     0.020 A 
ATOM     44  C   UNL     1       7.755   9.142   5.187  1.00  0.00     0.054 A 
BRANCH  44  45
ATOM     45  S   UNL     1       7.982   9.406   6.968  1.00  0.00     0.124 S 
ATOM     46  O   UNL     1       7.249   8.276   7.534  1.00  0.00    -0.237 OA
ATOM     47  O   UNL     1       9.434   9.348   7.117  1.00  0.00    -0.237 OA
ATOM     48  O   UNL     1       7.385  10.717   7.205  1.00  0.00    -0.744 OA
ENDBRANCH  44  45
ENDBRANCH  25  39
BRANCH  26  49
ATOM     49  C   UNL     1       5.492   6.846  -7.189  1.00  0.00    -0.014 A 
ATOM     50  C   UNL     1       6.516   6.568  -8.111  1.00  0.00     0.010 A 
ATOM     51  C   UNL     1       4.154   6.832  -7.627  1.00  0.00     0.010 A 
ATOM     52  C   UNL     1       6.207   6.285  -9.445  1.00  0.00     0.020 A 
ATOM     53  C   UNL     1       3.841   6.518  -8.951  1.00  0.00     0.020 A 
ATOM     54  C   UNL     1       4.871   6.253  -9.854  1.00  0.00     0.054 A 
BRANCH  54  55
ATOM     55  S   UNL     1       4.495   5.809 -11.573  1.00  0.00     0.124 S 
ATOM     56  O   UNL     1       4.948   6.991 -12.299  1.00  0.00    -0.237 OA
ATOM     57  O   UNL     1       5.294   4.602 -11.766  1.00  0.00    -0.237 OA
ATOM     58  O   UNL     1       3.050   5.595 -11.563  1.00  0.00    -0.744 OA
ENDBRANCH  54  55
ENDBRANCH  26  49
BRANCH  38  59
ATOM     59  C   UNL     1       8.713  12.041  -3.800  1.00  0.00    -0.014 A 
ATOM     60  C   UNL     1       7.990  13.137  -4.304  1.00  0.00     0.010 A 
ATOM     61  C   UNL     1      10.110  12.147  -3.666  1.00  0.00     0.010 A 
ATOM     62  C   UNL     1       8.656  14.305  -4.690  1.00  0.00     0.020 A 
ATOM     63  C   UNL     1      10.775  13.323  -4.022  1.00  0.00     0.020 A 
ATOM     64  C   UNL     1      10.044  14.392  -4.543  1.00  0.00     0.054 A 
BRANCH  64  65
ATOM     65  S   UNL     1      10.876  15.938  -4.997  1.00  0.00     0.124 S 
ATOM     66  O   UNL     1      10.793  15.913  -6.454  1.00  0.00    -0.237 OA
ATOM     67  O   UNL     1      10.053  16.949  -4.337  1.00  0.00    -0.237 OA
ATOM     68  O   UNL     1      12.221  15.783  -4.447  1.00  0.00    -0.744 OA
ENDBRANCH  64  65
ENDBRANCH  38  59
ENDBRANCH  12  13
ENDBRANCH   5   7
ENDBRANCH   2   3
ENDBRANCH   1   2
BRANCH   1  69
ATOM     69  C   UNL     1       3.846  -2.473   3.192  1.00  0.00     0.023 C 
BRANCH  69  70
ATOM     70  C   UNL     1       4.466  -3.815   2.806  1.00  0.00     0.116 C 
BRANCH  70  71
ATOM     71  N   UNL     1       5.856  -3.922   3.205  1.00  0.00    -0.352 N 
ATOM     72  C   UNL     1       6.660  -5.028   3.267  1.00  0.00     0.252 C 
ATOM     73  H   UNL     1       6.284  -3.076   3.470  1.00  0.00     0.163 HD
ATOM     74  O   UNL     1       7.763  -4.954   3.809  1.00  0.00    -0.269 OA
BRANCH  72  75
ATOM     75  C   UNL     1       6.199  -6.358   2.822  1.00  0.00     0.052 A 
ATOM     76  C   UNL     1       6.339  -7.337   3.836  1.00  0.00     0.014 A 
ATOM     77  C   UNL     1       5.650  -6.713   1.581  1.00  0.00     0.052 A 
ATOM     78  C   UNL     1       5.845  -8.628   3.677  1.00  0.00     0.001 A 
ATOM     79  C   UNL     1       5.120  -8.023   1.464  1.00  0.00     0.014 A 
ATOM     80  C   UNL     1       5.202  -8.962   2.498  1.00  0.00     0.001 A 
BRANCH  77  81
ATOM     81  C   UNL     1       5.428  -5.869   0.367  1.00  0.00     0.256 C 
ATOM     82  O   UNL     1       4.395  -6.085  -0.280  1.00  0.00    -0.269 OA
ATOM     83  N   UNL     1       6.198  -4.814  -0.063  1.00  0.00    -0.322 N 
ATOM     84  H   UNL     1       5.813  -4.323  -0.824  1.00  0.00     0.170 HD
BRANCH  83  85
ATOM     85  C   UNL     1       7.420  -4.310   0.375  1.00  0.00     0.041 A 
ATOM     86  C   UNL     1       7.494  -2.926   0.561  1.00  0.00     0.028 A 
ATOM     87  C   UNL     1       8.504  -5.115   0.700  1.00  0.00     0.028 A 
ATOM     88  C   UNL     1       8.518  -2.384   1.333  1.00  0.00     0.029 A 
ATOM     89  C   UNL     1       9.603  -4.545   1.347  1.00  0.00     0.029 A 
ATOM     90  C   UNL     1       9.559  -3.203   1.760  1.00  0.00     0.052 A 
BRANCH  90  91
ATOM     91  N   UNL     1      10.467  -2.755   2.733  1.00  0.00    -0.250 N 
ATOM     92  C   UNL     1      11.830  -3.071   2.711  1.00  0.00     0.237 C 
ATOM     93  C   UNL     1      10.057  -2.227   3.977  1.00  0.00     0.237 C 
ATOM     94  O   UNL     1      12.547  -3.407   1.789  1.00  0.00    -0.274 OA
ATOM     95  C   UNL     1      12.174  -3.109   4.156  1.00  0.00     0.095 C 
ATOM     96  C   UNL     1      11.356  -1.934   4.666  1.00  0.00     0.095 C 
ATOM     97  O   UNL     1       8.943  -1.970   4.400  1.00  0.00    -0.274 OA
ATOM     98  C   UNL     1      13.466  -2.993   4.962  1.00  0.00     0.002 C 
ATOM     99  C   UNL     1      11.877  -1.841   6.097  1.00  0.00     0.002 C 
ATOM    100  C   UNL     1      13.215  -3.901   6.185  1.00  0.00     0.005 C 
ATOM    101  C   UNL     1      13.361  -1.636   5.698  1.00  0.00     0.009 C 
ATOM    102  C   UNL     1      11.993  -3.199   6.849  1.00  0.00     0.005 C 
ENDBRANCH  90  91
ENDBRANCH  83  85
ENDBRANCH  77  81
ENDBRANCH  72  75
ENDBRANCH  70  71
ENDBRANCH  69  70
ENDBRANCH   1  69
TORSDOF 17
