REMARK SMILES CO[C@@H]1C[C@H](C(=O)NCCCCNC(=O)c2ccc(-c3c4nc(c(-c5ccc(S(=O)(=O)[O-])cc5)c5ccc([nH]5)c(-c5ccc(S(=O)(=O)[O-])cc5)c5nc(c(-c6ccc(S(=O)(=O)[O-])cc6)c6ccc3[nH]6)C=C5)C=C4)cc2)N(C(=O)c2ccc([N+](=O)[O-])s2)C1
REMARK SMILES IDX 10 1 9 2 8 3 6 4 7 5 5 7 3 8 4 9 87 10 76 11 2 12 1 13 77 14
REMARK SMILES IDX 78 15 79 16 80 17 86 18 81 19 82 20 83 21 84 22 85 23 11 24
REMARK SMILES IDX 12 25 13 26 14 27 15 29 16 30 17 31 75 32 18 33 74 34 19 35
REMARK SMILES IDX 20 36 21 37 68 38 22 39 73 40 67 41 69 42 23 43 72 44 66 45
REMARK SMILES IDX 65 46 24 48 54 49 35 50 53 51 36 52 39 53 52 54 70 55 37 56
REMARK SMILES IDX 38 57 51 59 71 60 40 61 25 62 26 63 34 64 27 65 33 66 28 67
REMARK SMILES IDX 29 68 30 69 31 70 32 71 55 72 56 73 64 74 57 75 63 76 58 77
REMARK SMILES IDX 59 78 60 79 61 80 62 81 41 82 42 83 50 84 43 85 49 86 44 87
REMARK SMILES IDX 45 88 46 89 47 90 48 91
REMARK H PARENT 8 6 13 28 69 47 39 58
REMARK Flexibility Score: inf
ROOT
ATOM      1  C   UNL     1      -0.353  -1.253   1.138  1.00  0.00     0.023 C 
ENDROOT
BRANCH   1   2
ATOM      2  C   UNL     1      -0.762  -2.647   0.665  1.00  0.00     0.116 C 
BRANCH   2   3
ATOM      3  N   UNL     1      -1.896  -2.594  -0.236  1.00  0.00    -0.354 N 
ATOM      4  C   UNL     1      -1.967  -2.624  -1.592  1.00  0.00     0.242 C 
ATOM      5  O   UNL     1      -3.086  -2.444  -2.091  1.00  0.00    -0.273 OA
ATOM      6  H   UNL     1      -2.768  -2.525   0.214  1.00  0.00     0.163 HD
BRANCH   4   7
ATOM      7  C   UNL     1      -0.745  -2.753  -2.534  1.00  0.00     0.177 C 
ATOM      8  C   UNL     1       1.517  -1.879  -2.108  1.00  0.00     0.139 C 
ATOM      9  C   UNL     1       0.117  -1.494  -2.596  1.00  0.00     0.069 C 
ATOM     10  C   UNL     1       1.517  -3.405  -1.990  1.00  0.00     0.152 C 
ATOM     11  N   UNL     1       0.171  -3.857  -2.286  1.00  0.00    -0.323 N 
BRANCH   8  12
ATOM     12  O   UNL     1       1.803  -1.293  -0.842  1.00  0.00    -0.380 OA
ATOM     13  C   UNL     1       2.162   0.083  -0.920  1.00  0.00     0.195 C 
ENDBRANCH   8  12
BRANCH  11  14
ATOM     14  C   UNL     1      -0.076  -5.213  -2.472  1.00  0.00     0.264 C 
ATOM     15  O   UNL     1       0.734  -6.051  -2.080  1.00  0.00    -0.268 OA
BRANCH  14  16
ATOM     16  C   UNL     1      -1.264  -5.587  -3.222  1.00  0.00     0.099 A 
ATOM     17  C   UNL     1      -1.616  -5.225  -4.511  1.00  0.00     0.033 A 
ATOM     18  S   UNL     1      -2.373  -6.716  -2.565  1.00  0.00    -0.058 S 
ATOM     19  C   UNL     1      -2.832  -5.834  -4.936  1.00  0.00     0.099 A 
ATOM     20  C   UNL     1      -3.334  -6.676  -3.968  1.00  0.00     0.324 A 
BRANCH  20  21
ATOM     21  N   UNL     1      -4.521  -7.484  -4.078  1.00  0.00     0.074 N 
ATOM     22  O   UNL     1      -5.158  -7.376  -5.137  1.00  0.00    -0.258 OA
ATOM     23  O   UNL     1      -4.817  -8.233  -3.140  1.00  0.00    -0.258 OA
ENDBRANCH  20  21
ENDBRANCH  14  16
ENDBRANCH  11  14
ENDBRANCH   4   7
ENDBRANCH   2   3
ENDBRANCH   1   2
BRANCH   1  24
ATOM     24  C   UNL     1      -1.054  -0.755   2.396  1.00  0.00     0.023 C 
BRANCH  24  25
ATOM     25  C   UNL     1      -0.750  -1.558   3.656  1.00  0.00     0.116 C 
BRANCH  25  26
ATOM     26  N   UNL     1       0.670  -1.671   3.970  1.00  0.00    -0.352 N 
ATOM     27  C   UNL     1       1.279  -1.677   5.207  1.00  0.00     0.251 C 
ATOM     28  H   UNL     1       1.273  -1.754   3.196  1.00  0.00     0.163 HD
ATOM     29  O   UNL     1       2.496  -1.711   5.304  1.00  0.00    -0.269 OA
BRANCH  27  30
ATOM     30  C   UNL     1       0.429  -1.586   6.414  1.00  0.00     0.039 A 
ATOM     31  C   UNL     1       0.717  -0.614   7.374  1.00  0.00     0.014 A 
ATOM     32  C   UNL     1      -0.703  -2.393   6.539  1.00  0.00     0.014 A 
ATOM     33  C   UNL     1      -0.189  -0.387   8.412  1.00  0.00     0.010 A 
ATOM     34  C   UNL     1      -1.648  -2.098   7.512  1.00  0.00     0.010 A 
ATOM     35  C   UNL     1      -1.405  -1.089   8.457  1.00  0.00    -0.014 A 
BRANCH  35  36
ATOM     36  C   UNL     1      -2.445  -0.784   9.473  1.00  0.00     0.031 A 
ATOM     37  C   UNL     1      -2.890  -1.853  10.434  1.00  0.00     0.074 A 
ATOM     38  C   UNL     1      -3.050   0.421   9.471  1.00  0.00     0.049 A 
ATOM     39  N   UNL     1      -3.837  -1.809  11.335  1.00  0.00    -0.248 NA
ATOM     40  C   UNL     1      -2.209  -3.155  10.343  1.00  0.00     0.031 C 
ATOM     41  C   UNL     1      -2.751   1.523   8.551  1.00  0.00     0.029 A 
ATOM     42  N   UNL     1      -4.049   0.921  10.268  1.00  0.00    -0.354 N 
ATOM     43  C   UNL     1      -3.888  -3.082  11.890  1.00  0.00     0.074 A 
ATOM     44  C   UNL     1      -2.915  -3.889  11.189  1.00  0.00     0.031 C 
ATOM     45  C   UNL     1      -3.518   2.580   8.866  1.00  0.00     0.029 A 
ATOM     46  C   UNL     1      -4.390   2.221   9.979  1.00  0.00     0.049 A 
ATOM     47  H   UNL     1      -4.481   0.397  10.982  1.00  0.00     0.167 HD
ATOM     48  C   UNL     1      -4.658  -3.535  12.908  1.00  0.00     0.031 A 
ATOM     49  C   UNL     1      -5.301   3.035  10.548  1.00  0.00     0.031 A 
ATOM     50  C   UNL     1      -5.597  -2.718  13.628  1.00  0.00     0.049 A 
ATOM     51  C   UNL     1      -6.126   2.519  11.695  1.00  0.00     0.074 A 
ATOM     52  C   UNL     1      -6.363  -3.055  14.729  1.00  0.00     0.029 A 
ATOM     53  N   UNL     1      -5.894  -1.400  13.319  1.00  0.00    -0.354 N 
ATOM     54  N   UNL     1      -6.104   1.334  12.257  1.00  0.00    -0.248 NA
ATOM     55  C   UNL     1      -7.090   3.454  12.291  1.00  0.00     0.031 C 
ATOM     56  C   UNL     1      -7.157  -1.952  15.061  1.00  0.00     0.029 A 
ATOM     57  C   UNL     1      -6.848  -0.913  14.197  1.00  0.00     0.049 A 
ATOM     58  H   UNL     1      -5.487  -0.885  12.585  1.00  0.00     0.167 HD
ATOM     59  C   UNL     1      -7.030   1.391  13.293  1.00  0.00     0.074 A 
ATOM     60  C   UNL     1      -7.585   2.729  13.285  1.00  0.00     0.031 C 
ATOM     61  C   UNL     1      -7.386   0.423  14.173  1.00  0.00     0.031 A 
BRANCH  48  62
ATOM     62  C   UNL     1      -4.512  -4.983  13.294  1.00  0.00    -0.014 A 
ATOM     63  C   UNL     1      -3.338  -5.459  13.908  1.00  0.00     0.010 A 
ATOM     64  C   UNL     1      -5.567  -5.880  13.048  1.00  0.00     0.010 A 
ATOM     65  C   UNL     1      -3.200  -6.814  14.215  1.00  0.00     0.020 A 
ATOM     66  C   UNL     1      -5.444  -7.232  13.383  1.00  0.00     0.020 A 
ATOM     67  C   UNL     1      -4.252  -7.694  13.943  1.00  0.00     0.054 A 
BRANCH  67  68
ATOM     68  S   UNL     1      -4.047  -9.449  14.355  1.00  0.00     0.124 S 
ATOM     69  O   UNL     1      -3.158  -9.904  13.289  1.00  0.00    -0.237 OA
ATOM     70  O   UNL     1      -3.453  -9.399  15.689  1.00  0.00    -0.237 OA
ATOM     71  O   UNL     1      -5.407  -9.978  14.301  1.00  0.00    -0.744 OA
ENDBRANCH  67  68
ENDBRANCH  48  62
BRANCH  49  72
ATOM     72  C   UNL     1      -5.451   4.437  10.071  1.00  0.00    -0.014 A 
ATOM     73  C   UNL     1      -4.990   5.504  10.863  1.00  0.00     0.010 A 
ATOM     74  C   UNL     1      -6.038   4.715   8.824  1.00  0.00     0.010 A 
ATOM     75  C   UNL     1      -5.128   6.824  10.425  1.00  0.00     0.020 A 
ATOM     76  C   UNL     1      -6.156   6.034   8.371  1.00  0.00     0.020 A 
ATOM     77  C   UNL     1      -5.709   7.081   9.180  1.00  0.00     0.054 A 
BRANCH  77  78
ATOM     78  S   UNL     1      -5.827   8.799   8.608  1.00  0.00     0.124 S 
ATOM     79  O   UNL     1      -6.920   9.317   9.424  1.00  0.00    -0.237 OA
ATOM     80  O   UNL     1      -4.500   9.327   8.917  1.00  0.00    -0.237 OA
ATOM     81  O   UNL     1      -6.117   8.664   7.182  1.00  0.00    -0.744 OA
ENDBRANCH  77  78
ENDBRANCH  49  72
BRANCH  61  82
ATOM     82  C   UNL     1      -8.399   0.786  15.225  1.00  0.00    -0.014 A 
ATOM     83  C   UNL     1      -9.758   0.945  14.903  1.00  0.00     0.010 A 
ATOM     84  C   UNL     1      -7.989   0.914  16.565  1.00  0.00     0.010 A 
ATOM     85  C   UNL     1     -10.686   1.257  15.900  1.00  0.00     0.020 A 
ATOM     86  C   UNL     1      -8.918   1.200  17.567  1.00  0.00     0.020 A 
ATOM     87  C   UNL     1     -10.259   1.384  17.226  1.00  0.00     0.054 A 
BRANCH  87  88
ATOM     88  S   UNL     1     -11.489   1.746  18.509  1.00  0.00     0.124 S 
ATOM     89  O   UNL     1     -11.748   3.166  18.289  1.00  0.00    -0.237 OA
ATOM     90  O   UNL     1     -12.587   0.845  18.167  1.00  0.00    -0.237 OA
ATOM     91  O   UNL     1     -10.794   1.425  19.754  1.00  0.00    -0.744 OA
ENDBRANCH  87  88
ENDBRANCH  61  82
ENDBRANCH  35  36
ENDBRANCH  27  30
ENDBRANCH  25  26
ENDBRANCH  24  25
ENDBRANCH   1  24
TORSDOF 18
