REMARK SMILES Cc1cccc(C)c1Nc1ccccc1CC(=O)NCCCCNC(=O)c1ccc(-c2c3nc(c(-c4ccc(S(=O)(=O)[O-])cc4)c4ccc([nH]4)c(-c4ccc(S(=O)(=O)[O-])cc4)c4nc(c(-c5ccc(S(=O)(=O)[O-])cc5)c5ccc2[nH]5)C=C4)C=C3)cc1
REMARK SMILES IDX 21 1 20 2 19 3 17 4 18 5 16 7 15 8 10 9 11 10 12 11 14 12
REMARK SMILES IDX 13 13 9 14 8 16 1 17 2 18 3 19 4 20 6 21 5 22 7 23 22 24
REMARK SMILES IDX 23 25 24 26 25 27 26 29 27 30 28 31 86 32 29 33 85 34 30 35
REMARK SMILES IDX 31 36 32 37 79 38 33 39 84 40 78 41 80 42 34 43 83 44 77 45
REMARK SMILES IDX 76 46 35 48 65 49 46 50 64 51 47 52 50 53 63 54 81 55 48 56
REMARK SMILES IDX 49 57 62 59 82 60 51 61 36 62 37 63 45 64 38 65 44 66 39 67
REMARK SMILES IDX 40 68 41 69 42 70 43 71 66 72 67 73 75 74 68 75 74 76 69 77
REMARK SMILES IDX 70 78 71 79 72 80 73 81 52 82 53 83 61 84 54 85 60 86 55 87
REMARK SMILES IDX 56 88 57 89 58 90 59 91
REMARK H PARENT 19 6 9 15 24 28 80 47 50 58
REMARK Flexibility Score: inf
ROOT
ATOM      1  C   UNL     1       0.225   5.358   2.275  1.00  0.00     0.023 C 
ENDROOT
BRANCH   1   2
ATOM      2  C   UNL     1       0.465   3.957   2.837  1.00  0.00     0.116 C 
BRANCH   2   3
ATOM      3  N   UNL     1      -0.565   3.581   3.783  1.00  0.00    -0.356 N 
ATOM      4  C   UNL     1      -1.694   2.848   3.547  1.00  0.00     0.224 C 
ATOM      5  O   UNL     1      -2.524   2.734   4.452  1.00  0.00    -0.275 OA
ATOM      6  H   UNL     1      -0.437   3.892   4.709  1.00  0.00     0.163 HD
BRANCH   4   7
ATOM      7  C   UNL     1      -1.881   2.156   2.206  1.00  0.00     0.137 C 
BRANCH   7   8
ATOM      8  C   UNL     1      -2.183   3.095   1.054  1.00  0.00    -0.015 A 
ATOM      9  C   UNL     1      -1.402   3.151  -0.120  1.00  0.00     0.042 A 
ATOM     10  C   UNL     1      -1.688   4.146  -1.074  1.00  0.00     0.026 A 
ATOM     11  C   UNL     1      -2.743   5.042  -0.901  1.00  0.00     0.002 A 
ATOM     12  C   UNL     1      -3.267   3.988   1.199  1.00  0.00     0.006 A 
ATOM     13  C   UNL     1      -3.542   4.953   0.231  1.00  0.00     0.000 A 
BRANCH   9  14
ATOM     14  N   UNL     1      -0.369   2.248  -0.439  1.00  0.00    -0.355 N 
ATOM     15  H   UNL     1       0.439   2.685  -0.794  1.00  0.00     0.167 HD
BRANCH  14  16
ATOM     16  C   UNL     1      -0.255   0.841  -0.353  1.00  0.00     0.044 A 
ATOM     17  C   UNL     1       2.266   1.147  -0.015  1.00  0.00     0.046 C 
ATOM     18  C   UNL     1       1.032   0.286  -0.114  1.00  0.00    -0.027 A 
ATOM     19  C   UNL     1       1.182  -1.099   0.072  1.00  0.00     0.005 A 
ATOM     20  C   UNL     1       0.079  -1.942   0.029  1.00  0.00     0.001 A 
ATOM     21  C   UNL     1      -1.363  -0.035  -0.443  1.00  0.00    -0.027 A 
ATOM     22  C   UNL     1      -1.181  -1.413  -0.225  1.00  0.00     0.005 A 
ATOM     23  C   UNL     1      -2.756   0.418  -0.794  1.00  0.00     0.046 C 
ENDBRANCH  14  16
ENDBRANCH   9  14
ENDBRANCH   7   8
ENDBRANCH   4   7
ENDBRANCH   2   3
ENDBRANCH   1   2
BRANCH   1  24
ATOM     24  C   UNL     1       0.414   6.488   3.288  1.00  0.00     0.023 C 
BRANCH  24  25
ATOM     25  C   UNL     1       1.787   6.533   3.946  1.00  0.00     0.116 C 
BRANCH  25  26
ATOM     26  N   UNL     1       2.872   6.642   2.985  1.00  0.00    -0.352 N 
ATOM     27  C   UNL     1       4.059   7.321   3.110  1.00  0.00     0.251 C 
ATOM     28  H   UNL     1       2.738   6.168   2.132  1.00  0.00     0.163 HD
ATOM     29  O   UNL     1       4.817   7.417   2.149  1.00  0.00    -0.269 OA
BRANCH  27  30
ATOM     30  C   UNL     1       4.395   7.963   4.398  1.00  0.00     0.039 A 
ATOM     31  C   UNL     1       4.858   9.280   4.391  1.00  0.00     0.014 A 
ATOM     32  C   UNL     1       4.235   7.277   5.605  1.00  0.00     0.014 A 
ATOM     33  C   UNL     1       5.114   9.926   5.601  1.00  0.00     0.010 A 
ATOM     34  C   UNL     1       4.418   7.947   6.811  1.00  0.00     0.010 A 
ATOM     35  C   UNL     1       4.871   9.273   6.822  1.00  0.00    -0.014 A 
BRANCH  35  36
ATOM     36  C   UNL     1       5.106   9.966   8.114  1.00  0.00     0.031 A 
ATOM     37  C   UNL     1       6.174   9.475   9.053  1.00  0.00     0.074 A 
ATOM     38  C   UNL     1       4.336  11.018   8.454  1.00  0.00     0.049 A 
ATOM     39  N   UNL     1       6.537   9.959  10.214  1.00  0.00    -0.248 NA
ATOM     40  C   UNL     1       6.915   8.268   8.650  1.00  0.00     0.031 C 
ATOM     41  C   UNL     1       3.233  11.557   7.653  1.00  0.00     0.029 A 
ATOM     42  N   UNL     1       4.367  11.829   9.561  1.00  0.00    -0.354 N 
ATOM     43  C   UNL     1       7.537   9.115  10.680  1.00  0.00     0.074 A 
ATOM     44  C   UNL     1       7.683   8.054   9.708  1.00  0.00     0.031 C 
ATOM     45  C   UNL     1       2.721  12.631   8.276  1.00  0.00     0.029 A 
ATOM     46  C   UNL     1       3.437  12.840   9.531  1.00  0.00     0.049 A 
ATOM     47  H   UNL     1       4.997  11.698  10.306  1.00  0.00     0.167 HD
ATOM     48  C   UNL     1       8.287   9.224  11.803  1.00  0.00     0.031 A 
ATOM     49  C   UNL     1       3.195  13.832  10.409  1.00  0.00     0.031 A 
ATOM     50  C   UNL     1       8.146  10.284  12.766  1.00  0.00     0.049 A 
ATOM     51  C   UNL     1       4.050  13.942  11.641  1.00  0.00     0.074 A 
ATOM     52  C   UNL     1       8.886  10.512  13.912  1.00  0.00     0.029 A 
ATOM     53  N   UNL     1       7.201  11.297  12.692  1.00  0.00    -0.354 N 
ATOM     54  N   UNL     1       5.037  13.170  12.033  1.00  0.00    -0.248 NA
ATOM     55  C   UNL     1       3.773  15.072  12.538  1.00  0.00     0.031 C 
ATOM     56  C   UNL     1       8.361  11.639  14.555  1.00  0.00     0.029 A 
ATOM     57  C   UNL     1       7.330  12.145  13.779  1.00  0.00     0.049 A 
ATOM     58  H   UNL     1       6.536  11.398  11.973  1.00  0.00     0.167 HD
ATOM     59  C   UNL     1       5.519  13.740  13.207  1.00  0.00     0.074 A 
ATOM     60  C   UNL     1       4.726  14.928  13.449  1.00  0.00     0.031 C 
ATOM     61  C   UNL     1       6.529  13.320  14.009  1.00  0.00     0.031 A 
BRANCH  48  62
ATOM     62  C   UNL     1       9.329   8.162  12.045  1.00  0.00    -0.014 A 
ATOM     63  C   UNL     1      10.474   8.072  11.231  1.00  0.00     0.010 A 
ATOM     64  C   UNL     1       9.175   7.256  13.110  1.00  0.00     0.010 A 
ATOM     65  C   UNL     1      11.420   7.067  11.447  1.00  0.00     0.020 A 
ATOM     66  C   UNL     1      10.134   6.268  13.348  1.00  0.00     0.020 A 
ATOM     67  C   UNL     1      11.241   6.167  12.502  1.00  0.00     0.054 A 
BRANCH  67  68
ATOM     68  S   UNL     1      12.491   4.880  12.768  1.00  0.00     0.124 S 
ATOM     69  O   UNL     1      12.215   3.961  11.666  1.00  0.00    -0.237 OA
ATOM     70  O   UNL     1      13.744   5.623  12.666  1.00  0.00    -0.237 OA
ATOM     71  O   UNL     1      12.182   4.366  14.100  1.00  0.00    -0.744 OA
ENDBRANCH  67  68
ENDBRANCH  48  62
BRANCH  49  72
ATOM     72  C   UNL     1       2.123  14.827  10.132  1.00  0.00    -0.014 A 
ATOM     73  C   UNL     1       2.450  16.150   9.786  1.00  0.00     0.010 A 
ATOM     74  C   UNL     1       0.768  14.454  10.203  1.00  0.00     0.010 A 
ATOM     75  C   UNL     1       1.443  17.088   9.539  1.00  0.00     0.020 A 
ATOM     76  C   UNL     1      -0.241  15.382   9.929  1.00  0.00     0.020 A 
ATOM     77  C   UNL     1       0.104  16.697   9.611  1.00  0.00     0.054 A 
BRANCH  77  78
ATOM     78  S   UNL     1      -1.186  17.918   9.238  1.00  0.00     0.124 S 
ATOM     79  O   UNL     1      -1.171  18.750  10.437  1.00  0.00    -0.237 OA
ATOM     80  O   UNL     1      -0.680  18.550   8.022  1.00  0.00    -0.237 OA
ATOM     81  O   UNL     1      -2.384  17.103   9.054  1.00  0.00    -0.744 OA
ENDBRANCH  77  78
ENDBRANCH  49  72
BRANCH  61  82
ATOM     82  C   UNL     1       6.856  14.178  15.203  1.00  0.00    -0.014 A 
ATOM     83  C   UNL     1       5.990  14.259  16.308  1.00  0.00     0.010 A 
ATOM     84  C   UNL     1       8.062  14.903  15.222  1.00  0.00     0.010 A 
ATOM     85  C   UNL     1       6.297  15.094  17.385  1.00  0.00     0.020 A 
ATOM     86  C   UNL     1       8.387  15.714  16.311  1.00  0.00     0.020 A 
ATOM     87  C   UNL     1       7.491  15.823  17.376  1.00  0.00     0.054 A 
BRANCH  87  88
ATOM     88  S   UNL     1       7.872  16.898  18.786  1.00  0.00     0.124 S 
ATOM     89  O   UNL     1       6.989  18.037  18.545  1.00  0.00    -0.237 OA
ATOM     90  O   UNL     1       7.522  16.063  19.932  1.00  0.00    -0.237 OA
ATOM     91  O   UNL     1       9.299  17.173  18.636  1.00  0.00    -0.744 OA
ENDBRANCH  87  88
ENDBRANCH  61  82
ENDBRANCH  35  36
ENDBRANCH  27  30
ENDBRANCH  25  26
ENDBRANCH  24  25
ENDBRANCH   1  24
TORSDOF 17
