REMARK SMILES O=C(NCCCCNC(=O)[C@H]1CCCN(c2cc(-c3ccccn3)nc(-c3ccccc3F)n2)C1)c1ccc(-c2c3nc(c(-c4ccc(S(=O)(=O)[O-])cc4)c4ccc([nH]4)c(-c4ccc(S(=O)(=O)[O-])cc4)c4nc(c(-c5ccc(S(=O)(=O)[O-])cc5)c5ccc2[nH]5)C=C4)C=C3)cc1
REMARK SMILES IDX 5 1 4 2 3 3 1 4 2 5 36 7 37 8 95 9 38 10 94 11 39 12 40 13
REMARK SMILES IDX 41 14 88 15 42 16 93 17 87 18 89 19 43 20 92 21 86 22 85 23
REMARK SMILES IDX 44 25 74 26 55 27 73 28 56 29 59 30 72 31 90 32 57 33 58 34
REMARK SMILES IDX 71 36 91 37 60 38 45 39 46 40 54 41 47 42 53 43 48 44 49 45
REMARK SMILES IDX 50 46 51 47 52 48 75 49 76 50 84 51 77 52 83 53 78 54 79 55
REMARK SMILES IDX 80 56 81 57 82 58 61 59 62 60 70 61 63 62 69 63 64 64 65 65
REMARK SMILES IDX 66 66 67 67 68 68 6 69 7 70 8 71 9 72 10 74 11 75 12 76
REMARK SMILES IDX 35 77 13 78 15 79 14 80 16 81 17 82 34 83 18 84 26 85 25 86
REMARK SMILES IDX 19 87 20 88 24 89 21 90 23 91 22 92 27 93 28 94 32 95 29 96
REMARK SMILES IDX 31 97 33 98 30 99
REMARK H PARENT 3 6 89 24 59 35 8 73
REMARK Flexibility Score: inf
ROOT
ATOM      1  C   UNL     1      10.286  -2.941  -9.279  1.00  0.00     0.023 C 
ENDROOT
BRANCH   1   2
ATOM      2  C   UNL     1      11.468  -1.988  -9.222  1.00  0.00     0.116 C 
BRANCH   2   3
ATOM      3  N   UNL     1      12.596  -2.518  -8.472  1.00  0.00    -0.352 N 
ATOM      4  O   UNL     1      14.760  -3.044  -8.092  1.00  0.00    -0.269 OA
ATOM      5  C   UNL     1      13.935  -2.447  -8.778  1.00  0.00     0.251 C 
ATOM      6  H   UNL     1      12.372  -2.990  -7.637  1.00  0.00     0.163 HD
BRANCH   5   7
ATOM      7  C   UNL     1      14.364  -1.676  -9.963  1.00  0.00     0.039 A 
ATOM      8  C   UNL     1      13.853  -0.398 -10.197  1.00  0.00     0.014 A 
ATOM      9  C   UNL     1      15.257  -2.256 -10.867  1.00  0.00     0.014 A 
ATOM     10  C   UNL     1      14.116   0.237 -11.404  1.00  0.00     0.010 A 
ATOM     11  C   UNL     1      15.588  -1.578 -12.043  1.00  0.00     0.010 A 
ATOM     12  C   UNL     1      14.992  -0.342 -12.337  1.00  0.00    -0.014 A 
BRANCH  12  13
ATOM     13  C   UNL     1      15.301   0.395 -13.587  1.00  0.00     0.031 A 
ATOM     14  C   UNL     1      14.879  -0.133 -14.930  1.00  0.00     0.074 A 
ATOM     15  C   UNL     1      15.931   1.582 -13.492  1.00  0.00     0.049 A 
ATOM     16  N   UNL     1      15.021   0.418 -16.109  1.00  0.00    -0.248 NA
ATOM     17  C   UNL     1      14.219  -1.448 -14.959  1.00  0.00     0.031 C 
ATOM     18  C   UNL     1      16.390   2.193 -12.241  1.00  0.00     0.029 A 
ATOM     19  N   UNL     1      16.264   2.501 -14.452  1.00  0.00    -0.354 N 
ATOM     20  C   UNL     1      14.494  -0.489 -17.021  1.00  0.00     0.074 A 
ATOM     21  C   UNL     1      14.043  -1.635 -16.261  1.00  0.00     0.031 C 
ATOM     22  C   UNL     1      16.884   3.412 -12.503  1.00  0.00     0.029 A 
ATOM     23  C   UNL     1      16.834   3.643 -13.942  1.00  0.00     0.049 A 
ATOM     24  H   UNL     1      16.111   2.357 -15.414  1.00  0.00     0.167 HD
ATOM     25  C   UNL     1      14.395  -0.376 -18.369  1.00  0.00     0.031 A 
ATOM     26  C   UNL     1      17.272   4.754 -14.560  1.00  0.00     0.031 A 
ATOM     27  C   UNL     1      14.840   0.770 -19.119  1.00  0.00     0.049 A 
ATOM     28  C   UNL     1      17.159   4.850 -16.052  1.00  0.00     0.074 A 
ATOM     29  C   UNL     1      14.757   0.991 -20.484  1.00  0.00     0.029 A 
ATOM     30  N   UNL     1      15.452   1.887 -18.571  1.00  0.00    -0.354 N 
ATOM     31  N   UNL     1      16.639   3.988 -16.893  1.00  0.00    -0.248 NA
ATOM     32  C   UNL     1      17.695   6.065 -16.678  1.00  0.00     0.031 C 
ATOM     33  C   UNL     1      15.356   2.225 -20.764  1.00  0.00     0.029 A 
ATOM     34  C   UNL     1      15.771   2.792 -19.570  1.00  0.00     0.049 A 
ATOM     35  H   UNL     1      15.633   2.018 -17.612  1.00  0.00     0.167 HD
ATOM     36  C   UNL     1      16.776   4.562 -18.150  1.00  0.00     0.074 A 
ATOM     37  C   UNL     1      17.409   5.852 -17.955  1.00  0.00     0.031 C 
ATOM     38  C   UNL     1      16.413   4.064 -19.358  1.00  0.00     0.031 A 
BRANCH  25  39
ATOM     39  C   UNL     1      13.810  -1.541 -19.122  1.00  0.00    -0.014 A 
ATOM     40  C   UNL     1      12.432  -1.818 -19.085  1.00  0.00     0.010 A 
ATOM     41  C   UNL     1      14.651  -2.354 -19.905  1.00  0.00     0.010 A 
ATOM     42  C   UNL     1      11.912  -2.913 -19.782  1.00  0.00     0.020 A 
ATOM     43  C   UNL     1      14.131  -3.437 -20.621  1.00  0.00     0.020 A 
ATOM     44  C   UNL     1      12.766  -3.722 -20.538  1.00  0.00     0.054 A 
BRANCH  44  45
ATOM     45  S   UNL     1      12.068  -5.136 -21.435  1.00  0.00     0.124 S 
ATOM     46  O   UNL     1      11.870  -6.105 -20.360  1.00  0.00    -0.237 OA
ATOM     47  O   UNL     1      10.846  -4.582 -22.012  1.00  0.00    -0.237 OA
ATOM     48  O   UNL     1      13.108  -5.481 -22.401  1.00  0.00    -0.744 OA
ENDBRANCH  44  45
ENDBRANCH  25  39
BRANCH  26  49
ATOM     49  C   UNL     1      17.853   5.860 -13.755  1.00  0.00    -0.014 A 
ATOM     50  C   UNL     1      17.140   7.056 -13.571  1.00  0.00     0.010 A 
ATOM     51  C   UNL     1      19.103   5.701 -13.130  1.00  0.00     0.010 A 
ATOM     52  C   UNL     1      17.669   8.078 -12.778  1.00  0.00     0.020 A 
ATOM     53  C   UNL     1      19.623   6.710 -12.317  1.00  0.00     0.020 A 
ATOM     54  C   UNL     1      18.906   7.897 -12.153  1.00  0.00     0.054 A 
BRANCH  54  55
ATOM     55  S   UNL     1      19.544   9.204 -11.068  1.00  0.00     0.124 S 
ATOM     56  O   UNL     1      20.068  10.167 -12.030  1.00  0.00    -0.237 OA
ATOM     57  O   UNL     1      18.350   9.623 -10.338  1.00  0.00    -0.237 OA
ATOM     58  O   UNL     1      20.546   8.514 -10.259  1.00  0.00    -0.744 OA
ENDBRANCH  54  55
ENDBRANCH  26  49
BRANCH  38  59
ATOM     59  C   UNL     1      16.679   4.931 -20.556  1.00  0.00    -0.014 A 
ATOM     60  C   UNL     1      17.983   5.088 -21.061  1.00  0.00     0.010 A 
ATOM     61  C   UNL     1      15.610   5.581 -21.197  1.00  0.00     0.010 A 
ATOM     62  C   UNL     1      18.216   5.911 -22.165  1.00  0.00     0.020 A 
ATOM     63  C   UNL     1      15.837   6.387 -22.314  1.00  0.00     0.020 A 
ATOM     64  C   UNL     1      17.142   6.561 -22.781  1.00  0.00     0.054 A 
BRANCH  64  65
ATOM     65  S   UNL     1      17.462   7.606 -24.228  1.00  0.00     0.124 S 
ATOM     66  O   UNL     1      17.981   8.824 -23.613  1.00  0.00    -0.237 OA
ATOM     67  O   UNL     1      18.435   6.822 -24.986  1.00  0.00    -0.237 OA
ATOM     68  O   UNL     1      16.150   7.734 -24.858  1.00  0.00    -0.744 OA
ENDBRANCH  64  65
ENDBRANCH  38  59
ENDBRANCH  12  13
ENDBRANCH   5   7
ENDBRANCH   2   3
ENDBRANCH   1   2
BRANCH   1  69
ATOM     69  C   UNL     1       9.721  -3.350  -7.922  1.00  0.00     0.023 C 
BRANCH  69  70
ATOM     70  C   UNL     1       9.224  -2.195  -7.047  1.00  0.00     0.116 C 
BRANCH  70  71
ATOM     71  N   UNL     1       8.075  -1.522  -7.628  1.00  0.00    -0.356 N 
ATOM     72  C   UNL     1       6.757  -1.586  -7.276  1.00  0.00     0.224 C 
ATOM     73  H   UNL     1       8.276  -0.932  -8.390  1.00  0.00     0.163 HD
ATOM     74  O   UNL     1       5.954  -0.908  -7.920  1.00  0.00    -0.275 OA
BRANCH  72  75
ATOM     75  C   UNL     1       6.322  -2.472  -6.116  1.00  0.00     0.098 C 
ATOM     76  C   UNL     1       4.862  -2.195  -5.711  1.00  0.00     0.017 C 
ATOM     77  C   UNL     1       6.444  -3.937  -6.517  1.00  0.00     0.131 C 
ATOM     78  C   UNL     1       4.409  -3.145  -4.596  1.00  0.00     0.022 C 
ATOM     79  N   UNL     1       5.968  -4.815  -5.458  1.00  0.00    -0.356 N 
ATOM     80  C   UNL     1       4.612  -4.614  -4.975  1.00  0.00     0.118 C 
BRANCH  79  81
ATOM     81  C   UNL     1       6.907  -5.467  -4.680  1.00  0.00     0.133 A 
ATOM     82  C   UNL     1       6.765  -6.825  -4.484  1.00  0.00     0.077 A 
ATOM     83  N   UNL     1       7.986  -4.802  -4.228  1.00  0.00    -0.211 NA
ATOM     84  C   UNL     1       7.796  -7.490  -3.853  1.00  0.00     0.095 A 
ATOM     85  C   UNL     1       8.924  -5.523  -3.579  1.00  0.00     0.165 A 
ATOM     86  N   UNL     1       8.881  -6.849  -3.380  1.00  0.00    -0.226 NA
BRANCH  84  87
ATOM     87  C   UNL     1       7.795  -8.954  -3.752  1.00  0.00     0.089 A 
ATOM     88  C   UNL     1       7.882  -9.752  -4.894  1.00  0.00     0.030 A 
ATOM     89  N   UNL     1       7.669  -9.483  -2.507  1.00  0.00    -0.255 NA
ATOM     90  C   UNL     1       7.843 -11.137  -4.759  1.00  0.00     0.004 A 
ATOM     91  C   UNL     1       7.650 -10.829  -2.406  1.00  0.00     0.112 A 
ATOM     92  C   UNL     1       7.727 -11.689  -3.490  1.00  0.00     0.020 A 
ENDBRANCH  84  87
BRANCH  85  93
ATOM     93  C   UNL     1      10.047  -4.808  -2.979  1.00  0.00     0.055 A 
ATOM     94  C   UNL     1       9.839  -3.819  -2.000  1.00  0.00     0.015 A 
ATOM     95  C   UNL     1      11.370  -5.121  -3.314  1.00  0.00     0.134 A 
ATOM     96  C   UNL     1      10.918  -3.190  -1.368  1.00  0.00     0.001 A 
ATOM     97  C   UNL     1      12.451  -4.491  -2.696  1.00  0.00     0.040 A 
ATOM     98  F   UNL     1      11.632  -6.035  -4.261  1.00  0.00    -0.206 F 
ATOM     99  C   UNL     1      12.225  -3.528  -1.714  1.00  0.00     0.003 A 
ENDBRANCH  85  93
ENDBRANCH  79  81
ENDBRANCH  72  75
ENDBRANCH  70  71
ENDBRANCH  69  70
ENDBRANCH   1  69
TORSDOF 17
