REMARK SMILES COC(=O)NNC(=O)CCC(=O)NCCCCNC(=O)c1ccc(-c2c3nc(c(-c4ccc(S(=O)(=O)[O-])cc4)c4ccc([nH]4)c(-c4ccc(S(=O)(=O)[O-])cc4)c4nc(c(-c5ccc(S(=O)(=O)[O-])cc5)c5ccc2[nH]5)C=C4)C=C3)cc1
REMARK SMILES IDX 15 1 14 2 13 3 11 4 12 5 10 7 9 8 7 9 6 10 8 12 5 13 3 14
REMARK SMILES IDX 4 15 2 17 1 18 16 19 17 20 18 21 19 22 20 24 21 25 22 26
REMARK SMILES IDX 80 27 23 28 79 29 24 30 25 31 26 32 73 33 27 34 78 35 72 36
REMARK SMILES IDX 74 37 28 38 77 39 71 40 70 41 29 43 59 44 40 45 58 46 41 47
REMARK SMILES IDX 44 48 57 49 75 50 42 51 43 52 56 54 76 55 45 56 30 57 31 58
REMARK SMILES IDX 39 59 32 60 38 61 33 62 34 63 35 64 36 65 37 66 60 67 61 68
REMARK SMILES IDX 69 69 62 70 68 71 63 72 64 73 65 74 66 75 67 76 46 77 47 78
REMARK SMILES IDX 55 79 48 80 54 81 49 82 50 83 51 84 52 85 53 86
REMARK H PARENT 13 6 6 11 5 16 18 23 74 42 44 53
REMARK Flexibility Score: inf
ROOT
ATOM      1  C   UNL     1      -1.732   0.251  -3.369  1.00  0.00     0.023 C 
ENDROOT
BRANCH   1   2
ATOM      2  C   UNL     1      -2.425   1.611  -3.258  1.00  0.00     0.116 C 
BRANCH   2   3
ATOM      3  N   UNL     1      -1.560   2.670  -2.758  1.00  0.00    -0.356 N 
ATOM      4  C   UNL     1      -0.997   3.730  -3.397  1.00  0.00     0.220 C 
ATOM      5  O   UNL     1      -0.306   4.522  -2.755  1.00  0.00    -0.275 OA
ATOM      6  H   UNL     1      -1.348   2.609  -1.799  1.00  0.00     0.163 HD
BRANCH   4   7
ATOM      7  C   UNL     1      -1.148   3.899  -4.886  1.00  0.00     0.110 C 
BRANCH   7   8
ATOM      8  C   UNL     1       0.130   3.521  -5.622  1.00  0.00     0.112 C 
BRANCH   8   9
ATOM      9  C   UNL     1       0.517   2.070  -5.433  1.00  0.00     0.238 C 
ATOM     10  N   UNL     1       1.364   1.722  -4.410  1.00  0.00    -0.265 N 
ATOM     11  H   UNL     1       1.657   0.783  -4.361  1.00  0.00     0.191 HD
ATOM     12  O   UNL     1       0.059   1.205  -6.183  1.00  0.00    -0.273 OA
BRANCH  10  13
ATOM     13  N   UNL     1       1.842   2.597  -3.432  1.00  0.00    -0.232 N 
ATOM     14  C   UNL     1       2.137   2.189  -2.151  1.00  0.00     0.425 C 
ATOM     15  O   UNL     1       2.435   2.982  -1.269  1.00  0.00    -0.223 OA
ATOM     16  H   UNL     1       1.974   3.544  -3.669  1.00  0.00     0.195 HD
BRANCH  14  17
ATOM     17  O   UNL     1       2.034   0.842  -1.982  1.00  0.00    -0.452 OA
ATOM     18  C   UNL     1       2.161   0.428  -0.616  1.00  0.00     0.284 C 
ENDBRANCH  14  17
ENDBRANCH  10  13
ENDBRANCH   8   9
ENDBRANCH   7   8
ENDBRANCH   4   7
ENDBRANCH   2   3
ENDBRANCH   1   2
BRANCH   1  19
ATOM     19  C   UNL     1      -1.039  -0.211  -2.094  1.00  0.00     0.023 C 
BRANCH  19  20
ATOM     20  C   UNL     1      -1.979  -0.532  -0.949  1.00  0.00     0.116 C 
BRANCH  20  21
ATOM     21  N   UNL     1      -2.775  -1.716  -1.221  1.00  0.00    -0.352 N 
ATOM     22  C   UNL     1      -2.792  -2.928  -0.576  1.00  0.00     0.251 C 
ATOM     23  H   UNL     1      -3.395  -1.638  -1.982  1.00  0.00     0.163 HD
ATOM     24  O   UNL     1      -3.356  -3.884  -1.102  1.00  0.00    -0.269 OA
BRANCH  22  25
ATOM     25  C   UNL     1      -2.125  -3.088   0.737  1.00  0.00     0.039 A 
ATOM     26  C   UNL     1      -1.484  -4.295   1.030  1.00  0.00     0.014 A 
ATOM     27  C   UNL     1      -2.153  -2.068   1.691  1.00  0.00     0.014 A 
ATOM     28  C   UNL     1      -0.845  -4.459   2.261  1.00  0.00     0.010 A 
ATOM     29  C   UNL     1      -1.416  -2.188   2.862  1.00  0.00     0.010 A 
ATOM     30  C   UNL     1      -0.785  -3.397   3.179  1.00  0.00    -0.014 A 
BRANCH  30  31
ATOM     31  C   UNL     1      -0.122  -3.549   4.499  1.00  0.00     0.031 A 
ATOM     32  C   UNL     1      -0.924  -3.376   5.764  1.00  0.00     0.074 A 
ATOM     33  C   UNL     1       1.202  -3.796   4.561  1.00  0.00     0.049 A 
ATOM     34  N   UNL     1      -0.524  -3.423   7.009  1.00  0.00    -0.248 NA
ATOM     35  C   UNL     1      -2.359  -3.076   5.612  1.00  0.00     0.031 C 
ATOM     36  C   UNL     1       2.094  -3.939   3.408  1.00  0.00     0.029 A 
ATOM     37  N   UNL     1       2.028  -3.971   5.642  1.00  0.00    -0.354 N 
ATOM     38  C   UNL     1      -1.646  -3.138   7.779  1.00  0.00     0.074 A 
ATOM     39  C   UNL     1      -2.727  -2.853   6.864  1.00  0.00     0.031 C 
ATOM     40  C   UNL     1       3.332  -4.223   3.842  1.00  0.00     0.029 A 
ATOM     41  C   UNL     1       3.334  -4.236   5.301  1.00  0.00     0.049 A 
ATOM     42  H   UNL     1       1.716  -3.913   6.574  1.00  0.00     0.167 HD
ATOM     43  C   UNL     1      -1.776  -3.141   9.127  1.00  0.00     0.031 A 
ATOM     44  C   UNL     1       4.411  -4.464   6.077  1.00  0.00     0.031 A 
ATOM     45  C   UNL     1      -0.702  -3.450  10.031  1.00  0.00     0.049 A 
ATOM     46  C   UNL     1       4.244  -4.464   7.572  1.00  0.00     0.074 A 
ATOM     47  C   UNL     1      -0.738  -3.541  11.411  1.00  0.00     0.029 A 
ATOM     48  N   UNL     1       0.602  -3.721   9.645  1.00  0.00    -0.354 N 
ATOM     49  N   UNL     1       3.158  -4.257   8.280  1.00  0.00    -0.248 NA
ATOM     50  C   UNL     1       5.443  -4.743   8.373  1.00  0.00     0.031 C 
ATOM     51  C   UNL     1       0.558  -3.811  11.863  1.00  0.00     0.029 A 
ATOM     52  C   UNL     1       1.386  -3.955  10.761  1.00  0.00     0.049 A 
ATOM     53  H   UNL     1       0.922  -3.744   8.714  1.00  0.00     0.167 HD
ATOM     54  C   UNL     1       3.538  -4.408   9.609  1.00  0.00     0.074 A 
ATOM     55  C   UNL     1       4.949  -4.742   9.603  1.00  0.00     0.031 C 
ATOM     56  C   UNL     1       2.790  -4.283  10.733  1.00  0.00     0.031 A 
BRANCH  43  57
ATOM     57  C   UNL     1      -3.129  -2.799   9.700  1.00  0.00    -0.014 A 
ATOM     58  C   UNL     1      -4.232  -3.655   9.528  1.00  0.00     0.010 A 
ATOM     59  C   UNL     1      -3.293  -1.617  10.446  1.00  0.00     0.010 A 
ATOM     60  C   UNL     1      -5.483  -3.314  10.049  1.00  0.00     0.020 A 
ATOM     61  C   UNL     1      -4.535  -1.289  10.998  1.00  0.00     0.020 A 
ATOM     62  C   UNL     1      -5.627  -2.131  10.780  1.00  0.00     0.054 A 
BRANCH  62  63
ATOM     63  S   UNL     1      -7.258  -1.726  11.462  1.00  0.00     0.124 S 
ATOM     64  O   UNL     1      -8.007  -1.367  10.260  1.00  0.00    -0.237 OA
ATOM     65  O   UNL     1      -7.657  -2.978  12.100  1.00  0.00    -0.237 OA
ATOM     66  O   UNL     1      -6.986  -0.621  12.379  1.00  0.00    -0.744 OA
ENDBRANCH  62  63
ENDBRANCH  43  57
BRANCH  44  67
ATOM     67  C   UNL     1       5.735  -4.734   5.451  1.00  0.00    -0.014 A 
ATOM     68  C   UNL     1       6.313  -6.014   5.523  1.00  0.00     0.010 A 
ATOM     69  C   UNL     1       6.418  -3.716   4.761  1.00  0.00     0.010 A 
ATOM     70  C   UNL     1       7.556  -6.266   4.934  1.00  0.00     0.020 A 
ATOM     71  C   UNL     1       7.647  -3.971   4.145  1.00  0.00     0.020 A 
ATOM     72  C   UNL     1       8.214  -5.242   4.245  1.00  0.00     0.054 A 
BRANCH  72  73
ATOM     73  S   UNL     1       9.801  -5.606   3.445  1.00  0.00     0.124 S 
ATOM     74  O   UNL     1      10.697  -5.729   4.590  1.00  0.00    -0.237 OA
ATOM     75  O   UNL     1       9.514  -6.847   2.729  1.00  0.00    -0.237 OA
ATOM     76  O   UNL     1      10.028  -4.442   2.592  1.00  0.00    -0.744 OA
ENDBRANCH  72  73
ENDBRANCH  44  67
BRANCH  56  77
ATOM     77  C   UNL     1       3.471  -4.543  12.050  1.00  0.00    -0.014 A 
ATOM     78  C   UNL     1       4.418  -3.646  12.573  1.00  0.00     0.010 A 
ATOM     79  C   UNL     1       3.115  -5.680  12.799  1.00  0.00     0.010 A 
ATOM     80  C   UNL     1       5.026  -3.902  13.805  1.00  0.00     0.020 A 
ATOM     81  C   UNL     1       3.695  -5.922  14.046  1.00  0.00     0.020 A 
ATOM     82  C   UNL     1       4.660  -5.038  14.534  1.00  0.00     0.054 A 
BRANCH  82  83
ATOM     83  S   UNL     1       5.435  -5.326  16.147  1.00  0.00     0.124 S 
ATOM     84  O   UNL     1       6.786  -5.728  15.767  1.00  0.00    -0.237 OA
ATOM     85  O   UNL     1       5.325  -4.020  16.792  1.00  0.00    -0.237 OA
ATOM     86  O   UNL     1       4.616  -6.379  16.743  1.00  0.00    -0.744 OA
ENDBRANCH  82  83
ENDBRANCH  56  77
ENDBRANCH  30  31
ENDBRANCH  22  25
ENDBRANCH  20  21
ENDBRANCH  19  20
ENDBRANCH   1  19
TORSDOF 18
