REMARK SMILES CC(C)[C@@H](C(=O)NCCCCNC(=O)c1ccc(-c2c3nc(c(-c4ccc(S(=O)(=O)[O-])cc4)c4ccc([nH]4)c(-c4ccc(S(=O)(=O)[O-])cc4)c4nc(c(-c5ccc(S(=O)(=O)[O-])cc5)c5ccc2[nH]5)C=C4)C=C3)cc1)N1C(=O)/C(=C\c2ccc([N+](=O)[O-])cc2)SC1=S
REMARK SMILES IDX 9 1 8 2 7 3 5 4 6 5 4 7 2 8 1 9 3 10 75 11 76 12 90 13 77 14
REMARK SMILES IDX 78 15 89 16 91 17 79 18 80 19 81 20 88 21 82 22 87 23 83 24
REMARK SMILES IDX 84 25 85 26 86 27 10 28 11 29 12 30 13 31 14 33 15 34 16 35
REMARK SMILES IDX 74 36 17 37 73 38 18 39 19 40 20 41 67 42 21 43 72 44 66 45
REMARK SMILES IDX 68 46 22 47 71 48 65 49 64 50 23 52 53 53 34 54 52 55 35 56
REMARK SMILES IDX 38 57 51 58 69 59 36 60 37 61 50 63 70 64 39 65 24 66 25 67
REMARK SMILES IDX 33 68 26 69 32 70 27 71 28 72 29 73 30 74 31 75 54 76 55 77
REMARK SMILES IDX 63 78 56 79 62 80 57 81 58 82 59 83 60 84 61 85 40 86 41 87
REMARK SMILES IDX 49 88 42 89 48 90 43 91 44 92 45 93 46 94 47 95
REMARK H PARENT 7 6 12 32 68 51 38 62
REMARK Flexibility Score: inf
ROOT
ATOM      1  C   UNL     1       0.641   2.336  -0.778  1.00  0.00     0.023 C 
ENDROOT
BRANCH   1   2
ATOM      2  C   UNL     1      -0.618   1.508  -0.491  1.00  0.00     0.116 C 
BRANCH   2   3
ATOM      3  N   UNL     1      -0.859   0.553  -1.563  1.00  0.00    -0.354 N 
ATOM      4  C   UNL     1      -0.732  -0.811  -1.595  1.00  0.00     0.243 C 
ATOM      5  O   UNL     1      -0.887  -1.374  -2.681  1.00  0.00    -0.273 OA
ATOM      6  H   UNL     1      -1.164   0.955  -2.408  1.00  0.00     0.163 HD
BRANCH   4   7
ATOM      7  C   UNL     1      -0.487  -1.608  -0.291  1.00  0.00     0.184 C 
BRANCH   7   8
ATOM      8  C   UNL     1       1.010  -1.762   0.131  1.00  0.00     0.015 C 
ATOM      9  C   UNL     1       1.900  -0.535   0.020  1.00  0.00     0.010 C 
ATOM     10  C   UNL     1       1.103  -2.290   1.566  1.00  0.00     0.010 C 
ENDBRANCH   7   8
BRANCH   7  11
ATOM     11  N   UNL     1      -1.211  -2.920  -0.441  1.00  0.00    -0.280 N 
ATOM     12  C   UNL     1      -0.548  -4.093  -0.757  1.00  0.00     0.266 C 
ATOM     13  C   UNL     1      -2.592  -3.046  -0.401  1.00  0.00     0.149 C 
ATOM     14  O   UNL     1       0.591  -4.246  -1.174  1.00  0.00    -0.268 OA
ATOM     15  C   UNL     1      -1.442  -5.251  -0.524  1.00  0.00     0.081 C 
ATOM     16  S   UNL     1      -3.065  -4.731  -0.710  1.00  0.00    -0.054 SA
ATOM     17  S   UNL     1      -3.735  -1.876  -0.065  1.00  0.00    -0.052 S 
ATOM     18  C   UNL     1      -1.075  -6.417   0.032  1.00  0.00     0.029 C 
BRANCH  18  19
ATOM     19  C   UNL     1       0.225  -6.574   0.702  1.00  0.00    -0.024 A 
ATOM     20  C   UNL     1       1.343  -7.128   0.073  1.00  0.00     0.015 A 
ATOM     21  C   UNL     1       0.344  -6.070   2.009  1.00  0.00     0.015 A 
ATOM     22  C   UNL     1       2.578  -7.160   0.738  1.00  0.00     0.086 A 
ATOM     23  C   UNL     1       1.571  -6.087   2.673  1.00  0.00     0.086 A 
ATOM     24  C   UNL     1       2.688  -6.628   2.031  1.00  0.00     0.269 A 
BRANCH  24  25
ATOM     25  N   UNL     1       3.985  -6.629   2.721  1.00  0.00     0.062 N 
ATOM     26  O   UNL     1       4.926  -7.230   2.185  1.00  0.00    -0.258 OA
ATOM     27  O   UNL     1       4.058  -6.038   3.809  1.00  0.00    -0.258 OA
ENDBRANCH  24  25
ENDBRANCH  18  19
ENDBRANCH   7  11
ENDBRANCH   4   7
ENDBRANCH   2   3
ENDBRANCH   1   2
BRANCH   1  28
ATOM     28  C   UNL     1       0.433   3.494  -1.743  1.00  0.00     0.023 C 
BRANCH  28  29
ATOM     29  C   UNL     1      -0.321   4.664  -1.137  1.00  0.00     0.116 C 
BRANCH  29  30
ATOM     30  N   UNL     1       0.394   5.279  -0.021  1.00  0.00    -0.352 N 
ATOM     31  C   UNL     1       0.840   6.573   0.118  1.00  0.00     0.251 C 
ATOM     32  H   UNL     1       0.584   4.683   0.739  1.00  0.00     0.163 HD
ATOM     33  O   UNL     1       1.563   6.885   1.057  1.00  0.00    -0.269 OA
BRANCH  31  34
ATOM     34  C   UNL     1       0.461   7.567  -0.904  1.00  0.00     0.039 A 
ATOM     35  C   UNL     1       1.452   8.345  -1.505  1.00  0.00     0.014 A 
ATOM     36  C   UNL     1      -0.866   7.645  -1.333  1.00  0.00     0.014 A 
ATOM     37  C   UNL     1       1.127   9.123  -2.617  1.00  0.00     0.010 A 
ATOM     38  C   UNL     1      -1.162   8.335  -2.499  1.00  0.00     0.010 A 
ATOM     39  C   UNL     1      -0.168   9.073  -3.159  1.00  0.00    -0.014 A 
BRANCH  39  40
ATOM     40  C   UNL     1      -0.517   9.759  -4.427  1.00  0.00     0.031 A 
ATOM     41  C   UNL     1      -1.590  10.812  -4.431  1.00  0.00     0.074 A 
ATOM     42  C   UNL     1       0.055   9.363  -5.582  1.00  0.00     0.049 A 
ATOM     43  N   UNL     1      -2.129  11.435  -5.446  1.00  0.00    -0.248 NA
ATOM     44  C   UNL     1      -2.155  11.187  -3.124  1.00  0.00     0.031 C 
ATOM     45  C   UNL     1       1.083   8.327  -5.712  1.00  0.00     0.029 A 
ATOM     46  N   UNL     1      -0.158   9.779  -6.872  1.00  0.00    -0.354 N 
ATOM     47  C   UNL     1      -3.106  12.260  -4.903  1.00  0.00     0.074 A 
ATOM     48  C   UNL     1      -3.128  12.012  -3.478  1.00  0.00     0.031 C 
ATOM     49  C   UNL     1       1.434   8.213  -7.003  1.00  0.00     0.029 A 
ATOM     50  C   UNL     1       0.620   9.125  -7.800  1.00  0.00     0.049 A 
ATOM     51  H   UNL     1      -0.807  10.479  -7.112  1.00  0.00     0.167 HD
ATOM     52  C   UNL     1      -3.898  13.162  -5.529  1.00  0.00     0.031 A 
ATOM     53  C   UNL     1       0.664   9.237  -9.141  1.00  0.00     0.031 A 
ATOM     54  C   UNL     1      -3.868  13.406  -6.945  1.00  0.00     0.049 A 
ATOM     55  C   UNL     1      -0.259  10.210  -9.822  1.00  0.00     0.074 A 
ATOM     56  C   UNL     1      -4.591  14.332  -7.674  1.00  0.00     0.029 A 
ATOM     57  N   UNL     1      -3.074  12.714  -7.849  1.00  0.00    -0.354 N 
ATOM     58  N   UNL     1      -1.133  11.028  -9.286  1.00  0.00    -0.248 NA
ATOM     59  C   UNL     1      -0.192  10.274 -11.289  1.00  0.00     0.031 C 
ATOM     60  C   UNL     1      -4.276  14.162  -9.026  1.00  0.00     0.029 A 
ATOM     61  C   UNL     1      -3.314  13.170  -9.134  1.00  0.00     0.049 A 
ATOM     62  H   UNL     1      -2.435  12.004  -7.612  1.00  0.00     0.167 HD
ATOM     63  C   UNL     1      -1.707  11.718 -10.347  1.00  0.00     0.074 A 
ATOM     64  C   UNL     1      -1.070  11.232 -11.555  1.00  0.00     0.031 C 
ATOM     65  C   UNL     1      -2.673  12.669 -10.324  1.00  0.00     0.031 A 
BRANCH  52  66
ATOM     66  C   UNL     1      -4.868  13.937  -4.676  1.00  0.00    -0.014 A 
ATOM     67  C   UNL     1      -4.413  14.885  -3.741  1.00  0.00     0.010 A 
ATOM     68  C   UNL     1      -6.250  13.720  -4.812  1.00  0.00     0.010 A 
ATOM     69  C   UNL     1      -5.318  15.557  -2.916  1.00  0.00     0.020 A 
ATOM     70  C   UNL     1      -7.162  14.414  -4.010  1.00  0.00     0.020 A 
ATOM     71  C   UNL     1      -6.687  15.311  -3.051  1.00  0.00     0.054 A 
BRANCH  71  72
ATOM     72  S   UNL     1      -7.838  16.192  -1.962  1.00  0.00     0.124 S 
ATOM     73  O   UNL     1      -7.616  15.519  -0.684  1.00  0.00    -0.237 OA
ATOM     74  O   UNL     1      -7.359  17.570  -2.036  1.00  0.00    -0.237 OA
ATOM     75  O   UNL     1      -9.144  15.956  -2.572  1.00  0.00    -0.744 OA
ENDBRANCH  71  72
ENDBRANCH  52  66
BRANCH  53  76
ATOM     76  C   UNL     1       1.627   8.416  -9.925  1.00  0.00    -0.014 A 
ATOM     77  C   UNL     1       2.741   9.022 -10.533  1.00  0.00     0.010 A 
ATOM     78  C   UNL     1       1.456   7.024 -10.045  1.00  0.00     0.010 A 
ATOM     79  C   UNL     1       3.662   8.254 -11.252  1.00  0.00     0.020 A 
ATOM     80  C   UNL     1       2.389   6.249 -10.741  1.00  0.00     0.020 A 
ATOM     81  C   UNL     1       3.483   6.871 -11.347  1.00  0.00     0.054 A 
BRANCH  81  82
ATOM     82  S   UNL     1       4.728   5.889 -12.230  1.00  0.00     0.124 S 
ATOM     83  O   UNL     1       4.468   6.248 -13.620  1.00  0.00    -0.237 OA
ATOM     84  O   UNL     1       5.979   6.392 -11.669  1.00  0.00    -0.237 OA
ATOM     85  O   UNL     1       4.399   4.513 -11.866  1.00  0.00    -0.744 OA
ENDBRANCH  81  82
ENDBRANCH  53  76
BRANCH  65  86
ATOM     86  C   UNL     1      -3.098  13.261 -11.640  1.00  0.00    -0.014 A 
ATOM     87  C   UNL     1      -3.897  12.532 -12.537  1.00  0.00     0.010 A 
ATOM     88  C   UNL     1      -2.765  14.595 -11.942  1.00  0.00     0.010 A 
ATOM     89  C   UNL     1      -4.349  13.124 -13.719  1.00  0.00     0.020 A 
ATOM     90  C   UNL     1      -3.238  15.198 -13.110  1.00  0.00     0.020 A 
ATOM     91  C   UNL     1      -4.023  14.456 -13.994  1.00  0.00     0.054 A 
BRANCH  91  92
ATOM     92  S   UNL     1      -4.690  15.223 -15.496  1.00  0.00     0.124 S 
ATOM     93  O   UNL     1      -3.905  14.576 -16.544  1.00  0.00    -0.237 OA
ATOM     94  O   UNL     1      -6.101  14.849 -15.446  1.00  0.00    -0.237 OA
ATOM     95  O   UNL     1      -4.423  16.647 -15.307  1.00  0.00    -0.744 OA
ENDBRANCH  91  92
ENDBRANCH  65  86
ENDBRANCH  39  40
ENDBRANCH  31  34
ENDBRANCH  29  30
ENDBRANCH  28  29
ENDBRANCH   1  28
TORSDOF 18
