REMARK SMILES O=C(NCc1ccc(C(=O)NCCCCNC(=O)c2ccc(-c3c4nc(c(-c5ccc(S(=O)(=O)[O-])cc5)c5ccc([nH]5)c(-c5ccc(S(=O)(=O)[O-])cc5)c5nc(c(-c6ccc(S(=O)(=O)[O-])cc6)c6ccc3[nH]6)C=C5)C=C4)cc2)cc1)Nc1ccccc1Br
REMARK SMILES IDX 13 1 12 2 11 3 9 4 10 5 8 7 5 8 6 9 80 10 7 11 79 12 4 13
REMARK SMILES IDX 3 14 1 15 2 16 81 17 82 20 83 21 87 22 84 23 86 24 88 25
REMARK SMILES IDX 85 26 14 27 15 28 16 29 17 30 18 32 19 33 20 34 78 35 21 36
REMARK SMILES IDX 77 37 22 38 23 39 24 40 71 41 25 42 76 43 70 44 72 45 26 46
REMARK SMILES IDX 75 47 69 48 68 49 27 51 57 52 38 53 56 54 39 55 42 56 55 57
REMARK SMILES IDX 73 58 40 59 41 60 54 62 74 63 43 64 28 65 29 66 37 67 30 68
REMARK SMILES IDX 36 69 31 70 32 71 33 72 34 73 35 74 58 75 59 76 67 77 60 78
REMARK SMILES IDX 66 79 61 80 62 81 63 82 64 83 65 84 44 85 45 86 53 87 46 88
REMARK SMILES IDX 52 89 47 90 48 91 49 92 50 93 51 94
REMARK H PARENT 11 6 3 18 81 19 16 31 72 50 42 61
REMARK Flexibility Score: inf
ROOT
ATOM      1  C   UNL     1       7.978   3.480  -6.383  1.00  0.00     0.023 C 
ENDROOT
BRANCH   1   2
ATOM      2  C   UNL     1       6.684   2.727  -6.699  1.00  0.00     0.116 C 
BRANCH   2   3
ATOM      3  N   UNL     1       6.924   1.300  -6.793  1.00  0.00    -0.352 N 
ATOM      4  C   UNL     1       6.705   0.281  -5.901  1.00  0.00     0.251 C 
ATOM      5  O   UNL     1       6.929  -0.872  -6.269  1.00  0.00    -0.269 OA
ATOM      6  H   UNL     1       7.313   1.010  -7.650  1.00  0.00     0.163 HD
BRANCH   4   7
ATOM      7  C   UNL     1       6.175   0.503  -4.527  1.00  0.00     0.039 A 
ATOM      8  C   UNL     1       5.142   0.749  -1.909  1.00  0.00    -0.029 A 
ATOM      9  C   UNL     1       4.872  -0.393  -2.676  1.00  0.00     0.006 A 
ATOM     10  C   UNL     1       5.949   1.752  -2.454  1.00  0.00     0.006 A 
ATOM     11  C   UNL     1       5.384  -0.512  -3.971  1.00  0.00     0.014 A 
ATOM     12  C   UNL     1       6.476   1.619  -3.742  1.00  0.00     0.014 A 
BRANCH   8  13
ATOM     13  C   UNL     1       4.625   0.870  -0.502  1.00  0.00     0.153 C 
BRANCH  13  14
ATOM     14  N   UNL     1       3.179   0.889  -0.463  1.00  0.00    -0.334 N 
ATOM     15  O   UNL     1       1.103   0.245   0.009  1.00  0.00    -0.248 OA
ATOM     16  C   UNL     1       2.304   0.035   0.135  1.00  0.00     0.319 C 
ATOM     17  N   UNL     1       2.864  -0.962   0.881  1.00  0.00    -0.307 N 
ATOM     18  H   UNL     1       2.761   1.639  -0.944  1.00  0.00     0.165 HD
ATOM     19  H   UNL     1       3.821  -0.870   1.090  1.00  0.00     0.171 HD
BRANCH  17  20
ATOM     20  C   UNL     1       2.216  -2.112   1.386  1.00  0.00     0.057 A 
ATOM     21  C   UNL     1       2.704  -2.576   2.621  1.00  0.00     0.027 A 
ATOM     22  C   UNL     1       1.189  -2.838   0.757  1.00  0.00     0.041 A 
ATOM     23  C   UNL     1       2.138  -3.684   3.254  1.00  0.00     0.002 A 
ATOM     24  C   UNL     1       0.616  -3.943   1.407  1.00  0.00     0.018 A 
ATOM     25  Br  UNL     1       0.646  -2.588  -1.050  1.00  0.00    -0.049 Br
ATOM     26  C   UNL     1       1.081  -4.357   2.654  1.00  0.00     0.001 A 
ENDBRANCH  17  20
ENDBRANCH  13  14
ENDBRANCH   8  13
ENDBRANCH   4   7
ENDBRANCH   2   3
ENDBRANCH   1   2
BRANCH   1  27
ATOM     27  C   UNL     1       8.917   3.665  -7.578  1.00  0.00     0.023 C 
BRANCH  27  28
ATOM     28  C   UNL     1       8.365   4.534  -8.703  1.00  0.00     0.116 C 
BRANCH  28  29
ATOM     29  N   UNL     1       8.008   5.873  -8.270  1.00  0.00    -0.352 N 
ATOM     30  C   UNL     1       8.050   7.046  -8.995  1.00  0.00     0.251 C 
ATOM     31  H   UNL     1       7.697   5.955  -7.340  1.00  0.00     0.163 HD
ATOM     32  O   UNL     1       7.814   8.115  -8.452  1.00  0.00    -0.269 OA
BRANCH  30  33
ATOM     33  C   UNL     1       8.430   6.992 -10.422  1.00  0.00     0.039 A 
ATOM     34  C   UNL     1       9.443   7.838 -10.879  1.00  0.00     0.014 A 
ATOM     35  C   UNL     1       7.820   6.083 -11.290  1.00  0.00     0.014 A 
ATOM     36  C   UNL     1       9.896   7.722 -12.194  1.00  0.00     0.010 A 
ATOM     37  C   UNL     1       8.314   5.927 -12.582  1.00  0.00     0.010 A 
ATOM     38  C   UNL     1       9.360   6.740 -13.043  1.00  0.00    -0.014 A 
BRANCH  38  39
ATOM     39  C   UNL     1       9.890   6.535 -14.414  1.00  0.00     0.031 A 
ATOM     40  C   UNL     1       9.018   6.808 -15.607  1.00  0.00     0.074 A 
ATOM     41  C   UNL     1      11.129   6.031 -14.579  1.00  0.00     0.049 A 
ATOM     42  N   UNL     1       9.274   6.613 -16.875  1.00  0.00    -0.248 NA
ATOM     43  C   UNL     1       7.675   7.346 -15.339  1.00  0.00     0.031 C 
ATOM     44  C   UNL     1      12.056   5.686 -13.498  1.00  0.00     0.029 A 
ATOM     45  N   UNL     1      11.818   5.710 -15.722  1.00  0.00    -0.354 N 
ATOM     46  C   UNL     1       8.121   6.987 -17.554  1.00  0.00     0.074 A 
ATOM     47  C   UNL     1       7.150   7.380 -16.556  1.00  0.00     0.031 C 
ATOM     48  C   UNL     1      13.199   5.222 -14.031  1.00  0.00     0.029 A 
ATOM     49  C   UNL     1      13.073   5.201 -15.485  1.00  0.00     0.049 A 
ATOM     50  H   UNL     1      11.448   5.832 -16.626  1.00  0.00     0.167 HD
ATOM     51  C   UNL     1       7.895   7.017 -18.889  1.00  0.00     0.031 A 
ATOM     52  C   UNL     1      14.015   4.760 -16.341  1.00  0.00     0.031 A 
ATOM     53  C   UNL     1       8.867   6.639 -19.881  1.00  0.00     0.049 A 
ATOM     54  C   UNL     1      13.741   4.803 -17.819  1.00  0.00     0.074 A 
ATOM     55  C   UNL     1       8.752   6.685 -21.259  1.00  0.00     0.029 A 
ATOM     56  N   UNL     1      10.132   6.148 -19.600  1.00  0.00    -0.354 N 
ATOM     57  N   UNL     1      12.664   5.214 -18.444  1.00  0.00    -0.248 NA
ATOM     58  C   UNL     1      14.813   4.330 -18.706  1.00  0.00     0.031 C 
ATOM     59  C   UNL     1       9.936   6.185 -21.812  1.00  0.00     0.029 A 
ATOM     60  C   UNL     1      10.804   5.871 -20.778  1.00  0.00     0.049 A 
ATOM     61  H   UNL     1      10.499   6.015 -18.696  1.00  0.00     0.167 HD
ATOM     62  C   UNL     1      12.938   5.072 -19.799  1.00  0.00     0.074 A 
ATOM     63  C   UNL     1      14.285   4.549 -19.903  1.00  0.00     0.031 C 
ATOM     64  C   UNL     1      12.145   5.352 -20.863  1.00  0.00     0.031 A 
BRANCH  51  65
ATOM     65  C   UNL     1       6.538   7.474 -19.352  1.00  0.00    -0.014 A 
ATOM     66  C   UNL     1       6.159   8.825 -19.251  1.00  0.00     0.010 A 
ATOM     67  C   UNL     1       5.643   6.551 -19.920  1.00  0.00     0.010 A 
ATOM     68  C   UNL     1       4.891   9.236 -19.670  1.00  0.00     0.020 A 
ATOM     69  C   UNL     1       4.383   6.963 -20.364  1.00  0.00     0.020 A 
ATOM     70  C   UNL     1       4.008   8.301 -20.218  1.00  0.00     0.054 A 
BRANCH  70  71
ATOM     71  S   UNL     1       2.374   8.864 -20.767  1.00  0.00     0.124 S 
ATOM     72  O   UNL     1       1.672   9.030 -19.497  1.00  0.00    -0.237 OA
ATOM     73  O   UNL     1       2.682  10.101 -21.480  1.00  0.00    -0.237 OA
ATOM     74  O   UNL     1       1.894   7.769 -21.606  1.00  0.00    -0.744 OA
ENDBRANCH  70  71
ENDBRANCH  51  65
BRANCH  52  75
ATOM     75  C   UNL     1      15.313   4.255 -15.820  1.00  0.00    -0.014 A 
ATOM     76  C   UNL     1      16.483   5.020 -15.970  1.00  0.00     0.010 A 
ATOM     77  C   UNL     1      15.385   3.015 -15.161  1.00  0.00     0.010 A 
ATOM     78  C   UNL     1      17.705   4.547 -15.484  1.00  0.00     0.020 A 
ATOM     79  C   UNL     1      16.601   2.549 -14.652  1.00  0.00     0.020 A 
ATOM     80  C   UNL     1      17.756   3.314 -14.828  1.00  0.00     0.054 A 
BRANCH  80  81
ATOM     81  S   UNL     1      19.343   2.743 -14.156  1.00  0.00     0.124 S 
ATOM     82  O   UNL     1      20.032   2.284 -15.358  1.00  0.00    -0.237 OA
ATOM     83  O   UNL     1      19.881   3.953 -13.540  1.00  0.00    -0.237 OA
ATOM     84  O   UNL     1      18.956   1.694 -13.215  1.00  0.00    -0.744 OA
ENDBRANCH  80  81
ENDBRANCH  52  75
BRANCH  64  85
ATOM     85  C   UNL     1      12.721   5.127 -22.233  1.00  0.00    -0.014 A 
ATOM     86  C   UNL     1      12.863   3.830 -22.757  1.00  0.00     0.010 A 
ATOM     87  C   UNL     1      13.068   6.233 -23.030  1.00  0.00     0.010 A 
ATOM     88  C   UNL     1      13.363   3.643 -24.048  1.00  0.00     0.020 A 
ATOM     89  C   UNL     1      13.547   6.051 -24.329  1.00  0.00     0.020 A 
ATOM     90  C   UNL     1      13.702   4.755 -24.826  1.00  0.00     0.054 A 
BRANCH  90  91
ATOM     91  S   UNL     1      14.297   4.489 -26.519  1.00  0.00     0.124 S 
ATOM     92  O   UNL     1      15.672   4.051 -26.292  1.00  0.00    -0.237 OA
ATOM     93  O   UNL     1      13.386   3.466 -27.025  1.00  0.00    -0.237 OA
ATOM     94  O   UNL     1      14.157   5.802 -27.144  1.00  0.00    -0.744 OA
ENDBRANCH  90  91
ENDBRANCH  64  85
ENDBRANCH  38  39
ENDBRANCH  30  33
ENDBRANCH  28  29
ENDBRANCH  27  28
ENDBRANCH   1  27
TORSDOF 17
