REMARK SMILES C=C1C[C@@]23CC[C@H]4[C@@](C)(CCC[C@@]4(C)C(=O)NCCCCNC(=O)c4ccc(-c5c6nc(c(-c7ccc(S(=O)(=O)[O-])cc7)c7ccc([nH]7)c(-c7ccc(S(=O)(=O)[O-])cc7)c7nc(c(-c8ccc(S(=O)(=O)[O-])cc8)c8ccc5[nH]8)C=C7)C=C6)cc4)[C@H]2CC[C@]1(O)C3
REMARK SMILES IDX 20 1 19 2 18 3 17 4 15 5 16 6 13 8 1 9 2 10 3 11 88 12 4 13
REMARK SMILES IDX 87 14 90 15 5 16 85 17 86 18 6 19 8 20 7 21 9 22 10 23 11 24
REMARK SMILES IDX 12 25 14 26 89 27 21 29 22 30 23 31 24 33 25 34 26 35 84 36
REMARK SMILES IDX 27 37 83 38 28 39 29 40 30 41 77 42 31 43 82 44 76 45 78 46
REMARK SMILES IDX 32 47 81 48 75 49 74 50 33 52 63 53 44 54 62 55 45 56 48 57
REMARK SMILES IDX 61 58 79 59 46 60 47 61 60 63 80 64 49 65 34 66 35 67 43 68
REMARK SMILES IDX 36 69 42 70 37 71 38 72 39 73 40 74 41 75 64 76 65 77 73 78
REMARK SMILES IDX 66 79 72 80 67 81 68 82 69 83 70 84 71 85 50 86 51 87 59 88
REMARK SMILES IDX 52 89 58 90 53 91 54 92 55 93 56 94 57 95
REMARK H PARENT 17 7 89 28 22 32 78 51 48 62
REMARK Flexibility Score: inf
ROOT
ATOM      1  C   UNL     1       1.912 -10.100  -4.719  1.00  0.00     0.023 C 
ENDROOT
BRANCH   1   2
ATOM      2  C   UNL     1       1.181  -8.764  -4.800  1.00  0.00     0.023 C 
BRANCH   2   3
ATOM      3  C   UNL     1      -0.190  -8.804  -5.484  1.00  0.00     0.116 C 
BRANCH   3   4
ATOM      4  N   UNL     1      -1.302  -8.491  -4.590  1.00  0.00    -0.356 N 
ATOM      5  C   UNL     1      -2.067  -7.418  -4.257  1.00  0.00     0.226 C 
ATOM      6  O   UNL     1      -2.955  -7.664  -3.425  1.00  0.00    -0.274 OA
ATOM      7  H   UNL     1      -1.577  -9.288  -4.082  1.00  0.00     0.163 HD
BRANCH   5   8
ATOM      8  C   UNL     1      -1.946  -5.973  -4.807  1.00  0.00     0.050 C 
ATOM      9  C   UNL     1       1.587  -0.285  -0.193  1.00  0.00     0.011 C 
ATOM     10  C   UNL     1       0.726  -1.229  -0.599  1.00  0.00    -0.045 C 
ATOM     11  C   UNL     1       0.675  -1.833  -1.994  1.00  0.00     0.040 C 
ATOM     12  C   UNL     1      -0.462  -1.738   0.180  1.00  0.00     0.086 C 
ATOM     13  C   UNL     1      -0.705  -2.559  -2.034  1.00  0.00    -0.020 C 
ATOM     14  C   UNL     1      -0.217  -3.135   0.766  1.00  0.00     0.040 C 
ATOM     15  C   UNL     1      -1.482  -1.797  -0.941  1.00  0.00     0.047 C 
ATOM     16  C   UNL     1      -1.480  -2.397  -3.340  1.00  0.00     0.008 C 
ATOM     17  C   UNL     1      -0.615  -4.057  -1.579  1.00  0.00     0.002 C 
ATOM     18  C   UNL     1       0.218  -4.190  -0.278  1.00  0.00     0.008 C 
ATOM     19  C   UNL     1      -2.481  -3.580  -3.536  1.00  0.00     0.006 C 
ATOM     20  C   UNL     1      -0.490  -5.158  -2.731  1.00  0.00    -0.025 C 
ATOM     21  C   UNL     1      -1.620  -4.846  -3.765  1.00  0.00     0.010 C 
ATOM     22  C   UNL     1      -0.591  -6.500  -1.959  1.00  0.00     0.012 C 
ATOM     23  C   UNL     1       0.793  -5.259  -3.640  1.00  0.00     0.007 C 
ATOM     24  C   UNL     1       0.586  -5.459  -5.217  1.00  0.00     0.002 C 
ATOM     25  C   UNL     1      -0.831  -5.750  -5.846  1.00  0.00     0.017 C 
ATOM     26  C   UNL     1      -3.347  -5.738  -5.424  1.00  0.00     0.022 C 
BRANCH  12  27
ATOM     27  O   UNL     1      -0.890  -0.841   1.186  1.00  0.00    -0.386 OA
ATOM     28  H   UNL     1      -0.231  -0.812   1.896  1.00  0.00     0.211 HD
ENDBRANCH  12  27
ENDBRANCH   5   8
ENDBRANCH   3   4
ENDBRANCH   2   3
ENDBRANCH   1   2
BRANCH   1  29
ATOM     29  C   UNL     1       2.091 -10.831  -6.041  1.00  0.00     0.116 C 
BRANCH  29  30
ATOM     30  N   UNL     1       2.771 -10.079  -7.088  1.00  0.00    -0.352 N 
ATOM     31  C   UNL     1       3.531 -10.603  -8.120  1.00  0.00     0.251 C 
ATOM     32  H   UNL     1       2.681  -9.099  -7.058  1.00  0.00     0.163 HD
ATOM     33  O   UNL     1       4.083  -9.884  -8.933  1.00  0.00    -0.269 OA
BRANCH  31  34
ATOM     34  C   UNL     1       3.697 -12.074  -8.160  1.00  0.00     0.039 A 
ATOM     35  C   UNL     1       4.978 -12.612  -8.032  1.00  0.00     0.014 A 
ATOM     36  C   UNL     1       2.568 -12.895  -8.129  1.00  0.00     0.014 A 
ATOM     37  C   UNL     1       5.120 -13.976  -7.766  1.00  0.00     0.010 A 
ATOM     38  C   UNL     1       2.710 -14.227  -7.763  1.00  0.00     0.010 A 
ATOM     39  C   UNL     1       3.986 -14.781  -7.569  1.00  0.00    -0.014 A 
BRANCH  39  40
ATOM     40  C   UNL     1       4.101 -16.205  -7.157  1.00  0.00     0.031 A 
ATOM     41  C   UNL     1       3.531 -17.283  -8.040  1.00  0.00     0.074 A 
ATOM     42  C   UNL     1       4.635 -16.523  -5.959  1.00  0.00     0.049 A 
ATOM     43  N   UNL     1       3.439 -18.568  -7.818  1.00  0.00    -0.248 NA
ATOM     44  C   UNL     1       2.951 -16.852  -9.323  1.00  0.00     0.031 C 
ATOM     45  C   UNL     1       5.160 -15.569  -4.978  1.00  0.00     0.029 A 
ATOM     46  N   UNL     1       4.814 -17.744  -5.357  1.00  0.00    -0.354 N 
ATOM     47  C   UNL     1       2.768 -19.091  -8.917  1.00  0.00     0.074 A 
ATOM     48  C   UNL     1       2.421 -17.979  -9.772  1.00  0.00     0.031 C 
ATOM     49  C   UNL     1       5.631 -16.243  -3.915  1.00  0.00     0.029 A 
ATOM     50  C   UNL     1       5.410 -17.671  -4.119  1.00  0.00     0.049 A 
ATOM     51  H   UNL     1       4.542 -18.594  -5.773  1.00  0.00     0.167 HD
ATOM     52  C   UNL     1       2.490 -20.384  -9.207  1.00  0.00     0.031 A 
ATOM     53  C   UNL     1       5.743 -18.643  -3.247  1.00  0.00     0.031 A 
ATOM     54  C   UNL     1       2.869 -21.493  -8.376  1.00  0.00     0.049 A 
ATOM     55  C   UNL     1       5.465 -20.077  -3.610  1.00  0.00     0.074 A 
ATOM     56  C   UNL     1       2.689 -22.845  -8.608  1.00  0.00     0.029 A 
ATOM     57  N   UNL     1       3.518 -21.377  -7.156  1.00  0.00    -0.354 N 
ATOM     58  N   UNL     1       4.882 -20.555  -4.684  1.00  0.00    -0.248 NA
ATOM     59  C   UNL     1       5.902 -21.102  -2.652  1.00  0.00     0.031 C 
ATOM     60  C   UNL     1       3.204 -23.546  -7.513  1.00  0.00     0.029 A 
ATOM     61  C   UNL     1       3.743 -22.633  -6.621  1.00  0.00     0.049 A 
ATOM     62  H   UNL     1       3.779 -20.527  -6.733  1.00  0.00     0.167 HD
ATOM     63  C   UNL     1       4.904 -21.938  -4.541  1.00  0.00     0.074 A 
ATOM     64  C   UNL     1       5.571 -22.219  -3.286  1.00  0.00     0.031 C 
ATOM     65  C   UNL     1       4.414 -22.890  -5.372  1.00  0.00     0.031 A 
BRANCH  52  66
ATOM     66  C   UNL     1       1.756 -20.658 -10.492  1.00  0.00    -0.014 A 
ATOM     67  C   UNL     1       2.383 -20.464 -11.737  1.00  0.00     0.010 A 
ATOM     68  C   UNL     1       0.428 -21.121 -10.459  1.00  0.00     0.010 A 
ATOM     69  C   UNL     1       1.681 -20.677 -12.925  1.00  0.00     0.020 A 
ATOM     70  C   UNL     1      -0.268 -21.365 -11.646  1.00  0.00     0.020 A 
ATOM     71  C   UNL     1       0.357 -21.120 -12.872  1.00  0.00     0.054 A 
BRANCH  71  72
ATOM     72  S   UNL     1      -0.529 -21.399 -14.430  1.00  0.00     0.124 S 
ATOM     73  O   UNL     1      -0.825 -20.033 -14.854  1.00  0.00    -0.237 OA
ATOM     74  O   UNL     1       0.460 -22.107 -15.239  1.00  0.00    -0.237 OA
ATOM     75  O   UNL     1      -1.688 -22.193 -14.031  1.00  0.00    -0.744 OA
ENDBRANCH  71  72
ENDBRANCH  52  66
BRANCH  53  76
ATOM     76  C   UNL     1       6.404 -18.297  -1.959  1.00  0.00    -0.014 A 
ATOM     77  C   UNL     1       7.769 -18.576  -1.761  1.00  0.00     0.010 A 
ATOM     78  C   UNL     1       5.678 -17.678  -0.926  1.00  0.00     0.010 A 
ATOM     79  C   UNL     1       8.390 -18.261  -0.549  1.00  0.00     0.020 A 
ATOM     80  C   UNL     1       6.301 -17.339   0.279  1.00  0.00     0.020 A 
ATOM     81  C   UNL     1       7.652 -17.643   0.464  1.00  0.00     0.054 A 
BRANCH  81  82
ATOM     82  S   UNL     1       8.490 -17.193   2.010  1.00  0.00     0.124 S 
ATOM     83  O   UNL     1       8.605 -18.484   2.680  1.00  0.00    -0.237 OA
ATOM     84  O   UNL     1       9.743 -16.612   1.534  1.00  0.00    -0.237 OA
ATOM     85  O   UNL     1       7.570 -16.243   2.631  1.00  0.00    -0.744 OA
ENDBRANCH  81  82
ENDBRANCH  53  76
BRANCH  65  86
ATOM     86  C   UNL     1       4.609 -24.326  -4.971  1.00  0.00    -0.014 A 
ATOM     87  C   UNL     1       3.843 -24.902  -3.944  1.00  0.00     0.010 A 
ATOM     88  C   UNL     1       5.527 -25.124  -5.678  1.00  0.00     0.010 A 
ATOM     89  C   UNL     1       4.011 -26.249  -3.611  1.00  0.00     0.020 A 
ATOM     90  C   UNL     1       5.681 -26.476  -5.364  1.00  0.00     0.020 A 
ATOM     91  C   UNL     1       4.930 -27.027  -4.323  1.00  0.00     0.054 A 
BRANCH  91  92
ATOM     92  S   UNL     1       5.095 -28.784  -3.907  1.00  0.00     0.124 S 
ATOM     93  O   UNL     1       5.871 -28.732  -2.672  1.00  0.00    -0.237 OA
ATOM     94  O   UNL     1       3.706 -29.213  -3.760  1.00  0.00    -0.237 OA
ATOM     95  O   UNL     1       5.795 -29.348  -5.060  1.00  0.00    -0.744 OA
ENDBRANCH  91  92
ENDBRANCH  65  86
ENDBRANCH  39  40
ENDBRANCH  31  34
ENDBRANCH  29  30
ENDBRANCH   1  29
TORSDOF 15
