REMARK SMILES Cc1nc(=O)[nH]c(C)c1CC(=O)N1CC[C@H](C(=O)NCCCCNC(=O)c2ccc(-c3c4nc(c(-c5ccc(S(=O)(=O)[O-])cc5)c5ccc([nH]5)c(-c5ccc(S(=O)(=O)[O-])cc5)c5nc(c(-c6ccc(S(=O)(=O)[O-])cc6)c6ccc3[nH]6)C=C5)C=C4)cc2)[C@@H]1C
REMARK SMILES IDX 21 1 20 2 19 3 17 4 18 5 16 7 13 8 14 9 87 10 15 11 88 12
REMARK SMILES IDX 11 13 12 14 10 15 9 16 1 17 2 18 3 19 4 20 7 21 5 22 6 23
REMARK SMILES IDX 8 24 22 26 23 27 24 28 25 29 26 31 27 32 28 33 86 34 29 35
REMARK SMILES IDX 85 36 30 37 31 38 32 39 79 40 33 41 84 42 78 43 80 44 34 45
REMARK SMILES IDX 83 46 77 47 76 48 35 50 65 51 46 52 64 53 47 54 50 55 63 56
REMARK SMILES IDX 81 57 48 58 49 59 62 61 82 62 51 63 36 64 37 65 45 66 38 67
REMARK SMILES IDX 44 68 39 69 40 70 41 71 42 72 43 73 66 74 67 75 75 76 68 77
REMARK SMILES IDX 74 78 69 79 70 80 71 81 72 82 73 83 52 84 53 85 61 86 54 87
REMARK SMILES IDX 60 88 55 89 56 90 57 91 58 92 59 93
REMARK H PARENT 19 6 6 25 24 30 80 49 50 60
REMARK Flexibility Score: inf
ROOT
ATOM      1  C   UNL     1      -4.071   0.844   4.405  1.00  0.00     0.023 C 
ENDROOT
BRANCH   1   2
ATOM      2  C   UNL     1      -2.658   0.337   4.146  1.00  0.00     0.116 C 
BRANCH   2   3
ATOM      3  N   UNL     1      -1.968  -0.112   5.344  1.00  0.00    -0.356 N 
ATOM      4  C   UNL     1      -0.993  -1.030   5.569  1.00  0.00     0.225 C 
ATOM      5  O   UNL     1      -0.477  -0.996   6.694  1.00  0.00    -0.275 OA
ATOM      6  H   UNL     1      -2.271   0.344   6.162  1.00  0.00     0.163 HD
BRANCH   4   7
ATOM      7  C   UNL     1      -0.561  -2.156   4.616  1.00  0.00     0.102 C 
ATOM      8  N   UNL     1      -1.844  -2.422   2.632  1.00  0.00    -0.339 N 
ATOM      9  C   UNL     1      -2.548  -3.096   3.726  1.00  0.00     0.120 C 
ATOM     10  C   UNL     1      -0.510  -1.963   3.091  1.00  0.00     0.094 C 
ATOM     11  C   UNL     1      -1.492  -3.348   4.782  1.00  0.00     0.037 C 
ATOM     12  C   UNL     1      -0.017  -0.561   2.747  1.00  0.00     0.032 C 
BRANCH   8  13
ATOM     13  C   UNL     1      -2.485  -2.414   1.412  1.00  0.00     0.227 C 
ATOM     14  O   UNL     1      -3.711  -2.578   1.359  1.00  0.00    -0.275 OA
BRANCH  13  15
ATOM     15  C   UNL     1      -1.711  -2.395   0.099  1.00  0.00     0.139 C 
BRANCH  15  16
ATOM     16  C   UNL     1      -0.909  -1.176  -0.210  1.00  0.00     0.002 A 
ATOM     17  C   UNL     1       1.323  -2.565  -0.295  1.00  0.00     0.067 C 
ATOM     18  C   UNL     1       0.585  -1.240  -0.343  1.00  0.00     0.049 A 
ATOM     19  N   UNL     1       1.352  -0.205  -0.474  1.00  0.00    -0.198 NA
ATOM     20  C   UNL     1       0.796   1.039  -0.518  1.00  0.00     0.345 A 
ATOM     21  C   UNL     1      -1.422   0.061  -0.370  1.00  0.00     0.022 A 
ATOM     22  O   UNL     1       1.466   2.067  -0.554  1.00  0.00    -0.246 OA
ATOM     23  N   UNL     1      -0.570   1.125  -0.518  1.00  0.00    -0.310 N 
ATOM     24  C   UNL     1      -2.881   0.429  -0.321  1.00  0.00     0.065 C 
ATOM     25  H   UNL     1      -0.970   2.017  -0.631  1.00  0.00     0.171 HD
ENDBRANCH  15  16
ENDBRANCH  13  15
ENDBRANCH   8  13
ENDBRANCH   4   7
ENDBRANCH   2   3
ENDBRANCH   1   2
BRANCH   1  26
ATOM     26  C   UNL     1      -4.148   2.158   5.175  1.00  0.00     0.023 C 
BRANCH  26  27
ATOM     27  C   UNL     1      -3.324   3.302   4.595  1.00  0.00     0.116 C 
BRANCH  27  28
ATOM     28  N   UNL     1      -3.686   3.636   3.223  1.00  0.00    -0.352 N 
ATOM     29  C   UNL     1      -4.128   4.832   2.704  1.00  0.00     0.251 C 
ATOM     30  H   UNL     1      -3.602   2.900   2.574  1.00  0.00     0.163 HD
ATOM     31  O   UNL     1      -4.501   4.896   1.536  1.00  0.00    -0.269 OA
BRANCH  29  32
ATOM     32  C   UNL     1      -4.186   6.022   3.578  1.00  0.00     0.039 A 
ATOM     33  C   UNL     1      -5.367   6.762   3.645  1.00  0.00     0.014 A 
ATOM     34  C   UNL     1      -3.094   6.361   4.380  1.00  0.00     0.014 A 
ATOM     35  C   UNL     1      -5.484   7.788   4.586  1.00  0.00     0.010 A 
ATOM     36  C   UNL     1      -3.247   7.314   5.381  1.00  0.00     0.010 A 
ATOM     37  C   UNL     1      -4.443   8.039   5.497  1.00  0.00    -0.014 A 
BRANCH  37  38
ATOM     38  C   UNL     1      -4.591   9.042   6.585  1.00  0.00     0.031 A 
ATOM     39  C   UNL     1      -3.657  10.220   6.661  1.00  0.00     0.074 A 
ATOM     40  C   UNL     1      -5.514   8.853   7.550  1.00  0.00     0.049 A 
ATOM     41  N   UNL     1      -3.595  11.166   7.563  1.00  0.00    -0.248 NA
ATOM     42  C   UNL     1      -2.640  10.330   5.604  1.00  0.00     0.031 C 
ATOM     43  C   UNL     1      -6.439   7.720   7.628  1.00  0.00     0.029 A 
ATOM     44  N   UNL     1      -5.818   9.604   8.658  1.00  0.00    -0.354 N 
ATOM     45  C   UNL     1      -2.524  11.971   7.191  1.00  0.00     0.074 A 
ATOM     46  C   UNL     1      -1.927  11.364   6.023  1.00  0.00     0.031 C 
ATOM     47  C   UNL     1      -7.220   7.863   8.710  1.00  0.00     0.029 A 
ATOM     48  C   UNL     1      -6.825   9.070   9.429  1.00  0.00     0.049 A 
ATOM     49  H   UNL     1      -5.359  10.447   8.881  1.00  0.00     0.167 HD
ATOM     50  C   UNL     1      -2.090  13.124   7.755  1.00  0.00     0.031 A 
ATOM     51  C   UNL     1      -7.363   9.492  10.590  1.00  0.00     0.031 A 
ATOM     52  C   UNL     1      -2.682  13.720   8.924  1.00  0.00     0.049 A 
ATOM     53  C   UNL     1      -6.866  10.770  11.207  1.00  0.00     0.074 A 
ATOM     54  C   UNL     1      -2.356  14.914   9.541  1.00  0.00     0.029 A 
ATOM     55  N   UNL     1      -3.716  13.159   9.661  1.00  0.00    -0.354 N 
ATOM     56  N   UNL     1      -5.909  11.566  10.791  1.00  0.00    -0.248 NA
ATOM     57  C   UNL     1      -7.530  11.216  12.439  1.00  0.00     0.031 C 
ATOM     58  C   UNL     1      -3.145  15.042  10.689  1.00  0.00     0.029 A 
ATOM     59  C   UNL     1      -4.017  13.966  10.746  1.00  0.00     0.049 A 
ATOM     60  H   UNL     1      -4.168  12.312   9.445  1.00  0.00     0.167 HD
ATOM     61  C   UNL     1      -5.870  12.619  11.699  1.00  0.00     0.074 A 
ATOM     62  C   UNL     1      -6.912  12.366  12.674  1.00  0.00     0.031 C 
ATOM     63  C   UNL     1      -5.048  13.698  11.719  1.00  0.00     0.031 A 
BRANCH  50  64
ATOM     64  C   UNL     1      -0.899  13.797   7.117  1.00  0.00    -0.014 A 
ATOM     65  C   UNL     1      -0.972  14.336   5.818  1.00  0.00     0.010 A 
ATOM     66  C   UNL     1       0.314  13.889   7.824  1.00  0.00     0.010 A 
ATOM     67  C   UNL     1       0.161  14.885   5.212  1.00  0.00     0.020 A 
ATOM     68  C   UNL     1       1.440  14.473   7.236  1.00  0.00     0.020 A 
ATOM     69  C   UNL     1       1.363  14.943   5.923  1.00  0.00     0.054 A 
BRANCH  69  70
ATOM     70  S   UNL     1       2.821  15.644   5.106  1.00  0.00     0.124 S 
ATOM     71  O   UNL     1       3.151  14.603   4.136  1.00  0.00    -0.237 OA
ATOM     72  O   UNL     1       2.304  16.887   4.540  1.00  0.00    -0.237 OA
ATOM     73  O   UNL     1       3.783  15.809   6.192  1.00  0.00    -0.744 OA
ENDBRANCH  69  70
ENDBRANCH  50  64
BRANCH  51  74
ATOM     74  C   UNL     1      -8.440   8.687  11.233  1.00  0.00    -0.014 A 
ATOM     75  C   UNL     1      -9.770   9.141  11.249  1.00  0.00     0.010 A 
ATOM     76  C   UNL     1      -8.142   7.426  11.784  1.00  0.00     0.010 A 
ATOM     77  C   UNL     1     -10.782   8.349  11.803  1.00  0.00     0.020 A 
ATOM     78  C   UNL     1      -9.155   6.619  12.310  1.00  0.00     0.020 A 
ATOM     79  C   UNL     1     -10.469   7.088  12.319  1.00  0.00     0.054 A 
BRANCH  79  80
ATOM     80  S   UNL     1     -11.812   6.040  12.945  1.00  0.00     0.124 S 
ATOM     81  O   UNL     1     -12.186   6.727  14.178  1.00  0.00    -0.237 OA
ATOM     82  O   UNL     1     -12.790   6.105  11.862  1.00  0.00    -0.237 OA
ATOM     83  O   UNL     1     -11.176   4.737  13.122  1.00  0.00    -0.744 OA
ENDBRANCH  79  80
ENDBRANCH  51  74
BRANCH  63  84
ATOM     84  C   UNL     1      -5.254  14.709  12.818  1.00  0.00    -0.014 A 
ATOM     85  C   UNL     1      -4.927  14.419  14.154  1.00  0.00     0.010 A 
ATOM     86  C   UNL     1      -5.726  15.995  12.493  1.00  0.00     0.010 A 
ATOM     87  C   UNL     1      -5.099  15.386  15.150  1.00  0.00     0.020 A 
ATOM     88  C   UNL     1      -5.869  16.974  13.480  1.00  0.00     0.020 A 
ATOM     89  C   UNL     1      -5.567  16.658  14.806  1.00  0.00     0.054 A 
BRANCH  89  90
ATOM     90  S   UNL     1      -5.738  17.907  16.109  1.00  0.00     0.124 S 
ATOM     91  O   UNL     1      -6.889  17.410  16.858  1.00  0.00    -0.237 OA
ATOM     92  O   UNL     1      -4.454  17.824  16.801  1.00  0.00    -0.237 OA
ATOM     93  O   UNL     1      -5.963  19.149  15.373  1.00  0.00    -0.744 OA
ENDBRANCH  89  90
ENDBRANCH  63  84
ENDBRANCH  37  38
ENDBRANCH  29  32
ENDBRANCH  27  28
ENDBRANCH  26  27
ENDBRANCH   1  26
TORSDOF 17
