REMARK SMILES CCNC(=O)NC(=O)[C@@H](C)[NH2+][C@](C)(C(=O)NCCCCNC(=O)c1ccc(-c2c3nc(c(-c4ccc(S(=O)(=O)[O-])cc4)c4ccc([nH]4)c(-c4ccc(S(=O)(=O)[O-])cc4)c4nc(c(-c5ccc(S(=O)(=O)[O-])cc5)c5ccc2[nH]5)C=C4)C=C3)cc1)C(F)(F)F
REMARK SMILES IDX 18 1 17 2 16 3 14 4 15 5 12 7 13 8 11 9 9 12 10 13 7 14 3 15
REMARK SMILES IDX 4 16 5 18 6 19 8 21 2 22 1 23 84 24 85 25 86 26 87 27 19 28
REMARK SMILES IDX 20 29 21 30 22 31 23 33 24 34 25 35 83 36 26 37 82 38 27 39
REMARK SMILES IDX 28 40 29 41 76 42 30 43 81 44 75 45 77 46 31 47 80 48 74 49
REMARK SMILES IDX 73 50 32 52 62 53 43 54 61 55 44 56 47 57 60 58 78 59 45 60
REMARK SMILES IDX 46 61 59 63 79 64 48 65 33 66 34 67 42 68 35 69 41 70 36 71
REMARK SMILES IDX 37 72 38 73 39 74 40 75 63 76 64 77 72 78 65 79 71 80 66 81
REMARK SMILES IDX 67 82 68 83 69 84 70 85 49 86 50 87 58 88 51 89 57 90 52 91
REMARK SMILES IDX 53 92 54 93 55 94 56 95
REMARK H PARENT 16 6 11 10 11 11 3 17 6 20 21 32 77 51 47 62
REMARK Flexibility Score: inf
ROOT
ATOM      1  C   UNL     1       2.118  -5.648  -0.802  1.00  0.00     0.023 C 
ENDROOT
BRANCH   1   2
ATOM      2  C   UNL     1       2.473  -4.214  -1.141  1.00  0.00     0.116 C 
BRANCH   2   3
ATOM      3  N   UNL     1       2.531  -3.858  -2.530  1.00  0.00    -0.350 N 
ATOM      4  C   UNL     1       2.280  -2.619  -3.062  1.00  0.00     0.290 C 
ATOM      5  O   UNL     1       2.841  -2.375  -4.133  1.00  0.00    -0.267 OA
ATOM      6  H   UNL     1       2.776  -4.572  -3.163  1.00  0.00     0.163 HD
BRANCH   4   7
ATOM      7  C   UNL     1       1.295  -1.625  -2.413  1.00  0.00     0.269 C 
ATOM      8  C   UNL     1      -0.071  -2.320  -2.167  1.00  0.00     0.101 C 
BRANCH   7   9
ATOM      9  N   UNL     1       1.658  -1.016  -1.073  1.00  0.00    -0.316 N 
ATOM     10  H   UNL     1       1.327  -0.052  -1.115  1.00  0.00     0.348 HD
ATOM     11  H   UNL     1       1.242  -1.702  -0.443  1.00  0.00     0.348 HD
BRANCH   9  12
ATOM     12  C   UNL     1       3.021  -0.940  -0.517  1.00  0.00     0.271 C 
ATOM     13  C   UNL     1       3.406  -1.867   0.662  1.00  0.00     0.086 C 
BRANCH  12  14
ATOM     14  C   UNL     1       3.200   0.471   0.064  1.00  0.00     0.285 C 
ATOM     15  N   UNL     1       0.621  -0.266   2.208  1.00  0.00    -0.338 N 
ATOM     16  C   UNL     1       1.493   0.739   2.104  1.00  0.00     0.321 C 
ATOM     17  H   UNL     1       0.234  -0.324   3.112  1.00  0.00     0.165 HD
ATOM     18  O   UNL     1       1.477   1.564   3.028  1.00  0.00    -0.248 OA
ATOM     19  N   UNL     1       2.412   0.965   1.113  1.00  0.00    -0.273 N 
ATOM     20  H   UNL     1       2.614   1.928   1.159  1.00  0.00     0.175 HD
ATOM     21  O   UNL     1       4.098   1.207  -0.361  1.00  0.00    -0.268 OA
BRANCH  15  22
ATOM     22  C   UNL     1       0.102  -1.288   1.332  1.00  0.00     0.114 C 
ATOM     23  C   UNL     1      -0.615  -2.407   2.064  1.00  0.00     0.027 C 
ENDBRANCH  15  22
ENDBRANCH  12  14
ENDBRANCH   9  12
ENDBRANCH   7   9
BRANCH   7  24
ATOM     24  C   UNL     1       0.998  -0.541  -3.501  1.00  0.00     0.453 C 
ATOM     25  F   UNL     1       0.430  -1.047  -4.617  1.00  0.00    -0.164 F 
ATOM     26  F   UNL     1       0.102   0.358  -2.993  1.00  0.00    -0.164 F 
ATOM     27  F   UNL     1       2.082   0.183  -3.846  1.00  0.00    -0.164 F 
ENDBRANCH   7  24
ENDBRANCH   4   7
ENDBRANCH   2   3
ENDBRANCH   1   2
BRANCH   1  28
ATOM     28  C   UNL     1       3.249  -6.657  -0.954  1.00  0.00     0.023 C 
BRANCH  28  29
ATOM     29  C   UNL     1       4.598  -6.282  -0.342  1.00  0.00     0.116 C 
BRANCH  29  30
ATOM     30  N   UNL     1       4.573  -6.009   1.091  1.00  0.00    -0.352 N 
ATOM     31  C   UNL     1       5.421  -6.490   2.070  1.00  0.00     0.251 C 
ATOM     32  H   UNL     1       3.860  -5.405   1.401  1.00  0.00     0.163 HD
ATOM     33  O   UNL     1       5.255  -6.185   3.247  1.00  0.00    -0.269 OA
BRANCH  31  34
ATOM     34  C   UNL     1       6.490  -7.435   1.682  1.00  0.00     0.039 A 
ATOM     35  C   UNL     1       6.502  -8.708   2.255  1.00  0.00     0.014 A 
ATOM     36  C   UNL     1       7.369  -7.114   0.645  1.00  0.00     0.014 A 
ATOM     37  C   UNL     1       7.297  -9.707   1.688  1.00  0.00     0.010 A 
ATOM     38  C   UNL     1       8.093  -8.131   0.030  1.00  0.00     0.010 A 
ATOM     39  C   UNL     1       8.035  -9.446   0.521  1.00  0.00    -0.014 A 
BRANCH  39  40
ATOM     40  C   UNL     1       8.675 -10.544  -0.252  1.00  0.00     0.031 A 
ATOM     41  C   UNL     1      10.160 -10.548  -0.485  1.00  0.00     0.074 A 
ATOM     42  C   UNL     1       7.902 -11.485  -0.834  1.00  0.00     0.049 A 
ATOM     43  N   UNL     1      10.876 -11.369  -1.210  1.00  0.00    -0.248 NA
ATOM     44  C   UNL     1      10.938  -9.475   0.155  1.00  0.00     0.031 C 
ATOM     45  C   UNL     1       6.441 -11.564  -0.739  1.00  0.00     0.029 A 
ATOM     46  N   UNL     1       8.234 -12.551  -1.635  1.00  0.00    -0.354 N 
ATOM     47  C   UNL     1      12.182 -10.902  -1.130  1.00  0.00     0.074 A 
ATOM     48  C   UNL     1      12.152  -9.700  -0.324  1.00  0.00     0.031 C 
ATOM     49  C   UNL     1       6.009 -12.633  -1.427  1.00  0.00     0.029 A 
ATOM     50  C   UNL     1       7.151 -13.291  -2.052  1.00  0.00     0.049 A 
ATOM     51  H   UNL     1       9.161 -12.766  -1.887  1.00  0.00     0.167 HD
ATOM     52  C   UNL     1      13.308 -11.435  -1.661  1.00  0.00     0.031 A 
ATOM     53  C   UNL     1       7.078 -14.370  -2.857  1.00  0.00     0.031 A 
ATOM     54  C   UNL     1      13.341 -12.638  -2.449  1.00  0.00     0.049 A 
ATOM     55  C   UNL     1       8.340 -14.935  -3.446  1.00  0.00     0.074 A 
ATOM     56  C   UNL     1      14.444 -13.298  -2.963  1.00  0.00     0.029 A 
ATOM     57  N   UNL     1      12.224 -13.358  -2.843  1.00  0.00    -0.354 N 
ATOM     58  N   UNL     1       9.576 -14.525  -3.287  1.00  0.00    -0.248 NA
ATOM     59  C   UNL     1       8.198 -16.106  -4.323  1.00  0.00     0.031 C 
ATOM     60  C   UNL     1      13.990 -14.389  -3.712  1.00  0.00     0.029 A 
ATOM     61  C   UNL     1      12.607 -14.436  -3.624  1.00  0.00     0.049 A 
ATOM     62  H   UNL     1      11.295 -13.136  -2.604  1.00  0.00     0.167 HD
ATOM     63  C   UNL     1      10.360 -15.394  -4.037  1.00  0.00     0.074 A 
ATOM     64  C   UNL     1       9.463 -16.364  -4.631  1.00  0.00     0.031 C 
ATOM     65  C   UNL     1      11.703 -15.386  -4.220  1.00  0.00     0.031 A 
BRANCH  52  66
ATOM     66  C   UNL     1      14.604 -10.713  -1.405  1.00  0.00    -0.014 A 
ATOM     67  C   UNL     1      15.189 -10.710  -0.127  1.00  0.00     0.010 A 
ATOM     68  C   UNL     1      15.262 -10.060  -2.463  1.00  0.00     0.010 A 
ATOM     69  C   UNL     1      16.388 -10.030   0.100  1.00  0.00     0.020 A 
ATOM     70  C   UNL     1      16.476  -9.401  -2.246  1.00  0.00     0.020 A 
ATOM     71  C   UNL     1      17.021  -9.375  -0.960  1.00  0.00     0.054 A 
BRANCH  71  72
ATOM     72  S   UNL     1      18.585  -8.515  -0.640  1.00  0.00     0.124 S 
ATOM     73  O   UNL     1      18.132  -7.327   0.080  1.00  0.00    -0.237 OA
ATOM     74  O   UNL     1      19.328  -9.486   0.159  1.00  0.00    -0.237 OA
ATOM     75  O   UNL     1      19.125  -8.267  -1.975  1.00  0.00    -0.744 OA
ENDBRANCH  71  72
ENDBRANCH  52  66
BRANCH  53  76
ATOM     76  C   UNL     1       5.757 -14.988  -3.153  1.00  0.00    -0.014 A 
ATOM     77  C   UNL     1       5.411 -16.230  -2.594  1.00  0.00     0.010 A 
ATOM     78  C   UNL     1       4.831 -14.330  -3.984  1.00  0.00     0.010 A 
ATOM     79  C   UNL     1       4.167 -16.808  -2.866  1.00  0.00     0.020 A 
ATOM     80  C   UNL     1       3.577 -14.893  -4.239  1.00  0.00     0.020 A 
ATOM     81  C   UNL     1       3.257 -16.134  -3.685  1.00  0.00     0.054 A 
BRANCH  81  82
ATOM     82  S   UNL     1       1.623 -16.870  -3.972  1.00  0.00     0.124 S 
ATOM     83  O   UNL     1       1.932 -17.931  -4.926  1.00  0.00    -0.237 OA
ATOM     84  O   UNL     1       1.236 -17.313  -2.635  1.00  0.00    -0.237 OA
ATOM     85  O   UNL     1       0.837 -15.758  -4.502  1.00  0.00    -0.744 OA
ENDBRANCH  81  82
ENDBRANCH  53  76
BRANCH  65  86
ATOM     86  C   UNL     1      12.290 -16.457  -5.098  1.00  0.00    -0.014 A 
ATOM     87  C   UNL     1      12.147 -16.400  -6.495  1.00  0.00     0.010 A 
ATOM     88  C   UNL     1      13.050 -17.493  -4.525  1.00  0.00     0.010 A 
ATOM     89  C   UNL     1      12.740 -17.372  -7.305  1.00  0.00     0.020 A 
ATOM     90  C   UNL     1      13.664 -18.453  -5.334  1.00  0.00     0.020 A 
ATOM     91  C   UNL     1      13.497 -18.391  -6.719  1.00  0.00     0.054 A 
BRANCH  91  92
ATOM     92  S   UNL     1      14.308 -19.604  -7.796  1.00  0.00     0.124 S 
ATOM     93  O   UNL     1      13.183 -20.433  -8.221  1.00  0.00    -0.237 OA
ATOM     94  O   UNL     1      14.899 -18.766  -8.836  1.00  0.00    -0.237 OA
ATOM     95  O   UNL     1      15.269 -20.263  -6.914  1.00  0.00    -0.744 OA
ENDBRANCH  91  92
ENDBRANCH  65  86
ENDBRANCH  39  40
ENDBRANCH  31  34
ENDBRANCH  29  30
ENDBRANCH  28  29
ENDBRANCH   1  28
TORSDOF 19
