REMARK SMILES O=C(NCCCCNC(=O)[C@@H]1C[C@@H](O)CN1C(=O)CSc1ccc(F)cc1F)c1ccc(-c2c3nc(c(-c4ccc(S(=O)(=O)[O-])cc4)c4ccc([nH]4)c(-c4ccc(S(=O)(=O)[O-])cc4)c4nc(c(-c5ccc(S(=O)(=O)[O-])cc5)c5ccc2[nH]5)C=C4)C=C3)cc1
REMARK SMILES IDX 6 1 5 2 4 3 3 4 1 5 2 6 29 8 30 9 88 10 31 11 87 12 32 13
REMARK SMILES IDX 33 14 34 15 81 16 35 17 86 18 80 19 82 20 36 21 85 22 79 23
REMARK SMILES IDX 78 24 37 26 67 27 48 28 66 29 49 30 52 31 65 32 83 33 50 34
REMARK SMILES IDX 51 35 64 37 84 38 53 39 38 40 39 41 47 42 40 43 46 44 41 45
REMARK SMILES IDX 42 46 43 47 44 48 45 49 68 50 69 51 77 52 70 53 76 54 71 55
REMARK SMILES IDX 72 56 73 57 74 58 75 59 54 60 55 61 63 62 56 63 62 64 57 65
REMARK SMILES IDX 58 66 59 67 60 68 61 69 7 70 8 71 9 72 10 74 11 75 12 76
REMARK SMILES IDX 16 77 13 78 15 79 17 80 18 81 19 82 20 83 21 84 22 85 27 86
REMARK SMILES IDX 23 87 26 88 28 89 24 90 25 91 14 92
REMARK H PARENT 3 7 82 25 52 36 8 73 14 93
REMARK Flexibility Score: inf
ROOT
ATOM      1  C   UNL     1       4.968  -3.446  10.056  1.00  0.00     0.023 C 
ENDROOT
BRANCH   1   2
ATOM      2  C   UNL     1       5.605  -4.742  10.551  1.00  0.00     0.023 C 
BRANCH   2   3
ATOM      3  C   UNL     1       6.949  -4.579  11.249  1.00  0.00     0.116 C 
BRANCH   3   4
ATOM      4  N   UNL     1       6.855  -3.793  12.471  1.00  0.00    -0.352 N 
ATOM      5  O   UNL     1       6.801  -3.401  14.688  1.00  0.00    -0.269 OA
ATOM      6  C   UNL     1       7.101  -4.163  13.772  1.00  0.00     0.251 C 
ATOM      7  H   UNL     1       6.572  -2.859  12.348  1.00  0.00     0.163 HD
BRANCH   6   8
ATOM      8  C   UNL     1       7.702  -5.483  14.069  1.00  0.00     0.039 A 
ATOM      9  C   UNL     1       8.790  -5.954  13.332  1.00  0.00     0.014 A 
ATOM     10  C   UNL     1       7.173  -6.255  15.108  1.00  0.00     0.014 A 
ATOM     11  C   UNL     1       9.251  -7.251  13.530  1.00  0.00     0.010 A 
ATOM     12  C   UNL     1       7.696  -7.527  15.363  1.00  0.00     0.010 A 
ATOM     13  C   UNL     1       8.718  -8.048  14.555  1.00  0.00    -0.014 A 
BRANCH  13  14
ATOM     14  C   UNL     1       9.290  -9.396  14.804  1.00  0.00     0.031 A 
ATOM     15  C   UNL     1       8.470 -10.642  14.614  1.00  0.00     0.074 A 
ATOM     16  C   UNL     1      10.576  -9.488  15.199  1.00  0.00     0.049 A 
ATOM     17  N   UNL     1       8.825 -11.891  14.781  1.00  0.00    -0.248 NA
ATOM     18  C   UNL     1       7.072 -10.466  14.193  1.00  0.00     0.031 C 
ATOM     19  C   UNL     1      11.467  -8.348  15.433  1.00  0.00     0.029 A 
ATOM     20  N   UNL     1      11.359 -10.581  15.464  1.00  0.00    -0.354 N 
ATOM     21  C   UNL     1       7.692 -12.650  14.508  1.00  0.00     0.074 A 
ATOM     22  C   UNL     1       6.632 -11.718  14.185  1.00  0.00     0.031 C 
ATOM     23  C   UNL     1      12.681  -8.803  15.775  1.00  0.00     0.029 A 
ATOM     24  C   UNL     1      12.639 -10.259  15.843  1.00  0.00     0.049 A 
ATOM     25  H   UNL     1      11.034 -11.508  15.390  1.00  0.00     0.167 HD
ATOM     26  C   UNL     1       7.550 -13.998  14.525  1.00  0.00     0.031 A 
ATOM     27  C   UNL     1      13.666 -11.040  16.228  1.00  0.00     0.031 A 
ATOM     28  C   UNL     1       8.610 -14.919  14.850  1.00  0.00     0.049 A 
ATOM     29  C   UNL     1      13.481 -12.528  16.253  1.00  0.00     0.074 A 
ATOM     30  C   UNL     1       8.576 -16.303  14.852  1.00  0.00     0.029 A 
ATOM     31  N   UNL     1       9.889 -14.551  15.242  1.00  0.00    -0.354 N 
ATOM     32  N   UNL     1      12.416 -13.227  15.943  1.00  0.00    -0.248 NA
ATOM     33  C   UNL     1      14.635 -13.332  16.674  1.00  0.00     0.031 C 
ATOM     34  C   UNL     1       9.818 -16.771  15.297  1.00  0.00     0.029 A 
ATOM     35  C   UNL     1      10.644 -15.680  15.518  1.00  0.00     0.049 A 
ATOM     36  H   UNL     1      10.212 -13.624  15.315  1.00  0.00     0.167 HD
ATOM     37  C   UNL     1      12.772 -14.558  16.124  1.00  0.00     0.074 A 
ATOM     38  C   UNL     1      14.158 -14.565  16.549  1.00  0.00     0.031 C 
ATOM     39  C   UNL     1      12.018 -15.671  15.954  1.00  0.00     0.031 A 
BRANCH  26  40
ATOM     40  C   UNL     1       6.185 -14.558  14.217  1.00  0.00    -0.014 A 
ATOM     41  C   UNL     1       5.655 -14.524  12.915  1.00  0.00     0.010 A 
ATOM     42  C   UNL     1       5.432 -15.156  15.245  1.00  0.00     0.010 A 
ATOM     43  C   UNL     1       4.377 -15.030  12.657  1.00  0.00     0.020 A 
ATOM     44  C   UNL     1       4.165 -15.686  14.986  1.00  0.00     0.020 A 
ATOM     45  C   UNL     1       3.636 -15.599  13.697  1.00  0.00     0.054 A 
BRANCH  45  46
ATOM     46  S   UNL     1       1.978 -16.243  13.338  1.00  0.00     0.124 S 
ATOM     47  O   UNL     1       1.200 -15.012  13.210  1.00  0.00    -0.237 OA
ATOM     48  O   UNL     1       2.182 -16.988  12.098  1.00  0.00    -0.237 OA
ATOM     49  O   UNL     1       1.662 -17.060  14.507  1.00  0.00    -0.744 OA
ENDBRANCH  45  46
ENDBRANCH  26  40
BRANCH  27  50
ATOM     50  C   UNL     1      14.945 -10.405  16.640  1.00  0.00    -0.014 A 
ATOM     51  C   UNL     1      16.080 -10.472  15.816  1.00  0.00     0.010 A 
ATOM     52  C   UNL     1      15.007  -9.666  17.837  1.00  0.00     0.010 A 
ATOM     53  C   UNL     1      17.256  -9.809  16.181  1.00  0.00     0.020 A 
ATOM     54  C   UNL     1      16.171  -8.980  18.190  1.00  0.00     0.020 A 
ATOM     55  C   UNL     1      17.291  -9.061  17.362  1.00  0.00     0.054 A 
BRANCH  55  56
ATOM     56  S   UNL     1      18.797  -8.136  17.772  1.00  0.00     0.124 S 
ATOM     57  O   UNL     1      19.683  -9.195  18.245  1.00  0.00    -0.237 OA
ATOM     58  O   UNL     1      19.157  -7.534  16.491  1.00  0.00    -0.237 OA
ATOM     59  O   UNL     1      18.349  -7.190  18.791  1.00  0.00    -0.744 OA
ENDBRANCH  55  56
ENDBRANCH  27  50
BRANCH  39  60
ATOM     60  C   UNL     1      12.681 -16.996  16.217  1.00  0.00    -0.014 A 
ATOM     61  C   UNL     1      12.953 -17.423  17.528  1.00  0.00     0.010 A 
ATOM     62  C   UNL     1      12.989 -17.845  15.139  1.00  0.00     0.010 A 
ATOM     63  C   UNL     1      13.547 -18.667  17.756  1.00  0.00     0.020 A 
ATOM     64  C   UNL     1      13.560 -19.100  15.364  1.00  0.00     0.020 A 
ATOM     65  C   UNL     1      13.847 -19.498  16.671  1.00  0.00     0.054 A 
BRANCH  65  66
ATOM     66  S   UNL     1      14.573 -21.129  16.994  1.00  0.00     0.124 S 
ATOM     67  O   UNL     1      15.952 -20.786  17.330  1.00  0.00    -0.237 OA
ATOM     68  O   UNL     1      13.762 -21.629  18.101  1.00  0.00    -0.237 OA
ATOM     69  O   UNL     1      14.398 -21.841  15.730  1.00  0.00    -0.744 OA
ENDBRANCH  65  66
ENDBRANCH  39  60
ENDBRANCH  13  14
ENDBRANCH   6   8
ENDBRANCH   3   4
ENDBRANCH   2   3
ENDBRANCH   1   2
BRANCH   1  70
ATOM     70  C   UNL     1       5.844  -2.570   9.167  1.00  0.00     0.116 C 
BRANCH  70  71
ATOM     71  N   UNL     1       6.332  -3.231   7.975  1.00  0.00    -0.354 N 
ATOM     72  C   UNL     1       6.774  -2.693   6.799  1.00  0.00     0.242 C 
ATOM     73  H   UNL     1       6.348  -4.214   8.018  1.00  0.00     0.163 HD
ATOM     74  O   UNL     1       7.510  -3.406   6.109  1.00  0.00    -0.273 OA
BRANCH  72  75
ATOM     75  C   UNL     1       6.505  -1.226   6.392  1.00  0.00     0.177 C 
ATOM     76  C   UNL     1       7.234  -0.208   7.272  1.00  0.00     0.069 C 
ATOM     77  N   UNL     1       5.091  -0.832   6.434  1.00  0.00    -0.327 N 
ATOM     78  C   UNL     1       6.299   0.998   7.288  1.00  0.00     0.136 C 
ATOM     79  C   UNL     1       4.896   0.396   7.197  1.00  0.00     0.152 C 
BRANCH  77  80
ATOM     80  C   UNL     1       4.216  -1.356   5.505  1.00  0.00     0.233 C 
ATOM     81  O   UNL     1       4.648  -1.978   4.529  1.00  0.00    -0.274 OA
BRANCH  80  82
ATOM     82  C   UNL     1       2.722  -1.091   5.614  1.00  0.00     0.175 C 
BRANCH  82  83
ATOM     83  S   UNL     1       2.015  -1.228   7.288  1.00  0.00    -0.113 SA
BRANCH  83  84
ATOM     84  C   UNL     1       1.860  -2.979   7.620  1.00  0.00     0.044 A 
ATOM     85  C   UNL     1       1.003  -3.313   8.685  1.00  0.00     0.021 A 
ATOM     86  C   UNL     1       2.549  -4.024   6.993  1.00  0.00     0.139 A 
ATOM     87  C   UNL     1       0.862  -4.638   9.109  1.00  0.00     0.040 A 
ATOM     88  C   UNL     1       2.423  -5.346   7.415  1.00  0.00     0.079 A 
ATOM     89  F   UNL     1       3.382  -3.794   5.976  1.00  0.00    -0.206 F 
ATOM     90  C   UNL     1       1.582  -5.641   8.475  1.00  0.00     0.126 A 
ATOM     91  F   UNL     1       1.468  -6.905   8.898  1.00  0.00    -0.207 F 
ENDBRANCH  83  84
ENDBRANCH  82  83
ENDBRANCH  80  82
ENDBRANCH  77  80
BRANCH  78  92
ATOM     92  O   UNL     1       6.557   1.830   6.158  1.00  0.00    -0.391 OA
ATOM     93  H   UNL     1       6.453   1.312   5.344  1.00  0.00     0.211 HD
ENDBRANCH  78  92
ENDBRANCH  72  75
ENDBRANCH  70  71
ENDBRANCH   1  70
TORSDOF 19
