REMARK SMILES CCOc1cc2c(cc1/C=C1/C(=O)N(c3cccc(C(=O)NCCCCNC(=O)c4ccc(-c5c6nc(c(-c7ccc(S(=O)(=O)[O-])cc7)c7ccc([nH]7)c(-c7ccc(S(=O)(=O)[O-])cc7)c7nc(c(-c8ccc(S(=O)(=O)[O-])cc8)c8ccc5[nH]8)C=C7)C=C6)cc4)c3)C(=S)N=C1O)OCO2
REMARK SMILES IDX 24 1 23 2 22 3 20 4 21 5 19 7 15 8 16 9 90 10 17 11 18 12
REMARK SMILES IDX 14 13 10 14 11 15 12 16 94 17 13 18 93 19 91 20 92 21 9 22
REMARK SMILES IDX 4 23 5 24 6 25 8 26 7 27 98 28 96 29 97 30 3 31 2 32 1 33
REMARK SMILES IDX 95 34 25 36 26 37 27 38 28 39 29 41 30 42 31 43 89 44 32 45
REMARK SMILES IDX 88 46 33 47 34 48 35 49 82 50 36 51 87 52 81 53 83 54 37 55
REMARK SMILES IDX 86 56 80 57 79 58 38 60 68 61 49 62 67 63 50 64 53 65 66 66
REMARK SMILES IDX 84 67 51 68 52 69 65 71 85 72 54 73 39 74 40 75 48 76 41 77
REMARK SMILES IDX 47 78 42 79 43 80 44 81 45 82 46 83 69 84 70 85 78 86 71 87
REMARK SMILES IDX 77 88 72 89 73 90 74 91 75 92 76 93 55 94 56 95 64 96 57 97
REMARK SMILES IDX 63 98 58 99 59 100 60 101 61 102 62 103
REMARK H PARENT 22 6 95 35 27 40 83 59 53 70
REMARK Flexibility Score: inf
ROOT
ATOM      1  C   UNL     1       0.858  10.013   1.203  1.00  0.00     0.023 C 
ENDROOT
BRANCH   1   2
ATOM      2  C   UNL     1      -0.038   9.459   0.106  1.00  0.00     0.116 C 
BRANCH   2   3
ATOM      3  N   UNL     1      -1.133  10.328  -0.300  1.00  0.00    -0.352 N 
ATOM      4  C   UNL     1      -1.617  10.661  -1.550  1.00  0.00     0.251 C 
ATOM      5  O   UNL     1      -2.574  11.430  -1.627  1.00  0.00    -0.269 OA
ATOM      6  H   UNL     1      -1.612  10.752   0.447  1.00  0.00     0.163 HD
BRANCH   4   7
ATOM      7  C   UNL     1      -0.968  10.188  -2.805  1.00  0.00     0.041 A 
ATOM      8  C   UNL     1       0.618   8.725  -3.912  1.00  0.00     0.052 A 
ATOM      9  C   UNL     1       0.598   9.578  -5.027  1.00  0.00     0.027 A 
ATOM     10  C   UNL     1      -0.298   8.967  -2.884  1.00  0.00     0.040 A 
ATOM     11  C   UNL     1      -0.217  10.712  -5.044  1.00  0.00     0.003 A 
ATOM     12  C   UNL     1      -0.962  11.043  -3.913  1.00  0.00     0.014 A 
BRANCH   8  13
ATOM     13  N   UNL     1       1.650   7.724  -3.736  1.00  0.00    -0.251 N 
ATOM     14  C   UNL     1       2.168   4.464  -2.132  1.00  0.00     0.031 C 
ATOM     15  C   UNL     1       2.413   5.529  -2.934  1.00  0.00     0.103 C 
ATOM     16  C   UNL     1       1.281   6.479  -3.193  1.00  0.00     0.270 C 
ATOM     17  C   UNL     1       3.636   5.893  -3.638  1.00  0.00     0.226 C 
ATOM     18  O   UNL     1       0.126   6.140  -2.935  1.00  0.00    -0.268 OA
ATOM     19  N   UNL     1       3.914   7.037  -4.132  1.00  0.00    -0.184 NA
ATOM     20  C   UNL     1       3.009   8.056  -3.965  1.00  0.00     0.210 C 
ATOM     21  S   UNL     1       3.648   9.635  -3.979  1.00  0.00    -0.038 S 
BRANCH  14  22
ATOM     22  C   UNL     1       3.031   3.315  -1.756  1.00  0.00     0.021 A 
ATOM     23  C   UNL     1       2.482   2.006  -1.653  1.00  0.00     0.130 A 
ATOM     24  C   UNL     1       3.300   0.874  -1.568  1.00  0.00     0.097 A 
ATOM     25  C   UNL     1       4.652   1.071  -1.464  1.00  0.00     0.169 A 
ATOM     26  C   UNL     1       4.404   3.466  -1.509  1.00  0.00     0.062 A 
ATOM     27  C   UNL     1       5.188   2.332  -1.406  1.00  0.00     0.166 A 
ATOM     28  O   UNL     1       5.596   0.096  -1.403  1.00  0.00    -0.453 OA
ATOM     29  O   UNL     1       6.544   2.310  -1.294  1.00  0.00    -0.454 OA
ATOM     30  C   UNL     1       6.797   0.891  -1.366  1.00  0.00     0.468 C 
BRANCH  23  31
ATOM     31  O   UNL     1       1.122   1.801  -1.703  1.00  0.00    -0.493 OA
BRANCH  31  32
ATOM     32  C   UNL     1       0.577   1.573  -0.387  1.00  0.00     0.226 C 
ATOM     33  C   UNL     1       0.590   0.100   0.004  1.00  0.00     0.049 C 
ENDBRANCH  31  32
ENDBRANCH  23  31
ENDBRANCH  14  22
BRANCH  17  34
ATOM     34  O   UNL     1       4.548   4.945  -3.839  1.00  0.00    -0.493 OA
ATOM     35  H   UNL     1       4.408   4.081  -3.503  1.00  0.00     0.295 HD
ENDBRANCH  17  34
ENDBRANCH   8  13
ENDBRANCH   4   7
ENDBRANCH   2   3
ENDBRANCH   1   2
BRANCH   1  36
ATOM     36  C   UNL     1       0.211  10.232   2.562  1.00  0.00     0.023 C 
BRANCH  36  37
ATOM     37  C   UNL     1      -0.556   9.047   3.136  1.00  0.00     0.116 C 
BRANCH  37  38
ATOM     38  N   UNL     1       0.233   7.828   3.246  1.00  0.00    -0.352 N 
ATOM     39  C   UNL     1       0.407   6.990   4.324  1.00  0.00     0.251 C 
ATOM     40  H   UNL     1       0.714   7.565   2.429  1.00  0.00     0.163 HD
ATOM     41  O   UNL     1       1.189   6.045   4.239  1.00  0.00    -0.269 OA
BRANCH  39  42
ATOM     42  C   UNL     1      -0.313   7.248   5.591  1.00  0.00     0.039 A 
ATOM     43  C   UNL     1       0.394   7.182   6.794  1.00  0.00     0.014 A 
ATOM     44  C   UNL     1      -1.670   7.580   5.595  1.00  0.00     0.014 A 
ATOM     45  C   UNL     1      -0.241   7.530   7.989  1.00  0.00     0.010 A 
ATOM     46  C   UNL     1      -2.273   8.015   6.771  1.00  0.00     0.010 A 
ATOM     47  C   UNL     1      -1.568   7.994   7.983  1.00  0.00    -0.014 A 
BRANCH  47  48
ATOM     48  C   UNL     1      -2.223   8.466   9.232  1.00  0.00     0.031 A 
ATOM     49  C   UNL     1      -3.446   7.765   9.763  1.00  0.00     0.074 A 
ATOM     50  C   UNL     1      -1.746   9.559   9.863  1.00  0.00     0.049 A 
ATOM     51  N   UNL     1      -4.155   8.040  10.828  1.00  0.00    -0.248 NA
ATOM     52  C   UNL     1      -3.954   6.624   8.984  1.00  0.00     0.031 C 
ATOM     53  C   UNL     1      -0.603  10.362   9.421  1.00  0.00     0.029 A 
ATOM     54  N   UNL     1      -2.162  10.184  11.012  1.00  0.00    -0.354 N 
ATOM     55  C   UNL     1      -5.195   7.117  10.840  1.00  0.00     0.074 A 
ATOM     56  C   UNL     1      -5.059   6.314   9.645  1.00  0.00     0.031 C 
ATOM     57  C   UNL     1      -0.385  11.345  10.309  1.00  0.00     0.029 A 
ATOM     58  C   UNL     1      -1.395  11.271  11.360  1.00  0.00     0.049 A 
ATOM     59  H   UNL     1      -2.938   9.882  11.539  1.00  0.00     0.167 HD
ATOM     60  C   UNL     1      -6.162   6.936  11.771  1.00  0.00     0.031 A 
ATOM     61  C   UNL     1      -1.489  12.114  12.407  1.00  0.00     0.031 A 
ATOM     62  C   UNL     1      -6.292   7.733  12.963  1.00  0.00     0.049 A 
ATOM     63  C   UNL     1      -2.573  11.895  13.427  1.00  0.00     0.074 A 
ATOM     64  C   UNL     1      -7.203   7.594  13.996  1.00  0.00     0.029 A 
ATOM     65  N   UNL     1      -5.491   8.820  13.280  1.00  0.00    -0.354 N 
ATOM     66  N   UNL     1      -3.500  10.967  13.459  1.00  0.00    -0.248 NA
ATOM     67  C   UNL     1      -2.611  12.827  14.562  1.00  0.00     0.031 C 
ATOM     68  C   UNL     1      -6.989   8.631  14.909  1.00  0.00     0.029 A 
ATOM     69  C   UNL     1      -5.902   9.376  14.480  1.00  0.00     0.049 A 
ATOM     70  H   UNL     1      -4.741   9.148  12.733  1.00  0.00     0.167 HD
ATOM     71  C   UNL     1      -4.216  11.188  14.631  1.00  0.00     0.074 A 
ATOM     72  C   UNL     1      -3.600  12.323  15.288  1.00  0.00     0.031 C 
ATOM     73  C   UNL     1      -5.285  10.511  15.120  1.00  0.00     0.031 A 
BRANCH  60  74
ATOM     74  C   UNL     1      -7.159   5.831  11.534  1.00  0.00    -0.014 A 
ATOM     75  C   UNL     1      -6.774   4.478  11.594  1.00  0.00     0.010 A 
ATOM     76  C   UNL     1      -8.508   6.145  11.287  1.00  0.00     0.010 A 
ATOM     77  C   UNL     1      -7.707   3.464  11.366  1.00  0.00     0.020 A 
ATOM     78  C   UNL     1      -9.452   5.132  11.089  1.00  0.00     0.020 A 
ATOM     79  C   UNL     1      -9.041   3.797  11.113  1.00  0.00     0.054 A 
BRANCH  79  80
ATOM     80  S   UNL     1     -10.234   2.458  10.845  1.00  0.00     0.124 S 
ATOM     81  O   UNL     1      -9.848   1.972   9.523  1.00  0.00    -0.237 OA
ATOM     82  O   UNL     1      -9.951   1.551  11.954  1.00  0.00    -0.237 OA
ATOM     83  O   UNL     1     -11.530   3.129  10.906  1.00  0.00    -0.744 OA
ENDBRANCH  79  80
ENDBRANCH  60  74
BRANCH  61  84
ATOM     84  C   UNL     1      -0.513  13.230  12.556  1.00  0.00    -0.014 A 
ATOM     85  C   UNL     1       0.444  13.212  13.586  1.00  0.00     0.010 A 
ATOM     86  C   UNL     1      -0.530  14.316  11.661  1.00  0.00     0.010 A 
ATOM     87  C   UNL     1       1.351  14.266  13.732  1.00  0.00     0.020 A 
ATOM     88  C   UNL     1       0.395  15.356  11.784  1.00  0.00     0.020 A 
ATOM     89  C   UNL     1       1.323  15.331  12.827  1.00  0.00     0.054 A 
BRANCH  89  90
ATOM     90  S   UNL     1       2.542  16.662  13.004  1.00  0.00     0.124 S 
ATOM     91  O   UNL     1       2.057  17.364  14.188  1.00  0.00    -0.237 OA
ATOM     92  O   UNL     1       3.792  15.924  13.173  1.00  0.00    -0.237 OA
ATOM     93  O   UNL     1       2.429  17.399  11.748  1.00  0.00    -0.744 OA
ENDBRANCH  89  90
ENDBRANCH  61  84
BRANCH  73  94
ATOM     94  C   UNL     1      -5.838  10.960  16.448  1.00  0.00    -0.014 A 
ATOM     95  C   UNL     1      -6.520  12.182  16.583  1.00  0.00     0.010 A 
ATOM     96  C   UNL     1      -5.699  10.126  17.573  1.00  0.00     0.010 A 
ATOM     97  C   UNL     1      -7.013  12.582  17.828  1.00  0.00     0.020 A 
ATOM     98  C   UNL     1      -6.218  10.507  18.812  1.00  0.00     0.020 A 
ATOM     99  C   UNL     1      -6.856  11.743  18.935  1.00  0.00     0.054 A 
BRANCH  99 100
ATOM    100  S   UNL     1      -7.522  12.275  20.536  1.00  0.00     0.124 S 
ATOM    101  O   UNL     1      -6.579  13.320  20.925  1.00  0.00    -0.237 OA
ATOM    102  O   UNL     1      -8.863  12.738  20.186  1.00  0.00    -0.237 OA
ATOM    103  O   UNL     1      -7.480  11.063  21.350  1.00  0.00    -0.744 OA
ENDBRANCH  99 100
ENDBRANCH  73  94
ENDBRANCH  47  48
ENDBRANCH  39  42
ENDBRANCH  37  38
ENDBRANCH  36  37
ENDBRANCH   1  36
TORSDOF 19
