REMARK SMILES CC1(C)COCCN1C(=O)N1CCO[C@@H](CC(=O)NCCCCNC(=O)c2ccc(-c3c4nc(c(-c5ccc(S(=O)(=O)[O-])cc5)c5ccc([nH]5)c(-c5ccc(S(=O)(=O)[O-])cc5)c5nc(c(-c6ccc(S(=O)(=O)[O-])cc6)c6ccc3[nH]6)C=C5)C=C4)cc2)C1
REMARK SMILES IDX 21 1 20 2 19 3 17 4 18 5 16 7 15 8 11 9 12 10 87 11 13 12
REMARK SMILES IDX 14 13 9 14 10 15 8 16 1 17 2 18 3 19 4 20 5 21 7 22 6 23
REMARK SMILES IDX 22 24 23 25 24 26 25 27 26 29 27 30 28 31 86 32 29 33 85 34
REMARK SMILES IDX 30 35 31 36 32 37 79 38 33 39 84 40 78 41 80 42 34 43 83 44
REMARK SMILES IDX 77 45 76 46 35 48 65 49 46 50 64 51 47 52 50 53 63 54 81 55
REMARK SMILES IDX 48 56 49 57 62 59 82 60 51 61 36 62 37 63 45 64 38 65 44 66
REMARK SMILES IDX 39 67 40 68 41 69 42 70 43 71 66 72 67 73 75 74 68 75 74 76
REMARK SMILES IDX 69 77 70 78 71 79 72 80 73 81 52 82 53 83 61 84 54 85 60 86
REMARK SMILES IDX 55 87 56 88 57 89 58 90 59 91
REMARK H PARENT 19 6 24 28 80 47 50 58
REMARK Flexibility Score: inf
ROOT
ATOM      1  C   UNL     1      -0.770   0.846   5.609  1.00  0.00     0.023 C 
ENDROOT
BRANCH   1   2
ATOM      2  C   UNL     1       0.216   1.074   4.447  1.00  0.00     0.116 C 
BRANCH   2   3
ATOM      3  N   UNL     1       1.607   0.963   4.868  1.00  0.00    -0.356 N 
ATOM      4  C   UNL     1       2.627   0.089   4.747  1.00  0.00     0.222 C 
ATOM      5  O   UNL     1       3.727   0.553   5.090  1.00  0.00    -0.275 OA
ATOM      6  H   UNL     1       1.881   1.752   5.389  1.00  0.00     0.163 HD
BRANCH   4   7
ATOM      7  C   UNL     1       2.618  -1.314   4.153  1.00  0.00     0.133 C 
BRANCH   7   8
ATOM      8  C   UNL     1       1.622  -2.402   4.551  1.00  0.00     0.147 C 
ATOM      9  N   UNL     1       0.067  -2.183   2.650  1.00  0.00    -0.320 N 
ATOM     10  C   UNL     1       0.523  -3.445   2.072  1.00  0.00     0.150 C 
ATOM     11  C   UNL     1       0.183  -2.228   4.102  1.00  0.00     0.154 C 
ATOM     12  C   UNL     1       1.913  -3.843   2.614  1.00  0.00     0.182 C 
ATOM     13  O   UNL     1       2.059  -3.697   4.044  1.00  0.00    -0.374 OA
BRANCH   9  14
ATOM     14  C   UNL     1      -1.053  -1.556   2.148  1.00  0.00     0.320 C 
ATOM     15  O   UNL     1      -2.100  -1.593   2.801  1.00  0.00    -0.248 OA
BRANCH  14  16
ATOM     16  N   UNL     1      -0.952  -0.816   0.979  1.00  0.00    -0.315 N 
ATOM     17  C   UNL     1       0.282  -0.692  -1.194  1.00  0.00     0.037 C 
ATOM     18  C   UNL     1       0.250  -0.225   0.275  1.00  0.00     0.062 C 
ATOM     19  C   UNL     1       1.621  -0.521   0.873  1.00  0.00     0.037 C 
ATOM     20  C   UNL     1       0.122   1.333   0.328  1.00  0.00     0.188 C 
ATOM     21  O   UNL     1      -1.102   1.792  -0.251  1.00  0.00    -0.377 OA
ATOM     22  C   UNL     1      -2.228  -0.260   0.473  1.00  0.00     0.150 C 
ATOM     23  C   UNL     1      -2.223   1.273   0.473  1.00  0.00     0.182 C 
ENDBRANCH  14  16
ENDBRANCH   9  14
ENDBRANCH   7   8
ENDBRANCH   4   7
ENDBRANCH   2   3
ENDBRANCH   1   2
BRANCH   1  24
ATOM     24  C   UNL     1      -1.820   1.942   5.774  1.00  0.00     0.023 C 
BRANCH  24  25
ATOM     25  C   UNL     1      -2.732   2.141   4.569  1.00  0.00     0.116 C 
BRANCH  25  26
ATOM     26  N   UNL     1      -3.754   1.111   4.410  1.00  0.00    -0.352 N 
ATOM     27  C   UNL     1      -5.117   1.287   4.281  1.00  0.00     0.251 C 
ATOM     28  H   UNL     1      -3.433   0.181   4.394  1.00  0.00     0.163 HD
ATOM     29  O   UNL     1      -5.887   0.332   4.262  1.00  0.00    -0.269 OA
BRANCH  27  30
ATOM     30  C   UNL     1      -5.649   2.665   4.193  1.00  0.00     0.039 A 
ATOM     31  C   UNL     1      -6.590   3.099   5.128  1.00  0.00     0.014 A 
ATOM     32  C   UNL     1      -5.133   3.551   3.242  1.00  0.00     0.014 A 
ATOM     33  C   UNL     1      -6.935   4.453   5.177  1.00  0.00     0.010 A 
ATOM     34  C   UNL     1      -5.422   4.909   3.341  1.00  0.00     0.010 A 
ATOM     35  C   UNL     1      -6.311   5.378   4.322  1.00  0.00    -0.014 A 
BRANCH  35  36
ATOM     36  C   UNL     1      -6.540   6.841   4.466  1.00  0.00     0.031 A 
ATOM     37  C   UNL     1      -7.170   7.626   3.349  1.00  0.00     0.074 A 
ATOM     38  C   UNL     1      -6.106   7.479   5.573  1.00  0.00     0.049 A 
ATOM     39  N   UNL     1      -7.398   8.913   3.273  1.00  0.00    -0.248 NA
ATOM     40  C   UNL     1      -7.570   6.873   2.149  1.00  0.00     0.031 C 
ATOM     41  C   UNL     1      -5.425   6.847   6.707  1.00  0.00     0.029 A 
ATOM     42  N   UNL     1      -6.166   8.805   5.925  1.00  0.00    -0.354 N 
ATOM     43  C   UNL     1      -7.951   9.126   2.016  1.00  0.00     0.074 A 
ATOM     44  C   UNL     1      -7.978   7.844   1.345  1.00  0.00     0.031 C 
ATOM     45  C   UNL     1      -5.159   7.778   7.637  1.00  0.00     0.029 A 
ATOM     46  C   UNL     1      -5.617   9.078   7.157  1.00  0.00     0.049 A 
ATOM     47  H   UNL     1      -6.566   9.497   5.349  1.00  0.00     0.167 HD
ATOM     48  C   UNL     1      -8.414  10.278   1.475  1.00  0.00     0.031 A 
ATOM     49  C   UNL     1      -5.494  10.241   7.826  1.00  0.00     0.031 A 
ATOM     50  C   UNL     1      -8.404  11.549   2.147  1.00  0.00     0.049 A 
ATOM     51  C   UNL     1      -6.030  11.505   7.212  1.00  0.00     0.074 A 
ATOM     52  C   UNL     1      -8.908  12.760   1.704  1.00  0.00     0.029 A 
ATOM     53  N   UNL     1      -7.863  11.776   3.403  1.00  0.00    -0.354 N 
ATOM     54  N   UNL     1      -6.617  11.671   6.051  1.00  0.00    -0.248 NA
ATOM     55  C   UNL     1      -5.899  12.736   8.004  1.00  0.00     0.031 C 
ATOM     56  C   UNL     1      -8.636  13.728   2.677  1.00  0.00     0.029 A 
ATOM     57  C   UNL     1      -8.006  13.110   3.745  1.00  0.00     0.049 A 
ATOM     58  H   UNL     1      -7.441  11.090   3.969  1.00  0.00     0.167 HD
ATOM     59  C   UNL     1      -6.948  13.019   5.985  1.00  0.00     0.074 A 
ATOM     60  C   UNL     1      -6.507  13.622   7.226  1.00  0.00     0.031 C 
ATOM     61  C   UNL     1      -7.566  13.696   4.986  1.00  0.00     0.031 A 
BRANCH  48  62
ATOM     62  C   UNL     1      -8.977  10.209   0.081  1.00  0.00    -0.014 A 
ATOM     63  C   UNL     1     -10.206   9.572  -0.172  1.00  0.00     0.010 A 
ATOM     64  C   UNL     1      -8.286  10.810  -0.986  1.00  0.00     0.010 A 
ATOM     65  C   UNL     1     -10.710   9.496  -1.472  1.00  0.00     0.020 A 
ATOM     66  C   UNL     1      -8.800  10.759  -2.285  1.00  0.00     0.020 A 
ATOM     67  C   UNL     1      -9.999  10.085  -2.522  1.00  0.00     0.054 A 
BRANCH  67  68
ATOM     68  S   UNL     1     -10.681   9.981  -4.200  1.00  0.00     0.124 S 
ATOM     69  O   UNL     1     -10.394   8.594  -4.554  1.00  0.00    -0.237 OA
ATOM     70  O   UNL     1     -12.092  10.297  -3.994  1.00  0.00    -0.237 OA
ATOM     71  O   UNL     1      -9.923  10.984  -4.944  1.00  0.00    -0.744 OA
ENDBRANCH  67  68
ENDBRANCH  48  62
BRANCH  49  72
ATOM     72  C   UNL     1      -4.860  10.260   9.173  1.00  0.00    -0.014 A 
ATOM     73  C   UNL     1      -5.643  10.448  10.325  1.00  0.00     0.010 A 
ATOM     74  C   UNL     1      -3.472  10.077   9.311  1.00  0.00     0.010 A 
ATOM     75  C   UNL     1      -5.050  10.469  11.591  1.00  0.00     0.020 A 
ATOM     76  C   UNL     1      -2.878  10.074  10.577  1.00  0.00     0.020 A 
ATOM     77  C   UNL     1      -3.670  10.281  11.708  1.00  0.00     0.054 A 
BRANCH  77  78
ATOM     78  S   UNL     1      -2.926  10.257  13.364  1.00  0.00     0.124 S 
ATOM     79  O   UNL     1      -2.910  11.674  13.710  1.00  0.00    -0.237 OA
ATOM     80  O   UNL     1      -3.864   9.430  14.120  1.00  0.00    -0.237 OA
ATOM     81  O   UNL     1      -1.616   9.650  13.139  1.00  0.00    -0.744 OA
ENDBRANCH  77  78
ENDBRANCH  49  72
BRANCH  61  82
ATOM     82  C   UNL     1      -7.833  15.161   5.201  1.00  0.00    -0.014 A 
ATOM     83  C   UNL     1      -6.797  16.108   5.131  1.00  0.00     0.010 A 
ATOM     84  C   UNL     1      -9.153  15.600   5.412  1.00  0.00     0.010 A 
ATOM     85  C   UNL     1      -7.073  17.468   5.293  1.00  0.00     0.020 A 
ATOM     86  C   UNL     1      -9.436  16.961   5.551  1.00  0.00     0.020 A 
ATOM     87  C   UNL     1      -8.391  17.886   5.502  1.00  0.00     0.054 A 
BRANCH  87  88
ATOM     88  S   UNL     1      -8.732  19.661   5.655  1.00  0.00     0.124 S 
ATOM     89  O   UNL     1      -8.268  19.944   7.010  1.00  0.00    -0.237 OA
ATOM     90  O   UNL     1      -7.927  20.238   4.581  1.00  0.00    -0.237 OA
ATOM     91  O   UNL     1     -10.177  19.754   5.459  1.00  0.00    -0.744 OA
ENDBRANCH  87  88
ENDBRANCH  61  82
ENDBRANCH  35  36
ENDBRANCH  27  30
ENDBRANCH  25  26
ENDBRANCH  24  25
ENDBRANCH   1  24
TORSDOF 17
