REMARK SMILES O=C(NCc1ccsc1)NC[C@H]1CC[C@@H](C(=O)NCCCCNC(=O)c2ccc(-c3c4nc(c(-c5ccc(S(=O)(=O)[O-])cc5)c5ccc([nH]5)c(-c5ccc(S(=O)(=O)[O-])cc5)c5nc(c(-c6ccc(S(=O)(=O)[O-])cc6)c6ccc3[nH]6)C=C5)C=C4)cc2)CC1
REMARK SMILES IDX 20 1 19 2 18 3 16 4 17 5 15 7 12 8 13 9 87 10 14 11 86 12
REMARK SMILES IDX 11 13 10 14 1 15 2 16 3 17 4 20 5 21 6 22 9 23 7 24 8 25
REMARK SMILES IDX 21 26 22 27 23 28 24 29 25 31 26 32 27 33 85 34 28 35 84 36
REMARK SMILES IDX 29 37 30 38 31 39 78 40 32 41 83 42 77 43 79 44 33 45 82 46
REMARK SMILES IDX 76 47 75 48 34 50 64 51 45 52 63 53 46 54 49 55 62 56 80 57
REMARK SMILES IDX 47 58 48 59 61 61 81 62 50 63 35 64 36 65 44 66 37 67 43 68
REMARK SMILES IDX 38 69 39 70 40 71 41 72 42 73 65 74 66 75 74 76 67 77 73 78
REMARK SMILES IDX 68 79 69 80 70 81 71 82 72 83 51 84 52 85 60 86 53 87 59 88
REMARK SMILES IDX 54 89 55 90 56 91 57 92 58 93
REMARK H PARENT 18 6 3 18 10 19 23 30 79 49 49 60
REMARK Flexibility Score: inf
ROOT
ATOM      1  C   UNL     1       3.703  -5.465   0.243  1.00  0.00     0.023 C 
ENDROOT
BRANCH   1   2
ATOM      2  C   UNL     1       4.580  -4.649  -0.699  1.00  0.00     0.116 C 
BRANCH   2   3
ATOM      3  N   UNL     1       5.224  -5.436  -1.720  1.00  0.00    -0.356 N 
ATOM      4  C   UNL     1       5.122  -5.441  -3.072  1.00  0.00     0.223 C 
ATOM      5  O   UNL     1       5.922  -6.174  -3.667  1.00  0.00    -0.275 OA
ATOM      6  H   UNL     1       5.862  -6.099  -1.368  1.00  0.00     0.163 HD
BRANCH   4   7
ATOM      7  C   UNL     1       4.116  -4.617  -3.895  1.00  0.00     0.078 C 
ATOM      8  C   UNL     1       2.302  -2.532  -2.670  1.00  0.00     0.008 C 
ATOM      9  C   UNL     1       3.783  -2.236  -2.978  1.00  0.00     0.006 C 
ATOM     10  C   UNL     1       1.899  -4.023  -2.697  1.00  0.00     0.006 C 
ATOM     11  C   UNL     1       4.413  -3.129  -4.034  1.00  0.00     0.014 C 
ATOM     12  C   UNL     1       2.638  -4.918  -3.681  1.00  0.00     0.014 C 
BRANCH   8  13
ATOM     13  C   UNL     1       1.822  -1.927  -1.323  1.00  0.00     0.121 C 
BRANCH  13  14
ATOM     14  N   UNL     1       2.590  -0.794  -0.855  1.00  0.00    -0.338 N 
ATOM     15  O   UNL     1       0.806   0.524  -0.338  1.00  0.00    -0.249 OA
ATOM     16  C   UNL     1       2.016   0.325  -0.346  1.00  0.00     0.315 C 
ATOM     17  N   UNL     1       2.848   1.254   0.178  1.00  0.00    -0.334 N 
ATOM     18  H   UNL     1       2.389   2.026   0.579  1.00  0.00     0.165 HD
ATOM     19  H   UNL     1       3.572  -0.836  -0.908  1.00  0.00     0.165 HD
BRANCH  17  20
ATOM     20  C   UNL     1       4.292   1.317   0.256  1.00  0.00     0.154 C 
BRANCH  20  21
ATOM     21  C   UNL     1       4.778   2.234  -0.822  1.00  0.00    -0.018 A 
ATOM     22  C   UNL     1       5.415   1.814  -2.038  1.00  0.00     0.017 A 
ATOM     23  C   UNL     1       4.678   3.615  -0.779  1.00  0.00     0.070 A 
ATOM     24  C   UNL     1       5.757   2.872  -2.852  1.00  0.00     0.065 A 
ATOM     25  S   UNL     1       5.320   4.375  -2.169  1.00  0.00    -0.152 S 
ENDBRANCH  20  21
ENDBRANCH  17  20
ENDBRANCH  13  14
ENDBRANCH   8  13
ENDBRANCH   4   7
ENDBRANCH   2   3
ENDBRANCH   1   2
BRANCH   1  26
ATOM     26  C   UNL     1       4.356  -5.838   1.570  1.00  0.00     0.023 C 
BRANCH  26  27
ATOM     27  C   UNL     1       4.915  -4.678   2.390  1.00  0.00     0.116 C 
BRANCH  27  28
ATOM     28  N   UNL     1       3.986  -3.580   2.621  1.00  0.00    -0.352 N 
ATOM     29  C   UNL     1       3.921  -2.739   3.718  1.00  0.00     0.251 C 
ATOM     30  H   UNL     1       3.325  -3.417   1.911  1.00  0.00     0.163 HD
ATOM     31  O   UNL     1       3.081  -1.864   3.783  1.00  0.00    -0.269 OA
BRANCH  29  32
ATOM     32  C   UNL     1       4.868  -2.966   4.834  1.00  0.00     0.039 A 
ATOM     33  C   UNL     1       4.355  -3.192   6.113  1.00  0.00     0.014 A 
ATOM     34  C   UNL     1       6.239  -3.060   4.590  1.00  0.00     0.014 A 
ATOM     35  C   UNL     1       5.214  -3.613   7.130  1.00  0.00     0.010 A 
ATOM     36  C   UNL     1       7.078  -3.554   5.583  1.00  0.00     0.010 A 
ATOM     37  C   UNL     1       6.573  -3.850   6.859  1.00  0.00    -0.014 A 
BRANCH  37  38
ATOM     38  C   UNL     1       7.472  -4.441   7.883  1.00  0.00     0.031 A 
ATOM     39  C   UNL     1       8.661  -3.667   8.384  1.00  0.00     0.074 A 
ATOM     40  C   UNL     1       7.266  -5.705   8.303  1.00  0.00     0.049 A 
ATOM     41  N   UNL     1       9.590  -4.039   9.227  1.00  0.00    -0.248 NA
ATOM     42  C   UNL     1       8.849  -2.312   7.841  1.00  0.00     0.031 C 
ATOM     43  C   UNL     1       6.188  -6.588   7.847  1.00  0.00     0.029 A 
ATOM     44  N   UNL     1       7.958  -6.472   9.206  1.00  0.00    -0.354 N 
ATOM     45  C   UNL     1      10.482  -2.976   9.299  1.00  0.00     0.074 A 
ATOM     46  C   UNL     1      10.011  -1.966   8.376  1.00  0.00     0.031 C 
ATOM     47  C   UNL     1       6.272  -7.760   8.498  1.00  0.00     0.029 A 
ATOM     48  C   UNL     1       7.424  -7.726   9.393  1.00  0.00     0.049 A 
ATOM     49  H   UNL     1       8.762  -6.155   9.677  1.00  0.00     0.167 HD
ATOM     50  C   UNL     1      11.581  -2.840  10.079  1.00  0.00     0.031 A 
ATOM     51  C   UNL     1       7.814  -8.734  10.197  1.00  0.00     0.031 A 
ATOM     52  C   UNL     1      12.036  -3.832  11.015  1.00  0.00     0.049 A 
ATOM     53  C   UNL     1       9.014  -8.545  11.082  1.00  0.00     0.074 A 
ATOM     54  C   UNL     1      13.102  -3.762  11.894  1.00  0.00     0.029 A 
ATOM     55  N   UNL     1      11.444  -5.072  11.200  1.00  0.00    -0.354 N 
ATOM     56  N   UNL     1       9.808  -7.506  11.181  1.00  0.00    -0.248 NA
ATOM     57  C   UNL     1       9.361  -9.660  11.974  1.00  0.00     0.031 C 
ATOM     58  C   UNL     1      13.175  -4.974  12.590  1.00  0.00     0.029 A 
ATOM     59  C   UNL     1      12.128  -5.781  12.173  1.00  0.00     0.049 A 
ATOM     60  H   UNL     1      10.655  -5.400  10.712  1.00  0.00     0.167 HD
ATOM     61  C   UNL     1      10.736  -7.833  12.163  1.00  0.00     0.074 A 
ATOM     62  C   UNL     1      10.395  -9.159  12.637  1.00  0.00     0.031 C 
ATOM     63  C   UNL     1      11.776  -7.101  12.631  1.00  0.00     0.031 A 
BRANCH  50  64
ATOM     64  C   UNL     1      12.361  -1.560   9.948  1.00  0.00    -0.014 A 
ATOM     65  C   UNL     1      11.840  -0.344  10.429  1.00  0.00     0.010 A 
ATOM     66  C   UNL     1      13.634  -1.570   9.350  1.00  0.00     0.010 A 
ATOM     67  C   UNL     1      12.553   0.845  10.268  1.00  0.00     0.020 A 
ATOM     68  C   UNL     1      14.363  -0.386   9.210  1.00  0.00     0.020 A 
ATOM     69  C   UNL     1      13.808   0.818   9.651  1.00  0.00     0.054 A 
BRANCH  69  70
ATOM     70  S   UNL     1      14.716   2.376   9.455  1.00  0.00     0.124 S 
ATOM     71  O   UNL     1      14.014   2.991   8.331  1.00  0.00    -0.237 OA
ATOM     72  O   UNL     1      14.522   3.027  10.747  1.00  0.00    -0.237 OA
ATOM     73  O   UNL     1      16.083   1.945   9.176  1.00  0.00    -0.744 OA
ENDBRANCH  69  70
ENDBRANCH  50  64
BRANCH  51  74
ATOM     74  C   UNL     1       7.034 -10.000  10.233  1.00  0.00    -0.014 A 
ATOM     75  C   UNL     1       6.212 -10.294  11.335  1.00  0.00     0.010 A 
ATOM     76  C   UNL     1       7.098 -10.911   9.163  1.00  0.00     0.010 A 
ATOM     77  C   UNL     1       5.480 -11.484  11.376  1.00  0.00     0.020 A 
ATOM     78  C   UNL     1       6.349 -12.091   9.190  1.00  0.00     0.020 A 
ATOM     79  C   UNL     1       5.553 -12.376  10.302  1.00  0.00     0.054 A 
BRANCH  79  80
ATOM     80  S   UNL     1       4.551 -13.888  10.348  1.00  0.00     0.124 S 
ATOM     81  O   UNL     1       5.318 -14.732  11.257  1.00  0.00    -0.237 OA
ATOM     82  O   UNL     1       3.270 -13.405  10.859  1.00  0.00    -0.237 OA
ATOM     83  O   UNL     1       4.530 -14.323   8.953  1.00  0.00    -0.744 OA
ENDBRANCH  79  80
ENDBRANCH  51  74
BRANCH  63  84
ATOM     84  C   UNL     1      12.604  -7.708  13.730  1.00  0.00    -0.014 A 
ATOM     85  C   UNL     1      13.508  -8.751  13.466  1.00  0.00     0.010 A 
ATOM     86  C   UNL     1      12.499  -7.202  15.038  1.00  0.00     0.010 A 
ATOM     87  C   UNL     1      14.269  -9.303  14.499  1.00  0.00     0.020 A 
ATOM     88  C   UNL     1      13.274  -7.736  16.069  1.00  0.00     0.020 A 
ATOM     89  C   UNL     1      14.143  -8.795  15.796  1.00  0.00     0.054 A 
BRANCH  89  90
ATOM     90  S   UNL     1      15.162  -9.505  17.119  1.00  0.00     0.124 S 
ATOM     91  O   UNL     1      14.451 -10.746  17.415  1.00  0.00    -0.237 OA
ATOM     92  O   UNL     1      16.463  -9.664  16.474  1.00  0.00    -0.237 OA
ATOM     93  O   UNL     1      15.115  -8.492  18.171  1.00  0.00    -0.744 OA
ENDBRANCH  89  90
ENDBRANCH  63  84
ENDBRANCH  37  38
ENDBRANCH  29  32
ENDBRANCH  27  28
ENDBRANCH  26  27
ENDBRANCH   1  26
TORSDOF 18
