REMARK SMILES CCCc1c(O)nc(SCCC(=O)NCCCCNC(=O)c2ccc(-c3c4nc(c(-c5ccc(S(=O)(=O)[O-])cc5)c5ccc([nH]5)c(-c5ccc(S(=O)(=O)[O-])cc5)c5nc(c(-c6ccc(S(=O)(=O)[O-])cc6)c6ccc3[nH]6)C=C5)C=C4)cc2)[nH]c1=O
REMARK SMILES IDX 15 1 14 2 12 3 13 4 11 6 10 7 9 8 8 9 4 10 5 11 83 12 7 13
REMARK SMILES IDX 82 14 84 15 3 17 2 18 1 19 6 20 16 22 17 23 18 24 19 25
REMARK SMILES IDX 20 26 21 28 22 29 23 30 81 31 24 32 80 33 25 34 26 35 27 36
REMARK SMILES IDX 74 37 28 38 79 39 73 40 75 41 29 42 78 43 72 44 71 45 30 47
REMARK SMILES IDX 60 48 41 49 59 50 42 51 45 52 58 53 76 54 43 55 44 56 57 58
REMARK SMILES IDX 77 59 46 60 31 61 32 62 40 63 33 64 39 65 34 66 35 67 36 68
REMARK SMILES IDX 37 69 38 70 61 71 62 72 70 73 63 74 69 75 64 76 65 77 66 78
REMARK SMILES IDX 67 79 68 80 47 81 48 82 56 83 49 84 55 85 50 86 51 87 52 88
REMARK SMILES IDX 53 89 54 90
REMARK H PARENT 14 5 82 16 6 21 19 27 75 46 45 57
REMARK Flexibility Score: inf
ROOT
ATOM      1  C   UNL     1      -1.245  -5.217  -4.666  1.00  0.00     0.116 C 
ENDROOT
BRANCH   1   2
ATOM      2  N   UNL     1       0.186  -4.989  -4.551  1.00  0.00    -0.356 N 
ATOM      3  C   UNL     1       1.150  -5.678  -3.876  1.00  0.00     0.220 C 
ATOM      4  O   UNL     1       2.322  -5.317  -4.003  1.00  0.00    -0.275 OA
ATOM      5  H   UNL     1       0.516  -4.204  -5.044  1.00  0.00     0.163 HD
BRANCH   3   6
ATOM      6  C   UNL     1       0.778  -6.883  -3.038  1.00  0.00     0.111 C 
BRANCH   6   7
ATOM      7  C   UNL     1       1.343  -6.828  -1.617  1.00  0.00     0.088 C 
BRANCH   7   8
ATOM      8  S   UNL     1       0.277  -5.962  -0.404  1.00  0.00    -0.087 SA
BRANCH   8   9
ATOM      9  C   UNL     1       0.653  -4.301  -0.733  1.00  0.00     0.171 A 
ATOM     10  C   UNL     1       0.952  -1.653  -1.329  1.00  0.00     0.079 A 
ATOM     11  C   UNL     1       1.748  -2.636  -1.787  1.00  0.00     0.222 A 
ATOM     12  C   UNL     1      -0.141  -2.089  -0.422  1.00  0.00     0.258 A 
ATOM     13  N   UNL     1       1.626  -3.958  -1.495  1.00  0.00    -0.189 NA
ATOM     14  N   UNL     1      -0.197  -3.425  -0.153  1.00  0.00    -0.301 N 
ATOM     15  O   UNL     1      -1.012  -1.337  -0.002  1.00  0.00    -0.269 OA
ATOM     16  H   UNL     1      -0.874  -3.760   0.479  1.00  0.00     0.172 HD
BRANCH  10  17
ATOM     17  C   UNL     1       1.050  -0.224  -1.800  1.00  0.00     0.047 C 
BRANCH  17  18
ATOM     18  C   UNL     1       0.700   0.911  -0.831  1.00  0.00     0.002 C 
ATOM     19  C   UNL     1       1.446   0.856   0.492  1.00  0.00     0.004 C 
ENDBRANCH  17  18
ENDBRANCH  10  17
BRANCH  11  20
ATOM     20  O   UNL     1       2.703  -2.383  -2.738  1.00  0.00    -0.493 OA
ATOM     21  H   UNL     1       2.868  -1.503  -3.014  1.00  0.00     0.295 HD
ENDBRANCH  11  20
ENDBRANCH   8   9
ENDBRANCH   7   8
ENDBRANCH   6   7
ENDBRANCH   3   6
ENDBRANCH   1   2
BRANCH   1  22
ATOM     22  C   UNL     1      -2.063  -4.654  -3.501  1.00  0.00     0.023 C 
BRANCH  22  23
ATOM     23  C   UNL     1      -1.795  -3.181  -3.186  1.00  0.00     0.023 C 
BRANCH  23  24
ATOM     24  C   UNL     1      -2.651  -2.165  -3.930  1.00  0.00     0.116 C 
BRANCH  24  25
ATOM     25  N   UNL     1      -3.982  -2.057  -3.352  1.00  0.00    -0.352 N 
ATOM     26  C   UNL     1      -4.646  -1.002  -2.768  1.00  0.00     0.251 C 
ATOM     27  H   UNL     1      -4.503  -2.891  -3.385  1.00  0.00     0.163 HD
ATOM     28  O   UNL     1      -5.700  -1.247  -2.181  1.00  0.00    -0.269 OA
BRANCH  26  29
ATOM     29  C   UNL     1      -4.148   0.402  -2.819  1.00  0.00     0.039 A 
ATOM     30  C   UNL     1      -4.536   1.285  -1.799  1.00  0.00     0.014 A 
ATOM     31  C   UNL     1      -3.387   0.901  -3.876  1.00  0.00     0.014 A 
ATOM     32  C   UNL     1      -4.138   2.629  -1.825  1.00  0.00     0.010 A 
ATOM     33  C   UNL     1      -2.903   2.212  -3.849  1.00  0.00     0.010 A 
ATOM     34  C   UNL     1      -3.292   3.103  -2.838  1.00  0.00    -0.014 A 
BRANCH  34  35
ATOM     35  C   UNL     1      -2.844   4.524  -2.892  1.00  0.00     0.031 A 
ATOM     36  C   UNL     1      -3.182   5.382  -4.090  1.00  0.00     0.074 A 
ATOM     37  C   UNL     1      -2.082   5.035  -1.903  1.00  0.00     0.049 A 
ATOM     38  N   UNL     1      -2.794   6.601  -4.373  1.00  0.00    -0.248 NA
ATOM     39  C   UNL     1      -4.043   4.778  -5.120  1.00  0.00     0.031 C 
ATOM     40  C   UNL     1      -1.649   4.315  -0.704  1.00  0.00     0.029 A 
ATOM     41  N   UNL     1      -1.528   6.285  -1.754  1.00  0.00    -0.354 N 
ATOM     42  C   UNL     1      -3.329   6.891  -5.625  1.00  0.00     0.074 A 
ATOM     43  C   UNL     1      -4.031   5.706  -6.066  1.00  0.00     0.031 C 
ATOM     44  C   UNL     1      -0.925   5.140   0.069  1.00  0.00     0.029 A 
ATOM     45  C   UNL     1      -0.802   6.434  -0.596  1.00  0.00     0.049 A 
ATOM     46  H   UNL     1      -1.641   7.006  -2.415  1.00  0.00     0.167 HD
ATOM     47  C   UNL     1      -3.262   8.042  -6.337  1.00  0.00     0.031 A 
ATOM     48  C   UNL     1      -0.107   7.487  -0.122  1.00  0.00     0.031 A 
ATOM     49  C   UNL     1      -2.601   9.236  -5.883  1.00  0.00     0.049 A 
ATOM     50  C   UNL     1      -0.065   8.763  -0.920  1.00  0.00     0.074 A 
ATOM     51  C   UNL     1      -2.534  10.472  -6.503  1.00  0.00     0.029 A 
ATOM     52  N   UNL     1      -1.903   9.349  -4.691  1.00  0.00    -0.354 N 
ATOM     53  N   UNL     1      -0.616   9.028  -2.080  1.00  0.00    -0.248 NA
ATOM     54  C   UNL     1       0.687   9.884  -0.339  1.00  0.00     0.031 C 
ATOM     55  C   UNL     1      -1.762  11.321  -5.704  1.00  0.00     0.029 A 
ATOM     56  C   UNL     1      -1.389  10.629  -4.564  1.00  0.00     0.049 A 
ATOM     57  H   UNL     1      -1.788   8.626  -4.033  1.00  0.00     0.167 HD
ATOM     58  C   UNL     1      -0.296  10.353  -2.356  1.00  0.00     0.074 A 
ATOM     59  C   UNL     1       0.482  10.840  -1.236  1.00  0.00     0.031 C 
ATOM     60  C   UNL     1      -0.619  11.100  -3.441  1.00  0.00     0.031 A 
BRANCH  47  61
ATOM     61  C   UNL     1      -3.926   8.064  -7.691  1.00  0.00    -0.014 A 
ATOM     62  C   UNL     1      -5.327   8.044  -7.815  1.00  0.00     0.010 A 
ATOM     63  C   UNL     1      -3.139   8.140  -8.855  1.00  0.00     0.010 A 
ATOM     64  C   UNL     1      -5.927   8.049  -9.077  1.00  0.00     0.020 A 
ATOM     65  C   UNL     1      -3.736   8.175 -10.119  1.00  0.00     0.020 A 
ATOM     66  C   UNL     1      -5.127   8.108 -10.222  1.00  0.00     0.054 A 
BRANCH  66  67
ATOM     67  S   UNL     1      -5.933   8.126 -11.847  1.00  0.00     0.124 S 
ATOM     68  O   UNL     1      -6.353   6.734 -11.989  1.00  0.00    -0.237 OA
ATOM     69  O   UNL     1      -7.014   9.091 -11.661  1.00  0.00    -0.237 OA
ATOM     70  O   UNL     1      -4.872   8.552 -12.756  1.00  0.00    -0.744 OA
ENDBRANCH  66  67
ENDBRANCH  47  61
BRANCH  48  71
ATOM     71  C   UNL     1       0.593   7.387   1.188  1.00  0.00    -0.014 A 
ATOM     72  C   UNL     1       0.104   8.078   2.311  1.00  0.00     0.010 A 
ATOM     73  C   UNL     1       1.745   6.591   1.324  1.00  0.00     0.010 A 
ATOM     74  C   UNL     1       0.763   7.989   3.541  1.00  0.00     0.020 A 
ATOM     75  C   UNL     1       2.392   6.478   2.558  1.00  0.00     0.020 A 
ATOM     76  C   UNL     1       1.903   7.188   3.657  1.00  0.00     0.054 A 
BRANCH  76  77
ATOM     77  S   UNL     1       2.712   7.046   5.275  1.00  0.00     0.124 S 
ATOM     78  O   UNL     1       3.402   8.328   5.383  1.00  0.00    -0.237 OA
ATOM     79  O   UNL     1       1.581   6.859   6.181  1.00  0.00    -0.237 OA
ATOM     80  O   UNL     1       3.578   5.879   5.123  1.00  0.00    -0.744 OA
ENDBRANCH  76  77
ENDBRANCH  48  71
BRANCH  60  81
ATOM     81  C   UNL     1      -0.160  12.533  -3.459  1.00  0.00    -0.014 A 
ATOM     82  C   UNL     1       1.188  12.862  -3.684  1.00  0.00     0.010 A 
ATOM     83  C   UNL     1      -1.103  13.565  -3.304  1.00  0.00     0.010 A 
ATOM     84  C   UNL     1       1.590  14.200  -3.725  1.00  0.00     0.020 A 
ATOM     85  C   UNL     1      -0.709  14.904  -3.370  1.00  0.00     0.020 A 
ATOM     86  C   UNL     1       0.638  15.213  -3.567  1.00  0.00     0.054 A 
BRANCH  86  87
ATOM     87  S   UNL     1       1.176  16.943  -3.671  1.00  0.00     0.124 S 
ATOM     88  O   UNL     1       1.832  17.135  -2.381  1.00  0.00    -0.237 OA
ATOM     89  O   UNL     1       2.063  16.935  -4.832  1.00  0.00    -0.237 OA
ATOM     90  O   UNL     1      -0.071  17.682  -3.853  1.00  0.00    -0.744 OA
ENDBRANCH  86  87
ENDBRANCH  60  81
ENDBRANCH  34  35
ENDBRANCH  26  29
ENDBRANCH  24  25
ENDBRANCH  23  24
ENDBRANCH  22  23
ENDBRANCH   1  22
TORSDOF 20
