REMARK SMILES C[C@@H]1[C@@H](C(=O)NCCCCNC(=O)c2ccc(-c3c4nc(c(-c5ccc(S(=O)(=O)[O-])cc5)c5ccc([nH]5)c(-c5ccc(S(=O)(=O)[O-])cc5)c5nc(c(-c6ccc(S(=O)(=O)[O-])cc6)c6ccc3[nH]6)C=C5)C=C4)cc2)CCN1C(=O)[C@@H]1C[C@@H]2CCCC[C@@H]2[NH2+]1
REMARK SMILES IDX 9 1 8 2 7 3 6 4 4 5 5 6 3 8 1 9 2 10 76 11 74 12 75 13 77 14
REMARK SMILES IDX 78 15 79 16 80 17 87 18 81 19 86 20 82 23 85 24 83 25 84 26
REMARK SMILES IDX 10 27 11 28 12 29 13 31 14 32 15 33 73 34 16 35 72 36 17 37
REMARK SMILES IDX 18 38 19 39 66 40 20 41 71 42 65 43 67 44 21 45 70 46 64 47
REMARK SMILES IDX 63 48 22 50 52 51 33 52 51 53 34 54 37 55 50 56 68 57 35 58
REMARK SMILES IDX 36 59 49 61 69 62 38 63 23 64 24 65 32 66 25 67 31 68 26 69
REMARK SMILES IDX 27 70 28 71 29 72 30 73 53 74 54 75 62 76 55 77 61 78 56 79
REMARK SMILES IDX 57 80 58 81 59 82 60 83 39 84 40 85 48 86 41 87 47 88 42 89
REMARK SMILES IDX 43 90 44 91 45 92 46 93
REMARK H PARENT 6 7 87 21 87 22 11 30 67 49 37 60
REMARK Flexibility Score: inf
ROOT
ATOM      1  C   UNL     1      -3.708   4.518  -2.506  1.00  0.00     0.023 C 
ENDROOT
BRANCH   1   2
ATOM      2  C   UNL     1      -2.826   4.425  -1.264  1.00  0.00     0.023 C 
BRANCH   2   3
ATOM      3  C   UNL     1      -2.504   3.015  -0.794  1.00  0.00     0.116 C 
BRANCH   3   4
ATOM      4  N   UNL     1      -1.723   2.235  -1.735  1.00  0.00    -0.356 N 
ATOM      5  C   UNL     1      -0.806   1.253  -1.457  1.00  0.00     0.225 C 
ATOM      6  O   UNL     1      -0.264   0.670  -2.394  1.00  0.00    -0.275 OA
ATOM      7  H   UNL     1      -1.868   2.434  -2.688  1.00  0.00     0.163 HD
BRANCH   5   8
ATOM      8  C   UNL     1      -0.440   0.996   0.003  1.00  0.00     0.102 C 
ATOM      9  C   UNL     1       1.477   0.223   1.404  1.00  0.00     0.032 C 
ATOM     10  C   UNL     1       0.603  -0.136   0.191  1.00  0.00     0.094 C 
ATOM     11  N   UNL     1      -0.204  -1.360   0.391  1.00  0.00    -0.334 N 
ATOM     12  C   UNL     1      -1.603   0.477   0.850  1.00  0.00     0.037 C 
ATOM     13  C   UNL     1      -1.603  -1.003   0.540  1.00  0.00     0.121 C 
BRANCH  11  14
ATOM     14  C   UNL     1       0.063  -2.640  -0.088  1.00  0.00     0.281 C 
ATOM     15  O   UNL     1      -0.850  -3.307  -0.598  1.00  0.00    -0.268 OA
BRANCH  14  16
ATOM     16  C   UNL     1       1.422  -3.349   0.200  1.00  0.00     0.273 C 
ATOM     17  C   UNL     1       2.717  -2.586   0.067  1.00  0.00     0.085 C 
ATOM     18  N   UNL     1       1.595  -4.537  -0.717  1.00  0.00    -0.333 N 
ATOM     19  C   UNL     1       3.211  -2.901  -1.321  1.00  0.00     0.054 C 
ATOM     20  C   UNL     1       2.872  -4.378  -1.442  1.00  0.00     0.186 C 
ATOM     21  H   UNL     1       0.823  -4.576  -1.382  1.00  0.00     0.347 HD
ATOM     22  H   UNL     1       1.602  -5.402  -0.176  1.00  0.00     0.347 HD
ATOM     23  C   UNL     1       2.523  -2.114  -2.439  1.00  0.00     0.010 C 
ATOM     24  C   UNL     1       2.863  -4.856  -2.905  1.00  0.00     0.065 C 
ATOM     25  C   UNL     1       3.160  -2.479  -3.777  1.00  0.00     0.001 C 
ATOM     26  C   UNL     1       3.684  -3.921  -3.804  1.00  0.00     0.006 C 
ENDBRANCH  14  16
ENDBRANCH  11  14
ENDBRANCH   5   8
ENDBRANCH   3   4
ENDBRANCH   2   3
ENDBRANCH   1   2
BRANCH   1  27
ATOM     27  C   UNL     1      -4.976   3.671  -2.482  1.00  0.00     0.116 C 
BRANCH  27  28
ATOM     28  N   UNL     1      -5.862   3.992  -1.370  1.00  0.00    -0.352 N 
ATOM     29  C   UNL     1      -7.158   4.449  -1.385  1.00  0.00     0.251 C 
ATOM     30  H   UNL     1      -5.474   3.861  -0.475  1.00  0.00     0.163 HD
ATOM     31  O   UNL     1      -7.695   4.793  -0.332  1.00  0.00    -0.269 OA
BRANCH  29  32
ATOM     32  C   UNL     1      -7.890   4.561  -2.663  1.00  0.00     0.039 A 
ATOM     33  C   UNL     1      -8.610   5.727  -2.937  1.00  0.00     0.014 A 
ATOM     34  C   UNL     1      -7.848   3.528  -3.603  1.00  0.00     0.014 A 
ATOM     35  C   UNL     1      -9.217   5.888  -4.185  1.00  0.00     0.010 A 
ATOM     36  C   UNL     1      -8.369   3.731  -4.876  1.00  0.00     0.010 A 
ATOM     37  C   UNL     1      -9.066   4.910  -5.181  1.00  0.00    -0.014 A 
BRANCH  37  38
ATOM     38  C   UNL     1      -9.636   5.090  -6.542  1.00  0.00     0.031 A 
ATOM     39  C   UNL     1     -10.668   4.121  -7.059  1.00  0.00     0.074 A 
ATOM     40  C   UNL     1      -9.181   6.078  -7.339  1.00  0.00     0.049 A 
ATOM     41  N   UNL     1     -11.232   4.067  -8.239  1.00  0.00    -0.248 NA
ATOM     42  C   UNL     1     -11.101   3.057  -6.139  1.00  0.00     0.031 C 
ATOM     43  C   UNL     1      -8.155   7.059  -6.975  1.00  0.00     0.029 A 
ATOM     44  N   UNL     1      -9.519   6.418  -8.626  1.00  0.00    -0.354 N 
ATOM     45  C   UNL     1     -12.067   2.956  -8.208  1.00  0.00     0.074 A 
ATOM     46  C   UNL     1     -11.891   2.331  -6.916  1.00  0.00     0.031 C 
ATOM     47  C   UNL     1      -7.973   7.907  -8.000  1.00  0.00     0.029 A 
ATOM     48  C   UNL     1      -8.831   7.506  -9.110  1.00  0.00     0.049 A 
ATOM     49  H   UNL     1     -10.191   5.928  -9.153  1.00  0.00     0.167 HD
ATOM     50  C   UNL     1     -12.922   2.508  -9.158  1.00  0.00     0.031 A 
ATOM     51  C   UNL     1      -8.880   8.111 -10.313  1.00  0.00     0.031 A 
ATOM     52  C   UNL     1     -13.103   3.137 -10.439  1.00  0.00     0.049 A 
ATOM     53  C   UNL     1      -9.828   7.588 -11.359  1.00  0.00     0.074 A 
ATOM     54  C   UNL     1     -13.980   2.790 -11.451  1.00  0.00     0.029 A 
ATOM     55  N   UNL     1     -12.394   4.242 -10.885  1.00  0.00    -0.354 N 
ATOM     56  N   UNL     1     -10.653   6.571 -11.289  1.00  0.00    -0.248 NA
ATOM     57  C   UNL     1      -9.861   8.304 -12.642  1.00  0.00     0.031 C 
ATOM     58  C   UNL     1     -13.762   3.652 -12.531  1.00  0.00     0.029 A 
ATOM     59  C   UNL     1     -12.799   4.578 -12.166  1.00  0.00     0.049 A 
ATOM     60  H   UNL     1     -11.704   4.718 -10.367  1.00  0.00     0.167 HD
ATOM     61  C   UNL     1     -11.330   6.548 -12.504  1.00  0.00     0.074 A 
ATOM     62  C   UNL     1     -10.824   7.658 -13.285  1.00  0.00     0.031 C 
ATOM     63  C   UNL     1     -12.289   5.689 -12.931  1.00  0.00     0.031 A 
BRANCH  50  64
ATOM     64  C   UNL     1     -13.722   1.269  -8.843  1.00  0.00    -0.014 A 
ATOM     65  C   UNL     1     -14.723   1.280  -7.854  1.00  0.00     0.010 A 
ATOM     66  C   UNL     1     -13.488   0.083  -9.563  1.00  0.00     0.010 A 
ATOM     67  C   UNL     1     -15.438   0.118  -7.556  1.00  0.00     0.020 A 
ATOM     68  C   UNL     1     -14.225  -1.073  -9.290  1.00  0.00     0.020 A 
ATOM     69  C   UNL     1     -15.181  -1.053  -8.274  1.00  0.00     0.054 A 
BRANCH  69  70
ATOM     70  S   UNL     1     -16.134  -2.543  -7.873  1.00  0.00     0.124 S 
ATOM     71  O   UNL     1     -15.570  -2.923  -6.580  1.00  0.00    -0.237 OA
ATOM     72  O   UNL     1     -17.507  -2.045  -7.836  1.00  0.00    -0.237 OA
ATOM     73  O   UNL     1     -15.835  -3.454  -8.975  1.00  0.00    -0.744 OA
ENDBRANCH  69  70
ENDBRANCH  50  64
BRANCH  51  74
ATOM     74  C   UNL     1      -8.022   9.299 -10.585  1.00  0.00    -0.014 A 
ATOM     75  C   UNL     1      -8.593  10.577 -10.717  1.00  0.00     0.010 A 
ATOM     76  C   UNL     1      -6.627   9.161 -10.699  1.00  0.00     0.010 A 
ATOM     77  C   UNL     1      -7.789  11.691 -10.975  1.00  0.00     0.020 A 
ATOM     78  C   UNL     1      -5.816  10.276 -10.927  1.00  0.00     0.020 A 
ATOM     79  C   UNL     1      -6.404  11.534 -11.075  1.00  0.00     0.054 A 
BRANCH  79  80
ATOM     80  S   UNL     1      -5.376  13.003 -11.354  1.00  0.00     0.124 S 
ATOM     81  O   UNL     1      -5.675  13.324 -12.746  1.00  0.00    -0.237 OA
ATOM     82  O   UNL     1      -5.892  13.942 -10.361  1.00  0.00    -0.237 OA
ATOM     83  O   UNL     1      -4.019  12.524 -11.100  1.00  0.00    -0.744 OA
ENDBRANCH  79  80
ENDBRANCH  51  74
BRANCH  63  84
ATOM     84  C   UNL     1     -12.896   5.941 -14.286  1.00  0.00    -0.014 A 
ATOM     85  C   UNL     1     -12.172   5.721 -15.471  1.00  0.00     0.010 A 
ATOM     86  C   UNL     1     -14.239   6.355 -14.372  1.00  0.00     0.010 A 
ATOM     87  C   UNL     1     -12.768   5.945 -16.715  1.00  0.00     0.020 A 
ATOM     88  C   UNL     1     -14.848   6.549 -15.614  1.00  0.00     0.020 A 
ATOM     89  C   UNL     1     -14.103   6.358 -16.778  1.00  0.00     0.054 A 
BRANCH  89  90
ATOM     90  S   UNL     1     -14.866   6.603 -18.405  1.00  0.00     0.124 S 
ATOM     91  O   UNL     1     -14.230   7.838 -18.856  1.00  0.00    -0.237 OA
ATOM     92  O   UNL     1     -14.475   5.395 -19.127  1.00  0.00    -0.237 OA
ATOM     93  O   UNL     1     -16.293   6.710 -18.108  1.00  0.00    -0.744 OA
ENDBRANCH  89  90
ENDBRANCH  63  84
ENDBRANCH  37  38
ENDBRANCH  29  32
ENDBRANCH  27  28
ENDBRANCH   1  27
TORSDOF 16
