REMARK SMILES C[C@@H](C(=O)NCCCCNC(=O)c1ccc(-c2c3nc(c(-c4ccc(S(=O)(=O)[O-])cc4)c4ccc([nH]4)c(-c4ccc(S(=O)(=O)[O-])cc4)c4nc(c(-c5ccc(S(=O)(=O)[O-])cc5)c5ccc2[nH]5)C=C4)C=C3)cc1)[C@H](C)[N@@H+]1C[C@H]2C[NH2+]C[C@@H]2[C@@H]1C
REMARK SMILES IDX 8 1 7 2 6 3 5 4 3 5 4 6 2 8 1 9 73 10 74 11 75 12 76 13
REMARK SMILES IDX 82 14 77 16 81 17 83 18 78 19 80 20 79 21 9 24 10 25 11 26
REMARK SMILES IDX 12 28 13 29 14 30 72 31 15 32 71 33 16 34 17 35 18 36 65 37
REMARK SMILES IDX 19 38 70 39 64 40 66 41 20 42 69 43 63 44 62 45 21 47 51 48
REMARK SMILES IDX 32 49 50 50 33 51 36 52 49 53 67 54 34 55 35 56 48 58 68 59
REMARK SMILES IDX 37 60 22 61 23 62 31 63 24 64 30 65 25 66 26 67 27 68 28 69
REMARK SMILES IDX 29 70 52 71 53 72 61 73 54 74 60 75 55 76 56 77 57 78 58 79
REMARK SMILES IDX 59 80 38 81 39 82 47 83 40 84 46 85 41 86 42 87 43 88 44 89
REMARK SMILES IDX 45 90
REMARK H PARENT 5 7 75 15 79 22 79 23 10 27 66 46 36 57
REMARK Flexibility Score: inf
ROOT
ATOM      1  C   UNL     1      -4.482  -2.311   4.085  1.00  0.00     0.023 C 
ENDROOT
BRANCH   1   2
ATOM      2  C   UNL     1      -3.439  -1.203   4.208  1.00  0.00     0.023 C 
BRANCH   2   3
ATOM      3  C   UNL     1      -2.199  -1.366   3.325  1.00  0.00     0.116 C 
BRANCH   3   4
ATOM      4  N   UNL     1      -2.508  -1.262   1.913  1.00  0.00    -0.356 N 
ATOM      5  C   UNL     1      -2.252  -0.263   1.016  1.00  0.00     0.228 C 
ATOM      6  O   UNL     1      -2.606  -0.468  -0.146  1.00  0.00    -0.275 OA
ATOM      7  H   UNL     1      -2.980  -2.040   1.537  1.00  0.00     0.163 HD
BRANCH   5   8
ATOM      8  C   UNL     1      -1.546   1.032   1.467  1.00  0.00     0.133 C 
ATOM      9  C   UNL     1      -2.463   1.815   2.401  1.00  0.00     0.024 C 
BRANCH   8  10
ATOM     10  C   UNL     1      -1.036   1.857   0.227  1.00  0.00     0.193 C 
ATOM     11  C   UNL     1       0.473   1.618   0.030  1.00  0.00     0.076 C 
BRANCH  10  12
ATOM     12  N   UNL     1      -1.405   3.272   0.131  1.00  0.00    -0.329 N 
ATOM     13  C   UNL     1      -1.489   3.820  -1.244  1.00  0.00     0.272 C 
ATOM     14  C   UNL     1      -1.114   4.333   1.116  1.00  0.00     0.190 C 
ATOM     15  H   UNL     1      -2.283   2.998   0.571  1.00  0.00     0.348 HD
ATOM     16  C   UNL     1      -1.034   5.241  -1.055  1.00  0.00     0.114 C 
ATOM     17  C   UNL     1      -1.558   5.545   0.321  1.00  0.00     0.116 C 
ATOM     18  C   UNL     1       0.306   4.397   1.657  1.00  0.00     0.076 C 
ATOM     19  C   UNL     1      -1.565   6.423  -1.817  1.00  0.00     0.270 C 
ATOM     20  C   UNL     1      -1.112   6.970   0.488  1.00  0.00     0.271 C 
ATOM     21  N   UNL     1      -1.358   7.554  -0.863  1.00  0.00    -0.345 N 
ATOM     22  H   UNL     1      -2.188   8.146  -0.840  1.00  0.00     0.346 HD
ATOM     23  H   UNL     1      -0.565   8.126  -1.154  1.00  0.00     0.346 HD
ENDBRANCH  10  12
ENDBRANCH   8  10
ENDBRANCH   5   8
ENDBRANCH   3   4
ENDBRANCH   2   3
ENDBRANCH   1   2
BRANCH   1  24
ATOM     24  C   UNL     1      -3.993  -3.700   4.466  1.00  0.00     0.116 C 
BRANCH  24  25
ATOM     25  N   UNL     1      -3.494  -3.774   5.833  1.00  0.00    -0.352 N 
ATOM     26  C   UNL     1      -3.716  -4.756   6.769  1.00  0.00     0.251 C 
ATOM     27  H   UNL     1      -2.924  -3.026   6.123  1.00  0.00     0.163 HD
ATOM     28  O   UNL     1      -3.317  -4.622   7.922  1.00  0.00    -0.269 OA
BRANCH  26  29
ATOM     29  C   UNL     1      -4.480  -5.955   6.373  1.00  0.00     0.039 A 
ATOM     30  C   UNL     1      -5.597  -6.330   7.122  1.00  0.00     0.014 A 
ATOM     31  C   UNL     1      -4.132  -6.652   5.213  1.00  0.00     0.014 A 
ATOM     32  C   UNL     1      -6.422  -7.356   6.659  1.00  0.00     0.010 A 
ATOM     33  C   UNL     1      -4.992  -7.624   4.718  1.00  0.00     0.010 A 
ATOM     34  C   UNL     1      -6.149  -7.979   5.431  1.00  0.00    -0.014 A 
BRANCH  34  35
ATOM     35  C   UNL     1      -7.055  -8.995   4.843  1.00  0.00     0.031 A 
ATOM     36  C   UNL     1      -6.553 -10.392   4.615  1.00  0.00     0.074 A 
ATOM     37  C   UNL     1      -8.270  -8.629   4.391  1.00  0.00     0.049 A 
ATOM     38  N   UNL     1      -7.109 -11.370   3.949  1.00  0.00    -0.248 NA
ATOM     39  C   UNL     1      -5.231 -10.714   5.176  1.00  0.00     0.031 C 
ATOM     40  C   UNL     1      -8.851  -7.289   4.507  1.00  0.00     0.029 A 
ATOM     41  N   UNL     1      -9.221  -9.347   3.710  1.00  0.00    -0.354 N 
ATOM     42  C   UNL     1      -6.186 -12.408   3.970  1.00  0.00     0.074 A 
ATOM     43  C   UNL     1      -5.026 -11.930   4.691  1.00  0.00     0.031 C 
ATOM     44  C   UNL     1     -10.056  -7.281   3.914  1.00  0.00     0.029 A 
ATOM     45  C   UNL     1     -10.315  -8.599   3.343  1.00  0.00     0.049 A 
ATOM     46  H   UNL     1      -9.129 -10.305   3.505  1.00  0.00     0.167 HD
ATOM     47  C   UNL     1      -6.295 -13.649   3.439  1.00  0.00     0.031 A 
ATOM     48  C   UNL     1     -11.395  -8.928   2.608  1.00  0.00     0.031 A 
ATOM     49  C   UNL     1      -7.460 -14.128   2.747  1.00  0.00     0.049 A 
ATOM     50  C   UNL     1     -11.521 -10.324   2.068  1.00  0.00     0.074 A 
ATOM     51  C   UNL     1      -7.701 -15.393   2.241  1.00  0.00     0.029 A 
ATOM     52  N   UNL     1      -8.579 -13.361   2.462  1.00  0.00    -0.354 N 
ATOM     53  N   UNL     1     -10.668 -11.316   2.154  1.00  0.00    -0.248 NA
ATOM     54  C   UNL     1     -12.757 -10.649   1.343  1.00  0.00     0.031 C 
ATOM     55  C   UNL     1      -8.956 -15.381   1.621  1.00  0.00     0.029 A 
ATOM     56  C   UNL     1      -9.511 -14.120   1.776  1.00  0.00     0.049 A 
ATOM     57  H   UNL     1      -8.695 -12.416   2.712  1.00  0.00     0.167 HD
ATOM     58  C   UNL     1     -11.271 -12.390   1.511  1.00  0.00     0.074 A 
ATOM     59  C   UNL     1     -12.564 -11.928   1.047  1.00  0.00     0.031 C 
ATOM     60  C   UNL     1     -10.796 -13.646   1.326  1.00  0.00     0.031 A 
BRANCH  47  61
ATOM     61  C   UNL     1      -5.103 -14.557   3.575  1.00  0.00    -0.014 A 
ATOM     62  C   UNL     1      -4.737 -15.097   4.822  1.00  0.00     0.010 A 
ATOM     63  C   UNL     1      -4.325 -14.855   2.443  1.00  0.00     0.010 A 
ATOM     64  C   UNL     1      -3.574 -15.861   4.946  1.00  0.00     0.020 A 
ATOM     65  C   UNL     1      -3.176 -15.643   2.558  1.00  0.00     0.020 A 
ATOM     66  C   UNL     1      -2.793 -16.116   3.815  1.00  0.00     0.054 A 
BRANCH  66  67
ATOM     67  S   UNL     1      -1.270 -17.083   4.002  1.00  0.00     0.124 S 
ATOM     68  O   UNL     1      -0.344 -16.083   4.527  1.00  0.00    -0.237 OA
ATOM     69  O   UNL     1      -1.662 -18.130   4.942  1.00  0.00    -0.237 OA
ATOM     70  O   UNL     1      -0.986 -17.544   2.645  1.00  0.00    -0.744 OA
ENDBRANCH  66  67
ENDBRANCH  47  61
BRANCH  48  71
ATOM     71  C   UNL     1     -12.441  -7.902   2.357  1.00  0.00    -0.014 A 
ATOM     72  C   UNL     1     -13.642  -7.921   3.088  1.00  0.00     0.010 A 
ATOM     73  C   UNL     1     -12.210  -6.858   1.443  1.00  0.00     0.010 A 
ATOM     74  C   UNL     1     -14.590  -6.909   2.915  1.00  0.00     0.020 A 
ATOM     75  C   UNL     1     -13.147  -5.834   1.283  1.00  0.00     0.020 A 
ATOM     76  C   UNL     1     -14.333  -5.867   2.020  1.00  0.00     0.054 A 
BRANCH  76  77
ATOM     77  S   UNL     1     -15.528  -4.507   1.890  1.00  0.00     0.124 S 
ATOM     78  O   UNL     1     -16.579  -5.103   1.071  1.00  0.00    -0.237 OA
ATOM     79  O   UNL     1     -15.879  -4.258   3.287  1.00  0.00    -0.237 OA
ATOM     80  O   UNL     1     -14.762  -3.440   1.251  1.00  0.00    -0.744 OA
ENDBRANCH  76  77
ENDBRANCH  48  71
BRANCH  60  81
ATOM     81  C   UNL     1     -11.685 -14.630   0.619  1.00  0.00    -0.014 A 
ATOM     82  C   UNL     1     -11.831 -14.600  -0.778  1.00  0.00     0.010 A 
ATOM     83  C   UNL     1     -12.307 -15.654   1.356  1.00  0.00     0.010 A 
ATOM     84  C   UNL     1     -12.594 -15.575  -1.427  1.00  0.00     0.020 A 
ATOM     85  C   UNL     1     -13.054 -16.641   0.709  1.00  0.00     0.020 A 
ATOM     86  C   UNL     1     -13.198 -16.591  -0.679  1.00  0.00     0.054 A 
BRANCH  86  87
ATOM     87  S   UNL     1     -14.118 -17.892  -1.549  1.00  0.00     0.124 S 
ATOM     88  O   UNL     1     -15.372 -17.215  -1.867  1.00  0.00    -0.237 OA
ATOM     89  O   UNL     1     -13.256 -18.188  -2.691  1.00  0.00    -0.237 OA
ATOM     90  O   UNL     1     -14.219 -18.962  -0.559  1.00  0.00    -0.744 OA
ENDBRANCH  86  87
ENDBRANCH  60  81
ENDBRANCH  34  35
ENDBRANCH  26  29
ENDBRANCH  24  25
ENDBRANCH   1  24
TORSDOF 16
