REMARK SMILES CC(C)(C[N@H+]1C[C@@H]2C[NH2+]C[C@H]2C1(C)C)C(=O)NCCCCNC(=O)c1ccc(-c2c3nc(c(-c4ccc(S(=O)(=O)[O-])cc4)c4ccc([nH]4)c(-c4ccc(S(=O)(=O)[O-])cc4)c4nc(c(-c5ccc(S(=O)(=O)[O-])cc5)c5ccc2[nH]5)C=C4)C=C3)cc1
REMARK SMILES IDX 20 1 19 2 18 3 17 4 15 5 16 6 2 8 1 9 3 10 4 11 5 12 6 13
REMARK SMILES IDX 12 14 7 16 11 17 13 18 14 19 8 20 10 21 9 22 21 25 22 26
REMARK SMILES IDX 23 27 24 29 25 30 26 31 84 32 27 33 83 34 28 35 29 36 30 37
REMARK SMILES IDX 77 38 31 39 82 40 76 41 78 42 32 43 81 44 75 45 74 46 33 48
REMARK SMILES IDX 63 49 44 50 62 51 45 52 48 53 61 54 79 55 46 56 47 57 60 59
REMARK SMILES IDX 80 60 49 61 34 62 35 63 43 64 36 65 42 66 37 67 38 68 39 69
REMARK SMILES IDX 40 70 41 71 64 72 65 73 73 74 66 75 72 76 67 77 68 78 69 79
REMARK SMILES IDX 70 80 71 81 50 82 51 83 59 84 52 85 58 86 53 87 54 88 55 89
REMARK SMILES IDX 56 90 57 91
REMARK H PARENT 17 7 5 15 9 23 9 24 22 28 78 47 48 58
REMARK Flexibility Score: inf
ROOT
ATOM      1  C   UNL     1      -1.313   5.257   3.348  1.00  0.00     0.023 C 
ENDROOT
BRANCH   1   2
ATOM      2  C   UNL     1      -1.543   4.543   2.018  1.00  0.00     0.023 C 
BRANCH   2   3
ATOM      3  C   UNL     1      -0.297   4.393   1.155  1.00  0.00     0.116 C 
BRANCH   3   4
ATOM      4  N   UNL     1       0.687   3.532   1.776  1.00  0.00    -0.355 N 
ATOM      5  C   UNL     1       1.244   2.352   1.403  1.00  0.00     0.231 C 
ATOM      6  O   UNL     1       2.054   1.873   2.206  1.00  0.00    -0.274 OA
ATOM      7  H   UNL     1       1.018   3.869   2.639  1.00  0.00     0.163 HD
BRANCH   5   8
ATOM      8  C   UNL     1       0.938   1.655   0.061  1.00  0.00     0.092 C 
ATOM      9  C   UNL     1       1.994   0.540  -0.127  1.00  0.00     0.027 C 
ATOM     10  C   UNL     1       1.246   2.602  -1.130  1.00  0.00     0.027 C 
BRANCH   8  11
ATOM     11  C   UNL     1      -0.562   1.172  -0.025  1.00  0.00     0.279 C 
BRANCH  11  12
ATOM     12  N   UNL     1      -1.183   0.315   1.010  1.00  0.00    -0.329 N 
ATOM     13  C   UNL     1      -2.684   0.435   1.024  1.00  0.00     0.272 C 
ATOM     14  C   UNL     1      -0.845  -1.156   1.043  1.00  0.00     0.101 C 
ATOM     15  H   UNL     1      -0.742   0.707   1.842  1.00  0.00     0.348 HD
ATOM     16  C   UNL     1      -3.160  -0.934   0.613  1.00  0.00     0.114 C 
ATOM     17  C   UNL     1      -2.198  -1.791   1.387  1.00  0.00     0.119 C 
ATOM     18  C   UNL     1      -0.318  -1.776  -0.266  1.00  0.00     0.079 C 
ATOM     19  C   UNL     1       0.101  -1.408   2.233  1.00  0.00     0.079 C 
ATOM     20  C   UNL     1      -4.463  -1.577   1.007  1.00  0.00     0.270 C 
ATOM     21  C   UNL     1      -2.664  -3.177   1.010  1.00  0.00     0.271 C 
ATOM     22  N   UNL     1      -4.142  -3.032   0.929  1.00  0.00    -0.345 N 
ATOM     23  H   UNL     1      -4.480  -3.414   0.046  1.00  0.00     0.346 HD
ATOM     24  H   UNL     1      -4.592  -3.537   1.692  1.00  0.00     0.346 HD
ENDBRANCH  11  12
ENDBRANCH   8  11
ENDBRANCH   5   8
ENDBRANCH   3   4
ENDBRANCH   2   3
ENDBRANCH   1   2
BRANCH   1  25
ATOM     25  C   UNL     1      -0.563   6.580   3.249  1.00  0.00     0.116 C 
BRANCH  25  26
ATOM     26  N   UNL     1      -1.177   7.512   2.315  1.00  0.00    -0.352 N 
ATOM     27  C   UNL     1      -1.379   8.862   2.459  1.00  0.00     0.251 C 
ATOM     28  H   UNL     1      -1.489   7.122   1.467  1.00  0.00     0.163 HD
ATOM     29  O   UNL     1      -2.036   9.477   1.622  1.00  0.00    -0.269 OA
BRANCH  27  30
ATOM     30  C   UNL     1      -0.830   9.556   3.640  1.00  0.00     0.039 A 
ATOM     31  C   UNL     1      -1.651  10.434   4.348  1.00  0.00     0.014 A 
ATOM     32  C   UNL     1       0.482   9.320   4.061  1.00  0.00     0.014 A 
ATOM     33  C   UNL     1      -1.168  11.043   5.506  1.00  0.00     0.010 A 
ATOM     34  C   UNL     1       0.929   9.857   5.263  1.00  0.00     0.010 A 
ATOM     35  C   UNL     1       0.117  10.740   5.988  1.00  0.00    -0.014 A 
BRANCH  35  36
ATOM     36  C   UNL     1       0.632  11.367   7.231  1.00  0.00     0.031 A 
ATOM     37  C   UNL     1       1.837  12.270   7.176  1.00  0.00     0.074 A 
ATOM     38  C   UNL     1       0.036  11.101   8.411  1.00  0.00     0.049 A 
ATOM     39  N   UNL     1       2.430  12.912   8.149  1.00  0.00    -0.248 NA
ATOM     40  C   UNL     1       2.476  12.456   5.862  1.00  0.00     0.031 C 
ATOM     41  C   UNL     1      -1.104  10.200   8.601  1.00  0.00     0.029 A 
ATOM     42  N   UNL     1       0.305  11.565   9.674  1.00  0.00    -0.354 N 
ATOM     43  C   UNL     1       3.515  13.560   7.570  1.00  0.00     0.074 A 
ATOM     44  C   UNL     1       3.534  13.189   6.173  1.00  0.00     0.031 C 
ATOM     45  C   UNL     1      -1.458  10.206   9.897  1.00  0.00     0.029 A 
ATOM     46  C   UNL     1      -0.551  11.079  10.635  1.00  0.00     0.049 A 
ATOM     47  H   UNL     1       1.042  12.187   9.873  1.00  0.00     0.167 HD
ATOM     48  C   UNL     1       4.402  14.408   8.142  1.00  0.00     0.031 A 
ATOM     49  C   UNL     1      -0.601  11.313  11.960  1.00  0.00     0.031 A 
ATOM     50  C   UNL     1       4.368  14.788   9.530  1.00  0.00     0.049 A 
ATOM     51  C   UNL     1       0.386  12.273  12.569  1.00  0.00     0.074 A 
ATOM     52  C   UNL     1       5.182  15.688  10.194  1.00  0.00     0.029 A 
ATOM     53  N   UNL     1       3.473  14.291  10.465  1.00  0.00    -0.354 N 
ATOM     54  N   UNL     1       1.358  12.937  11.988  1.00  0.00    -0.248 NA
ATOM     55  C   UNL     1       0.252  12.536  14.008  1.00  0.00     0.031 C 
ATOM     56  C   UNL     1       4.817  15.692  11.544  1.00  0.00     0.029 A 
ATOM     57  C   UNL     1       3.729  14.850  11.706  1.00  0.00     0.049 A 
ATOM     58  H   UNL     1       2.762  13.638  10.275  1.00  0.00     0.167 HD
ATOM     59  C   UNL     1       1.928  13.722  12.985  1.00  0.00     0.074 A 
ATOM     60  C   UNL     1       1.178  13.465  14.197  1.00  0.00     0.031 C 
ATOM     61  C   UNL     1       2.974  14.582  12.904  1.00  0.00     0.031 A 
BRANCH  48  62
ATOM     62  C   UNL     1       5.488  14.982   7.269  1.00  0.00    -0.014 A 
ATOM     63  C   UNL     1       5.194  15.911   6.254  1.00  0.00     0.010 A 
ATOM     64  C   UNL     1       6.830  14.630   7.504  1.00  0.00     0.010 A 
ATOM     65  C   UNL     1       6.217  16.451   5.470  1.00  0.00     0.020 A 
ATOM     66  C   UNL     1       7.859  15.192   6.743  1.00  0.00     0.020 A 
ATOM     67  C   UNL     1       7.544  16.090   5.722  1.00  0.00     0.054 A 
BRANCH  67  68
ATOM     68  S   UNL     1       8.854  16.843   4.719  1.00  0.00     0.124 S 
ATOM     69  O   UNL     1       8.653  16.196   3.425  1.00  0.00    -0.237 OA
ATOM     70  O   UNL     1       8.516  18.264   4.769  1.00  0.00    -0.237 OA
ATOM     71  O   UNL     1      10.082  16.473   5.416  1.00  0.00    -0.744 OA
ENDBRANCH  67  68
ENDBRANCH  48  62
BRANCH  49  72
ATOM     72  C   UNL     1      -1.632  10.642  12.801  1.00  0.00    -0.014 A 
ATOM     73  C   UNL     1      -2.672  11.381  13.393  1.00  0.00     0.010 A 
ATOM     74  C   UNL     1      -1.572   9.254  13.021  1.00  0.00     0.010 A 
ATOM     75  C   UNL     1      -3.611  10.751  14.216  1.00  0.00     0.020 A 
ATOM     76  C   UNL     1      -2.528   8.615  13.816  1.00  0.00     0.020 A 
ATOM     77  C   UNL     1      -3.532   9.371  14.422  1.00  0.00     0.054 A 
BRANCH  77  78
ATOM     78  S   UNL     1      -4.779   8.569  15.469  1.00  0.00     0.124 S 
ATOM     79  O   UNL     1      -4.391   9.020  16.802  1.00  0.00    -0.237 OA
ATOM     80  O   UNL     1      -6.028   9.122  14.951  1.00  0.00    -0.237 OA
ATOM     81  O   UNL     1      -4.581   7.145  15.207  1.00  0.00    -0.744 OA
ENDBRANCH  77  78
ENDBRANCH  49  72
BRANCH  61  82
ATOM     82  C   UNL     1       3.334  15.350  14.150  1.00  0.00    -0.014 A 
ATOM     83  C   UNL     1       3.889  14.715  15.275  1.00  0.00     0.010 A 
ATOM     84  C   UNL     1       3.126  16.741  14.183  1.00  0.00     0.010 A 
ATOM     85  C   UNL     1       4.172  15.447  16.431  1.00  0.00     0.020 A 
ATOM     86  C   UNL     1       3.442  17.483  15.323  1.00  0.00     0.020 A 
ATOM     87  C   UNL     1       3.939  16.826  16.450  1.00  0.00     0.054 A 
BRANCH  87  88
ATOM     88  S   UNL     1       4.312  17.756  17.961  1.00  0.00     0.124 S 
ATOM     89  O   UNL     1       3.224  17.346  18.844  1.00  0.00    -0.237 OA
ATOM     90  O   UNL     1       5.638  17.259  18.324  1.00  0.00    -0.237 OA
ATOM     91  O   UNL     1       4.273  19.151  17.529  1.00  0.00    -0.744 OA
ENDBRANCH  87  88
ENDBRANCH  61  82
ENDBRANCH  35  36
ENDBRANCH  27  30
ENDBRANCH  25  26
ENDBRANCH   1  25
TORSDOF 16
