REMARK SMILES Cc1ccc2oc(C(=O)N[C@@H]3C=C[C@H](C(=O)NCCCCNC(=O)c4ccc(-c5c6nc(c(-c7ccc(S(=O)(=O)[O-])cc7)c7ccc([nH]7)c(-c7ccc(S(=O)(=O)[O-])cc7)c7nc(c(-c8ccc(S(=O)(=O)[O-])cc8)c8ccc5[nH]8)C=C7)C=C6)cc4)C3)cc2c1
REMARK SMILES IDX 20 1 19 2 18 3 17 4 15 5 16 6 14 8 11 9 12 10 85 11 13 12
REMARK SMILES IDX 10 13 8 14 9 15 7 17 1 18 2 19 3 20 88 21 4 22 87 23 5 24
REMARK SMILES IDX 86 25 6 26 21 27 22 28 23 29 24 31 25 32 26 33 84 34 27 35
REMARK SMILES IDX 83 36 28 37 29 38 30 39 77 40 31 41 82 42 76 43 78 44 32 45
REMARK SMILES IDX 81 46 75 47 74 48 33 50 63 51 44 52 62 53 45 54 48 55 61 56
REMARK SMILES IDX 79 57 46 58 47 59 60 61 80 62 49 63 34 64 35 65 43 66 36 67
REMARK SMILES IDX 42 68 37 69 38 70 39 71 40 72 41 73 64 74 65 75 73 76 66 77
REMARK SMILES IDX 72 78 67 79 68 80 69 81 70 82 71 83 50 84 51 85 59 86 52 87
REMARK SMILES IDX 58 88 53 89 54 90 55 91 56 92 57 93
REMARK H PARENT 17 7 10 16 22 30 78 49 48 60
REMARK Flexibility Score: inf
ROOT
ATOM      1  C   UNL     1      -0.468  -8.270   3.615  1.00  0.00     0.023 C 
ENDROOT
BRANCH   1   2
ATOM      2  C   UNL     1       0.987  -7.808   3.798  1.00  0.00     0.023 C 
BRANCH   2   3
ATOM      3  C   UNL     1       1.575  -6.929   2.693  1.00  0.00     0.116 C 
BRANCH   3   4
ATOM      4  N   UNL     1       0.879  -5.674   2.497  1.00  0.00    -0.356 N 
ATOM      5  C   UNL     1       1.281  -4.448   2.068  1.00  0.00     0.227 C 
ATOM      6  O   UNL     1       0.358  -3.669   1.799  1.00  0.00    -0.274 OA
ATOM      7  H   UNL     1      -0.079  -5.717   2.720  1.00  0.00     0.163 HD
BRANCH   5   8
ATOM      8  C   UNL     1       2.756  -3.954   2.034  1.00  0.00     0.103 C 
ATOM      9  C   UNL     1       3.598  -3.182  -0.174  1.00  0.00     0.106 C 
ATOM     10  C   UNL     1       4.303  -4.401   0.282  1.00  0.00    -0.006 C 
ATOM     11  C   UNL     1       2.865  -2.720   1.097  1.00  0.00     0.047 C 
ATOM     12  C   UNL     1       3.879  -4.799   1.493  1.00  0.00    -0.016 C 
BRANCH   9  13
ATOM     13  N   UNL     1       2.778  -3.281  -1.379  1.00  0.00    -0.343 N 
ATOM     14  C   UNL     1       2.145  -4.208  -2.179  1.00  0.00     0.287 C 
ATOM     15  O   UNL     1       1.621  -3.721  -3.197  1.00  0.00    -0.266 OA
ATOM     16  H   UNL     1       2.625  -2.380  -1.743  1.00  0.00     0.164 HD
BRANCH  14  17
ATOM     17  C   UNL     1       2.118  -5.625  -1.907  1.00  0.00     0.192 A 
ATOM     18  C   UNL     1       2.729 -11.365  -0.198  1.00  0.00     0.044 C 
ATOM     19  C   UNL     1       2.399 -10.121  -0.971  1.00  0.00    -0.050 A 
ATOM     20  C   UNL     1       1.958 -10.167  -2.303  1.00  0.00     0.007 A 
ATOM     21  C   UNL     1       2.590  -8.883  -0.354  1.00  0.00     0.015 A 
ATOM     22  C   UNL     1       1.730  -8.997  -3.056  1.00  0.00     0.048 A 
ATOM     23  C   UNL     1       2.312  -7.715  -1.075  1.00  0.00     0.021 A 
ATOM     24  C   UNL     1       1.944  -7.787  -2.405  1.00  0.00     0.135 A 
ATOM     25  C   UNL     1       2.262  -6.354  -0.755  1.00  0.00     0.065 A 
ATOM     26  O   UNL     1       1.843  -6.522  -2.928  1.00  0.00    -0.451 OA
ENDBRANCH  14  17
ENDBRANCH   9  13
ENDBRANCH   5   8
ENDBRANCH   3   4
ENDBRANCH   2   3
ENDBRANCH   1   2
BRANCH   1  27
ATOM     27  C   UNL     1      -0.781  -9.162   2.408  1.00  0.00     0.116 C 
BRANCH  27  28
ATOM     28  N   UNL     1      -0.092 -10.442   2.439  1.00  0.00    -0.352 N 
ATOM     29  C   UNL     1      -0.561 -11.733   2.352  1.00  0.00     0.251 C 
ATOM     30  H   UNL     1       0.885 -10.373   2.541  1.00  0.00     0.163 HD
ATOM     31  O   UNL     1       0.246 -12.654   2.481  1.00  0.00    -0.269 OA
BRANCH  29  32
ATOM     32  C   UNL     1      -1.999 -12.051   2.144  1.00  0.00     0.039 A 
ATOM     33  C   UNL     1      -2.545 -13.133   2.846  1.00  0.00     0.014 A 
ATOM     34  C   UNL     1      -2.804 -11.355   1.239  1.00  0.00     0.014 A 
ATOM     35  C   UNL     1      -3.898 -13.466   2.701  1.00  0.00     0.010 A 
ATOM     36  C   UNL     1      -4.171 -11.652   1.136  1.00  0.00     0.010 A 
ATOM     37  C   UNL     1      -4.737 -12.704   1.872  1.00  0.00    -0.014 A 
BRANCH  37  38
ATOM     38  C   UNL     1      -6.200 -12.986   1.800  1.00  0.00     0.031 A 
ATOM     39  C   UNL     1      -6.836 -13.486   0.528  1.00  0.00     0.074 A 
ATOM     40  C   UNL     1      -6.975 -12.766   2.883  1.00  0.00     0.049 A 
ATOM     41  N   UNL     1      -8.094 -13.769   0.291  1.00  0.00    -0.248 NA
ATOM     42  C   UNL     1      -5.950 -13.679  -0.629  1.00  0.00     0.031 C 
ATOM     43  C   UNL     1      -6.504 -12.251   4.171  1.00  0.00     0.029 A 
ATOM     44  N   UNL     1      -8.324 -12.946   3.075  1.00  0.00    -0.354 N 
ATOM     45  C   UNL     1      -8.151 -14.173  -1.038  1.00  0.00     0.074 A 
ATOM     46  C   UNL     1      -6.809 -14.052  -1.569  1.00  0.00     0.031 C 
ATOM     47  C   UNL     1      -7.539 -12.182   5.024  1.00  0.00     0.029 A 
ATOM     48  C   UNL     1      -8.752 -12.617   4.340  1.00  0.00     0.049 A 
ATOM     49  H   UNL     1      -8.927 -13.280   2.372  1.00  0.00     0.167 HD
ATOM     50  C   UNL     1      -9.214 -14.622  -1.751  1.00  0.00     0.031 A 
ATOM     51  C   UNL     1      -9.980 -12.660   4.893  1.00  0.00     0.031 A 
ATOM     52  C   UNL     1     -10.553 -14.744  -1.235  1.00  0.00     0.049 A 
ATOM     53  C   UNL     1     -11.145 -13.155   4.079  1.00  0.00     0.074 A 
ATOM     54  C   UNL     1     -11.688 -15.205  -1.882  1.00  0.00     0.029 A 
ATOM     55  N   UNL     1     -10.939 -14.410   0.054  1.00  0.00    -0.354 N 
ATOM     56  N   UNL     1     -11.164 -13.569   2.835  1.00  0.00    -0.248 NA
ATOM     57  C   UNL     1     -12.451 -13.203   4.753  1.00  0.00     0.031 C 
ATOM     58  C   UNL     1     -12.766 -15.123  -0.993  1.00  0.00     0.029 A 
ATOM     59  C   UNL     1     -12.294 -14.651   0.220  1.00  0.00     0.049 A 
ATOM     60  H   UNL     1     -10.339 -14.055   0.749  1.00  0.00     0.167 HD
ATOM     61  C   UNL     1     -12.478 -13.951   2.587  1.00  0.00     0.074 A 
ATOM     62  C   UNL     1     -13.219 -13.736   3.812  1.00  0.00     0.031 C 
ATOM     63  C   UNL     1     -13.022 -14.437   1.444  1.00  0.00     0.031 A 
BRANCH  50  64
ATOM     64  C   UNL     1      -8.966 -15.030  -3.180  1.00  0.00    -0.014 A 
ATOM     65  C   UNL     1      -8.274 -16.219  -3.474  1.00  0.00     0.010 A 
ATOM     66  C   UNL     1      -9.466 -14.249  -4.237  1.00  0.00     0.010 A 
ATOM     67  C   UNL     1      -8.051 -16.599  -4.800  1.00  0.00     0.020 A 
ATOM     68  C   UNL     1      -9.265 -14.639  -5.566  1.00  0.00     0.020 A 
ATOM     69  C   UNL     1      -8.544 -15.803  -5.838  1.00  0.00     0.054 A 
BRANCH  69  70
ATOM     70  S   UNL     1      -8.257 -16.330  -7.550  1.00  0.00     0.124 S 
ATOM     71  O   UNL     1      -6.847 -15.997  -7.734  1.00  0.00    -0.237 OA
ATOM     72  O   UNL     1      -8.562 -17.758  -7.504  1.00  0.00    -0.237 OA
ATOM     73  O   UNL     1      -9.195 -15.521  -8.324  1.00  0.00    -0.744 OA
ENDBRANCH  69  70
ENDBRANCH  50  64
BRANCH  51  74
ATOM     74  C   UNL     1     -10.180 -12.238   6.307  1.00  0.00    -0.014 A 
ATOM     75  C   UNL     1     -10.456 -13.191   7.303  1.00  0.00     0.010 A 
ATOM     76  C   UNL     1     -10.115 -10.878   6.659  1.00  0.00     0.010 A 
ATOM     77  C   UNL     1     -10.696 -12.790   8.620  1.00  0.00     0.020 A 
ATOM     78  C   UNL     1     -10.328 -10.475   7.980  1.00  0.00     0.020 A 
ATOM     79  C   UNL     1     -10.635 -11.433   8.949  1.00  0.00     0.054 A 
BRANCH  79  80
ATOM     80  S   UNL     1     -10.919 -10.930  10.669  1.00  0.00     0.124 S 
ATOM     81  O   UNL     1     -12.375 -10.978  10.761  1.00  0.00    -0.237 OA
ATOM     82  O   UNL     1     -10.203 -11.955  11.425  1.00  0.00    -0.237 OA
ATOM     83  O   UNL     1     -10.329  -9.595  10.734  1.00  0.00    -0.744 OA
ENDBRANCH  79  80
ENDBRANCH  51  74
BRANCH  63  84
ATOM     84  C   UNL     1     -14.481 -14.806   1.479  1.00  0.00    -0.014 A 
ATOM     85  C   UNL     1     -15.482 -13.819   1.503  1.00  0.00     0.010 A 
ATOM     86  C   UNL     1     -14.854 -16.162   1.470  1.00  0.00     0.010 A 
ATOM     87  C   UNL     1     -16.831 -14.182   1.561  1.00  0.00     0.020 A 
ATOM     88  C   UNL     1     -16.202 -16.529   1.504  1.00  0.00     0.020 A 
ATOM     89  C   UNL     1     -17.182 -15.536   1.569  1.00  0.00     0.054 A 
BRANCH  89  90
ATOM     90  S   UNL     1     -18.938 -15.987   1.625  1.00  0.00     0.124 S 
ATOM     91  O   UNL     1     -19.259 -15.785   3.035  1.00  0.00    -0.237 OA
ATOM     92  O   UNL     1     -19.548 -15.035   0.699  1.00  0.00    -0.237 OA
ATOM     93  O   UNL     1     -18.952 -17.378   1.175  1.00  0.00    -0.744 OA
ENDBRANCH  89  90
ENDBRANCH  63  84
ENDBRANCH  37  38
ENDBRANCH  29  32
ENDBRANCH  27  28
ENDBRANCH   1  27
TORSDOF 16
