REMARK SMILES COC(OC)[C@@](C)(Nc1ccc(Cl)c(Br)c1)C(=O)NCCCCNC(=O)c1ccc(-c2c3nc(c(-c4ccc(S(=O)(=O)[O-])cc4)c4ccc([nH]4)c(-c4ccc(S(=O)(=O)[O-])cc4)c4nc(c(-c5ccc(S(=O)(=O)[O-])cc5)c5ccc2[nH]5)C=C4)C=C3)cc1
REMARK SMILES IDX 22 1 21 2 20 3 19 4 17 5 18 6 6 8 7 9 3 10 2 11 1 12 4 13
REMARK SMILES IDX 5 14 8 15 9 17 10 18 16 19 11 20 14 21 12 22 15 23 13 24
REMARK SMILES IDX 23 25 24 26 25 27 26 29 27 30 28 31 86 32 29 33 85 34 30 35
REMARK SMILES IDX 31 36 32 37 79 38 33 39 84 40 78 41 80 42 34 43 83 44 77 45
REMARK SMILES IDX 76 46 35 48 65 49 46 50 64 51 47 52 50 53 63 54 81 55 48 56
REMARK SMILES IDX 49 57 62 59 82 60 51 61 36 62 37 63 45 64 38 65 44 66 39 67
REMARK SMILES IDX 40 68 41 69 42 70 43 71 66 72 67 73 75 74 68 75 74 76 69 77
REMARK SMILES IDX 70 78 71 79 72 80 73 81 52 82 53 83 61 84 54 85 60 86 55 87
REMARK SMILES IDX 56 88 57 89 58 90 59 91
REMARK H PARENT 19 7 8 16 24 28 80 47 50 58
REMARK Flexibility Score: inf
ROOT
ATOM      1  C   UNL     1       7.301   2.130   0.775  1.00  0.00     0.023 C 
ENDROOT
BRANCH   1   2
ATOM      2  C   UNL     1       6.629   2.623  -0.496  1.00  0.00     0.023 C 
BRANCH   2   3
ATOM      3  C   UNL     1       5.736   1.607  -1.204  1.00  0.00     0.116 C 
BRANCH   3   4
ATOM      4  N   UNL     1       4.790   0.908  -0.346  1.00  0.00    -0.354 N 
ATOM      5  C   UNL     1       3.438   1.046  -0.145  1.00  0.00     0.250 C 
ATOM      6  O   UNL     1       2.986   0.378   0.790  1.00  0.00    -0.272 OA
ATOM      7  H   UNL     1       5.200   0.197   0.197  1.00  0.00     0.163 HD
BRANCH   5   8
ATOM      8  C   UNL     1       2.573   2.018  -0.986  1.00  0.00     0.165 C 
ATOM      9  C   UNL     1       2.710   1.603  -2.482  1.00  0.00     0.051 C 
BRANCH   8  10
ATOM     10  C   UNL     1       0.998   1.927  -0.743  1.00  0.00     0.284 C 
BRANCH  10  11
ATOM     11  O   UNL     1       0.352   0.698  -1.115  1.00  0.00    -0.353 OA
ATOM     12  C   UNL     1       0.466  -0.352  -0.166  1.00  0.00     0.198 C 
ENDBRANCH  10  11
BRANCH  10  13
ATOM     13  O   UNL     1       0.514   2.473   0.487  1.00  0.00    -0.353 OA
ATOM     14  C   UNL     1      -0.878   2.778   0.397  1.00  0.00     0.198 C 
ENDBRANCH  10  13
ENDBRANCH   8  10
BRANCH   8  15
ATOM     15  N   UNL     1       3.010   3.455  -0.831  1.00  0.00    -0.367 N 
ATOM     16  H   UNL     1       3.019   3.986  -1.660  1.00  0.00     0.161 HD
BRANCH  15  17
ATOM     17  C   UNL     1       3.402   4.134   0.320  1.00  0.00     0.036 A 
ATOM     18  C   UNL     1       3.987   3.557   1.452  1.00  0.00     0.027 A 
ATOM     19  C   UNL     1       3.322   5.538   0.325  1.00  0.00     0.043 A 
ATOM     20  C   UNL     1       4.583   4.325   2.467  1.00  0.00     0.024 A 
ATOM     21  C   UNL     1       3.856   6.320   1.367  1.00  0.00     0.038 A 
ATOM     22  C   UNL     1       4.531   5.710   2.422  1.00  0.00     0.055 A 
ATOM     23  Br  UNL     1       3.625   8.203   1.262  1.00  0.00    -0.049 Br
ATOM     24  Cl  UNL     1       5.327   6.590   3.674  1.00  0.00    -0.083 Cl
ENDBRANCH  15  17
ENDBRANCH   8  15
ENDBRANCH   5   8
ENDBRANCH   3   4
ENDBRANCH   2   3
ENDBRANCH   1   2
BRANCH   1  25
ATOM     25  C   UNL     1       8.165   0.898   0.576  1.00  0.00     0.116 C 
BRANCH  25  26
ATOM     26  N   UNL     1       9.252   1.129  -0.367  1.00  0.00    -0.352 N 
ATOM     27  C   UNL     1      10.612   1.042  -0.177  1.00  0.00     0.251 C 
ATOM     28  H   UNL     1       8.971   1.384  -1.275  1.00  0.00     0.163 HD
ATOM     29  O   UNL     1      11.376   1.474  -1.029  1.00  0.00    -0.269 OA
BRANCH  27  30
ATOM     30  C   UNL     1      11.135   0.444   1.070  1.00  0.00     0.039 A 
ATOM     31  C   UNL     1      10.508  -0.669   1.629  1.00  0.00     0.014 A 
ATOM     32  C   UNL     1      12.247   1.010   1.698  1.00  0.00     0.014 A 
ATOM     33  C   UNL     1      10.852  -1.079   2.907  1.00  0.00     0.010 A 
ATOM     34  C   UNL     1      12.684   0.498   2.924  1.00  0.00     0.010 A 
ATOM     35  C   UNL     1      11.962  -0.522   3.562  1.00  0.00    -0.014 A 
BRANCH  35  36
ATOM     36  C   UNL     1      12.354  -1.070   4.887  1.00  0.00     0.031 A 
ATOM     37  C   UNL     1      12.376  -0.203   6.116  1.00  0.00     0.074 A 
ATOM     38  C   UNL     1      12.618  -2.390   4.982  1.00  0.00     0.049 A 
ATOM     39  N   UNL     1      12.635  -0.547   7.352  1.00  0.00    -0.248 NA
ATOM     40  C   UNL     1      12.078   1.228   5.944  1.00  0.00     0.031 C 
ATOM     41  C   UNL     1      12.620  -3.325   3.852  1.00  0.00     0.029 A 
ATOM     42  N   UNL     1      12.885  -3.185   6.067  1.00  0.00    -0.354 N 
ATOM     43  C   UNL     1      12.539   0.621   8.101  1.00  0.00     0.074 A 
ATOM     44  C   UNL     1      12.249   1.692   7.175  1.00  0.00     0.031 C 
ATOM     45  C   UNL     1      12.784  -4.571   4.312  1.00  0.00     0.029 A 
ATOM     46  C   UNL     1      12.998  -4.519   5.754  1.00  0.00     0.049 A 
ATOM     47  H   UNL     1      12.986  -2.834   6.981  1.00  0.00     0.167 HD
ATOM     48  C   UNL     1      12.660   0.776   9.441  1.00  0.00     0.031 A 
ATOM     49  C   UNL     1      13.256  -5.591   6.528  1.00  0.00     0.031 A 
ATOM     50  C   UNL     1      12.946  -0.305  10.352  1.00  0.00     0.049 A 
ATOM     51  C   UNL     1      13.428  -5.386   8.003  1.00  0.00     0.074 A 
ATOM     52  C   UNL     1      13.089  -0.251  11.727  1.00  0.00     0.029 A 
ATOM     53  N   UNL     1      13.121  -1.633   9.986  1.00  0.00    -0.354 N 
ATOM     54  N   UNL     1      13.330  -4.274   8.692  1.00  0.00    -0.248 NA
ATOM     55  C   UNL     1      13.740  -6.573   8.808  1.00  0.00     0.031 C 
ATOM     56  C   UNL     1      13.422  -1.528  12.183  1.00  0.00     0.029 A 
ATOM     57  C   UNL     1      13.399  -2.401  11.106  1.00  0.00     0.049 A 
ATOM     58  H   UNL     1      13.057  -1.979   9.067  1.00  0.00     0.167 HD
ATOM     59  C   UNL     1      13.567  -4.625  10.015  1.00  0.00     0.074 A 
ATOM     60  C   UNL     1      13.773  -6.061  10.032  1.00  0.00     0.031 C 
ATOM     61  C   UNL     1      13.621  -3.828  11.110  1.00  0.00     0.031 A 
BRANCH  48  62
ATOM     62  C   UNL     1      12.478   2.160  10.020  1.00  0.00    -0.014 A 
ATOM     63  C   UNL     1      13.551   2.798  10.670  1.00  0.00     0.010 A 
ATOM     64  C   UNL     1      11.218   2.786  10.018  1.00  0.00     0.010 A 
ATOM     65  C   UNL     1      13.361   4.013  11.336  1.00  0.00     0.020 A 
ATOM     66  C   UNL     1      11.031   4.018  10.652  1.00  0.00     0.020 A 
ATOM     67  C   UNL     1      12.099   4.611  11.330  1.00  0.00     0.054 A 
BRANCH  67  68
ATOM     68  S   UNL     1      11.864   6.170  12.229  1.00  0.00     0.124 S 
ATOM     69  O   UNL     1      11.907   5.733  13.621  1.00  0.00    -0.237 OA
ATOM     70  O   UNL     1      13.003   6.969  11.782  1.00  0.00    -0.237 OA
ATOM     71  O   UNL     1      10.562   6.642  11.762  1.00  0.00    -0.744 OA
ENDBRANCH  67  68
ENDBRANCH  48  62
BRANCH  49  72
ATOM     72  C   UNL     1      13.339  -6.936   5.891  1.00  0.00    -0.014 A 
ATOM     73  C   UNL     1      14.344  -7.207   4.940  1.00  0.00     0.010 A 
ATOM     74  C   UNL     1      12.348  -7.904   6.127  1.00  0.00     0.010 A 
ATOM     75  C   UNL     1      14.305  -8.375   4.176  1.00  0.00     0.020 A 
ATOM     76  C   UNL     1      12.330  -9.095   5.393  1.00  0.00     0.020 A 
ATOM     77  C   UNL     1      13.286  -9.304   4.395  1.00  0.00     0.054 A 
BRANCH  77  78
ATOM     78  S   UNL     1      13.203 -10.767   3.326  1.00  0.00     0.124 S 
ATOM     79  O   UNL     1      12.729 -10.192   2.070  1.00  0.00    -0.237 OA
ATOM     80  O   UNL     1      14.586 -11.236   3.321  1.00  0.00    -0.237 OA
ATOM     81  O   UNL     1      12.253 -11.639   4.011  1.00  0.00    -0.744 OA
ENDBRANCH  77  78
ENDBRANCH  49  72
BRANCH  61  82
ATOM     82  C   UNL     1      13.936  -4.478  12.435  1.00  0.00    -0.014 A 
ATOM     83  C   UNL     1      12.980  -4.470  13.467  1.00  0.00     0.010 A 
ATOM     84  C   UNL     1      15.215  -5.005  12.693  1.00  0.00     0.010 A 
ATOM     85  C   UNL     1      13.303  -4.947  14.739  1.00  0.00     0.020 A 
ATOM     86  C   UNL     1      15.530  -5.519  13.954  1.00  0.00     0.020 A 
ATOM     87  C   UNL     1      14.579  -5.463  14.976  1.00  0.00     0.054 A 
BRANCH  87  88
ATOM     88  S   UNL     1      14.984  -6.066  16.638  1.00  0.00     0.124 S 
ATOM     89  O   UNL     1      15.145  -4.822  17.385  1.00  0.00    -0.237 OA
ATOM     90  O   UNL     1      13.809  -6.862  16.985  1.00  0.00    -0.237 OA
ATOM     91  O   UNL     1      16.210  -6.836  16.435  1.00  0.00    -0.744 OA
ENDBRANCH  87  88
ENDBRANCH  61  82
ENDBRANCH  35  36
ENDBRANCH  27  30
ENDBRANCH  25  26
ENDBRANCH   1  25
TORSDOF 19
