REMARK SMILES O=CN1CCC[C@@H](C(=O)NCCCCNC(=O)c2ccc(-c3c4nc(c(-c5ccc(S(=O)(=O)[O-])cc5)c5ccc([nH]5)c(-c5ccc(S(=O)(=O)[O-])cc5)c5nc(c(-c6ccc(S(=O)(=O)[O-])cc6)c6ccc3[nH]6)C=C5)C=C4)cc2)C1
REMARK SMILES IDX 13 1 12 2 11 3 10 4 8 5 9 6 7 8 3 9 4 10 78 11 5 12 6 13
REMARK SMILES IDX 2 14 1 15 14 16 15 17 16 18 17 20 18 21 19 22 77 23 20 24
REMARK SMILES IDX 76 25 21 26 22 27 23 28 70 29 24 30 75 31 69 32 71 33 25 34
REMARK SMILES IDX 74 35 68 36 67 37 26 39 56 40 37 41 55 42 38 43 41 44 54 45
REMARK SMILES IDX 72 46 39 47 40 48 53 50 73 51 42 52 27 53 28 54 36 55 29 56
REMARK SMILES IDX 35 57 30 58 31 59 32 60 33 61 34 62 57 63 58 64 66 65 59 66
REMARK SMILES IDX 65 67 60 68 61 69 62 70 63 71 64 72 43 73 44 74 52 75 45 76
REMARK SMILES IDX 51 77 46 78 47 79 48 80 49 81 50 82
REMARK H PARENT 10 7 15 19 71 38 41 49
REMARK Flexibility Score: inf
ROOT
ATOM      1  C   UNL     1       3.604   8.399   1.606  1.00  0.00     0.023 C 
ENDROOT
BRANCH   1   2
ATOM      2  C   UNL     1       4.707   7.344   1.433  1.00  0.00     0.023 C 
BRANCH   2   3
ATOM      3  C   UNL     1       4.217   5.897   1.306  1.00  0.00     0.116 C 
BRANCH   3   4
ATOM      4  N   UNL     1       3.375   5.748   0.136  1.00  0.00    -0.356 N 
ATOM      5  C   UNL     1       3.179   4.692  -0.688  1.00  0.00     0.224 C 
ATOM      6  O   UNL     1       2.553   4.898  -1.729  1.00  0.00    -0.275 OA
ATOM      7  H   UNL     1       2.857   6.552  -0.100  1.00  0.00     0.163 HD
BRANCH   5   8
ATOM      8  C   UNL     1       3.725   3.319  -0.341  1.00  0.00     0.098 C 
ATOM      9  N   UNL     1       3.127   0.936  -0.722  1.00  0.00    -0.344 N 
ATOM     10  C   UNL     1       4.332   0.664  -1.484  1.00  0.00     0.119 C 
ATOM     11  C   UNL     1       2.641   2.307  -0.744  1.00  0.00     0.132 C 
ATOM     12  C   UNL     1       5.460   1.584  -1.032  1.00  0.00     0.022 C 
ATOM     13  C   UNL     1       5.043   3.058  -1.088  1.00  0.00     0.017 C 
BRANCH   9  14
ATOM     14  C   UNL     1       2.369  -0.068  -0.163  1.00  0.00     0.339 C 
ATOM     15  O   UNL     1       1.301   0.077   0.420  1.00  0.00    -0.279 OA
ENDBRANCH   9  14
ENDBRANCH   5   8
ENDBRANCH   3   4
ENDBRANCH   2   3
ENDBRANCH   1   2
BRANCH   1  16
ATOM     16  C   UNL     1       2.768   8.263   2.875  1.00  0.00     0.116 C 
BRANCH  16  17
ATOM     17  N   UNL     1       3.534   8.583   4.067  1.00  0.00    -0.352 N 
ATOM     18  C   UNL     1       3.238   9.451   5.091  1.00  0.00     0.251 C 
ATOM     19  H   UNL     1       4.392   8.109   4.154  1.00  0.00     0.163 HD
ATOM     20  O   UNL     1       4.111   9.725   5.912  1.00  0.00    -0.269 OA
BRANCH  18  21
ATOM     21  C   UNL     1       1.896  10.073   5.202  1.00  0.00     0.039 A 
ATOM     22  C   UNL     1       1.809  11.411   5.599  1.00  0.00     0.014 A 
ATOM     23  C   UNL     1       0.726   9.348   4.955  1.00  0.00     0.014 A 
ATOM     24  C   UNL     1       0.559  12.031   5.700  1.00  0.00     0.010 A 
ATOM     25  C   UNL     1      -0.514   9.989   4.982  1.00  0.00     0.010 A 
ATOM     26  C   UNL     1      -0.614  11.335   5.363  1.00  0.00    -0.014 A 
BRANCH  26  27
ATOM     27  C   UNL     1      -1.942  12.007   5.405  1.00  0.00     0.031 A 
ATOM     28  C   UNL     1      -3.013  11.534   6.354  1.00  0.00     0.074 A 
ATOM     29  C   UNL     1      -2.202  13.025   4.559  1.00  0.00     0.049 A 
ATOM     30  N   UNL     1      -4.229  11.991   6.520  1.00  0.00    -0.248 NA
ATOM     31  C   UNL     1      -2.684  10.387   7.215  1.00  0.00     0.031 C 
ATOM     32  C   UNL     1      -1.269  13.557   3.562  1.00  0.00     0.029 A 
ATOM     33  N   UNL     1      -3.328  13.796   4.400  1.00  0.00    -0.354 N 
ATOM     34  C   UNL     1      -4.812  11.183   7.491  1.00  0.00     0.074 A 
ATOM     35  C   UNL     1      -3.834  10.175   7.839  1.00  0.00     0.031 C 
ATOM     36  C   UNL     1      -1.847  14.586   2.922  1.00  0.00     0.029 A 
ATOM     37  C   UNL     1      -3.204  14.762   3.429  1.00  0.00     0.049 A 
ATOM     38  H   UNL     1      -4.146  13.669   4.932  1.00  0.00     0.167 HD
ATOM     39  C   UNL     1      -6.039  11.281   8.057  1.00  0.00     0.031 A 
ATOM     40  C   UNL     1      -4.082  15.686   2.989  1.00  0.00     0.031 A 
ATOM     41  C   UNL     1      -7.012  12.285   7.711  1.00  0.00     0.049 A 
ATOM     42  C   UNL     1      -5.444  15.765   3.623  1.00  0.00     0.074 A 
ATOM     43  C   UNL     1      -8.265  12.496   8.262  1.00  0.00     0.029 A 
ATOM     44  N   UNL     1      -6.847  13.244   6.722  1.00  0.00    -0.354 N 
ATOM     45  N   UNL     1      -5.951  15.032   4.586  1.00  0.00    -0.248 NA
ATOM     46  C   UNL     1      -6.348  16.811   3.122  1.00  0.00     0.031 C 
ATOM     47  C   UNL     1      -8.880  13.542   7.568  1.00  0.00     0.029 A 
ATOM     48  C   UNL     1      -7.983  14.032   6.632  1.00  0.00     0.049 A 
ATOM     49  H   UNL     1      -6.041  13.349   6.167  1.00  0.00     0.167 HD
ATOM     50  C   UNL     1      -7.219  15.550   4.829  1.00  0.00     0.074 A 
ATOM     51  C   UNL     1      -7.394  16.668   3.923  1.00  0.00     0.031 C 
ATOM     52  C   UNL     1      -8.151  15.141   5.725  1.00  0.00     0.031 A 
BRANCH  39  53
ATOM     53  C   UNL     1      -6.406  10.265   9.110  1.00  0.00    -0.014 A 
ATOM     54  C   UNL     1      -5.772  10.256  10.366  1.00  0.00     0.010 A 
ATOM     55  C   UNL     1      -7.432   9.335   8.859  1.00  0.00     0.010 A 
ATOM     56  C   UNL     1      -6.125   9.310  11.333  1.00  0.00     0.020 A 
ATOM     57  C   UNL     1      -7.811   8.408   9.835  1.00  0.00     0.020 A 
ATOM     58  C   UNL     1      -7.142   8.390  11.060  1.00  0.00     0.054 A 
BRANCH  58  59
ATOM     59  S   UNL     1      -7.594   7.190  12.342  1.00  0.00     0.124 S 
ATOM     60  O   UNL     1      -6.436   6.299  12.343  1.00  0.00    -0.237 OA
ATOM     61  O   UNL     1      -7.740   8.029  13.529  1.00  0.00    -0.237 OA
ATOM     62  O   UNL     1      -8.833   6.598  11.844  1.00  0.00    -0.744 OA
ENDBRANCH  58  59
ENDBRANCH  39  53
BRANCH  40  63
ATOM     63  C   UNL     1      -3.691  16.625   1.901  1.00  0.00    -0.014 A 
ATOM     64  C   UNL     1      -3.507  17.994   2.167  1.00  0.00     0.010 A 
ATOM     65  C   UNL     1      -3.494  16.153   0.590  1.00  0.00     0.010 A 
ATOM     66  C   UNL     1      -3.155  18.875   1.140  1.00  0.00     0.020 A 
ATOM     67  C   UNL     1      -3.110  17.025  -0.432  1.00  0.00     0.020 A 
ATOM     68  C   UNL     1      -2.956  18.384  -0.153  1.00  0.00     0.054 A 
BRANCH  68  69
ATOM     69  S   UNL     1      -2.451  19.539  -1.459  1.00  0.00     0.124 S 
ATOM     70  O   UNL     1      -3.677  20.298  -1.684  1.00  0.00    -0.237 OA
ATOM     71  O   UNL     1      -1.358  20.272  -0.825  1.00  0.00    -0.237 OA
ATOM     72  O   UNL     1      -2.048  18.660  -2.555  1.00  0.00    -0.744 OA
ENDBRANCH  68  69
ENDBRANCH  40  63
BRANCH  52  73
ATOM     73  C   UNL     1      -9.430  15.935   5.808  1.00  0.00    -0.014 A 
ATOM     74  C   UNL     1     -10.380  15.915   4.771  1.00  0.00     0.010 A 
ATOM     75  C   UNL     1      -9.698  16.692   6.965  1.00  0.00     0.010 A 
ATOM     76  C   UNL     1     -11.550  16.674   4.869  1.00  0.00     0.020 A 
ATOM     77  C   UNL     1     -10.881  17.425   7.081  1.00  0.00     0.020 A 
ATOM     78  C   UNL     1     -11.791  17.427   6.022  1.00  0.00     0.054 A 
BRANCH  78  79
ATOM     79  S   UNL     1     -13.325  18.388   6.134  1.00  0.00     0.124 S 
ATOM     80  O   UNL     1     -13.066  19.483   5.202  1.00  0.00    -0.237 OA
ATOM     81  O   UNL     1     -14.338  17.426   5.707  1.00  0.00    -0.237 OA
ATOM     82  O   UNL     1     -13.393  18.772   7.542  1.00  0.00    -0.744 OA
ENDBRANCH  78  79
ENDBRANCH  52  73
ENDBRANCH  26  27
ENDBRANCH  18  21
ENDBRANCH  16  17
ENDBRANCH   1  16
TORSDOF 15
