REMARK SMILES CC[NH2+][C@]1(C(=O)NCCCCNC(=O)c2ccc(-c3c4nc(c(-c5ccc(S(=O)(=O)[O-])cc5)c5ccc([nH]5)c(-c5ccc(S(=O)(=O)[O-])cc5)c5nc(c(-c6ccc(S(=O)(=O)[O-])cc6)c6ccc3[nH]6)C=C5)C=C4)cc2)CCC[C@@H]1CCSc1ccccc1F
REMARK SMILES IDX 9 1 8 2 7 3 5 4 6 5 4 7 75 8 78 9 76 10 77 11 3 12 2 15 1 16
REMARK SMILES IDX 79 17 80 18 81 19 82 20 83 21 87 22 84 23 86 24 88 25 85 26
REMARK SMILES IDX 10 27 11 28 12 29 13 30 14 32 15 33 16 34 74 35 17 36 73 37
REMARK SMILES IDX 18 38 19 39 20 40 67 41 21 42 72 43 66 44 68 45 22 46 71 47
REMARK SMILES IDX 65 48 64 49 23 51 53 52 34 53 52 54 35 55 38 56 51 57 69 58
REMARK SMILES IDX 36 59 37 60 50 62 70 63 39 64 24 65 25 66 33 67 26 68 32 69
REMARK SMILES IDX 27 70 28 71 29 72 30 73 31 74 54 75 55 76 63 77 56 78 62 79
REMARK SMILES IDX 57 80 58 81 59 82 60 83 61 84 40 85 41 86 49 87 42 88 48 89
REMARK SMILES IDX 43 90 44 91 45 92 46 93 47 94
REMARK H PARENT 7 6 3 13 3 14 12 31 68 50 38 61
REMARK Flexibility Score: inf
ROOT
ATOM      1  C   UNL     1       4.561   2.208   2.132  1.00  0.00     0.023 C 
ENDROOT
BRANCH   1   2
ATOM      2  C   UNL     1       3.290   3.029   1.953  1.00  0.00     0.116 C 
BRANCH   2   3
ATOM      3  N   UNL     1       2.188   2.303   1.341  1.00  0.00    -0.351 N 
ATOM      4  C   UNL     1       1.003   1.878   1.900  1.00  0.00     0.281 C 
ATOM      5  O   UNL     1       0.234   1.223   1.194  1.00  0.00    -0.268 OA
ATOM      6  H   UNL     1       2.307   2.082   0.389  1.00  0.00     0.163 HD
BRANCH   4   7
ATOM      7  C   UNL     1       0.693   2.189   3.400  1.00  0.00     0.178 C 
ATOM      8  C   UNL     1       0.591   3.745   3.526  1.00  0.00     0.079 C 
ATOM      9  C   UNL     1      -0.768   1.875   3.866  1.00  0.00     0.061 C 
ATOM     10  C   UNL     1      -0.186   4.049   4.793  1.00  0.00     0.008 C 
ATOM     11  C   UNL     1      -0.982   2.794   5.083  1.00  0.00     0.011 C 
BRANCH   7  12
ATOM     12  N   UNL     1       1.734   1.596   4.285  1.00  0.00    -0.334 N 
ATOM     13  H   UNL     1       2.579   2.163   4.215  1.00  0.00     0.347 HD
ATOM     14  H   UNL     1       1.354   1.584   5.231  1.00  0.00     0.347 HD
BRANCH  12  15
ATOM     15  C   UNL     1       2.076   0.206   3.938  1.00  0.00     0.257 C 
ATOM     16  C   UNL     1       3.104  -0.354   4.908  1.00  0.00     0.071 C 
ENDBRANCH  12  15
ENDBRANCH   7  12
BRANCH   9  17
ATOM     17  C   UNL     1      -1.232   0.446   4.162  1.00  0.00     0.022 C 
BRANCH  17  18
ATOM     18  C   UNL     1      -2.713   0.336   4.583  1.00  0.00     0.075 C 
BRANCH  18  19
ATOM     19  S   UNL     1      -3.952   0.491   3.233  1.00  0.00    -0.123 SA
BRANCH  19  20
ATOM     20  C   UNL     1      -4.213   2.258   3.130  1.00  0.00     0.043 A 
ATOM     21  C   UNL     1      -5.152   2.893   3.952  1.00  0.00     0.018 A 
ATOM     22  C   UNL     1      -3.554   3.030   2.167  1.00  0.00     0.136 A 
ATOM     23  C   UNL     1      -5.371   4.274   3.844  1.00  0.00     0.001 A 
ATOM     24  C   UNL     1      -3.724   4.411   2.093  1.00  0.00     0.040 A 
ATOM     25  F   UNL     1      -2.713   2.458   1.292  1.00  0.00    -0.206 F 
ATOM     26  C   UNL     1      -4.638   5.037   2.933  1.00  0.00     0.003 A 
ENDBRANCH  19  20
ENDBRANCH  18  19
ENDBRANCH  17  18
ENDBRANCH   9  17
ENDBRANCH   4   7
ENDBRANCH   2   3
ENDBRANCH   1   2
BRANCH   1  27
ATOM     27  C   UNL     1       5.279   1.848   0.842  1.00  0.00     0.023 C 
BRANCH  27  28
ATOM     28  C   UNL     1       5.631   3.038  -0.037  1.00  0.00     0.116 C 
BRANCH  28  29
ATOM     29  N   UNL     1       6.405   4.057   0.661  1.00  0.00    -0.352 N 
ATOM     30  C   UNL     1       7.573   4.668   0.280  1.00  0.00     0.251 C 
ATOM     31  H   UNL     1       6.038   4.348   1.528  1.00  0.00     0.163 HD
ATOM     32  O   UNL     1       8.168   5.407   1.062  1.00  0.00    -0.269 OA
BRANCH  30  33
ATOM     33  C   UNL     1       8.123   4.404  -1.064  1.00  0.00     0.039 A 
ATOM     34  C   UNL     1       9.478   4.100  -1.194  1.00  0.00     0.014 A 
ATOM     35  C   UNL     1       7.287   4.409  -2.184  1.00  0.00     0.014 A 
ATOM     36  C   UNL     1       9.980   3.731  -2.443  1.00  0.00     0.010 A 
ATOM     37  C   UNL     1       7.767   3.948  -3.403  1.00  0.00     0.010 A 
ATOM     38  C   UNL     1       9.120   3.611  -3.548  1.00  0.00    -0.014 A 
BRANCH  38  39
ATOM     39  C   UNL     1       9.621   3.133  -4.861  1.00  0.00     0.031 A 
ATOM     40  C   UNL     1       9.556   4.031  -6.067  1.00  0.00     0.074 A 
ATOM     41  C   UNL     1      10.088   1.874  -4.976  1.00  0.00     0.049 A 
ATOM     42  N   UNL     1       9.931   3.786  -7.296  1.00  0.00    -0.248 NA
ATOM     43  C   UNL     1       8.972   5.369  -5.874  1.00  0.00     0.031 C 
ATOM     44  C   UNL     1      10.152   0.890  -3.891  1.00  0.00     0.029 A 
ATOM     45  N   UNL     1      10.600   1.204  -6.058  1.00  0.00    -0.354 N 
ATOM     46  C   UNL     1       9.618   4.930  -8.021  1.00  0.00     0.074 A 
ATOM     47  C   UNL     1       8.968   5.845  -7.110  1.00  0.00     0.031 C 
ATOM     48  C   UNL     1      10.711  -0.240  -4.354  1.00  0.00     0.029 A 
ATOM     49  C   UNL     1      11.006  -0.078  -5.773  1.00  0.00     0.049 A 
ATOM     50  H   UNL     1      10.670   1.605  -6.955  1.00  0.00     0.167 HD
ATOM     51  C   UNL     1       9.871   5.205  -9.323  1.00  0.00     0.031 A 
ATOM     52  C   UNL     1      11.556  -1.019  -6.566  1.00  0.00     0.031 A 
ATOM     53  C   UNL     1      10.525   4.293 -10.224  1.00  0.00     0.049 A 
ATOM     54  C   UNL     1      11.820  -0.692  -8.010  1.00  0.00     0.074 A 
ATOM     55  C   UNL     1      10.877   4.496 -11.547  1.00  0.00     0.029 A 
ATOM     56  N   UNL     1      10.921   3.005  -9.897  1.00  0.00    -0.354 N 
ATOM     57  N   UNL     1      11.584   0.423  -8.660  1.00  0.00    -0.248 NA
ATOM     58  C   UNL     1      12.440  -1.746  -8.823  1.00  0.00     0.031 C 
ATOM     59  C   UNL     1      11.434   3.310 -12.036  1.00  0.00     0.029 A 
ATOM     60  C   UNL     1      11.491   2.392 -11.000  1.00  0.00     0.049 A 
ATOM     61  H   UNL     1      10.814   2.588  -9.011  1.00  0.00     0.167 HD
ATOM     62  C   UNL     1      12.050   0.213  -9.953  1.00  0.00     0.074 A 
ATOM     63  C   UNL     1      12.601  -1.127  -9.985  1.00  0.00     0.031 C 
ATOM     64  C   UNL     1      12.027   1.053 -11.018  1.00  0.00     0.031 A 
BRANCH  51  65
ATOM     65  C   UNL     1       9.437   6.550  -9.847  1.00  0.00    -0.014 A 
ATOM     66  C   UNL     1      10.064   7.735  -9.418  1.00  0.00     0.010 A 
ATOM     67  C   UNL     1       8.413   6.629 -10.808  1.00  0.00     0.010 A 
ATOM     68  C   UNL     1       9.647   8.975  -9.907  1.00  0.00     0.020 A 
ATOM     69  C   UNL     1       8.014   7.866 -11.325  1.00  0.00     0.020 A 
ATOM     70  C   UNL     1       8.623   9.033 -10.857  1.00  0.00     0.054 A 
BRANCH  70  71
ATOM     71  S   UNL     1       8.121  10.655 -11.494  1.00  0.00     0.124 S 
ATOM     72  O   UNL     1       7.423  11.226 -10.345  1.00  0.00    -0.237 OA
ATOM     73  O   UNL     1       9.400  11.278 -11.825  1.00  0.00    -0.237 OA
ATOM     74  O   UNL     1       7.273  10.332 -12.639  1.00  0.00    -0.744 OA
ENDBRANCH  70  71
ENDBRANCH  51  65
BRANCH  52  75
ATOM     75  C   UNL     1      11.913  -2.351  -6.003  1.00  0.00    -0.014 A 
ATOM     76  C   UNL     1      13.260  -2.725  -5.854  1.00  0.00     0.010 A 
ATOM     77  C   UNL     1      10.907  -3.249  -5.604  1.00  0.00     0.010 A 
ATOM     78  C   UNL     1      13.594  -3.981  -5.336  1.00  0.00     0.020 A 
ATOM     79  C   UNL     1      11.237  -4.493  -5.057  1.00  0.00     0.020 A 
ATOM     80  C   UNL     1      12.580  -4.856  -4.939  1.00  0.00     0.054 A 
BRANCH  80  81
ATOM     81  S   UNL     1      13.038  -6.460  -4.225  1.00  0.00     0.124 S 
ATOM     82  O   UNL     1      13.516  -7.188  -5.395  1.00  0.00    -0.237 OA
ATOM     83  O   UNL     1      14.059  -6.089  -3.248  1.00  0.00    -0.237 OA
ATOM     84  O   UNL     1      11.786  -6.948  -3.650  1.00  0.00    -0.744 OA
ENDBRANCH  80  81
ENDBRANCH  52  75
BRANCH  64  85
ATOM     85  C   UNL     1      12.642   0.557 -12.300  1.00  0.00    -0.014 A 
ATOM     86  C   UNL     1      12.033  -0.458 -13.059  1.00  0.00     0.010 A 
ATOM     87  C   UNL     1      13.832   1.144 -12.770  1.00  0.00     0.010 A 
ATOM     88  C   UNL     1      12.628  -0.910 -14.240  1.00  0.00     0.020 A 
ATOM     89  C   UNL     1      14.411   0.718 -13.967  1.00  0.00     0.020 A 
ATOM     90  C   UNL     1      13.815  -0.320 -14.685  1.00  0.00     0.054 A 
BRANCH  90  91
ATOM     91  S   UNL     1      14.555  -0.908 -16.233  1.00  0.00     0.124 S 
ATOM     92  O   UNL     1      15.095  -2.206 -15.837  1.00  0.00    -0.237 OA
ATOM     93  O   UNL     1      13.409  -0.954 -17.138  1.00  0.00    -0.237 OA
ATOM     94  O   UNL     1      15.552   0.111 -16.550  1.00  0.00    -0.744 OA
ENDBRANCH  90  91
ENDBRANCH  64  85
ENDBRANCH  38  39
ENDBRANCH  30  33
ENDBRANCH  28  29
ENDBRANCH  27  28
ENDBRANCH   1  27
TORSDOF 20
