REMARK SMILES O=C(NCCCCNC(=O)[C@H]1CS[C@H](c2cc(F)ccc2F)[NH2+]1)c1ccc(-c2c3nc(c(-c4ccc(S(=O)(=O)[O-])cc4)c4ccc([nH]4)c(-c4ccc(S(=O)(=O)[O-])cc4)c4nc(c(-c5ccc(S(=O)(=O)[O-])cc5)c5ccc2[nH]5)C=C4)C=C3)cc1
REMARK SMILES IDX 4 1 3 2 1 3 2 4 24 6 25 7 83 8 26 9 82 10 27 11 28 12 29 13
REMARK SMILES IDX 76 14 30 15 81 16 75 17 77 18 31 19 80 20 74 21 73 22 32 24
REMARK SMILES IDX 62 25 43 26 61 27 44 28 47 29 60 30 78 31 45 32 46 33 59 35
REMARK SMILES IDX 79 36 48 37 33 38 34 39 42 40 35 41 41 42 36 43 37 44 38 45
REMARK SMILES IDX 39 46 40 47 63 48 64 49 72 50 65 51 71 52 66 53 67 54 68 55
REMARK SMILES IDX 69 56 70 57 49 58 50 59 58 60 51 61 57 62 52 63 53 64 54 65
REMARK SMILES IDX 55 66 56 67 5 68 6 69 7 70 8 71 9 72 10 74 11 75 12 76 23 77
REMARK SMILES IDX 13 78 14 79 15 82 16 83 21 84 17 85 20 86 22 87 18 88 19 89
REMARK H PARENT 3 5 77 23 47 34 8 73 23 80 23 81
REMARK Flexibility Score: inf
ROOT
ATOM      1  C   UNL     1       4.608   0.951   0.891  1.00  0.00     0.116 C 
ENDROOT
BRANCH   1   2
ATOM      2  N   UNL     1       3.179   0.687   0.860  1.00  0.00    -0.352 N 
ATOM      3  O   UNL     1       1.214   0.064  -0.051  1.00  0.00    -0.269 OA
ATOM      4  C   UNL     1       2.441   0.072  -0.122  1.00  0.00     0.251 C 
ATOM      5  H   UNL     1       2.672   0.989   1.648  1.00  0.00     0.163 HD
BRANCH   4   6
ATOM      6  C   UNL     1       3.126  -0.556  -1.272  1.00  0.00     0.039 A 
ATOM      7  C   UNL     1       4.226  -1.397  -1.074  1.00  0.00     0.014 A 
ATOM      8  C   UNL     1       2.651  -0.312  -2.563  1.00  0.00     0.014 A 
ATOM      9  C   UNL     1       4.913  -1.908  -2.171  1.00  0.00     0.010 A 
ATOM     10  C   UNL     1       3.302  -0.882  -3.661  1.00  0.00     0.010 A 
ATOM     11  C   UNL     1       4.446  -1.673  -3.474  1.00  0.00    -0.014 A 
BRANCH  11  12
ATOM     12  C   UNL     1       5.101  -2.349  -4.621  1.00  0.00     0.031 A 
ATOM     13  C   UNL     1       5.833  -1.569  -5.676  1.00  0.00     0.074 A 
ATOM     14  C   UNL     1       5.009  -3.691  -4.707  1.00  0.00     0.049 A 
ATOM     15  N   UNL     1       6.433  -2.011  -6.752  1.00  0.00    -0.248 NA
ATOM     16  C   UNL     1       5.899  -0.108  -5.510  1.00  0.00     0.031 C 
ATOM     17  C   UNL     1       4.307  -4.551  -3.748  1.00  0.00     0.029 A 
ATOM     18  N   UNL     1       5.500  -4.569  -5.639  1.00  0.00    -0.354 N 
ATOM     19  C   UNL     1       6.924  -0.887  -7.406  1.00  0.00     0.074 A 
ATOM     20  C   UNL     1       6.546   0.262  -6.609  1.00  0.00     0.031 C 
ATOM     21  C   UNL     1       4.429  -5.830  -4.131  1.00  0.00     0.029 A 
ATOM     22  C   UNL     1       5.162  -5.878  -5.390  1.00  0.00     0.049 A 
ATOM     23  H   UNL     1       6.041  -4.289  -6.412  1.00  0.00     0.167 HD
ATOM     24  C   UNL     1       7.623  -0.824  -8.564  1.00  0.00     0.031 A 
ATOM     25  C   UNL     1       5.384  -6.994  -6.109  1.00  0.00     0.031 A 
ATOM     26  C   UNL     1       8.002  -1.975  -9.343  1.00  0.00     0.049 A 
ATOM     27  C   UNL     1       6.131  -6.888  -7.406  1.00  0.00     0.074 A 
ATOM     28  C   UNL     1       8.776  -2.018 -10.490  1.00  0.00     0.029 A 
ATOM     29  N   UNL     1       7.623  -3.280  -9.068  1.00  0.00    -0.354 N 
ATOM     30  N   UNL     1       6.654  -5.823  -7.966  1.00  0.00    -0.248 NA
ATOM     31  C   UNL     1       6.313  -8.128  -8.172  1.00  0.00     0.031 C 
ATOM     32  C   UNL     1       8.814  -3.340 -10.943  1.00  0.00     0.029 A 
ATOM     33  C   UNL     1       8.108  -4.129 -10.049  1.00  0.00     0.049 A 
ATOM     34  H   UNL     1       7.089  -3.562  -8.291  1.00  0.00     0.167 HD
ATOM     35  C   UNL     1       7.233  -6.267  -9.148  1.00  0.00     0.074 A 
ATOM     36  C   UNL     1       7.018  -7.698  -9.210  1.00  0.00     0.031 C 
ATOM     37  C   UNL     1       7.878  -5.550 -10.100  1.00  0.00     0.031 A 
BRANCH  24  38
ATOM     38  C   UNL     1       8.008   0.533  -9.091  1.00  0.00    -0.014 A 
ATOM     39  C   UNL     1       9.050   1.275  -8.509  1.00  0.00     0.010 A 
ATOM     40  C   UNL     1       7.377   1.029 -10.248  1.00  0.00     0.010 A 
ATOM     41  C   UNL     1       9.441   2.499  -9.063  1.00  0.00     0.020 A 
ATOM     42  C   UNL     1       7.779   2.242 -10.816  1.00  0.00     0.020 A 
ATOM     43  C   UNL     1       8.802   2.974 -10.213  1.00  0.00     0.054 A 
BRANCH  43  44
ATOM     44  S   UNL     1       9.363   4.541 -10.938  1.00  0.00     0.124 S 
ATOM     45  O   UNL     1       8.841   5.517  -9.984  1.00  0.00    -0.237 OA
ATOM     46  O   UNL     1      10.816   4.388 -10.947  1.00  0.00    -0.237 OA
ATOM     47  O   UNL     1       8.734   4.560 -12.255  1.00  0.00    -0.744 OA
ENDBRANCH  43  44
ENDBRANCH  24  38
BRANCH  25  48
ATOM     48  C   UNL     1       4.842  -8.296  -5.638  1.00  0.00    -0.014 A 
ATOM     49  C   UNL     1       5.698  -9.309  -5.176  1.00  0.00     0.010 A 
ATOM     50  C   UNL     1       3.451  -8.518  -5.634  1.00  0.00     0.010 A 
ATOM     51  C   UNL     1       5.175 -10.529  -4.737  1.00  0.00     0.020 A 
ATOM     52  C   UNL     1       2.924  -9.725  -5.169  1.00  0.00     0.020 A 
ATOM     53  C   UNL     1       3.791 -10.729  -4.737  1.00  0.00     0.054 A 
BRANCH  53  54
ATOM     54  S   UNL     1       3.129 -12.302  -4.123  1.00  0.00     0.124 S 
ATOM     55  O   UNL     1       3.392 -13.197  -5.245  1.00  0.00    -0.237 OA
ATOM     56  O   UNL     1       3.930 -12.538  -2.924  1.00  0.00    -0.237 OA
ATOM     57  O   UNL     1       1.721 -12.004  -3.873  1.00  0.00    -0.744 OA
ENDBRANCH  53  54
ENDBRANCH  25  48
BRANCH  37  58
ATOM     58  C   UNL     1       8.403  -6.304 -11.290  1.00  0.00    -0.014 A 
ATOM     59  C   UNL     1       7.532  -6.762 -12.293  1.00  0.00     0.010 A 
ATOM     60  C   UNL     1       9.788  -6.500 -11.438  1.00  0.00     0.010 A 
ATOM     61  C   UNL     1       8.036  -7.421 -13.417  1.00  0.00     0.020 A 
ATOM     62  C   UNL     1      10.297  -7.136 -12.572  1.00  0.00     0.020 A 
ATOM     63  C   UNL     1       9.416  -7.601 -13.551  1.00  0.00     0.054 A 
BRANCH  63  64
ATOM     64  S   UNL     1      10.050  -8.403 -15.049  1.00  0.00     0.124 S 
ATOM     65  O   UNL     1       9.709  -9.803 -14.812  1.00  0.00    -0.237 OA
ATOM     66  O   UNL     1       9.294  -7.743 -16.111  1.00  0.00    -0.237 OA
ATOM     67  O   UNL     1      11.479  -8.097 -15.027  1.00  0.00    -0.744 OA
ENDBRANCH  63  64
ENDBRANCH  37  58
ENDBRANCH  11  12
ENDBRANCH   4   6
ENDBRANCH   1   2
BRANCH   1  68
ATOM     68  C   UNL     1       4.933   2.393   1.266  1.00  0.00     0.023 C 
BRANCH  68  69
ATOM     69  C   UNL     1       4.457   2.835   2.653  1.00  0.00     0.023 C 
BRANCH  69  70
ATOM     70  C   UNL     1       4.904   1.940   3.808  1.00  0.00     0.116 C 
BRANCH  70  71
ATOM     71  N   UNL     1       6.350   1.861   3.905  1.00  0.00    -0.351 N 
ATOM     72  C   UNL     1       7.188   2.249   4.904  1.00  0.00     0.279 C 
ATOM     73  H   UNL     1       6.796   1.463   3.123  1.00  0.00     0.163 HD
ATOM     74  O   UNL     1       8.403   2.165   4.702  1.00  0.00    -0.268 OA
BRANCH  72  75
ATOM     75  C   UNL     1       6.641   2.813   6.223  1.00  0.00     0.283 C 
ATOM     76  C   UNL     1       7.341   2.126   7.400  1.00  0.00     0.151 C 
ATOM     77  N   UNL     1       6.905   4.278   6.245  1.00  0.00    -0.320 N 
ATOM     78  S   UNL     1       7.836   3.450   8.525  1.00  0.00    -0.087 SA
ATOM     79  C   UNL     1       6.873   4.718   7.638  1.00  0.00     0.277 C 
ATOM     80  H   UNL     1       6.187   4.768   5.711  1.00  0.00     0.348 HD
ATOM     81  H   UNL     1       7.813   4.483   5.828  1.00  0.00     0.348 HD
BRANCH  79  82
ATOM     82  C   UNL     1       5.500   4.933   8.257  1.00  0.00     0.059 A 
ATOM     83  C   UNL     1       5.401   5.173   9.646  1.00  0.00     0.053 A 
ATOM     84  C   UNL     1       4.303   4.964   7.524  1.00  0.00     0.133 A 
ATOM     85  C   UNL     1       4.164   5.359  10.259  1.00  0.00     0.123 A 
ATOM     86  C   UNL     1       3.063   5.152   8.144  1.00  0.00     0.043 A 
ATOM     87  F   UNL     1       4.293   4.803   6.194  1.00  0.00    -0.206 F 
ATOM     88  F   UNL     1       4.109   5.557  11.582  1.00  0.00    -0.207 F 
ATOM     89  C   UNL     1       2.991   5.340   9.521  1.00  0.00     0.042 A 
ENDBRANCH  79  82
ENDBRANCH  72  75
ENDBRANCH  70  71
ENDBRANCH  69  70
ENDBRANCH  68  69
ENDBRANCH   1  68
TORSDOF 15
