REMARK SMILES C=CCN(CC(=O)NCCCCNC(=O)c1ccc(-c2c3nc(c(-c4ccc(S(=O)(=O)[O-])cc4)c4ccc([nH]4)c(-c4ccc(S(=O)(=O)[O-])cc4)c4nc(c(-c5ccc(S(=O)(=O)[O-])cc5)c5ccc2[nH]5)C=C4)C=C3)cc1)C(=O)c1cc(=O)[nH]c(O)n1
REMARK SMILES IDX 10 1 9 2 8 3 6 4 7 5 5 7 4 8 3 9 2 10 1 11 76 12 77 13 78 14
REMARK SMILES IDX 79 15 85 16 80 17 83 18 81 19 82 20 84 22 11 24 12 25 13 26
REMARK SMILES IDX 14 27 15 29 16 30 17 31 75 32 18 33 74 34 19 35 20 36 21 37
REMARK SMILES IDX 68 38 22 39 73 40 67 41 69 42 23 43 72 44 66 45 65 46 24 48
REMARK SMILES IDX 54 49 35 50 53 51 36 52 39 53 52 54 70 55 37 56 38 57 51 59
REMARK SMILES IDX 71 60 40 61 25 62 26 63 34 64 27 65 33 66 28 67 29 68 30 69
REMARK SMILES IDX 31 70 32 71 55 72 56 73 64 74 57 75 63 76 58 77 59 78 60 79
REMARK SMILES IDX 61 80 62 81 41 82 42 83 50 84 43 85 49 86 44 87 45 88 46 89
REMARK SMILES IDX 47 90 48 91
REMARK H PARENT 8 6 82 21 84 23 13 28 69 47 39 58
REMARK Flexibility Score: inf
ROOT
ATOM      1  C   UNL     1      -4.088  -0.111  -0.801  1.00  0.00     0.023 C 
ENDROOT
BRANCH   1   2
ATOM      2  C   UNL     1      -4.314  -0.694   0.591  1.00  0.00     0.116 C 
BRANCH   2   3
ATOM      3  N   UNL     1      -4.656  -2.095   0.571  1.00  0.00    -0.355 N 
ATOM      4  C   UNL     1      -3.892  -3.187   0.855  1.00  0.00     0.239 C 
ATOM      5  O   UNL     1      -4.503  -4.246   1.060  1.00  0.00    -0.273 OA
ATOM      6  H   UNL     1      -5.585  -2.293   0.313  1.00  0.00     0.163 HD
BRANCH   4   7
ATOM      7  C   UNL     1      -2.362  -3.102   1.087  1.00  0.00     0.220 C 
BRANCH   7   8
ATOM      8  N   UNL     1      -1.541  -2.325   0.140  1.00  0.00    -0.324 N 
BRANCH   8   9
ATOM      9  C   UNL     1      -1.006  -1.042   0.585  1.00  0.00     0.147 C 
BRANCH   9  10
ATOM     10  C   UNL     1       0.487  -1.077   0.716  1.00  0.00    -0.014 C 
ATOM     11  C   UNL     1       1.292  -0.224   0.064  1.00  0.00     0.006 C 
ENDBRANCH   9  10
ENDBRANCH   8   9
BRANCH   8  12
ATOM     12  C   UNL     1      -1.212  -2.755  -1.149  1.00  0.00     0.273 C 
ATOM     13  O   UNL     1      -0.539  -2.074  -1.926  1.00  0.00    -0.267 OA
BRANCH  12  14
ATOM     14  C   UNL     1      -1.668  -4.119  -1.602  1.00  0.00     0.139 A 
ATOM     15  C   UNL     1      -0.749  -4.859  -2.236  1.00  0.00     0.106 A 
ATOM     16  N   UNL     1      -2.959  -4.522  -1.369  1.00  0.00    -0.192 NA
ATOM     17  C   UNL     1      -1.150  -6.198  -2.694  1.00  0.00     0.254 A 
ATOM     18  C   UNL     1      -3.265  -5.691  -1.794  1.00  0.00     0.294 A 
ATOM     19  O   UNL     1      -0.347  -6.955  -3.227  1.00  0.00    -0.269 OA
ATOM     20  N   UNL     1      -2.446  -6.534  -2.454  1.00  0.00    -0.276 N 
ATOM     21  H   UNL     1      -2.790  -7.402  -2.765  1.00  0.00     0.175 HD
BRANCH  18  22
ATOM     22  O   UNL     1      -4.486  -6.180  -1.566  1.00  0.00    -0.480 OA
ATOM     23  H   UNL     1      -4.713  -7.035  -1.875  1.00  0.00     0.296 HD
ENDBRANCH  18  22
ENDBRANCH  12  14
ENDBRANCH   8  12
ENDBRANCH   7   8
ENDBRANCH   4   7
ENDBRANCH   2   3
ENDBRANCH   1   2
BRANCH   1  24
ATOM     24  C   UNL     1      -5.341  -0.027  -1.673  1.00  0.00     0.023 C 
BRANCH  24  25
ATOM     25  C   UNL     1      -6.530   0.687  -1.042  1.00  0.00     0.116 C 
BRANCH  25  26
ATOM     26  N   UNL     1      -6.233   2.053  -0.638  1.00  0.00    -0.352 N 
ATOM     27  C   UNL     1      -7.011   3.178  -0.781  1.00  0.00     0.251 C 
ATOM     28  H   UNL     1      -5.360   2.190  -0.204  1.00  0.00     0.163 HD
ATOM     29  O   UNL     1      -6.559   4.281  -0.490  1.00  0.00    -0.269 OA
BRANCH  27  30
ATOM     30  C   UNL     1      -8.380   3.049  -1.324  1.00  0.00     0.039 A 
ATOM     31  C   UNL     1      -8.782   3.899  -2.357  1.00  0.00     0.014 A 
ATOM     32  C   UNL     1      -9.247   2.064  -0.844  1.00  0.00     0.014 A 
ATOM     33  C   UNL     1     -10.029   3.712  -2.957  1.00  0.00     0.010 A 
ATOM     34  C   UNL     1     -10.453   1.828  -1.497  1.00  0.00     0.010 A 
ATOM     35  C   UNL     1     -10.858   2.649  -2.560  1.00  0.00    -0.014 A 
BRANCH  35  36
ATOM     36  C   UNL     1     -12.145   2.374  -3.249  1.00  0.00     0.031 A 
ATOM     37  C   UNL     1     -13.443   2.459  -2.491  1.00  0.00     0.074 A 
ATOM     38  C   UNL     1     -12.143   1.982  -4.540  1.00  0.00     0.049 A 
ATOM     39  N   UNL     1     -14.657   2.202  -2.905  1.00  0.00    -0.248 NA
ATOM     40  C   UNL     1     -13.362   2.862  -1.078  1.00  0.00     0.031 C 
ATOM     41  C   UNL     1     -10.949   1.823  -5.375  1.00  0.00     0.029 A 
ATOM     42  N   UNL     1     -13.178   1.641  -5.375  1.00  0.00    -0.354 N 
ATOM     43  C   UNL     1     -15.481   2.397  -1.802  1.00  0.00     0.074 A 
ATOM     44  C   UNL     1     -14.622   2.738  -0.689  1.00  0.00     0.031 C 
ATOM     45  C   UNL     1     -11.323   1.448  -6.609  1.00  0.00     0.029 A 
ATOM     46  C   UNL     1     -12.774   1.292  -6.642  1.00  0.00     0.049 A 
ATOM     47  H   UNL     1     -14.121   1.647  -5.093  1.00  0.00     0.167 HD
ATOM     48  C   UNL     1     -16.832   2.321  -1.726  1.00  0.00     0.031 A 
ATOM     49  C   UNL     1     -13.487   0.884  -7.710  1.00  0.00     0.031 A 
ATOM     50  C   UNL     1     -17.682   1.981  -2.836  1.00  0.00     0.049 A 
ATOM     51  C   UNL     1     -14.983   0.779  -7.595  1.00  0.00     0.074 A 
ATOM     52  C   UNL     1     -19.064   1.926  -2.875  1.00  0.00     0.029 A 
ATOM     53  N   UNL     1     -17.233   1.632  -4.101  1.00  0.00    -0.354 N 
ATOM     54  N   UNL     1     -15.751   1.033  -6.562  1.00  0.00    -0.248 NA
ATOM     55  C   UNL     1     -15.712   0.341  -8.794  1.00  0.00     0.031 C 
ATOM     56  C   UNL     1     -19.448   1.481  -4.144  1.00  0.00     0.029 A 
ATOM     57  C   UNL     1     -18.310   1.330  -4.919  1.00  0.00     0.049 A 
ATOM     58  H   UNL     1     -16.288   1.602  -4.378  1.00  0.00     0.167 HD
ATOM     59  C   UNL     1     -17.054   0.817  -6.995  1.00  0.00     0.074 A 
ATOM     60  C   UNL     1     -16.971   0.424  -8.387  1.00  0.00     0.031 C 
ATOM     61  C   UNL     1     -18.215   0.937  -6.303  1.00  0.00     0.031 A 
BRANCH  48  62
ATOM     62  C   UNL     1     -17.470   2.596  -0.388  1.00  0.00    -0.014 A 
ATOM     63  C   UNL     1     -17.444   3.883   0.182  1.00  0.00     0.010 A 
ATOM     64  C   UNL     1     -18.130   1.561   0.298  1.00  0.00     0.010 A 
ATOM     65  C   UNL     1     -18.019   4.116   1.434  1.00  0.00     0.020 A 
ATOM     66  C   UNL     1     -18.737   1.798   1.535  1.00  0.00     0.020 A 
ATOM     67  C   UNL     1     -18.659   3.070   2.104  1.00  0.00     0.054 A 
BRANCH  67  68
ATOM     68  S   UNL     1     -19.404   3.404   3.724  1.00  0.00     0.124 S 
ATOM     69  O   UNL     1     -18.223   3.570   4.569  1.00  0.00    -0.237 OA
ATOM     70  O   UNL     1     -20.174   4.620   3.476  1.00  0.00    -0.237 OA
ATOM     71  O   UNL     1     -20.200   2.210   3.994  1.00  0.00    -0.744 OA
ENDBRANCH  67  68
ENDBRANCH  48  62
BRANCH  49  72
ATOM     72  C   UNL     1     -12.792   0.561  -8.988  1.00  0.00    -0.014 A 
ATOM     73  C   UNL     1     -12.944   1.390 -10.113  1.00  0.00     0.010 A 
ATOM     74  C   UNL     1     -11.958  -0.569  -9.080  1.00  0.00     0.010 A 
ATOM     75  C   UNL     1     -12.287   1.088 -11.310  1.00  0.00     0.020 A 
ATOM     76  C   UNL     1     -11.275  -0.856 -10.265  1.00  0.00     0.020 A 
ATOM     77  C   UNL     1     -11.452  -0.031 -11.376  1.00  0.00     0.054 A 
BRANCH  77  78
ATOM     78  S   UNL     1     -10.564  -0.367 -12.923  1.00  0.00     0.124 S 
ATOM     79  O   UNL     1     -11.642  -0.807 -13.803  1.00  0.00    -0.237 OA
ATOM     80  O   UNL     1      -9.979   0.933 -13.238  1.00  0.00    -0.237 OA
ATOM     81  O   UNL     1      -9.602  -1.400 -12.546  1.00  0.00    -0.744 OA
ENDBRANCH  77  78
ENDBRANCH  49  72
BRANCH  61  82
ATOM     82  C   UNL     1     -19.499   0.677  -7.047  1.00  0.00    -0.014 A 
ATOM     83  C   UNL     1     -19.866  -0.620  -7.448  1.00  0.00     0.010 A 
ATOM     84  C   UNL     1     -20.382   1.745  -7.295  1.00  0.00     0.010 A 
ATOM     85  C   UNL     1     -21.078  -0.838  -8.110  1.00  0.00     0.020 A 
ATOM     86  C   UNL     1     -21.608   1.526  -7.926  1.00  0.00     0.020 A 
ATOM     87  C   UNL     1     -21.943   0.236  -8.342  1.00  0.00     0.054 A 
BRANCH  87  88
ATOM     88  S   UNL     1     -23.531  -0.083  -9.157  1.00  0.00     0.124 S 
ATOM     89  O   UNL     1     -23.118  -0.363 -10.530  1.00  0.00    -0.237 OA
ATOM     90  O   UNL     1     -24.049  -1.227  -8.411  1.00  0.00    -0.237 OA
ATOM     91  O   UNL     1     -24.273   1.162  -8.972  1.00  0.00    -0.744 OA
ENDBRANCH  87  88
ENDBRANCH  61  82
ENDBRANCH  35  36
ENDBRANCH  27  30
ENDBRANCH  25  26
ENDBRANCH  24  25
ENDBRANCH   1  24
TORSDOF 20
