REMARK SMILES C[C@@H](C(=O)NCCCCNC(=O)c1ccc(-c2c3nc(c(-c4ccc(S(=O)(=O)[O-])cc4)c4ccc([nH]4)c(-c4ccc(S(=O)(=O)[O-])cc4)c4nc(c(-c5ccc(S(=O)(=O)[O-])cc5)c5ccc2[nH]5)C=C4)C=C3)cc1)c1ccc(C[C@@H]2CCC[C@@H]2O)cc1F
REMARK SMILES IDX 7 1 6 2 5 3 3 4 4 5 2 7 1 8 73 9 74 10 85 11 75 12 84 13
REMARK SMILES IDX 86 14 76 15 77 16 78 17 79 18 82 19 80 20 81 21 83 22 8 24
REMARK SMILES IDX 9 25 10 26 11 27 12 29 13 30 14 31 72 32 15 33 71 34 16 35
REMARK SMILES IDX 17 36 18 37 65 38 19 39 70 40 64 41 66 42 20 43 69 44 63 45
REMARK SMILES IDX 62 46 21 48 51 49 32 50 50 51 33 52 36 53 49 54 67 55 34 56
REMARK SMILES IDX 35 57 48 59 68 60 37 61 22 62 23 63 31 64 24 65 30 66 25 67
REMARK SMILES IDX 26 68 27 69 28 70 29 71 52 72 53 73 61 74 54 75 60 76 55 77
REMARK SMILES IDX 56 78 57 79 58 80 59 81 38 82 39 83 47 84 40 85 46 86 41 87
REMARK SMILES IDX 42 88 43 89 44 90 45 91
REMARK H PARENT 5 6 83 23 10 28 66 47 36 58
REMARK Flexibility Score: inf
ROOT
ATOM      1  C   UNL     1     -12.251   5.317   9.519  1.00  0.00     0.023 C 
ENDROOT
BRANCH   1   2
ATOM      2  C   UNL     1     -10.789   4.925   9.280  1.00  0.00     0.116 C 
BRANCH   2   3
ATOM      3  N   UNL     1     -10.684   3.570   8.773  1.00  0.00    -0.356 N 
ATOM      4  C   UNL     1     -10.513   3.122   7.492  1.00  0.00     0.227 C 
ATOM      5  O   UNL     1     -10.725   1.924   7.294  1.00  0.00    -0.274 OA
ATOM      6  H   UNL     1     -10.745   2.864   9.457  1.00  0.00     0.163 HD
BRANCH   4   7
ATOM      7  C   UNL     1     -10.066   4.099   6.389  1.00  0.00     0.108 C 
ATOM      8  C   UNL     1     -11.300   4.889   5.934  1.00  0.00     0.023 C 
BRANCH   7   9
ATOM      9  C   UNL     1      -9.301   3.446   5.232  1.00  0.00    -0.000 A 
ATOM     10  C   UNL     1      -8.513   2.298   5.431  1.00  0.00     0.008 A 
ATOM     11  C   UNL     1      -9.291   3.993   3.942  1.00  0.00     0.127 A 
ATOM     12  C   UNL     1      -7.821   1.690   4.376  1.00  0.00     0.004 A 
ATOM     13  C   UNL     1      -8.586   3.406   2.892  1.00  0.00     0.043 A 
ATOM     14  F   UNL     1      -9.950   5.126   3.664  1.00  0.00    -0.207 F 
ATOM     15  C   UNL     1      -7.838   2.245   3.095  1.00  0.00    -0.045 A 
BRANCH  15  16
ATOM     16  C   UNL     1      -7.069   1.633   1.955  1.00  0.00     0.041 C 
BRANCH  16  17
ATOM     17  C   UNL     1      -5.550   1.895   1.875  1.00  0.00     0.022 C 
ATOM     18  C   UNL     1      -4.733   1.265   3.008  1.00  0.00     0.007 C 
ATOM     19  C   UNL     1      -5.077   3.352   1.892  1.00  0.00     0.117 C 
ATOM     20  C   UNL     1      -4.442   2.382   4.014  1.00  0.00     0.003 C 
ATOM     21  C   UNL     1      -4.895   3.687   3.366  1.00  0.00     0.032 C 
BRANCH  19  22
ATOM     22  O   UNL     1      -5.950   4.254   1.246  1.00  0.00    -0.393 OA
ATOM     23  H   UNL     1      -6.815   4.237   1.685  1.00  0.00     0.210 HD
ENDBRANCH  19  22
ENDBRANCH  16  17
ENDBRANCH  15  16
ENDBRANCH   7   9
ENDBRANCH   4   7
ENDBRANCH   2   3
ENDBRANCH   1   2
BRANCH   1  24
ATOM     24  C   UNL     1     -12.978   4.483  10.574  1.00  0.00     0.023 C 
BRANCH  24  25
ATOM     25  C   UNL     1     -12.401   4.587  11.977  1.00  0.00     0.116 C 
BRANCH  25  26
ATOM     26  N   UNL     1     -12.462   5.940  12.510  1.00  0.00    -0.352 N 
ATOM     27  C   UNL     1     -12.813   6.337  13.779  1.00  0.00     0.251 C 
ATOM     28  H   UNL     1     -12.223   6.661  11.884  1.00  0.00     0.163 HD
ATOM     29  O   UNL     1     -12.947   7.527  14.046  1.00  0.00    -0.269 OA
BRANCH  27  30
ATOM     30  C   UNL     1     -13.059   5.304  14.803  1.00  0.00     0.039 A 
ATOM     31  C   UNL     1     -14.265   5.316  15.508  1.00  0.00     0.014 A 
ATOM     32  C   UNL     1     -12.122   4.287  15.007  1.00  0.00     0.014 A 
ATOM     33  C   UNL     1     -14.567   4.259  16.370  1.00  0.00     0.010 A 
ATOM     34  C   UNL     1     -12.453   3.207  15.815  1.00  0.00     0.010 A 
ATOM     35  C   UNL     1     -13.679   3.180  16.499  1.00  0.00    -0.014 A 
BRANCH  35  36
ATOM     36  C   UNL     1     -13.993   1.997  17.338  1.00  0.00     0.031 A 
ATOM     37  C   UNL     1     -13.126   1.680  18.522  1.00  0.00     0.074 A 
ATOM     38  C   UNL     1     -14.966   1.145  16.961  1.00  0.00     0.049 A 
ATOM     39  N   UNL     1     -13.106   0.606  19.267  1.00  0.00    -0.248 NA
ATOM     40  C   UNL     1     -12.122   2.691  18.890  1.00  0.00     0.031 C 
ATOM     41  C   UNL     1     -15.848   1.321  15.805  1.00  0.00     0.029 A 
ATOM     42  N   UNL     1     -15.352  -0.058  17.495  1.00  0.00    -0.354 N 
ATOM     43  C   UNL     1     -12.059   0.790  20.161  1.00  0.00     0.074 A 
ATOM     44  C   UNL     1     -11.453   2.067  19.847  1.00  0.00     0.031 C 
ATOM     45  C   UNL     1     -16.672   0.264  15.718  1.00  0.00     0.029 A 
ATOM     46  C   UNL     1     -16.349  -0.681  16.783  1.00  0.00     0.049 A 
ATOM     47  H   UNL     1     -14.953  -0.439  18.310  1.00  0.00     0.167 HD
ATOM     48  C   UNL     1     -11.642  -0.028  21.157  1.00  0.00     0.031 A 
ATOM     49  C   UNL     1     -16.924  -1.887  16.953  1.00  0.00     0.031 A 
ATOM     50  C   UNL     1     -12.262  -1.283  21.480  1.00  0.00     0.049 A 
ATOM     51  C   UNL     1     -16.476  -2.764  18.087  1.00  0.00     0.074 A 
ATOM     52  C   UNL     1     -11.959  -2.154  22.510  1.00  0.00     0.029 A 
ATOM     53  N   UNL     1     -13.316  -1.846  20.775  1.00  0.00    -0.354 N 
ATOM     54  N   UNL     1     -15.519  -2.552  18.959  1.00  0.00    -0.248 NA
ATOM     55  C   UNL     1     -17.190  -4.035  18.270  1.00  0.00     0.031 C 
ATOM     56  C   UNL     1     -12.810  -3.261  22.410  1.00  0.00     0.029 A 
ATOM     57  C   UNL     1     -13.670  -3.058  21.341  1.00  0.00     0.049 A 
ATOM     58  H   UNL     1     -13.749  -1.442  19.988  1.00  0.00     0.167 HD
ATOM     59  C   UNL     1     -15.530  -3.652  19.808  1.00  0.00     0.074 A 
ATOM     60  C   UNL     1     -16.591  -4.525  19.348  1.00  0.00     0.031 C 
ATOM     61  C   UNL     1     -14.734  -3.911  20.875  1.00  0.00     0.031 A 
BRANCH  48  62
ATOM     62  C   UNL     1     -10.438   0.415  21.943  1.00  0.00    -0.014 A 
ATOM     63  C   UNL     1     -10.506   1.506  22.829  1.00  0.00     0.010 A 
ATOM     64  C   UNL     1      -9.213  -0.254  21.773  1.00  0.00     0.010 A 
ATOM     65  C   UNL     1      -9.356   1.963  23.476  1.00  0.00     0.020 A 
ATOM     66  C   UNL     1      -8.066   0.183  22.440  1.00  0.00     0.020 A 
ATOM     67  C   UNL     1      -8.139   1.308  23.265  1.00  0.00     0.054 A 
BRANCH  67  68
ATOM     68  S   UNL     1      -6.650   1.938  24.087  1.00  0.00     0.124 S 
ATOM     69  O   UNL     1      -6.295   3.070  23.235  1.00  0.00    -0.237 OA
ATOM     70  O   UNL     1      -7.136   2.285  25.420  1.00  0.00    -0.237 OA
ATOM     71  O   UNL     1      -5.726   0.807  24.039  1.00  0.00    -0.744 OA
ENDBRANCH  67  68
ENDBRANCH  48  62
BRANCH  49  72
ATOM     72  C   UNL     1     -18.002  -2.315  16.022  1.00  0.00    -0.014 A 
ATOM     73  C   UNL     1     -19.347  -2.256  16.423  1.00  0.00     0.010 A 
ATOM     74  C   UNL     1     -17.693  -2.710  14.708  1.00  0.00     0.010 A 
ATOM     75  C   UNL     1     -20.367  -2.577  15.523  1.00  0.00     0.020 A 
ATOM     76  C   UNL     1     -18.712  -3.013  13.800  1.00  0.00     0.020 A 
ATOM     77  C   UNL     1     -20.044  -2.946  14.214  1.00  0.00     0.054 A 
BRANCH  77  78
ATOM     78  S   UNL     1     -21.388  -3.256  13.034  1.00  0.00     0.124 S 
ATOM     79  O   UNL     1     -21.842  -4.584  13.434  1.00  0.00    -0.237 OA
ATOM     80  O   UNL     1     -22.313  -2.160  13.312  1.00  0.00    -0.237 OA
ATOM     81  O   UNL     1     -20.723  -3.183  11.735  1.00  0.00    -0.744 OA
ENDBRANCH  77  78
ENDBRANCH  49  72
BRANCH  61  82
ATOM     82  C   UNL     1     -14.998  -5.172  21.650  1.00  0.00    -0.014 A 
ATOM     83  C   UNL     1     -14.576  -6.422  21.167  1.00  0.00     0.010 A 
ATOM     84  C   UNL     1     -15.597  -5.088  22.920  1.00  0.00     0.010 A 
ATOM     85  C   UNL     1     -14.758  -7.572  21.941  1.00  0.00     0.020 A 
ATOM     86  C   UNL     1     -15.762  -6.233  23.703  1.00  0.00     0.020 A 
ATOM     87  C   UNL     1     -15.348  -7.470  23.205  1.00  0.00     0.054 A 
BRANCH  87  88
ATOM     88  S   UNL     1     -15.505  -8.963  24.223  1.00  0.00     0.124 S 
ATOM     89  O   UNL     1     -16.647  -9.632  23.608  1.00  0.00    -0.237 OA
ATOM     90  O   UNL     1     -14.214  -9.621  24.033  1.00  0.00    -0.237 OA
ATOM     91  O   UNL     1     -15.737  -8.441  25.568  1.00  0.00    -0.744 OA
ENDBRANCH  87  88
ENDBRANCH  61  82
ENDBRANCH  35  36
ENDBRANCH  27  30
ENDBRANCH  25  26
ENDBRANCH  24  25
ENDBRANCH   1  24
TORSDOF 18
