REMARK SMILES O=C(Cc1cccn1-c1ccc2c(c1)OCCO2)NCCCCNC(=O)c1ccc(-c2c3nc(c(-c4ccc(S(=O)(=O)[O-])cc4)c4ccc([nH]4)c(-c4ccc(S(=O)(=O)[O-])cc4)c4nc(c(-c5ccc(S(=O)(=O)[O-])cc5)c5ccc2[nH]5)C=C4)C=C3)cc1
REMARK SMILES IDX 22 1 21 2 20 3 19 4 1 5 2 6 3 8 4 9 5 10 8 11 6 12 7 13 9 14
REMARK SMILES IDX 10 15 14 16 11 17 13 18 12 19 15 20 18 21 16 22 17 23 23 24
REMARK SMILES IDX 24 25 25 26 26 28 27 29 28 30 86 31 29 32 85 33 30 34 31 35
REMARK SMILES IDX 32 36 79 37 33 38 84 39 78 40 80 41 34 42 83 43 77 44 76 45
REMARK SMILES IDX 35 47 65 48 46 49 64 50 47 51 50 52 63 53 81 54 48 55 49 56
REMARK SMILES IDX 62 58 82 59 51 60 36 61 37 62 45 63 38 64 44 65 39 66 40 67
REMARK SMILES IDX 41 68 42 69 43 70 66 71 67 72 75 73 68 74 74 75 69 76 70 77
REMARK SMILES IDX 71 78 72 79 73 80 52 81 53 82 61 83 54 84 60 85 55 86 56 87
REMARK SMILES IDX 57 88 58 89 59 90
REMARK H PARENT 19 7 24 27 80 46 50 57
REMARK Flexibility Score: inf
ROOT
ATOM      1  C   UNL     1       2.733  -4.463  -0.459  1.00  0.00     0.023 C 
ENDROOT
BRANCH   1   2
ATOM      2  C   UNL     1       1.477  -3.594  -0.580  1.00  0.00     0.023 C 
BRANCH   2   3
ATOM      3  C   UNL     1       1.447  -2.350   0.306  1.00  0.00     0.116 C 
BRANCH   3   4
ATOM      4  N   UNL     1       2.298  -1.278  -0.177  1.00  0.00    -0.356 N 
ATOM      5  O   UNL     1       0.924   0.400   0.573  1.00  0.00    -0.275 OA
ATOM      6  C   UNL     1       1.987   0.051   0.063  1.00  0.00     0.225 C 
ATOM      7  H   UNL     1       3.111  -1.500  -0.685  1.00  0.00     0.163 HD
BRANCH   6   8
ATOM      8  C   UNL     1       3.050   1.057  -0.381  1.00  0.00     0.154 C 
BRANCH   8   9
ATOM      9  C   UNL     1       3.829   1.585   0.791  1.00  0.00     0.032 A 
ATOM     10  C   UNL     1       3.767   2.855   1.348  1.00  0.00     0.024 A 
ATOM     11  N   UNL     1       4.682   0.829   1.589  1.00  0.00    -0.320 N 
ATOM     12  C   UNL     1       4.494   2.841   2.556  1.00  0.00     0.020 A 
ATOM     13  C   UNL     1       4.986   1.568   2.712  1.00  0.00     0.091 A 
BRANCH  11  14
ATOM     14  C   UNL     1       5.165  -0.479   1.355  1.00  0.00     0.049 A 
ATOM     15  C   UNL     1       5.156  -1.400   2.404  1.00  0.00     0.031 A 
ATOM     16  C   UNL     1       5.671  -0.840   0.099  1.00  0.00     0.077 A 
ATOM     17  C   UNL     1       5.591  -2.701   2.171  1.00  0.00     0.052 A 
ATOM     18  C   UNL     1       6.092  -2.152  -0.124  1.00  0.00     0.163 A 
ATOM     19  C   UNL     1       6.031  -3.088   0.905  1.00  0.00     0.161 A 
ATOM     20  O   UNL     1       6.546  -2.453  -1.379  1.00  0.00    -0.486 OA
ATOM     21  O   UNL     1       6.322  -4.413   0.749  1.00  0.00    -0.486 OA
ATOM     22  C   UNL     1       6.421  -3.848  -1.659  1.00  0.00     0.271 C 
ATOM     23  C   UNL     1       6.898  -4.734  -0.517  1.00  0.00     0.271 C 
ENDBRANCH  11  14
ENDBRANCH   8   9
ENDBRANCH   6   8
ENDBRANCH   3   4
ENDBRANCH   2   3
ENDBRANCH   1   2
BRANCH   1  24
ATOM     24  C   UNL     1       2.946  -5.109   0.921  1.00  0.00     0.116 C 
BRANCH  24  25
ATOM     25  N   UNL     1       3.381  -6.493   0.792  1.00  0.00    -0.352 N 
ATOM     26  C   UNL     1       4.222  -7.311   1.502  1.00  0.00     0.251 C 
ATOM     27  H   UNL     1       2.977  -6.946   0.017  1.00  0.00     0.163 HD
ATOM     28  O   UNL     1       4.384  -8.444   1.040  1.00  0.00    -0.269 OA
BRANCH  26  29
ATOM     29  C   UNL     1       4.959  -6.936   2.746  1.00  0.00     0.039 A 
ATOM     30  C   UNL     1       6.096  -7.705   3.054  1.00  0.00     0.014 A 
ATOM     31  C   UNL     1       4.587  -5.927   3.639  1.00  0.00     0.014 A 
ATOM     32  C   UNL     1       6.881  -7.426   4.179  1.00  0.00     0.010 A 
ATOM     33  C   UNL     1       5.391  -5.622   4.755  1.00  0.00     0.010 A 
ATOM     34  C   UNL     1       6.558  -6.353   5.017  1.00  0.00    -0.014 A 
BRANCH  34  35
ATOM     35  C   UNL     1       7.565  -5.925   6.040  1.00  0.00     0.031 A 
ATOM     36  C   UNL     1       8.788  -5.213   5.414  1.00  0.00     0.074 A 
ATOM     37  C   UNL     1       7.351  -6.243   7.355  1.00  0.00     0.049 A 
ATOM     38  N   UNL     1       9.998  -5.077   5.867  1.00  0.00    -0.248 NA
ATOM     39  C   UNL     1       8.655  -4.606   4.060  1.00  0.00     0.031 C 
ATOM     40  C   UNL     1       6.114  -6.865   7.876  1.00  0.00     0.029 A 
ATOM     41  N   UNL     1       8.102  -6.121   8.515  1.00  0.00    -0.354 N 
ATOM     42  C   UNL     1      10.718  -4.269   4.951  1.00  0.00     0.074 A 
ATOM     43  C   UNL     1       9.854  -4.064   3.828  1.00  0.00     0.031 C 
ATOM     44  C   UNL     1       6.222  -7.128   9.197  1.00  0.00     0.029 A 
ATOM     45  C   UNL     1       7.525  -6.707   9.677  1.00  0.00     0.049 A 
ATOM     46  H   UNL     1       8.973  -5.662   8.534  1.00  0.00     0.167 HD
ATOM     47  C   UNL     1      11.954  -3.745   5.209  1.00  0.00     0.031 A 
ATOM     48  C   UNL     1       8.055  -6.885  10.928  1.00  0.00     0.031 A 
ATOM     49  C   UNL     1      12.438  -4.219   6.457  1.00  0.00     0.049 A 
ATOM     50  C   UNL     1       9.345  -6.181  10.942  1.00  0.00     0.074 A 
ATOM     51  C   UNL     1      12.964  -5.410   6.878  1.00  0.00     0.029 A 
ATOM     52  N   UNL     1      12.174  -3.433   7.549  1.00  0.00    -0.354 N 
ATOM     53  N   UNL     1       9.491  -4.896  11.030  1.00  0.00    -0.248 NA
ATOM     54  C   UNL     1      10.585  -6.968  10.861  1.00  0.00     0.031 C 
ATOM     55  C   UNL     1      12.591  -5.482   8.236  1.00  0.00     0.029 A 
ATOM     56  C   UNL     1      11.967  -4.285   8.602  1.00  0.00     0.049 A 
ATOM     57  H   UNL     1      12.139  -2.449   7.572  1.00  0.00     0.167 HD
ATOM     58  C   UNL     1      10.790  -4.722  10.629  1.00  0.00     0.074 A 
ATOM     59  C   UNL     1      11.469  -5.974  10.880  1.00  0.00     0.031 C 
ATOM     60  C   UNL     1      11.060  -3.843   9.633  1.00  0.00     0.031 A 
BRANCH  47  61
ATOM     61  C   UNL     1      12.764  -2.646   4.557  1.00  0.00    -0.014 A 
ATOM     62  C   UNL     1      14.124  -2.526   4.956  1.00  0.00     0.010 A 
ATOM     63  C   UNL     1      12.199  -1.557   3.879  1.00  0.00     0.010 A 
ATOM     64  C   UNL     1      14.836  -1.331   4.828  1.00  0.00     0.020 A 
ATOM     65  C   UNL     1      12.926  -0.361   3.709  1.00  0.00     0.020 A 
ATOM     66  C   UNL     1      14.216  -0.239   4.236  1.00  0.00     0.054 A 
BRANCH  66  67
ATOM     67  S   UNL     1      15.095   1.349   4.242  1.00  0.00     0.124 S 
ATOM     68  O   UNL     1      15.020   1.739   5.646  1.00  0.00    -0.237 OA
ATOM     69  O   UNL     1      16.428   0.977   3.769  1.00  0.00    -0.237 OA
ATOM     70  O   UNL     1      14.323   2.172   3.314  1.00  0.00    -0.744 OA
ENDBRANCH  66  67
ENDBRANCH  47  61
BRANCH  48  71
ATOM     71  C   UNL     1       7.734  -7.638  12.209  1.00  0.00    -0.014 A 
ATOM     72  C   UNL     1       6.563  -8.352  12.489  1.00  0.00     0.010 A 
ATOM     73  C   UNL     1       8.754  -7.735  13.203  1.00  0.00     0.010 A 
ATOM     74  C   UNL     1       6.487  -9.226  13.604  1.00  0.00     0.020 A 
ATOM     75  C   UNL     1       8.715  -8.628  14.276  1.00  0.00     0.020 A 
ATOM     76  C   UNL     1       7.585  -9.401  14.455  1.00  0.00     0.054 A 
BRANCH  76  77
ATOM     77  S   UNL     1       7.618 -10.726  15.697  1.00  0.00     0.124 S 
ATOM     78  O   UNL     1       6.994 -10.093  16.854  1.00  0.00    -0.237 OA
ATOM     79  O   UNL     1       6.842 -11.787  15.061  1.00  0.00    -0.237 OA
ATOM     80  O   UNL     1       9.044 -11.020  15.840  1.00  0.00    -0.744 OA
ENDBRANCH  76  77
ENDBRANCH  48  71
BRANCH  60  81
ATOM     81  C   UNL     1      10.050  -2.718   9.479  1.00  0.00    -0.014 A 
ATOM     82  C   UNL     1       9.917  -1.764  10.503  1.00  0.00     0.010 A 
ATOM     83  C   UNL     1       9.167  -2.629   8.383  1.00  0.00     0.010 A 
ATOM     84  C   UNL     1       8.945  -0.755  10.436  1.00  0.00     0.020 A 
ATOM     85  C   UNL     1       8.193  -1.619   8.304  1.00  0.00     0.020 A 
ATOM     86  C   UNL     1       8.089  -0.685   9.335  1.00  0.00     0.054 A 
BRANCH  86  87
ATOM     87  S   UNL     1       6.841   0.636   9.286  1.00  0.00     0.124 S 
ATOM     88  O   UNL     1       6.061   0.386  10.502  1.00  0.00    -0.237 OA
ATOM     89  O   UNL     1       7.649   1.839   9.299  1.00  0.00    -0.237 OA
ATOM     90  O   UNL     1       6.113   0.383   8.036  1.00  0.00    -0.744 OA
ENDBRANCH  86  87
ENDBRANCH  60  81
ENDBRANCH  34  35
ENDBRANCH  26  29
ENDBRANCH  24  25
ENDBRANCH   1  24
TORSDOF 16
