REMARK SMILES COc1ccc(NC(=O)c2nn(C)cc2C(=O)NCCCCNC(=O)c2ccc(-c3c4nc(c(-c5ccc(S(=O)(=O)[O-])cc5)c5ccc([nH]5)c(-c5ccc(S(=O)(=O)[O-])cc5)c5nc(c(-c6ccc(S(=O)(=O)[O-])cc6)c6ccc3[nH]6)C=C5)C=C4)cc2)c(C)c1
REMARK SMILES IDX 20 1 19 2 18 3 16 4 17 5 15 7 10 8 11 9 12 10 14 11 13 12
REMARK SMILES IDX 8 13 7 14 9 16 6 17 3 18 4 19 88 20 5 21 86 22 87 23 2 24
REMARK SMILES IDX 1 25 21 26 22 27 23 28 24 29 25 31 26 32 27 33 85 34 28 35
REMARK SMILES IDX 84 36 29 37 30 38 31 39 78 40 32 41 83 42 77 43 79 44 33 45
REMARK SMILES IDX 82 46 76 47 75 48 34 50 64 51 45 52 63 53 46 54 49 55 62 56
REMARK SMILES IDX 80 57 47 58 48 59 61 61 81 62 50 63 35 64 36 65 44 66 37 67
REMARK SMILES IDX 43 68 38 69 39 70 40 71 41 72 42 73 65 74 66 75 74 76 67 77
REMARK SMILES IDX 73 78 68 79 69 80 70 81 71 82 72 83 51 84 52 85 60 86 53 87
REMARK SMILES IDX 59 88 54 89 55 90 56 91 57 92 58 93
REMARK H PARENT 18 6 7 15 23 30 79 49 49 60
REMARK Flexibility Score: inf
ROOT
ATOM      1  C   UNL     1       4.723   0.311   1.788  1.00  0.00     0.023 C 
ENDROOT
BRANCH   1   2
ATOM      2  C   UNL     1       5.459  -0.105   3.068  1.00  0.00     0.116 C 
BRANCH   2   3
ATOM      3  N   UNL     1       4.609  -0.742   4.066  1.00  0.00    -0.352 N 
ATOM      4  C   UNL     1       4.335  -2.046   4.401  1.00  0.00     0.255 C 
ATOM      5  O   UNL     1       3.575  -2.226   5.354  1.00  0.00    -0.269 OA
ATOM      6  H   UNL     1       4.124  -0.093   4.626  1.00  0.00     0.163 HD
BRANCH   4   7
ATOM      7  C   UNL     1       4.864  -3.177   3.653  1.00  0.00     0.090 A 
ATOM      8  C   UNL     1       4.315  -4.513   3.624  1.00  0.00     0.163 A 
ATOM      9  N   UNL     1       5.028  -5.319   2.808  1.00  0.00    -0.167 NA
ATOM     10  N   UNL     1       6.020  -4.543   2.365  1.00  0.00    -0.274 N 
ATOM     11  C   UNL     1       6.003  -3.284   2.879  1.00  0.00     0.123 A 
ATOM     12  C   UNL     1       6.960  -5.069   1.405  1.00  0.00     0.173 C 
BRANCH   8  13
ATOM     13  C   UNL     1       3.150  -5.057   4.337  1.00  0.00     0.277 C 
ATOM     14  N   UNL     1       1.885  -4.527   4.175  1.00  0.00    -0.320 N 
ATOM     15  H   UNL     1       1.220  -4.899   4.798  1.00  0.00     0.170 HD
ATOM     16  O   UNL     1       3.258  -6.013   5.113  1.00  0.00    -0.267 OA
BRANCH  14  17
ATOM     17  C   UNL     1       1.355  -3.563   3.299  1.00  0.00     0.044 A 
ATOM     18  C   UNL     1       0.376  -1.485   1.652  1.00  0.00     0.119 A 
ATOM     19  C   UNL     1       1.523  -2.179   1.294  1.00  0.00     0.048 A 
ATOM     20  C   UNL     1      -0.324  -1.885   2.790  1.00  0.00     0.052 A 
ATOM     21  C   UNL     1       1.994  -3.217   2.103  1.00  0.00     0.030 A 
ATOM     22  C   UNL     1       0.139  -2.928   3.619  1.00  0.00    -0.024 A 
ATOM     23  C   UNL     1      -0.739  -3.295   4.787  1.00  0.00     0.047 C 
BRANCH  18  24
ATOM     24  O   UNL     1      -0.169  -0.430   0.977  1.00  0.00    -0.497 OA
ATOM     25  C   UNL     1       0.572   0.067  -0.131  1.00  0.00     0.278 C 
ENDBRANCH  18  24
ENDBRANCH  14  17
ENDBRANCH   8  13
ENDBRANCH   4   7
ENDBRANCH   2   3
ENDBRANCH   1   2
BRANCH   1  26
ATOM     26  C   UNL     1       3.666   1.404   1.967  1.00  0.00     0.023 C 
BRANCH  26  27
ATOM     27  C   UNL     1       4.198   2.735   2.484  1.00  0.00     0.116 C 
BRANCH  27  28
ATOM     28  N   UNL     1       4.513   3.718   1.458  1.00  0.00    -0.352 N 
ATOM     29  C   UNL     1       5.036   4.991   1.640  1.00  0.00     0.251 C 
ATOM     30  H   UNL     1       4.336   3.449   0.528  1.00  0.00     0.163 HD
ATOM     31  O   UNL     1       5.038   5.811   0.735  1.00  0.00    -0.269 OA
BRANCH  29  32
ATOM     32  C   UNL     1       5.667   5.301   2.945  1.00  0.00     0.039 A 
ATOM     33  C   UNL     1       7.031   5.615   2.954  1.00  0.00     0.014 A 
ATOM     34  C   UNL     1       4.992   5.040   4.133  1.00  0.00     0.014 A 
ATOM     35  C   UNL     1       7.761   5.468   4.134  1.00  0.00     0.010 A 
ATOM     36  C   UNL     1       5.732   4.792   5.273  1.00  0.00     0.010 A 
ATOM     37  C   UNL     1       7.126   4.956   5.264  1.00  0.00    -0.014 A 
BRANCH  37  38
ATOM     38  C   UNL     1       7.824   4.476   6.454  1.00  0.00     0.031 A 
ATOM     39  C   UNL     1       7.682   5.199   7.745  1.00  0.00     0.074 A 
ATOM     40  C   UNL     1       8.498   3.302   6.426  1.00  0.00     0.049 A 
ATOM     41  N   UNL     1       8.446   5.014   8.771  1.00  0.00    -0.248 NA
ATOM     42  C   UNL     1       6.705   6.269   7.953  1.00  0.00     0.031 C 
ATOM     43  C   UNL     1       8.877   2.491   7.582  1.00  0.00     0.029 A 
ATOM     44  N   UNL     1       9.183   2.705   5.364  1.00  0.00    -0.354 N 
ATOM     45  C   UNL     1       7.863   5.658   9.836  1.00  0.00     0.074 A 
ATOM     46  C   UNL     1       6.886   6.540   9.249  1.00  0.00     0.031 C 
ATOM     47  C   UNL     1       9.927   1.728   7.248  1.00  0.00     0.029 A 
ATOM     48  C   UNL     1      10.344   2.135   5.918  1.00  0.00     0.049 A 
ATOM     49  H   UNL     1       8.909   2.687   4.419  1.00  0.00     0.167 HD
ATOM     50  C   UNL     1       8.153   5.258  11.105  1.00  0.00     0.031 A 
ATOM     51  C   UNL     1      11.621   2.460   5.563  1.00  0.00     0.031 A 
ATOM     52  C   UNL     1       9.324   4.385  11.146  1.00  0.00     0.049 A 
ATOM     53  C   UNL     1      12.477   2.907   6.728  1.00  0.00     0.074 A 
ATOM     54  C   UNL     1       9.503   3.033  11.381  1.00  0.00     0.029 A 
ATOM     55  N   UNL     1      10.542   4.870  10.682  1.00  0.00    -0.354 N 
ATOM     56  N   UNL     1      12.000   3.217   7.900  1.00  0.00    -0.248 NA
ATOM     57  C   UNL     1      13.923   3.099   6.651  1.00  0.00     0.031 C 
ATOM     58  C   UNL     1      10.815   2.688  10.952  1.00  0.00     0.029 A 
ATOM     59  C   UNL     1      11.442   3.839  10.504  1.00  0.00     0.049 A 
ATOM     60  H   UNL     1      10.736   5.819  10.505  1.00  0.00     0.167 HD
ATOM     61  C   UNL     1      13.010   3.665   8.708  1.00  0.00     0.074 A 
ATOM     62  C   UNL     1      14.202   3.551   7.887  1.00  0.00     0.031 C 
ATOM     63  C   UNL     1      12.773   4.113   9.975  1.00  0.00     0.031 A 
BRANCH  50  64
ATOM     64  C   UNL     1       7.234   5.473  12.295  1.00  0.00    -0.014 A 
ATOM     65  C   UNL     1       7.578   4.933  13.554  1.00  0.00     0.010 A 
ATOM     66  C   UNL     1       5.960   6.072  12.216  1.00  0.00     0.010 A 
ATOM     67  C   UNL     1       6.693   4.964  14.648  1.00  0.00     0.020 A 
ATOM     68  C   UNL     1       5.080   6.140  13.305  1.00  0.00     0.020 A 
ATOM     69  C   UNL     1       5.442   5.563  14.512  1.00  0.00     0.054 A 
BRANCH  69  70
ATOM     70  S   UNL     1       4.279   5.559  15.901  1.00  0.00     0.124 S 
ATOM     71  O   UNL     1       3.935   4.144  16.013  1.00  0.00    -0.237 OA
ATOM     72  O   UNL     1       5.080   6.104  16.993  1.00  0.00    -0.237 OA
ATOM     73  O   UNL     1       3.191   6.423  15.444  1.00  0.00    -0.744 OA
ENDBRANCH  69  70
ENDBRANCH  50  64
BRANCH  51  74
ATOM     74  C   UNL     1      11.774   2.932   4.163  1.00  0.00    -0.014 A 
ATOM     75  C   UNL     1      11.644   1.964   3.147  1.00  0.00     0.010 A 
ATOM     76  C   UNL     1      11.567   4.288   3.852  1.00  0.00     0.010 A 
ATOM     77  C   UNL     1      11.116   2.315   1.905  1.00  0.00     0.020 A 
ATOM     78  C   UNL     1      11.041   4.643   2.603  1.00  0.00     0.020 A 
ATOM     79  C   UNL     1      10.745   3.640   1.674  1.00  0.00     0.054 A 
BRANCH  79  80
ATOM     80  S   UNL     1       9.655   3.977   0.259  1.00  0.00     0.124 S 
ATOM     81  O   UNL     1      10.411   3.425  -0.861  1.00  0.00    -0.237 OA
ATOM     82  O   UNL     1       8.454   3.234   0.636  1.00  0.00    -0.237 OA
ATOM     83  O   UNL     1       9.523   5.431   0.277  1.00  0.00    -0.744 OA
ENDBRANCH  79  80
ENDBRANCH  51  74
BRANCH  63  84
ATOM     84  C   UNL     1      13.776   4.803  10.868  1.00  0.00    -0.014 A 
ATOM     85  C   UNL     1      14.894   5.512  10.399  1.00  0.00     0.010 A 
ATOM     86  C   UNL     1      13.523   4.856  12.260  1.00  0.00     0.010 A 
ATOM     87  C   UNL     1      15.756   6.181  11.281  1.00  0.00     0.020 A 
ATOM     88  C   UNL     1      14.352   5.555  13.143  1.00  0.00     0.020 A 
ATOM     89  C   UNL     1      15.483   6.193  12.649  1.00  0.00     0.054 A 
BRANCH  89  90
ATOM     90  S   UNL     1      16.565   7.107  13.778  1.00  0.00     0.124 S 
ATOM     91  O   UNL     1      17.537   6.085  14.157  1.00  0.00    -0.237 OA
ATOM     92  O   UNL     1      17.087   8.184  12.938  1.00  0.00    -0.237 OA
ATOM     93  O   UNL     1      15.660   7.540  14.839  1.00  0.00    -0.744 OA
ENDBRANCH  89  90
ENDBRANCH  63  84
ENDBRANCH  37  38
ENDBRANCH  29  32
ENDBRANCH  27  28
ENDBRANCH  26  27
ENDBRANCH   1  26
TORSDOF 17
