REMARK SMILES CC(=O)c1ccc(NC(=O)C[C@H](C(=O)NCCCCNC(=O)c2ccc(-c3c4nc(c(-c5ccc(S(=O)(=O)[O-])cc5)c5ccc([nH]5)c(-c5ccc(S(=O)(=O)[O-])cc5)c5nc(c(-c6ccc(S(=O)(=O)[O-])cc6)c6ccc3[nH]6)C=C5)C=C4)cc2)[NH+](C)C)cc1
REMARK SMILES IDX 17 1 16 2 15 3 13 4 14 5 12 7 11 8 9 9 8 10 10 12 7 13 4 14
REMARK SMILES IDX 5 15 87 16 6 17 86 18 2 19 1 20 3 21 83 22 84 23 85 24 18 26
REMARK SMILES IDX 19 27 20 28 21 29 22 31 23 32 24 33 82 34 25 35 81 36 26 37
REMARK SMILES IDX 27 38 28 39 75 40 29 41 80 42 74 43 76 44 30 45 79 46 73 47
REMARK SMILES IDX 72 48 31 50 61 51 42 52 60 53 43 54 46 55 59 56 77 57 44 58
REMARK SMILES IDX 45 59 58 61 78 62 47 63 32 64 33 65 41 66 34 67 40 68 35 69
REMARK SMILES IDX 36 70 37 71 38 72 39 73 62 74 63 75 71 76 64 77 70 78 65 79
REMARK SMILES IDX 66 80 67 81 68 82 69 83 48 84 49 85 57 86 50 87 56 88 51 89
REMARK SMILES IDX 52 90 53 91 54 92 55 93
REMARK H PARENT 15 6 8 11 83 25 20 30 76 49 46 60
REMARK Flexibility Score: inf
ROOT
ATOM      1  C   UNL     1      -3.798   5.655  -4.962  1.00  0.00     0.023 C 
ENDROOT
BRANCH   1   2
ATOM      2  C   UNL     1      -2.773   5.944  -6.056  1.00  0.00     0.116 C 
BRANCH   2   3
ATOM      3  N   UNL     1      -1.435   6.014  -5.510  1.00  0.00    -0.351 N 
ATOM      4  C   UNL     1      -0.437   5.111  -5.377  1.00  0.00     0.278 C 
ATOM      5  O   UNL     1       0.585   5.564  -4.832  1.00  0.00    -0.268 OA
ATOM      6  H   UNL     1      -1.203   6.906  -5.163  1.00  0.00     0.163 HD
BRANCH   4   7
ATOM      7  C   UNL     1      -0.404   3.656  -5.927  1.00  0.00     0.283 C 
BRANCH   7   8
ATOM      8  C   UNL     1       0.458   2.744  -5.011  1.00  0.00     0.175 C 
BRANCH   8   9
ATOM      9  C   UNL     1      -0.214   1.673  -4.182  1.00  0.00     0.230 C 
ATOM     10  N   UNL     1      -1.031   1.912  -3.119  1.00  0.00    -0.326 N 
ATOM     11  H   UNL     1      -1.441   1.093  -2.756  1.00  0.00     0.169 HD
ATOM     12  O   UNL     1      -0.071   0.486  -4.507  1.00  0.00    -0.274 OA
BRANCH  10  13
ATOM     13  C   UNL     1      -1.415   3.071  -2.432  1.00  0.00     0.041 A 
ATOM     14  C   UNL     1      -2.456   5.380  -1.193  1.00  0.00     0.017 A 
ATOM     15  C   UNL     1      -1.158   5.367  -1.718  1.00  0.00     0.014 A 
ATOM     16  C   UNL     1      -3.212   4.208  -1.232  1.00  0.00     0.014 A 
ATOM     17  C   UNL     1      -0.637   4.213  -2.319  1.00  0.00     0.027 A 
ATOM     18  C   UNL     1      -2.685   3.058  -1.834  1.00  0.00     0.027 A 
BRANCH  14  19
ATOM     19  C   UNL     1      -2.996   6.672  -0.676  1.00  0.00     0.159 C 
ATOM     20  C   UNL     1      -4.240   6.668   0.172  1.00  0.00     0.093 C 
ATOM     21  O   UNL     1      -2.425   7.721  -0.970  1.00  0.00    -0.295 OA
ENDBRANCH  14  19
ENDBRANCH  10  13
ENDBRANCH   8   9
ENDBRANCH   7   8
BRANCH   7  22
ATOM     22  N   UNL     1      -1.631   3.143  -6.587  1.00  0.00    -0.329 N 
ATOM     23  C   UNL     1      -1.324   2.149  -7.619  1.00  0.00     0.333 C 
ATOM     24  C   UNL     1      -2.669   2.607  -5.720  1.00  0.00     0.333 C 
ATOM     25  H   UNL     1      -2.023   3.993  -6.993  1.00  0.00     0.348 HD
ENDBRANCH   7  22
ENDBRANCH   4   7
ENDBRANCH   2   3
ENDBRANCH   1   2
BRANCH   1  26
ATOM     26  C   UNL     1      -4.069   6.822  -4.021  1.00  0.00     0.023 C 
BRANCH  26  27
ATOM     27  C   UNL     1      -4.835   7.972  -4.641  1.00  0.00     0.116 C 
BRANCH  27  28
ATOM     28  N   UNL     1      -6.157   7.568  -5.096  1.00  0.00    -0.352 N 
ATOM     29  C   UNL     1      -7.383   8.127  -4.832  1.00  0.00     0.251 C 
ATOM     30  H   UNL     1      -6.175   6.776  -5.680  1.00  0.00     0.163 HD
ATOM     31  O   UNL     1      -8.402   7.519  -5.145  1.00  0.00    -0.269 OA
BRANCH  29  32
ATOM     32  C   UNL     1      -7.472   9.438  -4.152  1.00  0.00     0.039 A 
ATOM     33  C   UNL     1      -8.510   9.658  -3.244  1.00  0.00     0.014 A 
ATOM     34  C   UNL     1      -6.543  10.451  -4.406  1.00  0.00     0.014 A 
ATOM     35  C   UNL     1      -8.582  10.871  -2.560  1.00  0.00     0.010 A 
ATOM     36  C   UNL     1      -6.545  11.608  -3.638  1.00  0.00     0.010 A 
ATOM     37  C   UNL     1      -7.580  11.844  -2.726  1.00  0.00    -0.014 A 
BRANCH  37  38
ATOM     38  C   UNL     1      -7.624  13.120  -1.971  1.00  0.00     0.031 A 
ATOM     39  C   UNL     1      -7.735  14.430  -2.707  1.00  0.00     0.074 A 
ATOM     40  C   UNL     1      -7.547  13.094  -0.625  1.00  0.00     0.049 A 
ATOM     41  N   UNL     1      -7.814  15.642  -2.220  1.00  0.00    -0.248 NA
ATOM     42  C   UNL     1      -7.732  14.381  -4.181  1.00  0.00     0.031 C 
ATOM     43  C   UNL     1      -7.374  11.888   0.191  1.00  0.00     0.029 A 
ATOM     44  N   UNL     1      -7.619  14.107   0.296  1.00  0.00    -0.354 N 
ATOM     45  C   UNL     1      -7.867  16.490  -3.321  1.00  0.00     0.074 A 
ATOM     46  C   UNL     1      -7.740  15.666  -4.500  1.00  0.00     0.031 C 
ATOM     47  C   UNL     1      -7.409  12.226   1.490  1.00  0.00     0.029 A 
ATOM     48  C   UNL     1      -7.563  13.672   1.600  1.00  0.00     0.049 A 
ATOM     49  H   UNL     1      -7.703  15.056   0.047  1.00  0.00     0.167 HD
ATOM     50  C   UNL     1      -8.043  17.831  -3.350  1.00  0.00     0.031 A 
ATOM     51  C   UNL     1      -7.634  14.363   2.753  1.00  0.00     0.031 A 
ATOM     52  C   UNL     1      -8.185  18.645  -2.173  1.00  0.00     0.049 A 
ATOM     53  C   UNL     1      -7.824  15.854   2.690  1.00  0.00     0.074 A 
ATOM     54  C   UNL     1      -8.409  20.007  -2.089  1.00  0.00     0.029 A 
ATOM     55  N   UNL     1      -8.121  18.168  -0.872  1.00  0.00    -0.354 N 
ATOM     56  N   UNL     1      -7.946  16.627   1.635  1.00  0.00    -0.248 NA
ATOM     57  C   UNL     1      -7.904  16.565   3.972  1.00  0.00     0.031 C 
ATOM     58  C   UNL     1      -8.431  20.362  -0.737  1.00  0.00     0.029 A 
ATOM     59  C   UNL     1      -8.283  19.212   0.021  1.00  0.00     0.049 A 
ATOM     60  H   UNL     1      -7.981  17.226  -0.622  1.00  0.00     0.167 HD
ATOM     61  C   UNL     1      -8.141  17.912   2.131  1.00  0.00     0.074 A 
ATOM     62  C   UNL     1      -8.155  17.803   3.575  1.00  0.00     0.031 C 
ATOM     63  C   UNL     1      -8.289  19.079   1.455  1.00  0.00     0.031 A 
BRANCH  50  64
ATOM     64  C   UNL     1      -8.117  18.502  -4.698  1.00  0.00    -0.014 A 
ATOM     65  C   UNL     1      -9.226  18.305  -5.541  1.00  0.00     0.010 A 
ATOM     66  C   UNL     1      -7.104  19.392  -5.099  1.00  0.00     0.010 A 
ATOM     67  C   UNL     1      -9.311  18.968  -6.768  1.00  0.00     0.020 A 
ATOM     68  C   UNL     1      -7.199  20.079  -6.313  1.00  0.00     0.020 A 
ATOM     69  C   UNL     1      -8.300  19.856  -7.143  1.00  0.00     0.054 A 
BRANCH  69  70
ATOM     70  S   UNL     1      -8.472  20.750  -8.712  1.00  0.00     0.124 S 
ATOM     71  O   UNL     1      -8.271  19.685  -9.691  1.00  0.00    -0.237 OA
ATOM     72  O   UNL     1      -9.831  21.278  -8.630  1.00  0.00    -0.237 OA
ATOM     73  O   UNL     1      -7.412  21.754  -8.659  1.00  0.00    -0.744 OA
ENDBRANCH  69  70
ENDBRANCH  50  64
BRANCH  51  74
ATOM     74  C   UNL     1      -7.536  13.660   4.064  1.00  0.00    -0.014 A 
ATOM     75  C   UNL     1      -8.636  13.617   4.940  1.00  0.00     0.010 A 
ATOM     76  C   UNL     1      -6.329  13.055   4.457  1.00  0.00     0.010 A 
ATOM     77  C   UNL     1      -8.516  13.024   6.201  1.00  0.00     0.020 A 
ATOM     78  C   UNL     1      -6.215  12.430   5.702  1.00  0.00     0.020 A 
ATOM     79  C   UNL     1      -7.304  12.438   6.575  1.00  0.00     0.054 A 
BRANCH  79  80
ATOM     80  S   UNL     1      -7.170  11.669   8.213  1.00  0.00     0.124 S 
ATOM     81  O   UNL     1      -7.115  12.834   9.091  1.00  0.00    -0.237 OA
ATOM     82  O   UNL     1      -8.393  10.874   8.290  1.00  0.00    -0.237 OA
ATOM     83  O   UNL     1      -5.936  10.891   8.125  1.00  0.00    -0.744 OA
ENDBRANCH  79  80
ENDBRANCH  51  74
BRANCH  63  84
ATOM     84  C   UNL     1      -8.509  20.320   2.278  1.00  0.00    -0.014 A 
ATOM     85  C   UNL     1      -7.480  20.861   3.070  1.00  0.00     0.010 A 
ATOM     86  C   UNL     1      -9.759  20.964   2.242  1.00  0.00     0.010 A 
ATOM     87  C   UNL     1      -7.716  21.990   3.857  1.00  0.00     0.020 A 
ATOM     88  C   UNL     1      -9.988  22.114   3.000  1.00  0.00     0.020 A 
ATOM     89  C   UNL     1      -8.971  22.606   3.821  1.00  0.00     0.054 A 
BRANCH  89  90
ATOM     90  S   UNL     1      -9.250  24.075   4.846  1.00  0.00     0.124 S 
ATOM     91  O   UNL     1      -9.339  23.497   6.184  1.00  0.00    -0.237 OA
ATOM     92  O   UNL     1      -8.058  24.878   4.586  1.00  0.00    -0.237 OA
ATOM     93  O   UNL     1     -10.496  24.631   4.323  1.00  0.00    -0.744 OA
ENDBRANCH  89  90
ENDBRANCH  63  84
ENDBRANCH  37  38
ENDBRANCH  29  32
ENDBRANCH  27  28
ENDBRANCH  26  27
ENDBRANCH   1  26
TORSDOF 19
