REMARK SMILES Nc1cc(C(=O)NCCCCNC(=O)c2ccc(-c3c4nc(c(-c5ccc(S(=O)(=O)[O-])cc5)c5ccc([nH]5)c(-c5ccc(S(=O)(=O)[O-])cc5)c5nc(c(-c6ccc(S(=O)(=O)[O-])cc6)c6ccc3[nH]6)C=C5)C=C4)cc2)ccc1N1CC2(CCOCC2)C1
REMARK SMILES IDX 10 1 9 2 8 3 7 4 5 5 6 6 4 8 2 9 3 10 77 11 76 12 75 13 1 14
REMARK SMILES IDX 78 17 79 18 86 19 80 20 81 21 85 22 82 23 84 24 83 25 11 26
REMARK SMILES IDX 12 27 13 28 14 30 15 31 16 32 74 33 17 34 73 35 18 36 19 37
REMARK SMILES IDX 20 38 67 39 21 40 72 41 66 42 68 43 22 44 71 45 65 46 64 47
REMARK SMILES IDX 23 49 53 50 34 51 52 52 35 53 38 54 51 55 69 56 36 57 37 58
REMARK SMILES IDX 50 60 70 61 39 62 24 63 25 64 33 65 26 66 32 67 27 68 28 69
REMARK SMILES IDX 29 70 30 71 31 72 54 73 55 74 63 75 56 76 62 77 57 78 58 79
REMARK SMILES IDX 59 80 60 81 61 82 40 83 41 84 49 85 42 86 48 87 43 88 44 89
REMARK SMILES IDX 45 90 46 91 47 92
REMARK H PARENT 7 7 1 15 1 16 12 29 68 48 38 59
REMARK Flexibility Score: inf
ROOT
ATOM      1  C   UNL     1      -5.907  -2.095  -1.509  1.00  0.00     0.023 C 
ENDROOT
BRANCH   1   2
ATOM      2  C   UNL     1      -4.902  -1.067  -0.978  1.00  0.00     0.023 C 
BRANCH   2   3
ATOM      3  C   UNL     1      -4.232  -1.470   0.337  1.00  0.00     0.116 C 
BRANCH   3   4
ATOM      4  N   UNL     1      -3.181  -2.432   0.093  1.00  0.00    -0.352 N 
ATOM      5  C   UNL     1      -1.845  -2.309  -0.181  1.00  0.00     0.251 C 
ATOM      6  O   UNL     1      -1.231  -3.360  -0.382  1.00  0.00    -0.269 OA
ATOM      7  H   UNL     1      -3.488  -3.366   0.133  1.00  0.00     0.163 HD
BRANCH   5   8
ATOM      8  C   UNL     1      -1.089  -1.018  -0.209  1.00  0.00     0.041 A 
ATOM      9  C   UNL     1       1.149  -0.016  -0.124  1.00  0.00     0.056 A 
ATOM     10  C   UNL     1       0.309  -1.135  -0.138  1.00  0.00     0.041 A 
ATOM     11  C   UNL     1       0.582   1.276  -0.116  1.00  0.00     0.060 A 
ATOM     12  C   UNL     1      -0.806   1.400  -0.209  1.00  0.00     0.029 A 
ATOM     13  C   UNL     1      -1.629   0.266  -0.295  1.00  0.00     0.016 A 
BRANCH   9  14
ATOM     14  N   UNL     1       2.517  -0.212   0.068  1.00  0.00    -0.397 N 
ATOM     15  H   UNL     1       2.889  -1.123   0.057  1.00  0.00     0.156 HD
ATOM     16  H   UNL     1       3.109   0.560   0.213  1.00  0.00     0.156 HD
ENDBRANCH   9  14
BRANCH  11  17
ATOM     17  N   UNL     1       1.400   2.405   0.024  1.00  0.00    -0.369 N 
ATOM     18  C   UNL     1       2.345   2.980  -0.874  1.00  0.00     0.125 C 
ATOM     19  C   UNL     1       1.270   3.587   0.809  1.00  0.00     0.125 C 
ATOM     20  C   UNL     1       2.685   3.959   0.284  1.00  0.00     0.010 C 
ATOM     21  C   UNL     1       2.906   5.421  -0.091  1.00  0.00     0.039 C 
ATOM     22  C   UNL     1       3.828   3.475   1.196  1.00  0.00     0.039 C 
ATOM     23  C   UNL     1       4.289   5.561  -0.721  1.00  0.00     0.161 C 
ATOM     24  C   UNL     1       5.154   3.714   0.487  1.00  0.00     0.161 C 
ATOM     25  O   UNL     1       5.304   5.102   0.178  1.00  0.00    -0.381 OA
ENDBRANCH  11  17
ENDBRANCH   5   8
ENDBRANCH   3   4
ENDBRANCH   2   3
ENDBRANCH   1   2
BRANCH   1  26
ATOM     26  C   UNL     1      -7.103  -2.362  -0.598  1.00  0.00     0.116 C 
BRANCH  26  27
ATOM     27  N   UNL     1      -7.835  -1.156  -0.244  1.00  0.00    -0.352 N 
ATOM     28  C   UNL     1      -9.166  -1.026   0.082  1.00  0.00     0.251 C 
ATOM     29  H   UNL     1      -7.309  -0.324  -0.238  1.00  0.00     0.163 HD
ATOM     30  O   UNL     1      -9.652   0.079   0.258  1.00  0.00    -0.269 OA
BRANCH  28  31
ATOM     31  C   UNL     1     -10.002  -2.241   0.170  1.00  0.00     0.039 A 
ATOM     32  C   UNL     1     -11.199  -2.282  -0.549  1.00  0.00     0.014 A 
ATOM     33  C   UNL     1      -9.590  -3.341   0.926  1.00  0.00     0.014 A 
ATOM     34  C   UNL     1     -11.952  -3.457  -0.565  1.00  0.00     0.010 A 
ATOM     35  C   UNL     1     -10.311  -4.530   0.861  1.00  0.00     0.010 A 
ATOM     36  C   UNL     1     -11.495  -4.600   0.111  1.00  0.00    -0.014 A 
BRANCH  36  37
ATOM     37  C   UNL     1     -12.235  -5.883   0.034  1.00  0.00     0.031 A 
ATOM     38  C   UNL     1     -12.870  -6.465   1.265  1.00  0.00     0.074 A 
ATOM     39  C   UNL     1     -12.271  -6.558  -1.133  1.00  0.00     0.049 A 
ATOM     40  N   UNL     1     -13.504  -7.600   1.406  1.00  0.00    -0.248 NA
ATOM     41  C   UNL     1     -12.757  -5.680   2.505  1.00  0.00     0.031 C 
ATOM     42  C   UNL     1     -11.652  -6.120  -2.386  1.00  0.00     0.029 A 
ATOM     43  N   UNL     1     -12.848  -7.761  -1.451  1.00  0.00    -0.354 N 
ATOM     44  C   UNL     1     -13.848  -7.676   2.750  1.00  0.00     0.074 A 
ATOM     45  C   UNL     1     -13.315  -6.493   3.390  1.00  0.00     0.031 C 
ATOM     46  C   UNL     1     -11.902  -7.030  -3.341  1.00  0.00     0.029 A 
ATOM     47  C   UNL     1     -12.667  -8.129  -2.763  1.00  0.00     0.049 A 
ATOM     48  H   UNL     1     -13.344  -8.310  -0.801  1.00  0.00     0.167 HD
ATOM     49  C   UNL     1     -14.559  -8.635   3.391  1.00  0.00     0.031 A 
ATOM     50  C   UNL     1     -13.070  -9.230  -3.427  1.00  0.00     0.031 A 
ATOM     51  C   UNL     1     -15.099  -9.803   2.749  1.00  0.00     0.049 A 
ATOM     52  C   UNL     1     -13.866 -10.276  -2.697  1.00  0.00     0.074 A 
ATOM     53  C   UNL     1     -15.882 -10.803   3.298  1.00  0.00     0.029 A 
ATOM     54  N   UNL     1     -14.913 -10.128   1.414  1.00  0.00    -0.354 N 
ATOM     55  N   UNL     1     -14.237 -10.298  -1.439  1.00  0.00    -0.248 NA
ATOM     56  C   UNL     1     -14.306 -11.439  -3.479  1.00  0.00     0.031 C 
ATOM     57  C   UNL     1     -16.137 -11.754   2.304  1.00  0.00     0.029 A 
ATOM     58  C   UNL     1     -15.551 -11.322   1.125  1.00  0.00     0.049 A 
ATOM     59  H   UNL     1     -14.402  -9.590   0.767  1.00  0.00     0.167 HD
ATOM     60  C   UNL     1     -14.974 -11.466  -1.284  1.00  0.00     0.074 A 
ATOM     61  C   UNL     1     -15.007 -12.116  -2.579  1.00  0.00     0.031 C 
ATOM     62  C   UNL     1     -15.571 -11.956  -0.169  1.00  0.00     0.031 A 
BRANCH  49  63
ATOM     63  C   UNL     1     -14.785  -8.455   4.868  1.00  0.00    -0.014 A 
ATOM     64  C   UNL     1     -15.656  -7.461   5.351  1.00  0.00     0.010 A 
ATOM     65  C   UNL     1     -14.135  -9.300   5.785  1.00  0.00     0.010 A 
ATOM     66  C   UNL     1     -15.835  -7.284   6.725  1.00  0.00     0.020 A 
ATOM     67  C   UNL     1     -14.332  -9.144   7.160  1.00  0.00     0.020 A 
ATOM     68  C   UNL     1     -15.165  -8.122   7.622  1.00  0.00     0.054 A 
BRANCH  68  69
ATOM     69  S   UNL     1     -15.419  -7.876   9.401  1.00  0.00     0.124 S 
ATOM     70  O   UNL     1     -14.613  -6.685   9.656  1.00  0.00    -0.237 OA
ATOM     71  O   UNL     1     -16.865  -7.687   9.497  1.00  0.00    -0.237 OA
ATOM     72  O   UNL     1     -14.915  -9.110   9.997  1.00  0.00    -0.744 OA
ENDBRANCH  68  69
ENDBRANCH  49  63
BRANCH  50  73
ATOM     73  C   UNL     1     -12.747  -9.384  -4.870  1.00  0.00    -0.014 A 
ATOM     74  C   UNL     1     -13.750  -9.228  -5.843  1.00  0.00     0.010 A 
ATOM     75  C   UNL     1     -11.431  -9.662  -5.282  1.00  0.00     0.010 A 
ATOM     76  C   UNL     1     -13.447  -9.363  -7.200  1.00  0.00     0.020 A 
ATOM     77  C   UNL     1     -11.120  -9.774  -6.640  1.00  0.00     0.020 A 
ATOM     78  C   UNL     1     -12.133  -9.633  -7.591  1.00  0.00     0.054 A 
BRANCH  78  79
ATOM     79  S   UNL     1     -11.749  -9.743  -9.361  1.00  0.00     0.124 S 
ATOM     80  O   UNL     1     -12.275 -11.060  -9.704  1.00  0.00    -0.237 OA
ATOM     81  O   UNL     1     -12.480  -8.605  -9.915  1.00  0.00    -0.237 OA
ATOM     82  O   UNL     1     -10.294  -9.617  -9.402  1.00  0.00    -0.744 OA
ENDBRANCH  78  79
ENDBRANCH  50  73
BRANCH  62  83
ATOM     83  C   UNL     1     -16.334 -13.245  -0.306  1.00  0.00    -0.014 A 
ATOM     84  C   UNL     1     -15.665 -14.475  -0.429  1.00  0.00     0.010 A 
ATOM     85  C   UNL     1     -17.739 -13.228  -0.255  1.00  0.00     0.010 A 
ATOM     86  C   UNL     1     -16.390 -15.665  -0.528  1.00  0.00     0.020 A 
ATOM     87  C   UNL     1     -18.467 -14.418  -0.329  1.00  0.00     0.020 A 
ATOM     88  C   UNL     1     -17.787 -15.629  -0.478  1.00  0.00     0.054 A 
BRANCH  88  89
ATOM     89  S   UNL     1     -18.707 -17.190  -0.560  1.00  0.00     0.124 S 
ATOM     90  O   UNL     1     -18.624 -17.517  -1.981  1.00  0.00    -0.237 OA
ATOM     91  O   UNL     1     -17.943 -18.061   0.330  1.00  0.00    -0.237 OA
ATOM     92  O   UNL     1     -20.039 -16.832  -0.079  1.00  0.00    -0.744 OA
ENDBRANCH  88  89
ENDBRANCH  62  83
ENDBRANCH  36  37
ENDBRANCH  28  31
ENDBRANCH  26  27
ENDBRANCH   1  26
TORSDOF 16
