REMARK SMILES Cc1cc(C)cc(-c2ccc([C@@H](C)C(=O)NCCCCNC(=O)c3ccc(-c4c5nc(c(-c6ccc(S(=O)(=O)[O-])cc6)c6ccc([nH]6)c(-c6ccc(S(=O)(=O)[O-])cc6)c6nc(c(-c7ccc(S(=O)(=O)[O-])cc7)c7ccc4[nH]7)C=C6)C=C5)cc3)cc2F)c1
REMARK SMILES IDX 19 1 18 2 17 3 16 4 14 5 15 6 12 8 13 9 11 10 8 11 9 12
REMARK SMILES IDX 85 13 10 14 84 15 86 16 7 17 1 18 2 19 3 20 87 21 4 22 5 23
REMARK SMILES IDX 6 24 20 25 21 26 22 27 23 29 24 30 25 31 83 32 26 33 82 34
REMARK SMILES IDX 27 35 28 36 29 37 76 38 30 39 81 40 75 41 77 42 31 43 80 44
REMARK SMILES IDX 74 45 73 46 32 48 62 49 43 50 61 51 44 52 47 53 60 54 78 55
REMARK SMILES IDX 45 56 46 57 59 59 79 60 48 61 33 62 34 63 42 64 35 65 41 66
REMARK SMILES IDX 36 67 37 68 38 69 39 70 40 71 63 72 64 73 72 74 65 75 71 76
REMARK SMILES IDX 66 77 67 78 68 79 69 80 70 81 49 82 50 83 58 84 51 85 57 86
REMARK SMILES IDX 52 87 53 88 54 89 55 90 56 91
REMARK H PARENT 16 7 21 28 77 47 47 58
REMARK Flexibility Score: inf
ROOT
ATOM      1  C   UNL     1       0.076  -5.872  -4.837  1.00  0.00     0.023 C 
ENDROOT
BRANCH   1   2
ATOM      2  C   UNL     1      -0.544  -5.933  -3.441  1.00  0.00     0.023 C 
BRANCH   2   3
ATOM      3  C   UNL     1      -0.812  -7.343  -2.913  1.00  0.00     0.116 C 
BRANCH   3   4
ATOM      4  N   UNL     1       0.348  -7.915  -2.260  1.00  0.00    -0.356 N 
ATOM      5  C   UNL     1       0.707  -7.974  -0.948  1.00  0.00     0.227 C 
ATOM      6  O   UNL     1       1.803  -8.489  -0.696  1.00  0.00    -0.274 OA
ATOM      7  H   UNL     1       0.991  -8.336  -2.874  1.00  0.00     0.163 HD
BRANCH   5   8
ATOM      8  C   UNL     1      -0.170  -7.456   0.203  1.00  0.00     0.105 C 
ATOM      9  C   UNL     1      -1.509  -8.182   0.338  1.00  0.00     0.023 C 
BRANCH   8  10
ATOM     10  C   UNL     1      -0.215  -5.939   0.292  1.00  0.00    -0.033 A 
ATOM     11  C   UNL     1      -0.114  -3.073   0.347  1.00  0.00     0.017 A 
ATOM     12  C   UNL     1      -1.157  -3.769  -0.289  1.00  0.00     0.012 A 
ATOM     13  C   UNL     1       0.853  -3.860   0.990  1.00  0.00     0.131 A 
ATOM     14  C   UNL     1      -1.226  -5.169  -0.289  1.00  0.00     0.005 A 
ATOM     15  C   UNL     1       0.820  -5.258   0.949  1.00  0.00     0.044 A 
ATOM     16  F   UNL     1       1.857  -3.287   1.675  1.00  0.00    -0.206 F 
BRANCH  11  17
ATOM     17  C   UNL     1      -0.049  -1.592   0.294  1.00  0.00    -0.015 A 
ATOM     18  C   UNL     1       2.558   1.200   0.001  1.00  0.00     0.044 C 
ATOM     19  C   UNL     1       1.238   0.491   0.090  1.00  0.00    -0.050 A 
ATOM     20  C   UNL     1       0.050   1.227   0.063  1.00  0.00     0.006 A 
ATOM     21  C   UNL     1       1.176  -0.907   0.197  1.00  0.00     0.012 A 
ATOM     22  C   UNL     1      -1.187   0.583   0.150  1.00  0.00    -0.050 A 
ATOM     23  C   UNL     1      -2.455   1.381   0.091  1.00  0.00     0.044 C 
ATOM     24  C   UNL     1      -1.222  -0.812   0.284  1.00  0.00     0.012 A 
ENDBRANCH  11  17
ENDBRANCH   8  10
ENDBRANCH   5   8
ENDBRANCH   3   4
ENDBRANCH   2   3
ENDBRANCH   1   2
BRANCH   1  25
ATOM     25  C   UNL     1      -0.771  -6.463  -5.960  1.00  0.00     0.116 C 
BRANCH  25  26
ATOM     26  N   UNL     1      -2.094  -5.866  -6.083  1.00  0.00    -0.352 N 
ATOM     27  C   UNL     1      -2.842  -5.685  -7.227  1.00  0.00     0.251 C 
ATOM     28  H   UNL     1      -2.505  -5.553  -5.246  1.00  0.00     0.163 HD
ATOM     29  O   UNL     1      -3.916  -5.102  -7.183  1.00  0.00    -0.269 OA
BRANCH  27  30
ATOM     30  C   UNL     1      -2.296  -6.161  -8.517  1.00  0.00     0.039 A 
ATOM     31  C   UNL     1      -2.184  -5.257  -9.576  1.00  0.00     0.014 A 
ATOM     32  C   UNL     1      -1.821  -7.468  -8.646  1.00  0.00     0.014 A 
ATOM     33  C   UNL     1      -1.506  -5.638 -10.736  1.00  0.00     0.010 A 
ATOM     34  C   UNL     1      -1.091  -7.823  -9.775  1.00  0.00     0.010 A 
ATOM     35  C   UNL     1      -0.910  -6.907 -10.823  1.00  0.00    -0.014 A 
BRANCH  35  36
ATOM     36  C   UNL     1      -0.058  -7.287 -11.977  1.00  0.00     0.031 A 
ATOM     37  C   UNL     1      -0.467  -8.418 -12.877  1.00  0.00     0.074 A 
ATOM     38  C   UNL     1       1.133  -6.679 -12.152  1.00  0.00     0.049 A 
ATOM     39  N   UNL     1       0.194  -8.966 -13.864  1.00  0.00    -0.248 NA
ATOM     40  C   UNL     1      -1.778  -9.034 -12.615  1.00  0.00     0.031 C 
ATOM     41  C   UNL     1       1.670  -5.604 -11.313  1.00  0.00     0.029 A 
ATOM     42  N   UNL     1       2.118  -6.893 -13.084  1.00  0.00    -0.354 N 
ATOM     43  C   UNL     1      -0.604 -10.007 -14.322  1.00  0.00     0.074 A 
ATOM     44  C   UNL     1      -1.783 -10.036 -13.483  1.00  0.00     0.031 C 
ATOM     45  C   UNL     1       2.877  -5.243 -11.778  1.00  0.00     0.029 A 
ATOM     46  C   UNL     1       3.217  -6.083 -12.922  1.00  0.00     0.049 A 
ATOM     47  H   UNL     1       2.044  -7.564 -13.801  1.00  0.00     0.167 HD
ATOM     48  C   UNL     1      -0.383 -10.853 -15.355  1.00  0.00     0.031 A 
ATOM     49  C   UNL     1       4.375  -6.028 -13.609  1.00  0.00     0.031 A 
ATOM     50  C   UNL     1       0.777 -10.805 -16.204  1.00  0.00     0.049 A 
ATOM     51  C   UNL     1       4.588  -6.964 -14.766  1.00  0.00     0.074 A 
ATOM     52  C   UNL     1       1.055 -11.570 -17.323  1.00  0.00     0.029 A 
ATOM     53  N   UNL     1       1.850  -9.945 -16.029  1.00  0.00    -0.354 N 
ATOM     54  N   UNL     1       3.788  -7.895 -15.228  1.00  0.00    -0.248 NA
ATOM     55  C   UNL     1       5.856  -6.837 -15.499  1.00  0.00     0.031 C 
ATOM     56  C   UNL     1       2.315 -11.197 -17.804  1.00  0.00     0.029 A 
ATOM     57  C   UNL     1       2.802 -10.173 -17.008  1.00  0.00     0.049 A 
ATOM     58  H   UNL     1       1.924  -9.272 -15.315  1.00  0.00     0.167 HD
ATOM     59  C   UNL     1       4.448  -8.453 -16.316  1.00  0.00     0.074 A 
ATOM     60  C   UNL     1       5.706  -7.747 -16.453  1.00  0.00     0.031 C 
ATOM     61  C   UNL     1       4.048  -9.460 -17.129  1.00  0.00     0.031 A 
BRANCH  48  62
ATOM     62  C   UNL     1      -1.422 -11.907 -15.621  1.00  0.00    -0.014 A 
ATOM     63  C   UNL     1      -2.671 -11.568 -16.173  1.00  0.00     0.010 A 
ATOM     64  C   UNL     1      -1.137 -13.255 -15.343  1.00  0.00     0.010 A 
ATOM     65  C   UNL     1      -3.634 -12.555 -16.399  1.00  0.00     0.020 A 
ATOM     66  C   UNL     1      -2.089 -14.248 -15.591  1.00  0.00     0.020 A 
ATOM     67  C   UNL     1      -3.339 -13.888 -16.100  1.00  0.00     0.054 A 
BRANCH  67  68
ATOM     68  S   UNL     1      -4.602 -15.152 -16.415  1.00  0.00     0.124 S 
ATOM     69  O   UNL     1      -5.514 -14.949 -15.293  1.00  0.00    -0.237 OA
ATOM     70  O   UNL     1      -5.123 -14.768 -17.724  1.00  0.00    -0.237 OA
ATOM     71  O   UNL     1      -3.851 -16.405 -16.390  1.00  0.00    -0.744 OA
ENDBRANCH  67  68
ENDBRANCH  48  62
BRANCH  49  72
ATOM     72  C   UNL     1       5.418  -5.041 -13.225  1.00  0.00    -0.014 A 
ATOM     73  C   UNL     1       5.642  -3.901 -14.017  1.00  0.00     0.010 A 
ATOM     74  C   UNL     1       6.181  -5.226 -12.058  1.00  0.00     0.010 A 
ATOM     75  C   UNL     1       6.620  -2.970 -13.656  1.00  0.00     0.020 A 
ATOM     76  C   UNL     1       7.144  -4.285 -11.682  1.00  0.00     0.020 A 
ATOM     77  C   UNL     1       7.364  -3.167 -12.490  1.00  0.00     0.054 A 
BRANCH  77  78
ATOM     78  S   UNL     1       8.588  -1.917 -12.007  1.00  0.00     0.124 S 
ATOM     79  O   UNL     1       9.700  -2.220 -12.902  1.00  0.00    -0.237 OA
ATOM     80  O   UNL     1       7.885  -0.664 -12.274  1.00  0.00    -0.237 OA
ATOM     81  O   UNL     1       8.823  -2.200 -10.593  1.00  0.00    -0.744 OA
ENDBRANCH  77  78
ENDBRANCH  49  72
BRANCH  61  82
ATOM     82  C   UNL     1       4.966  -9.849 -18.254  1.00  0.00    -0.014 A 
ATOM     83  C   UNL     1       6.124 -10.608 -18.012  1.00  0.00     0.010 A 
ATOM     84  C   UNL     1       4.630  -9.507 -19.576  1.00  0.00     0.010 A 
ATOM     85  C   UNL     1       6.941 -11.005 -19.074  1.00  0.00     0.020 A 
ATOM     86  C   UNL     1       5.433  -9.919 -20.642  1.00  0.00     0.020 A 
ATOM     87  C   UNL     1       6.590 -10.658 -20.382  1.00  0.00     0.054 A 
BRANCH  87  88
ATOM     88  S   UNL     1       7.631 -11.236 -21.751  1.00  0.00     0.124 S 
ATOM     89  O   UNL     1       8.764 -10.318 -21.678  1.00  0.00    -0.237 OA
ATOM     90  O   UNL     1       7.918 -12.619 -21.377  1.00  0.00    -0.237 OA
ATOM     91  O   UNL     1       6.776 -11.080 -22.925  1.00  0.00    -0.744 OA
ENDBRANCH  87  88
ENDBRANCH  61  82
ENDBRANCH  35  36
ENDBRANCH  27  30
ENDBRANCH  25  26
ENDBRANCH   1  25
TORSDOF 16
