REMARK SMILES O=C(/C=C/C(=O)Nc1ccc(Br)c([N+](=O)[O-])c1)NCCCCNC(=O)c1ccc(-c2c3nc(c(-c4ccc(S(=O)(=O)[O-])cc4)c4ccc([nH]4)c(-c4ccc(S(=O)(=O)[O-])cc4)c4nc(c(-c5ccc(S(=O)(=O)[O-])cc5)c5ccc2[nH]5)C=C4)C=C3)cc1
REMARK SMILES IDX 20 1 19 2 18 3 1 4 2 5 3 7 4 8 5 9 6 10 7 11 8 13 9 14 17 15
REMARK SMILES IDX 10 16 13 17 11 18 12 19 14 20 15 21 16 22 21 23 22 24 23 25
REMARK SMILES IDX 24 26 25 28 26 29 27 30 85 31 28 32 84 33 29 34 30 35 31 36
REMARK SMILES IDX 78 37 32 38 83 39 77 40 79 41 33 42 82 43 76 44 75 45 34 47
REMARK SMILES IDX 64 48 45 49 63 50 46 51 49 52 62 53 80 54 47 55 48 56 61 58
REMARK SMILES IDX 81 59 50 60 35 61 36 62 44 63 37 64 43 65 38 66 39 67 40 68
REMARK SMILES IDX 41 69 42 70 65 71 66 72 74 73 67 74 73 75 68 76 69 77 70 78
REMARK SMILES IDX 71 79 72 80 51 81 52 82 60 83 53 84 59 85 54 86 55 87 56 88
REMARK SMILES IDX 57 89 58 90
REMARK H PARENT 18 6 7 12 23 27 79 46 49 57
REMARK Flexibility Score: inf
ROOT
ATOM      1  C   UNL     1       2.415  -3.444   0.841  1.00  0.00     0.023 C 
ENDROOT
BRANCH   1   2
ATOM      2  C   UNL     1       2.137  -2.072   1.454  1.00  0.00     0.116 C 
BRANCH   2   3
ATOM      3  N   UNL     1       2.871  -1.034   0.760  1.00  0.00    -0.353 N 
ATOM      4  O   UNL     1       1.087  -0.319  -0.499  1.00  0.00    -0.270 OA
ATOM      5  C   UNL     1       2.277  -0.279  -0.209  1.00  0.00     0.244 C 
ATOM      6  H   UNL     1       3.813  -0.870   0.992  1.00  0.00     0.163 HD
BRANCH   5   7
ATOM      7  C   UNL     1       3.173   0.598  -0.986  1.00  0.00     0.077 C 
ATOM      8  C   UNL     1       4.204   1.291  -0.481  1.00  0.00     0.077 C 
BRANCH   8   9
ATOM      9  C   UNL     1       4.903   2.296  -1.321  1.00  0.00     0.248 C 
ATOM     10  O   UNL     1       6.129   2.276  -1.382  1.00  0.00    -0.270 OA
ATOM     11  N   UNL     1       4.175   3.192  -2.065  1.00  0.00    -0.322 N 
ATOM     12  H   UNL     1       4.683   3.685  -2.748  1.00  0.00     0.170 HD
BRANCH  11  13
ATOM     13  C   UNL     1       2.806   3.505  -1.990  1.00  0.00     0.048 A 
ATOM     14  C   UNL     1       2.094   3.476  -0.792  1.00  0.00     0.028 A 
ATOM     15  C   UNL     1       2.130   3.778  -3.179  1.00  0.00     0.113 A 
ATOM     16  C   UNL     1       0.702   3.569  -0.799  1.00  0.00     0.025 A 
ATOM     17  C   UNL     1       0.717   3.859  -3.196  1.00  0.00     0.285 A 
ATOM     18  C   UNL     1      -0.004   3.725  -2.000  1.00  0.00     0.095 A 
ATOM     19  Br  UNL     1      -1.896   3.674  -1.811  1.00  0.00    -0.043 Br
BRANCH  17  20
ATOM     20  N   UNL     1       0.084   4.036  -4.514  1.00  0.00     0.064 N 
ATOM     21  O   UNL     1       0.817   3.949  -5.511  1.00  0.00    -0.258 OA
ATOM     22  O   UNL     1      -1.123   4.290  -4.581  1.00  0.00    -0.258 OA
ENDBRANCH  17  20
ENDBRANCH  11  13
ENDBRANCH   8   9
ENDBRANCH   5   7
ENDBRANCH   2   3
ENDBRANCH   1   2
BRANCH   1  23
ATOM     23  C   UNL     1       3.888  -3.862   0.879  1.00  0.00     0.023 C 
BRANCH  23  24
ATOM     24  C   UNL     1       4.523  -3.858   2.265  1.00  0.00     0.116 C 
BRANCH  24  25
ATOM     25  N   UNL     1       3.897  -4.808   3.169  1.00  0.00    -0.352 N 
ATOM     26  C   UNL     1       4.487  -5.761   3.963  1.00  0.00     0.251 C 
ATOM     27  H   UNL     1       2.914  -4.762   3.218  1.00  0.00     0.163 HD
ATOM     28  O   UNL     1       3.790  -6.593   4.541  1.00  0.00    -0.269 OA
BRANCH  26  29
ATOM     29  C   UNL     1       5.959  -5.800   4.098  1.00  0.00     0.039 A 
ATOM     30  C   UNL     1       6.615  -7.028   3.990  1.00  0.00     0.014 A 
ATOM     31  C   UNL     1       6.692  -4.630   4.315  1.00  0.00     0.014 A 
ATOM     32  C   UNL     1       8.010  -7.074   4.035  1.00  0.00     0.010 A 
ATOM     33  C   UNL     1       8.084  -4.668   4.281  1.00  0.00     0.010 A 
ATOM     34  C   UNL     1       8.759  -5.890   4.143  1.00  0.00    -0.014 A 
BRANCH  34  35
ATOM     35  C   UNL     1      10.245  -5.912   4.102  1.00  0.00     0.031 A 
ATOM     36  C   UNL     1      11.046  -5.446   5.289  1.00  0.00     0.074 A 
ATOM     37  C   UNL     1      10.877  -6.298   2.975  1.00  0.00     0.049 A 
ATOM     38  N   UNL     1      12.344  -5.344   5.419  1.00  0.00    -0.248 NA
ATOM     39  C   UNL     1      10.289  -5.015   6.476  1.00  0.00     0.031 C 
ATOM     40  C   UNL     1      10.217  -6.735   1.742  1.00  0.00     0.029 A 
ATOM     41  N   UNL     1      12.215  -6.378   2.679  1.00  0.00    -0.354 N 
ATOM     42  C   UNL     1      12.559  -4.830   6.692  1.00  0.00     0.074 A 
ATOM     43  C   UNL     1      11.256  -4.587   7.273  1.00  0.00     0.031 C 
ATOM     44  C   UNL     1      11.152  -7.062   0.835  1.00  0.00     0.029 A 
ATOM     45  C   UNL     1      12.474  -6.815   1.401  1.00  0.00     0.049 A 
ATOM     46  H   UNL     1      12.923  -6.145   3.322  1.00  0.00     0.167 HD
ATOM     47  C   UNL     1      13.732  -4.601   7.331  1.00  0.00     0.031 A 
ATOM     48  C   UNL     1      13.642  -6.988   0.750  1.00  0.00     0.031 A 
ATOM     49  C   UNL     1      15.026  -4.843   6.750  1.00  0.00     0.049 A 
ATOM     50  C   UNL     1      14.932  -6.702   1.470  1.00  0.00     0.074 A 
ATOM     51  C   UNL     1      16.272  -4.685   7.331  1.00  0.00     0.029 A 
ATOM     52  N   UNL     1      15.244  -5.287   5.454  1.00  0.00    -0.354 N 
ATOM     53  N   UNL     1      15.114  -6.277   2.698  1.00  0.00    -0.248 NA
ATOM     54  C   UNL     1      16.175  -6.931   0.720  1.00  0.00     0.031 C 
ATOM     55  C   UNL     1      17.244  -4.975   6.369  1.00  0.00     0.029 A 
ATOM     56  C   UNL     1      16.604  -5.383   5.209  1.00  0.00     0.049 A 
ATOM     57  H   UNL     1      14.537  -5.503   4.804  1.00  0.00     0.167 HD
ATOM     58  C   UNL     1      16.492  -6.216   2.876  1.00  0.00     0.074 A 
ATOM     59  C   UNL     1      17.094  -6.663   1.637  1.00  0.00     0.031 C 
ATOM     60  C   UNL     1      17.194  -5.826   3.970  1.00  0.00     0.031 A 
BRANCH  47  61
ATOM     61  C   UNL     1      13.666  -4.050   8.733  1.00  0.00    -0.014 A 
ATOM     62  C   UNL     1      13.170  -4.825   9.797  1.00  0.00     0.010 A 
ATOM     63  C   UNL     1      14.139  -2.752   8.999  1.00  0.00     0.010 A 
ATOM     64  C   UNL     1      13.104  -4.298  11.089  1.00  0.00     0.020 A 
ATOM     65  C   UNL     1      14.107  -2.232  10.296  1.00  0.00     0.020 A 
ATOM     66  C   UNL     1      13.571  -3.002  11.330  1.00  0.00     0.054 A 
BRANCH  66  67
ATOM     67  S   UNL     1      13.487  -2.350  13.020  1.00  0.00     0.124 S 
ATOM     68  O   UNL     1      12.050  -2.145  13.192  1.00  0.00    -0.237 OA
ATOM     69  O   UNL     1      14.065  -3.434  13.810  1.00  0.00    -0.237 OA
ATOM     70  O   UNL     1      14.287  -1.129  12.962  1.00  0.00    -0.744 OA
ENDBRANCH  66  67
ENDBRANCH  47  61
BRANCH  48  71
ATOM     71  C   UNL     1      13.641  -7.463  -0.662  1.00  0.00    -0.014 A 
ATOM     72  C   UNL     1      14.109  -8.748  -0.988  1.00  0.00     0.010 A 
ATOM     73  C   UNL     1      13.153  -6.633  -1.689  1.00  0.00     0.010 A 
ATOM     74  C   UNL     1      14.105  -9.188  -2.315  1.00  0.00     0.020 A 
ATOM     75  C   UNL     1      13.118  -7.082  -3.012  1.00  0.00     0.020 A 
ATOM     76  C   UNL     1      13.604  -8.353  -3.318  1.00  0.00     0.054 A 
BRANCH  76  77
ATOM     77  S   UNL     1      13.557  -8.968  -5.025  1.00  0.00     0.124 S 
ATOM     78  O   UNL     1      14.969  -8.962  -5.390  1.00  0.00    -0.237 OA
ATOM     79  O   UNL     1      12.949 -10.287  -4.866  1.00  0.00    -0.237 OA
ATOM     80  O   UNL     1      12.725  -7.987  -5.718  1.00  0.00    -0.744 OA
ENDBRANCH  76  77
ENDBRANCH  48  71
BRANCH  60  81
ATOM     81  C   UNL     1      18.697  -5.898   3.894  1.00  0.00    -0.014 A 
ATOM     82  C   UNL     1      19.435  -5.008   3.094  1.00  0.00     0.010 A 
ATOM     83  C   UNL     1      19.385  -6.839   4.683  1.00  0.00     0.010 A 
ATOM     84  C   UNL     1      20.831  -5.079   3.059  1.00  0.00     0.020 A 
ATOM     85  C   UNL     1      20.781  -6.892   4.676  1.00  0.00     0.020 A 
ATOM     86  C   UNL     1      21.495  -6.020   3.853  1.00  0.00     0.054 A 
BRANCH  86  87
ATOM     87  S   UNL     1      23.308  -6.061   3.824  1.00  0.00     0.124 S 
ATOM     88  O   UNL     1      23.579  -6.625   2.505  1.00  0.00    -0.237 OA
ATOM     89  O   UNL     1      23.662  -4.653   3.990  1.00  0.00    -0.237 OA
ATOM     90  O   UNL     1      23.654  -6.922   4.952  1.00  0.00    -0.744 OA
ENDBRANCH  86  87
ENDBRANCH  60  81
ENDBRANCH  34  35
ENDBRANCH  26  29
ENDBRANCH  24  25
ENDBRANCH  23  24
ENDBRANCH   1  23
TORSDOF 17
