REMARK SMILES O=C(NCCCCNC(=O)[C@H]1CC=CC[C@@H]1C(=O)N[C@@H]1CCCN(c2ccccc2F)C1=O)c1ccc(-c2c3nc(c(-c4ccc(S(=O)(=O)[O-])cc4)c4ccc([nH]4)c(-c4ccc(S(=O)(=O)[O-])cc4)c4nc(c(-c5ccc(S(=O)(=O)[O-])cc5)c5ccc2[nH]5)C=C4)C=C3)cc1
REMARK SMILES IDX 5 1 4 2 3 3 1 4 2 5 34 7 35 8 93 9 36 10 92 11 37 12 38 13
REMARK SMILES IDX 39 14 86 15 40 16 91 17 85 18 87 19 41 20 90 21 84 22 83 23
REMARK SMILES IDX 42 25 72 26 53 27 71 28 54 29 57 30 70 31 88 32 55 33 56 34
REMARK SMILES IDX 69 36 89 37 58 38 43 39 44 40 52 41 45 42 51 43 46 44 47 45
REMARK SMILES IDX 48 46 49 47 50 48 73 49 74 50 82 51 75 52 81 53 76 54 77 55
REMARK SMILES IDX 78 56 79 57 80 58 59 59 60 60 68 61 61 62 67 63 62 64 63 65
REMARK SMILES IDX 64 66 65 67 66 68 6 69 7 70 8 71 9 72 10 74 11 75 12 76
REMARK SMILES IDX 16 77 13 78 15 79 14 80 17 81 18 82 19 83 20 85 21 86 32 87
REMARK SMILES IDX 22 88 24 89 33 90 23 91 25 92 26 93 30 94 27 95 29 96 31 97
REMARK SMILES IDX 28 98
REMARK H PARENT 3 6 87 24 57 35 8 73 19 84
REMARK Flexibility Score: inf
ROOT
ATOM      1  C   UNL     1       2.874  -2.415   0.222  1.00  0.00     0.023 C 
ENDROOT
BRANCH   1   2
ATOM      2  C   UNL     1       3.620  -1.091   0.103  1.00  0.00     0.116 C 
BRANCH   2   3
ATOM      3  N   UNL     1       4.765  -0.932   0.989  1.00  0.00    -0.352 N 
ATOM      4  O   UNL     1       6.799  -0.051   1.539  1.00  0.00    -0.269 OA
ATOM      5  C   UNL     1       5.905  -0.197   0.725  1.00  0.00     0.251 C 
ATOM      6  H   UNL     1       4.722  -1.391   1.859  1.00  0.00     0.163 HD
BRANCH   5   7
ATOM      7  C   UNL     1       6.058   0.395  -0.610  1.00  0.00     0.039 A 
ATOM      8  C   UNL     1       5.087   1.270  -1.093  1.00  0.00     0.014 A 
ATOM      9  C   UNL     1       7.142  -0.003  -1.396  1.00  0.00     0.014 A 
ATOM     10  C   UNL     1       5.122   1.636  -2.427  1.00  0.00     0.010 A 
ATOM     11  C   UNL     1       7.221   0.437  -2.713  1.00  0.00     0.010 A 
ATOM     12  C   UNL     1       6.194   1.231  -3.242  1.00  0.00    -0.014 A 
BRANCH  12  13
ATOM     13  C   UNL     1       6.253   1.721  -4.633  1.00  0.00     0.031 A 
ATOM     14  C   UNL     1       6.082   0.782  -5.789  1.00  0.00     0.074 A 
ATOM     15  C   UNL     1       6.423   3.043  -4.814  1.00  0.00     0.049 A 
ATOM     16  N   UNL     1       6.061   1.057  -7.067  1.00  0.00    -0.248 NA
ATOM     17  C   UNL     1       5.920  -0.648  -5.479  1.00  0.00     0.031 C 
ATOM     18  C   UNL     1       6.604   4.021  -3.735  1.00  0.00     0.029 A 
ATOM     19  N   UNL     1       6.442   3.799  -5.953  1.00  0.00    -0.354 N 
ATOM     20  C   UNL     1       5.904  -0.162  -7.715  1.00  0.00     0.074 A 
ATOM     21  C   UNL     1       5.855  -1.183  -6.691  1.00  0.00     0.031 C 
ATOM     22  C   UNL     1       6.651   5.252  -4.260  1.00  0.00     0.029 A 
ATOM     23  C   UNL     1       6.572   5.145  -5.710  1.00  0.00     0.049 A 
ATOM     24  H   UNL     1       6.369   3.416  -6.857  1.00  0.00     0.167 HD
ATOM     25  C   UNL     1       5.812  -0.398  -9.046  1.00  0.00     0.031 A 
ATOM     26  C   UNL     1       6.630   6.179  -6.567  1.00  0.00     0.031 A 
ATOM     27  C   UNL     1       5.875   0.640 -10.041  1.00  0.00     0.049 A 
ATOM     28  C   UNL     1       6.533   5.887  -8.033  1.00  0.00     0.074 A 
ATOM     29  C   UNL     1       5.788   0.525 -11.417  1.00  0.00     0.029 A 
ATOM     30  N   UNL     1       6.042   1.991  -9.763  1.00  0.00    -0.354 N 
ATOM     31  N   UNL     1       6.373   4.728  -8.629  1.00  0.00    -0.248 NA
ATOM     32  C   UNL     1       6.626   7.034  -8.942  1.00  0.00     0.031 C 
ATOM     33  C   UNL     1       5.945   1.801 -11.971  1.00  0.00     0.029 A 
ATOM     34  C   UNL     1       6.077   2.718 -10.939  1.00  0.00     0.049 A 
ATOM     35  H   UNL     1       6.123   2.375  -8.860  1.00  0.00     0.167 HD
ATOM     36  C   UNL     1       6.342   5.005  -9.987  1.00  0.00     0.074 A 
ATOM     37  C   UNL     1       6.473   6.445 -10.121  1.00  0.00     0.031 C 
ATOM     38  C   UNL     1       6.223   4.149 -11.032  1.00  0.00     0.031 A 
BRANCH  25  39
ATOM     39  C   UNL     1       5.666  -1.829  -9.496  1.00  0.00    -0.014 A 
ATOM     40  C   UNL     1       4.467  -2.538  -9.297  1.00  0.00     0.010 A 
ATOM     41  C   UNL     1       6.732  -2.466 -10.156  1.00  0.00     0.010 A 
ATOM     42  C   UNL     1       4.352  -3.868  -9.713  1.00  0.00     0.020 A 
ATOM     43  C   UNL     1       6.614  -3.789 -10.595  1.00  0.00     0.020 A 
ATOM     44  C   UNL     1       5.429  -4.488 -10.354  1.00  0.00     0.054 A 
BRANCH  44  45
ATOM     45  S   UNL     1       5.250  -6.212 -10.892  1.00  0.00     0.124 S 
ATOM     46  O   UNL     1       5.333  -6.932  -9.623  1.00  0.00    -0.237 OA
ATOM     47  O   UNL     1       3.937  -6.215 -11.531  1.00  0.00    -0.237 OA
ATOM     48  O   UNL     1       6.380  -6.412 -11.796  1.00  0.00    -0.744 OA
ENDBRANCH  44  45
ENDBRANCH  25  39
BRANCH  26  49
ATOM     49  C   UNL     1       6.789   7.559  -6.040  1.00  0.00    -0.014 A 
ATOM     50  C   UNL     1       5.724   8.473  -6.093  1.00  0.00     0.010 A 
ATOM     51  C   UNL     1       7.990   7.942  -5.413  1.00  0.00     0.010 A 
ATOM     52  C   UNL     1       5.858   9.747  -5.532  1.00  0.00     0.020 A 
ATOM     53  C   UNL     1       8.118   9.203  -4.826  1.00  0.00     0.020 A 
ATOM     54  C   UNL     1       7.053  10.101  -4.897  1.00  0.00     0.054 A 
BRANCH  54  55
ATOM     55  S   UNL     1       7.178  11.729  -4.106  1.00  0.00     0.124 S 
ATOM     56  O   UNL     1       7.359  12.610  -5.256  1.00  0.00    -0.237 OA
ATOM     57  O   UNL     1       5.896  11.845  -3.414  1.00  0.00    -0.237 OA
ATOM     58  O   UNL     1       8.339  11.594  -3.229  1.00  0.00    -0.744 OA
ENDBRANCH  54  55
ENDBRANCH  26  49
BRANCH  38  59
ATOM     59  C   UNL     1       6.219   4.761 -12.403  1.00  0.00    -0.014 A 
ATOM     60  C   UNL     1       7.406   5.243 -12.981  1.00  0.00     0.010 A 
ATOM     61  C   UNL     1       5.019   4.819 -13.133  1.00  0.00     0.010 A 
ATOM     62  C   UNL     1       7.387   5.804 -14.259  1.00  0.00     0.020 A 
ATOM     63  C   UNL     1       5.001   5.357 -14.421  1.00  0.00     0.020 A 
ATOM     64  C   UNL     1       6.183   5.859 -14.970  1.00  0.00     0.054 A 
BRANCH  64  65
ATOM     65  S   UNL     1       6.190   6.556 -16.643  1.00  0.00     0.124 S 
ATOM     66  O   UNL     1       6.271   7.989 -16.373  1.00  0.00    -0.237 OA
ATOM     67  O   UNL     1       7.384   5.959 -17.236  1.00  0.00    -0.237 OA
ATOM     68  O   UNL     1       4.924   6.099 -17.212  1.00  0.00    -0.744 OA
ENDBRANCH  64  65
ENDBRANCH  38  59
ENDBRANCH  12  13
ENDBRANCH   5   7
ENDBRANCH   2   3
ENDBRANCH   1   2
BRANCH   1  69
ATOM     69  C   UNL     1       2.238  -2.702   1.579  1.00  0.00     0.023 C 
BRANCH  69  70
ATOM     70  C   UNL     1       1.249  -1.645   2.063  1.00  0.00     0.116 C 
BRANCH  70  71
ATOM     71  N   UNL     1      -0.143  -2.033   1.985  1.00  0.00    -0.356 N 
ATOM     72  C   UNL     1      -1.077  -2.330   2.920  1.00  0.00     0.224 C 
ATOM     73  H   UNL     1      -0.481  -2.094   1.062  1.00  0.00     0.163 HD
ATOM     74  O   UNL     1      -2.249  -2.153   2.556  1.00  0.00    -0.275 OA
BRANCH  72  75
ATOM     75  C   UNL     1      -0.833  -2.980   4.291  1.00  0.00     0.095 C 
ATOM     76  C   UNL     1      -1.114  -4.486   4.147  1.00  0.00     0.041 C 
ATOM     77  C   UNL     1       0.445  -2.655   5.083  1.00  0.00     0.095 C 
ATOM     78  C   UNL     1       0.092  -5.281   3.771  1.00  0.00    -0.030 C 
ATOM     79  C   UNL     1       1.605  -3.636   4.864  1.00  0.00     0.041 C 
ATOM     80  C   UNL     1       1.325  -4.884   4.094  1.00  0.00    -0.030 C 
BRANCH  77  81
ATOM     81  C   UNL     1       0.190  -2.550   6.586  1.00  0.00     0.224 C 
ATOM     82  O   UNL     1      -0.728  -3.155   7.140  1.00  0.00    -0.275 OA
ATOM     83  N   UNL     1       1.022  -1.801   7.371  1.00  0.00    -0.344 N 
ATOM     84  H   UNL     1       0.852  -1.903   8.335  1.00  0.00     0.164 HD
BRANCH  83  85
ATOM     85  C   UNL     1       2.124  -0.873   7.060  1.00  0.00     0.172 C 
ATOM     86  C   UNL     1       1.655   0.394   6.351  1.00  0.00     0.037 C 
ATOM     87  C   UNL     1       3.422  -1.567   6.560  1.00  0.00     0.249 C 
ATOM     88  C   UNL     1       2.817   1.151   5.738  1.00  0.00     0.025 C 
ATOM     89  N   UNL     1       4.126  -0.954   5.520  1.00  0.00    -0.308 N 
ATOM     90  O   UNL     1       3.834  -2.555   7.174  1.00  0.00    -0.272 OA
ATOM     91  C   UNL     1       3.606   0.229   4.829  1.00  0.00     0.126 C 
BRANCH  89  92
ATOM     92  C   UNL     1       5.306  -1.570   4.967  1.00  0.00     0.080 A 
ATOM     93  C   UNL     1       6.403  -0.777   4.605  1.00  0.00     0.029 A 
ATOM     94  C   UNL     1       5.406  -2.951   4.720  1.00  0.00     0.146 A 
ATOM     95  C   UNL     1       7.536  -1.342   4.005  1.00  0.00     0.002 A 
ATOM     96  C   UNL     1       6.516  -3.509   4.082  1.00  0.00     0.041 A 
ATOM     97  F   UNL     1       4.393  -3.784   4.983  1.00  0.00    -0.205 F 
ATOM     98  C   UNL     1       7.583  -2.701   3.717  1.00  0.00     0.003 A 
ENDBRANCH  89  92
ENDBRANCH  83  85
ENDBRANCH  77  81
ENDBRANCH  72  75
ENDBRANCH  70  71
ENDBRANCH  69  70
ENDBRANCH   1  69
TORSDOF 17
