REMARK SMILES O=C(NCCCCNC(=O)[C@H]([C@@H]1CCOC1)[C@@H]1CCS(=O)(=O)C1)c1ccc(-c2c3nc(c(-c4ccc(S(=O)(=O)[O-])cc4)c4ccc([nH]4)c(-c4ccc(S(=O)(=O)[O-])cc4)c4nc(c(-c5ccc(S(=O)(=O)[O-])cc5)c5ccc2[nH]5)C=C4)C=C3)cc1
REMARK SMILES IDX 4 1 3 2 1 3 2 4 24 6 25 7 83 8 26 9 82 10 27 11 28 12 29 13
REMARK SMILES IDX 76 14 30 15 81 16 75 17 77 18 31 19 80 20 74 21 73 22 32 24
REMARK SMILES IDX 62 25 43 26 61 27 44 28 47 29 60 30 78 31 45 32 46 33 59 35
REMARK SMILES IDX 79 36 48 37 33 38 34 39 42 40 35 41 41 42 36 43 37 44 38 45
REMARK SMILES IDX 39 46 40 47 63 48 64 49 72 50 65 51 71 52 66 53 67 54 68 55
REMARK SMILES IDX 69 56 70 57 49 58 50 59 58 60 51 61 57 62 52 63 53 64 54 65
REMARK SMILES IDX 55 66 56 67 5 68 6 69 7 70 8 71 9 72 10 74 11 75 17 76 18 77
REMARK SMILES IDX 23 78 19 79 20 80 21 81 22 82 12 83 13 84 16 85 14 86 15 87
REMARK H PARENT 3 5 77 23 47 34 8 73
REMARK Flexibility Score: inf
ROOT
ATOM      1  C   UNL     1       5.641 -11.486   2.237  1.00  0.00     0.116 C 
ENDROOT
BRANCH   1   2
ATOM      2  N   UNL     1       6.084 -12.719   1.609  1.00  0.00    -0.352 N 
ATOM      3  O   UNL     1       6.439 -14.934   1.416  1.00  0.00    -0.269 OA
ATOM      4  C   UNL     1       5.890 -14.017   2.019  1.00  0.00     0.251 C 
ATOM      5  H   UNL     1       6.595 -12.609   0.775  1.00  0.00     0.163 HD
BRANCH   4   6
ATOM      6  C   UNL     1       5.049 -14.300   3.204  1.00  0.00     0.039 A 
ATOM      7  C   UNL     1       3.813 -13.673   3.374  1.00  0.00     0.014 A 
ATOM      8  C   UNL     1       5.511 -15.207   4.163  1.00  0.00     0.014 A 
ATOM      9  C   UNL     1       3.108 -13.843   4.562  1.00  0.00     0.010 A 
ATOM     10  C   UNL     1       4.761 -15.439   5.320  1.00  0.00     0.010 A 
ATOM     11  C   UNL     1       3.568 -14.736   5.544  1.00  0.00    -0.014 A 
BRANCH  11  12
ATOM     12  C   UNL     1       2.753 -14.963   6.766  1.00  0.00     0.031 A 
ATOM     13  C   UNL     1       3.260 -14.578   8.129  1.00  0.00     0.074 A 
ATOM     14  C   UNL     1       1.528 -15.508   6.632  1.00  0.00     0.049 A 
ATOM     15  N   UNL     1       2.661 -14.683   9.288  1.00  0.00    -0.248 NA
ATOM     16  C   UNL     1       4.614 -14.008   8.204  1.00  0.00     0.031 C 
ATOM     17  C   UNL     1       0.927 -15.927   5.362  1.00  0.00     0.029 A 
ATOM     18  N   UNL     1       0.561 -15.786   7.563  1.00  0.00    -0.354 N 
ATOM     19  C   UNL     1       3.566 -14.212  10.232  1.00  0.00     0.074 A 
ATOM     20  C   UNL     1       4.767 -13.845   9.511  1.00  0.00     0.031 C 
ATOM     21  C   UNL     1      -0.321 -16.360   5.588  1.00  0.00     0.029 A 
ATOM     22  C   UNL     1      -0.587 -16.312   7.021  1.00  0.00     0.049 A 
ATOM     23  H   UNL     1       0.677 -15.624   8.527  1.00  0.00     0.167 HD
ATOM     24  C   UNL     1       3.410 -14.094  11.574  1.00  0.00     0.031 A 
ATOM     25  C   UNL     1      -1.726 -16.727   7.607  1.00  0.00     0.031 A 
ATOM     26  C   UNL     1       2.216 -14.473  12.286  1.00  0.00     0.049 A 
ATOM     27  C   UNL     1      -1.860 -16.622   9.098  1.00  0.00     0.074 A 
ATOM     28  C   UNL     1       1.949 -14.363  13.640  1.00  0.00     0.029 A 
ATOM     29  N   UNL     1       1.092 -15.044  11.706  1.00  0.00    -0.354 N 
ATOM     30  N   UNL     1      -1.005 -16.140   9.968  1.00  0.00    -0.248 NA
ATOM     31  C   UNL     1      -3.111 -17.116   9.685  1.00  0.00     0.031 C 
ATOM     32  C   UNL     1       0.689 -14.919  13.886  1.00  0.00     0.029 A 
ATOM     33  C   UNL     1       0.143 -15.319  12.677  1.00  0.00     0.049 A 
ATOM     34  H   UNL     1       0.985 -15.226  10.744  1.00  0.00     0.167 HD
ATOM     35  C   UNL     1      -1.622 -16.257  11.207  1.00  0.00     0.074 A 
ATOM     36  C   UNL     1      -2.929 -16.838  10.970  1.00  0.00     0.031 C 
ATOM     37  C   UNL     1      -1.148 -15.912  12.430  1.00  0.00     0.031 A 
BRANCH  24  38
ATOM     38  C   UNL     1       4.579 -13.566  12.367  1.00  0.00    -0.014 A 
ATOM     39  C   UNL     1       4.975 -12.219  12.279  1.00  0.00     0.010 A 
ATOM     40  C   UNL     1       5.277 -14.425  13.236  1.00  0.00     0.010 A 
ATOM     41  C   UNL     1       6.078 -11.755  13.003  1.00  0.00     0.020 A 
ATOM     42  C   UNL     1       6.363 -13.959  13.983  1.00  0.00     0.020 A 
ATOM     43  C   UNL     1       6.771 -12.632  13.844  1.00  0.00     0.054 A 
BRANCH  43  44
ATOM     44  S   UNL     1       8.205 -12.007  14.763  1.00  0.00     0.124 S 
ATOM     45  O   UNL     1       9.207 -11.884  13.707  1.00  0.00    -0.237 OA
ATOM     46  O   UNL     1       7.712 -10.745  15.309  1.00  0.00    -0.237 OA
ATOM     47  O   UNL     1       8.466 -13.050  15.752  1.00  0.00    -0.744 OA
ENDBRANCH  43  44
ENDBRANCH  24  38
BRANCH  25  48
ATOM     48  C   UNL     1      -2.821 -17.279   6.766  1.00  0.00    -0.014 A 
ATOM     49  C   UNL     1      -4.006 -16.550   6.567  1.00  0.00     0.010 A 
ATOM     50  C   UNL     1      -2.659 -18.516   6.114  1.00  0.00     0.010 A 
ATOM     51  C   UNL     1      -5.009 -17.049   5.732  1.00  0.00     0.020 A 
ATOM     52  C   UNL     1      -3.646 -19.003   5.256  1.00  0.00     0.020 A 
ATOM     53  C   UNL     1      -4.819 -18.269   5.075  1.00  0.00     0.054 A 
BRANCH  53  54
ATOM     54  S   UNL     1      -6.100 -18.856   3.933  1.00  0.00     0.124 S 
ATOM     55  O   UNL     1      -7.149 -19.291   4.850  1.00  0.00    -0.237 OA
ATOM     56  O   UNL     1      -6.398 -17.659   3.151  1.00  0.00    -0.237 OA
ATOM     57  O   UNL     1      -5.433 -19.924   3.191  1.00  0.00    -0.744 OA
ENDBRANCH  53  54
ENDBRANCH  25  48
BRANCH  37  58
ATOM     58  C   UNL     1      -2.060 -16.135  13.607  1.00  0.00    -0.014 A 
ATOM     59  C   UNL     1      -2.328 -17.430  14.087  1.00  0.00     0.010 A 
ATOM     60  C   UNL     1      -2.626 -15.029  14.266  1.00  0.00     0.010 A 
ATOM     61  C   UNL     1      -3.171 -17.615  15.185  1.00  0.00     0.020 A 
ATOM     62  C   UNL     1      -3.447 -15.209  15.382  1.00  0.00     0.020 A 
ATOM     63  C   UNL     1      -3.727 -16.503  15.825  1.00  0.00     0.054 A 
BRANCH  63  64
ATOM     64  S   UNL     1      -4.787 -16.767  17.273  1.00  0.00     0.124 S 
ATOM     65  O   UNL     1      -6.015 -17.269  16.663  1.00  0.00    -0.237 OA
ATOM     66  O   UNL     1      -4.028 -17.741  18.053  1.00  0.00    -0.237 OA
ATOM     67  O   UNL     1      -4.888 -15.439  17.875  1.00  0.00    -0.744 OA
ENDBRANCH  63  64
ENDBRANCH  37  58
ENDBRANCH  11  12
ENDBRANCH   4   6
ENDBRANCH   1   2
BRANCH   1  68
ATOM     68  C   UNL     1       6.741 -10.437   2.352  1.00  0.00     0.023 C 
BRANCH  68  69
ATOM     69  C   UNL     1       7.352  -9.964   1.030  1.00  0.00     0.023 C 
BRANCH  69  70
ATOM     70  C   UNL     1       6.344  -9.560  -0.044  1.00  0.00     0.116 C 
BRANCH  70  71
ATOM     71  N   UNL     1       5.437  -8.519   0.405  1.00  0.00    -0.356 N 
ATOM     72  C   UNL     1       5.346  -7.206   0.070  1.00  0.00     0.223 C 
ATOM     73  H   UNL     1       4.773  -8.817   1.069  1.00  0.00     0.163 HD
ATOM     74  O   UNL     1       4.396  -6.561   0.515  1.00  0.00    -0.275 OA
BRANCH  72  75
ATOM     75  C   UNL     1       6.365  -6.570  -0.878  1.00  0.00     0.088 C 
BRANCH  75  76
ATOM     76  C   UNL     1       5.684  -6.439  -2.273  1.00  0.00     0.018 C 
ATOM     77  C   UNL     1       6.644  -6.449  -3.482  1.00  0.00     0.021 C 
ATOM     78  C   UNL     1       4.613  -5.356  -2.476  1.00  0.00     0.141 C 
ATOM     79  C   UNL     1       6.675  -5.074  -4.122  1.00  0.00     0.137 C 
ATOM     80  S   UNL     1       5.015  -4.472  -3.977  1.00  0.00     0.150 S 
ATOM     81  O   UNL     1       5.041  -3.047  -3.723  1.00  0.00    -0.229 OA
ATOM     82  O   UNL     1       4.244  -5.035  -5.067  1.00  0.00    -0.229 OA
ENDBRANCH  75  76
BRANCH  75  83
ATOM     83  C   UNL     1       7.101  -5.433  -0.120  1.00  0.00     0.030 C 
ATOM     84  C   UNL     1       6.340  -4.202   0.333  1.00  0.00     0.035 C 
ATOM     85  C   UNL     1       8.273  -4.825  -0.866  1.00  0.00     0.164 C 
ATOM     86  C   UNL     1       6.708  -3.119  -0.655  1.00  0.00     0.160 C 
ATOM     87  O   UNL     1       7.819  -3.593  -1.421  1.00  0.00    -0.381 OA
ENDBRANCH  75  83
ENDBRANCH  72  75
ENDBRANCH  70  71
ENDBRANCH  69  70
ENDBRANCH  68  69
ENDBRANCH   1  68
TORSDOF 16
