REMARK SMILES CCC[NH2+][C@]1(C(=O)NCCCCNC(=O)c2ccc(-c3c4nc(c(-c5ccc(S(=O)(=O)[O-])cc5)c5ccc([nH]5)c(-c5ccc(S(=O)(=O)[O-])cc5)c5nc(c(-c6ccc(S(=O)(=O)[O-])cc6)c6ccc3[nH]6)C=C5)C=C4)cc2)CCC[C@@H]([N@@H+](C)[C@@H](C)C2CC2)C1
REMARK SMILES IDX 10 1 9 2 8 3 6 4 7 5 5 7 76 8 87 9 77 10 79 11 78 12 4 13
REMARK SMILES IDX 3 16 2 17 1 18 80 19 81 20 82 22 83 23 84 24 85 25 86 26
REMARK SMILES IDX 11 27 12 28 13 29 14 30 15 32 16 33 17 34 75 35 18 36 74 37
REMARK SMILES IDX 19 38 20 39 21 40 68 41 22 42 73 43 67 44 69 45 23 46 72 47
REMARK SMILES IDX 66 48 65 49 24 51 54 52 35 53 53 54 36 55 39 56 52 57 70 58
REMARK SMILES IDX 37 59 38 60 51 62 71 63 40 64 25 65 26 66 34 67 27 68 33 69
REMARK SMILES IDX 28 70 29 71 30 72 31 73 32 74 55 75 56 76 64 77 57 78 63 79
REMARK SMILES IDX 58 80 59 81 60 82 61 83 62 84 41 85 42 86 50 87 43 88 49 89
REMARK SMILES IDX 44 90 45 91 46 92 47 93 48 94
REMARK H PARENT 8 6 4 14 4 15 80 21 13 31 69 50 39 61
REMARK Flexibility Score: inf
ROOT
ATOM      1  C   UNL     1      -1.429  -3.607  -1.284  1.00  0.00     0.023 C 
ENDROOT
BRANCH   1   2
ATOM      2  C   UNL     1      -1.645  -2.434  -2.238  1.00  0.00     0.116 C 
BRANCH   2   3
ATOM      3  N   UNL     1      -0.609  -1.440  -2.054  1.00  0.00    -0.351 N 
ATOM      4  C   UNL     1       0.549  -1.186  -2.723  1.00  0.00     0.281 C 
ATOM      5  O   UNL     1       1.289  -0.349  -2.190  1.00  0.00    -0.268 OA
ATOM      6  H   UNL     1      -0.774  -0.830  -1.299  1.00  0.00     0.163 HD
BRANCH   4   7
ATOM      7  C   UNL     1       0.902  -1.805  -4.135  1.00  0.00     0.181 C 
ATOM      8  C   UNL     1       2.375  -1.410  -4.435  1.00  0.00     0.079 C 
ATOM      9  C   UNL     1       0.782  -3.360  -4.120  1.00  0.00     0.144 C 
ATOM     10  C   UNL     1       2.951  -2.110  -5.655  1.00  0.00     0.013 C 
ATOM     11  C   UNL     1       1.682  -4.199  -5.063  1.00  0.00     0.190 C 
ATOM     12  C   UNL     1       3.056  -3.594  -5.345  1.00  0.00     0.065 C 
BRANCH   7  13
ATOM     13  N   UNL     1      -0.018  -1.243  -5.177  1.00  0.00    -0.333 N 
ATOM     14  H   UNL     1       0.319  -1.536  -6.094  1.00  0.00     0.347 HD
ATOM     15  H   UNL     1      -0.951  -1.600  -4.970  1.00  0.00     0.347 HD
BRANCH  13  16
ATOM     16  C   UNL     1      -0.112   0.227  -5.165  1.00  0.00     0.261 C 
BRANCH  16  17
ATOM     17  C   UNL     1      -1.011   0.761  -6.285  1.00  0.00     0.058 C 
ATOM     18  C   UNL     1      -2.459   0.309  -6.178  1.00  0.00     0.010 C 
ENDBRANCH  16  17
ENDBRANCH  13  16
ENDBRANCH   7  13
BRANCH  11  19
ATOM     19  N   UNL     1       1.628  -5.661  -4.745  1.00  0.00    -0.332 N 
ATOM     20  C   UNL     1       1.551  -6.430  -6.003  1.00  0.00     0.333 C 
ATOM     21  H   UNL     1       0.798  -5.660  -4.153  1.00  0.00     0.348 HD
BRANCH  19  22
ATOM     22  C   UNL     1       2.580  -6.341  -3.819  1.00  0.00     0.184 C 
ATOM     23  C   UNL     1       4.089  -6.160  -4.031  1.00  0.00     0.075 C 
BRANCH  22  24
ATOM     24  C   UNL     1       2.290  -6.364  -2.332  1.00  0.00     0.047 C 
ATOM     25  C   UNL     1       2.179  -5.148  -1.454  1.00  0.00     0.010 C 
ATOM     26  C   UNL     1       0.956  -5.988  -1.759  1.00  0.00     0.010 C 
ENDBRANCH  22  24
ENDBRANCH  19  22
ENDBRANCH  11  19
ENDBRANCH   4   7
ENDBRANCH   2   3
ENDBRANCH   1   2
BRANCH   1  27
ATOM     27  C   UNL     1      -2.009  -3.413   0.114  1.00  0.00     0.023 C 
BRANCH  27  28
ATOM     28  C   UNL     1      -3.527  -3.322   0.170  1.00  0.00     0.116 C 
BRANCH  28  29
ATOM     29  N   UNL     1      -4.206  -4.500  -0.359  1.00  0.00    -0.352 N 
ATOM     30  C   UNL     1      -5.301  -5.162   0.151  1.00  0.00     0.251 C 
ATOM     31  H   UNL     1      -3.832  -4.871  -1.190  1.00  0.00     0.163 HD
ATOM     32  O   UNL     1      -5.705  -6.194  -0.375  1.00  0.00    -0.269 OA
BRANCH  30  33
ATOM     33  C   UNL     1      -5.948  -4.638   1.371  1.00  0.00     0.039 A 
ATOM     34  C   UNL     1      -6.156  -5.498   2.451  1.00  0.00     0.014 A 
ATOM     35  C   UNL     1      -6.251  -3.279   1.479  1.00  0.00     0.014 A 
ATOM     36  C   UNL     1      -6.569  -4.973   3.677  1.00  0.00     0.010 A 
ATOM     37  C   UNL     1      -6.571  -2.748   2.722  1.00  0.00     0.010 A 
ATOM     38  C   UNL     1      -6.721  -3.586   3.838  1.00  0.00    -0.014 A 
BRANCH  38  39
ATOM     39  C   UNL     1      -7.005  -2.978   5.163  1.00  0.00     0.031 A 
ATOM     40  C   UNL     1      -8.248  -2.151   5.358  1.00  0.00     0.074 A 
ATOM     41  C   UNL     1      -6.095  -3.075   6.154  1.00  0.00     0.049 A 
ATOM     42  N   UNL     1      -8.606  -1.431   6.389  1.00  0.00    -0.248 NA
ATOM     43  C   UNL     1      -9.193  -2.095   4.229  1.00  0.00     0.031 C 
ATOM     44  C   UNL     1      -4.819  -3.792   6.073  1.00  0.00     0.029 A 
ATOM     45  N   UNL     1      -6.095  -2.551   7.424  1.00  0.00    -0.354 N 
ATOM     46  C   UNL     1      -9.792  -0.808   6.020  1.00  0.00     0.074 A 
ATOM     47  C   UNL     1     -10.071  -1.200   4.657  1.00  0.00     0.031 C 
ATOM     48  C   UNL     1      -4.174  -3.682   7.246  1.00  0.00     0.029 A 
ATOM     49  C   UNL     1      -4.965  -2.853   8.148  1.00  0.00     0.049 A 
ATOM     50  H   UNL     1      -6.835  -2.009   7.782  1.00  0.00     0.167 HD
ATOM     51  C   UNL     1     -10.587   0.003   6.756  1.00  0.00     0.031 A 
ATOM     52  C   UNL     1      -4.600  -2.495   9.395  1.00  0.00     0.031 A 
ATOM     53  C   UNL     1     -10.330   0.355   8.126  1.00  0.00     0.049 A 
ATOM     54  C   UNL     1      -5.520  -1.625  10.206  1.00  0.00     0.074 A 
ATOM     55  C   UNL     1     -11.123   1.095   8.986  1.00  0.00     0.029 A 
ATOM     56  N   UNL     1      -9.199  -0.014   8.838  1.00  0.00    -0.354 N 
ATOM     57  N   UNL     1      -6.676  -1.109   9.865  1.00  0.00    -0.248 NA
ATOM     58  C   UNL     1      -5.090  -1.294  11.572  1.00  0.00     0.031 C 
ATOM     59  C   UNL     1     -10.451   1.208  10.207  1.00  0.00     0.029 A 
ATOM     60  C   UNL     1      -9.262   0.500  10.121  1.00  0.00     0.049 A 
ATOM     61  H   UNL     1      -8.461  -0.560   8.483  1.00  0.00     0.167 HD
ATOM     62  C   UNL     1      -7.120  -0.408  10.980  1.00  0.00     0.074 A 
ATOM     63  C   UNL     1      -6.118  -0.580  12.011  1.00  0.00     0.031 C 
ATOM     64  C   UNL     1      -8.256   0.316  11.135  1.00  0.00     0.031 A 
BRANCH  51  65
ATOM     65  C   UNL     1     -11.817   0.561   6.092  1.00  0.00    -0.014 A 
ATOM     66  C   UNL     1     -12.915  -0.263   5.787  1.00  0.00     0.010 A 
ATOM     67  C   UNL     1     -11.891   1.936   5.802  1.00  0.00     0.010 A 
ATOM     68  C   UNL     1     -14.046   0.268   5.164  1.00  0.00     0.020 A 
ATOM     69  C   UNL     1     -13.033   2.476   5.204  1.00  0.00     0.020 A 
ATOM     70  C   UNL     1     -14.097   1.634   4.873  1.00  0.00     0.054 A 
BRANCH  70  71
ATOM     71  S   UNL     1     -15.588   2.302   4.086  1.00  0.00     0.124 S 
ATOM     72  O   UNL     1     -15.436   1.833   2.710  1.00  0.00    -0.237 OA
ATOM     73  O   UNL     1     -16.663   1.672   4.848  1.00  0.00    -0.237 OA
ATOM     74  O   UNL     1     -15.461   3.745   4.270  1.00  0.00    -0.744 OA
ENDBRANCH  70  71
ENDBRANCH  51  65
BRANCH  52  75
ATOM     75  C   UNL     1      -3.305  -2.968   9.957  1.00  0.00    -0.014 A 
ATOM     76  C   UNL     1      -3.283  -3.952  10.960  1.00  0.00     0.010 A 
ATOM     77  C   UNL     1      -2.088  -2.444   9.485  1.00  0.00     0.010 A 
ATOM     78  C   UNL     1      -2.068  -4.391  11.496  1.00  0.00     0.020 A 
ATOM     79  C   UNL     1      -0.870  -2.898  10.001  1.00  0.00     0.020 A 
ATOM     80  C   UNL     1      -0.869  -3.861  11.012  1.00  0.00     0.054 A 
BRANCH  80  81
ATOM     81  S   UNL     1       0.699  -4.480  11.685  1.00  0.00     0.124 S 
ATOM     82  O   UNL     1       0.758  -3.810  12.980  1.00  0.00    -0.237 OA
ATOM     83  O   UNL     1       0.478  -5.923  11.728  1.00  0.00    -0.237 OA
ATOM     84  O   UNL     1       1.688  -4.039  10.704  1.00  0.00    -0.744 OA
ENDBRANCH  80  81
ENDBRANCH  52  75
BRANCH  64  85
ATOM     85  C   UNL     1      -8.491   0.959  12.473  1.00  0.00    -0.014 A 
ATOM     86  C   UNL     1      -7.780   2.108  12.858  1.00  0.00     0.010 A 
ATOM     87  C   UNL     1      -9.490   0.449  13.322  1.00  0.00     0.010 A 
ATOM     88  C   UNL     1      -8.051   2.728  14.080  1.00  0.00     0.020 A 
ATOM     89  C   UNL     1      -9.780   1.080  14.534  1.00  0.00     0.020 A 
ATOM     90  C   UNL     1      -9.051   2.210  14.910  1.00  0.00     0.054 A 
BRANCH  90  91
ATOM     91  S   UNL     1      -9.429   3.069  16.463  1.00  0.00     0.124 S 
ATOM     92  O   UNL     1      -8.305   2.676  17.308  1.00  0.00    -0.237 OA
ATOM     93  O   UNL     1      -9.451   4.472  16.057  1.00  0.00    -0.237 OA
ATOM     94  O   UNL     1     -10.725   2.520  16.855  1.00  0.00    -0.744 OA
ENDBRANCH  90  91
ENDBRANCH  64  85
ENDBRANCH  38  39
ENDBRANCH  30  33
ENDBRANCH  28  29
ENDBRANCH  27  28
ENDBRANCH   1  27
TORSDOF 20
