REMARK SMILES Cn1cc([C@@H]2CC(NCCCCNC(=O)c3ccc(-c4c5nc(c(-c6ccc(S(=O)(=O)[O-])cc6)c6ccc([nH]6)c(-c6ccc(S(=O)(=O)[O-])cc6)c6nc(c(-c7ccc(S(=O)(=O)[O-])cc7)c7ccc4[nH]7)C=C6)C=C5)cc3)=[NH+]c3c2sc(C(=O)[O-])c3-c2ccc(Cl)cc2)cn1
REMARK SMILES IDX 12 1 11 2 10 3 9 4 8 5 5 6 6 7 78 8 7 9 77 10 79 11 76 12
REMARK SMILES IDX 84 13 80 14 4 17 1 18 2 19 3 20 93 21 92 22 85 23 86 24
REMARK SMILES IDX 91 25 87 26 90 27 88 28 89 29 81 30 82 31 83 32 13 33 14 34
REMARK SMILES IDX 15 36 16 37 17 38 75 39 18 40 74 41 19 42 20 43 21 44 68 45
REMARK SMILES IDX 22 46 73 47 67 48 69 49 23 50 72 51 66 52 65 53 24 55 54 56
REMARK SMILES IDX 35 57 53 58 36 59 39 60 52 61 70 62 37 63 38 64 51 66 71 67
REMARK SMILES IDX 40 68 25 69 26 70 34 71 27 72 33 73 28 74 29 75 30 76 31 77
REMARK SMILES IDX 32 78 55 79 56 80 64 81 57 82 63 83 58 84 59 85 60 86 61 87
REMARK SMILES IDX 62 88 41 89 42 90 50 91 43 92 49 93 44 94 45 95 46 96 47 97
REMARK SMILES IDX 48 98
REMARK H PARENT 8 15 76 16 13 35 69 54 39 65
REMARK Flexibility Score: inf
ROOT
ATOM      1  C   UNL     1       3.279  -7.120  -4.607  1.00  0.00     0.116 C 
ENDROOT
BRANCH   1   2
ATOM      2  C   UNL     1       2.076  -6.717  -3.764  1.00  0.00     0.025 C 
BRANCH   2   3
ATOM      3  C   UNL     1       2.266  -6.884  -2.250  1.00  0.00     0.048 C 
BRANCH   3   4
ATOM      4  C   UNL     1       3.427  -6.105  -1.624  1.00  0.00     0.233 C 
BRANCH   4   5
ATOM      5  N   UNL     1       3.235  -4.670  -1.749  1.00  0.00    -0.278 N 
ATOM      6  C   UNL     1       2.655  -1.369   0.155  1.00  0.00     0.079 C 
ATOM      7  C   UNL     1       2.967  -2.327  -1.006  1.00  0.00     0.142 C 
ATOM      8  C   UNL     1       2.660  -2.101   1.453  1.00  0.00     0.061 A 
ATOM      9  C   UNL     1       3.032  -3.824  -0.672  1.00  0.00     0.248 C 
ATOM     10  C   UNL     1       2.793  -3.449   1.591  1.00  0.00     0.147 A 
ATOM     11  S   UNL     1       2.490  -1.340   2.964  1.00  0.00    -0.133 S 
ATOM     12  N   UNL     1       2.943  -4.330   0.523  1.00  0.00    -0.243 N 
ATOM     13  C   UNL     1       2.770  -3.903   2.947  1.00  0.00     0.049 A 
ATOM     14  C   UNL     1       2.572  -2.839   3.824  1.00  0.00     0.062 A 
ATOM     15  H   UNL     1       3.249  -4.277  -2.651  1.00  0.00     0.304 HD
ATOM     16  H   UNL     1       2.981  -5.303   0.667  1.00  0.00     0.312 HD
BRANCH   6  17
ATOM     17  C   UNL     1       1.367  -0.618  -0.042  1.00  0.00    -0.001 A 
ATOM     18  C   UNL     1      -2.185  -0.018  -0.136  1.00  0.00     0.173 C 
ATOM     19  N   UNL     1      -0.744  -0.021  -0.165  1.00  0.00    -0.276 N 
ATOM     20  C   UNL     1       0.075  -1.107  -0.086  1.00  0.00     0.112 A 
ATOM     21  N   UNL     1      -0.083   1.146  -0.233  1.00  0.00    -0.182 NA
ATOM     22  C   UNL     1       1.200   0.785  -0.145  1.00  0.00     0.139 A 
ENDBRANCH   6  17
BRANCH  13  23
ATOM     23  C   UNL     1       2.971  -5.288   3.365  1.00  0.00    -0.012 A 
ATOM     24  C   UNL     1       1.957  -6.011   4.005  1.00  0.00     0.010 A 
ATOM     25  C   UNL     1       4.199  -5.910   3.099  1.00  0.00     0.010 A 
ATOM     26  C   UNL     1       2.194  -7.322   4.429  1.00  0.00     0.021 A 
ATOM     27  C   UNL     1       4.431  -7.224   3.510  1.00  0.00     0.021 A 
ATOM     28  C   UNL     1       3.432  -7.918   4.187  1.00  0.00     0.041 A 
ATOM     29  Cl  UNL     1       3.727  -9.523   4.734  1.00  0.00    -0.084 Cl
ENDBRANCH  13  23
BRANCH  14  30
ATOM     30  C   UNL     1       2.449  -2.753   5.267  1.00  0.00     0.082 C 
ATOM     31  O   UNL     1       2.102  -1.799   5.945  1.00  0.00    -0.544 OA
ATOM     32  O   UNL     1       2.764  -3.906   5.898  1.00  0.00    -0.544 OA
ENDBRANCH  14  30
ENDBRANCH   4   5
ENDBRANCH   3   4
ENDBRANCH   2   3
ENDBRANCH   1   2
BRANCH   1  33
ATOM     33  N   UNL     1       3.578  -8.551  -4.553  1.00  0.00    -0.352 N 
ATOM     34  C   UNL     1       4.598  -9.219  -5.211  1.00  0.00     0.251 C 
ATOM     35  H   UNL     1       2.988  -9.100  -3.988  1.00  0.00     0.163 HD
ATOM     36  O   UNL     1       4.521 -10.421  -5.436  1.00  0.00    -0.269 OA
BRANCH  34  37
ATOM     37  C   UNL     1       5.788  -8.450  -5.623  1.00  0.00     0.039 A 
ATOM     38  C   UNL     1       6.413  -8.647  -6.858  1.00  0.00     0.014 A 
ATOM     39  C   UNL     1       6.250  -7.477  -4.742  1.00  0.00     0.014 A 
ATOM     40  C   UNL     1       7.451  -7.790  -7.227  1.00  0.00     0.010 A 
ATOM     41  C   UNL     1       7.145  -6.535  -5.175  1.00  0.00     0.010 A 
ATOM     42  C   UNL     1       7.797  -6.717  -6.388  1.00  0.00    -0.014 A 
BRANCH  42  43
ATOM     43  C   UNL     1       8.735  -5.682  -6.818  1.00  0.00     0.031 A 
ATOM     44  C   UNL     1       8.377  -5.056  -8.119  1.00  0.00     0.074 A 
ATOM     45  C   UNL     1       9.691  -5.164  -6.012  1.00  0.00     0.049 A 
ATOM     46  N   UNL     1       8.974  -5.208  -9.253  1.00  0.00    -0.248 NA
ATOM     47  C   UNL     1       7.105  -4.316  -8.211  1.00  0.00     0.031 C 
ATOM     48  C   UNL     1       9.946  -5.469  -4.597  1.00  0.00     0.029 A 
ATOM     49  N   UNL     1      10.575  -4.156  -6.253  1.00  0.00    -0.354 N 
ATOM     50  C   UNL     1       8.311  -4.368 -10.142  1.00  0.00     0.074 A 
ATOM     51  C   UNL     1       7.057  -4.035  -9.516  1.00  0.00     0.031 C 
ATOM     52  C   UNL     1      10.730  -4.510  -4.054  1.00  0.00     0.029 A 
ATOM     53  C   UNL     1      11.187  -3.633  -5.114  1.00  0.00     0.049 A 
ATOM     54  H   UNL     1      10.766  -3.824  -7.160  1.00  0.00     0.167 HD
ATOM     55  C   UNL     1       8.972  -3.772 -11.173  1.00  0.00     0.031 A 
ATOM     56  C   UNL     1      12.009  -2.554  -5.041  1.00  0.00     0.031 A 
ATOM     57  C   UNL     1      10.264  -4.375 -11.389  1.00  0.00     0.049 A 
ATOM     58  C   UNL     1      12.539  -2.330  -6.405  1.00  0.00     0.074 A 
ATOM     59  C   UNL     1      10.712  -5.645 -11.690  1.00  0.00     0.029 A 
ATOM     60  N   UNL     1      11.344  -3.699 -10.870  1.00  0.00    -0.354 N 
ATOM     61  N   UNL     1      13.320  -3.177  -7.016  1.00  0.00    -0.248 NA
ATOM     62  C   UNL     1      11.836  -1.396  -7.266  1.00  0.00     0.031 C 
ATOM     63  C   UNL     1      11.899  -5.809 -10.918  1.00  0.00     0.029 A 
ATOM     64  C   UNL     1      12.165  -4.607 -10.256  1.00  0.00     0.049 A 
ATOM     65  H   UNL     1      11.500  -2.729 -10.930  1.00  0.00     0.167 HD
ATOM     66  C   UNL     1      12.870  -3.187  -8.328  1.00  0.00     0.074 A 
ATOM     67  C   UNL     1      12.032  -1.994  -8.445  1.00  0.00     0.031 C 
ATOM     68  C   UNL     1      12.993  -4.304  -9.104  1.00  0.00     0.031 A 
BRANCH  55  69
ATOM     69  C   UNL     1       8.659  -2.375 -11.663  1.00  0.00    -0.014 A 
ATOM     70  C   UNL     1       9.383  -1.861 -12.758  1.00  0.00     0.010 A 
ATOM     71  C   UNL     1       7.891  -1.454 -10.920  1.00  0.00     0.010 A 
ATOM     72  C   UNL     1       9.387  -0.489 -13.050  1.00  0.00     0.020 A 
ATOM     73  C   UNL     1       7.852  -0.094 -11.228  1.00  0.00     0.020 A 
ATOM     74  C   UNL     1       8.626   0.386 -12.274  1.00  0.00     0.054 A 
BRANCH  74  75
ATOM     75  S   UNL     1       8.696   2.162 -12.606  1.00  0.00     0.124 S 
ATOM     76  O   UNL     1      10.080   2.476 -12.266  1.00  0.00    -0.237 OA
ATOM     77  O   UNL     1       8.360   2.222 -14.026  1.00  0.00    -0.237 OA
ATOM     78  O   UNL     1       7.687   2.717 -11.707  1.00  0.00    -0.744 OA
ENDBRANCH  74  75
ENDBRANCH  55  69
BRANCH  56  79
ATOM     79  C   UNL     1      12.147  -1.547  -3.957  1.00  0.00    -0.014 A 
ATOM     80  C   UNL     1      13.256  -0.680  -3.894  1.00  0.00     0.010 A 
ATOM     81  C   UNL     1      11.034  -1.239  -3.149  1.00  0.00     0.010 A 
ATOM     82  C   UNL     1      13.231   0.479  -3.093  1.00  0.00     0.020 A 
ATOM     83  C   UNL     1      11.001  -0.088  -2.349  1.00  0.00     0.020 A 
ATOM     84  C   UNL     1      12.093   0.778  -2.339  1.00  0.00     0.054 A 
BRANCH  84  85
ATOM     85  S   UNL     1      12.001   2.354  -1.433  1.00  0.00     0.124 S 
ATOM     86  O   UNL     1      12.979   2.158  -0.367  1.00  0.00    -0.237 OA
ATOM     87  O   UNL     1      12.367   3.332  -2.454  1.00  0.00    -0.237 OA
ATOM     88  O   UNL     1      10.609   2.415  -0.991  1.00  0.00    -0.744 OA
ENDBRANCH  84  85
ENDBRANCH  56  79
BRANCH  68  89
ATOM     89  C   UNL     1      13.924  -5.404  -8.639  1.00  0.00    -0.014 A 
ATOM     90  C   UNL     1      13.764  -6.139  -7.447  1.00  0.00     0.010 A 
ATOM     91  C   UNL     1      14.937  -5.793  -9.533  1.00  0.00     0.010 A 
ATOM     92  C   UNL     1      14.617  -7.218  -7.152  1.00  0.00     0.020 A 
ATOM     93  C   UNL     1      15.773  -6.875  -9.255  1.00  0.00     0.020 A 
ATOM     94  C   UNL     1      15.618  -7.577  -8.060  1.00  0.00     0.054 A 
BRANCH  94  95
ATOM     95  S   UNL     1      16.701  -8.988  -7.698  1.00  0.00     0.124 S 
ATOM     96  O   UNL     1      17.483  -8.505  -6.562  1.00  0.00    -0.237 OA
ATOM     97  O   UNL     1      15.753 -10.059  -7.400  1.00  0.00    -0.237 OA
ATOM     98  O   UNL     1      17.460  -9.172  -8.935  1.00  0.00    -0.744 OA
ENDBRANCH  94  95
ENDBRANCH  68  89
ENDBRANCH  42  43
ENDBRANCH  34  37
ENDBRANCH   1  33
TORSDOF 16
