REMARK SMILES O=C(NCCCCNC(=O)c1cc([C@@H]2C=NN=C2c2ccc(F)cc2)c2c(ccc3ccccc32)n1)c1ccc(-c2c3nc(c(-c4ccc(S(=O)(=O)[O-])cc4)c4ccc([nH]4)c(-c4ccc(S(=O)(=O)[O-])cc4)c4nc(c(-c5ccc(S(=O)(=O)[O-])cc5)c5ccc2[nH]5)C=C4)C=C3)cc1
REMARK SMILES IDX 5 1 4 2 3 3 1 4 2 5 37 7 38 8 96 9 39 10 95 11 40 12 41 13
REMARK SMILES IDX 42 14 89 15 43 16 94 17 88 18 90 19 44 20 93 21 87 22 86 23
REMARK SMILES IDX 45 25 75 26 56 27 74 28 57 29 60 30 73 31 91 32 58 33 59 34
REMARK SMILES IDX 72 36 92 37 61 38 46 39 47 40 55 41 48 42 54 43 49 44 50 45
REMARK SMILES IDX 51 46 52 47 53 48 76 49 77 50 85 51 78 52 84 53 79 54 80 55
REMARK SMILES IDX 81 56 82 57 83 58 62 59 63 60 71 61 64 62 70 63 65 64 66 65
REMARK SMILES IDX 67 66 68 67 69 68 6 69 7 70 8 71 9 72 10 74 11 75 12 76
REMARK SMILES IDX 36 77 13 78 27 79 26 80 28 81 35 82 29 83 30 84 34 85 31 86
REMARK SMILES IDX 33 87 32 88 14 89 15 90 18 91 16 92 17 93 19 94 20 95 25 96
REMARK SMILES IDX 21 97 24 98 22 99 23 100
REMARK H PARENT 3 6 90 24 60 35 8 73
REMARK Flexibility Score: inf
ROOT
ATOM      1  C   UNL     1       5.099  -1.182   1.777  1.00  0.00     0.023 C 
ENDROOT
BRANCH   1   2
ATOM      2  C   UNL     1       4.816  -0.916   0.299  1.00  0.00     0.116 C 
BRANCH   2   3
ATOM      3  N   UNL     1       3.422  -0.973  -0.089  1.00  0.00    -0.352 N 
ATOM      4  O   UNL     1       1.355  -0.422  -0.633  1.00  0.00    -0.269 OA
ATOM      5  C   UNL     1       2.370  -0.100  -0.010  1.00  0.00     0.251 C 
ATOM      6  H   UNL     1       3.175  -1.833  -0.501  1.00  0.00     0.163 HD
BRANCH   5   7
ATOM      7  C   UNL     1       2.349   1.139   0.814  1.00  0.00     0.039 A 
ATOM      8  C   UNL     1       3.467   1.785   1.341  1.00  0.00     0.014 A 
ATOM      9  C   UNL     1       1.075   1.677   1.080  1.00  0.00     0.014 A 
ATOM     10  C   UNL     1       3.317   2.881   2.186  1.00  0.00     0.010 A 
ATOM     11  C   UNL     1       0.919   2.784   1.908  1.00  0.00     0.010 A 
ATOM     12  C   UNL     1       2.043   3.370   2.483  1.00  0.00    -0.014 A 
BRANCH  12  13
ATOM     13  C   UNL     1       1.942   4.624   3.226  1.00  0.00     0.031 A 
ATOM     14  C   UNL     1       2.449   5.812   2.483  1.00  0.00     0.074 A 
ATOM     15  C   UNL     1       1.296   4.769   4.399  1.00  0.00     0.049 A 
ATOM     16  N   UNL     1       3.450   6.575   2.778  1.00  0.00    -0.248 NA
ATOM     17  C   UNL     1       1.830   6.110   1.180  1.00  0.00     0.031 C 
ATOM     18  C   UNL     1       0.489   3.768   5.098  1.00  0.00     0.029 A 
ATOM     19  N   UNL     1       1.126   5.892   5.159  1.00  0.00    -0.354 N 
ATOM     20  C   UNL     1       3.449   7.585   1.817  1.00  0.00     0.074 A 
ATOM     21  C   UNL     1       2.560   7.147   0.771  1.00  0.00     0.031 C 
ATOM     22  C   UNL     1      -0.263   4.383   6.039  1.00  0.00     0.029 A 
ATOM     23  C   UNL     1       0.100   5.790   6.094  1.00  0.00     0.049 A 
ATOM     24  H   UNL     1       1.679   6.699   5.055  1.00  0.00     0.167 HD
ATOM     25  C   UNL     1       3.962   8.822   2.070  1.00  0.00     0.031 A 
ATOM     26  C   UNL     1      -0.461   6.800   6.809  1.00  0.00     0.031 A 
ATOM     27  C   UNL     1       4.830   8.824   3.217  1.00  0.00     0.049 A 
ATOM     28  C   UNL     1       0.489   7.936   6.808  1.00  0.00     0.074 A 
ATOM     29  C   UNL     1       5.973   8.142   3.583  1.00  0.00     0.029 A 
ATOM     30  N   UNL     1       4.342   9.389   4.371  1.00  0.00    -0.354 N 
ATOM     31  N   UNL     1       1.636   7.920   7.426  1.00  0.00    -0.248 NA
ATOM     32  C   UNL     1       0.344   8.964   5.790  1.00  0.00     0.031 C 
ATOM     33  C   UNL     1       5.850   7.940   4.989  1.00  0.00     0.029 A 
ATOM     34  C   UNL     1       4.671   8.559   5.409  1.00  0.00     0.049 A 
ATOM     35  H   UNL     1       3.846  10.236   4.439  1.00  0.00     0.167 HD
ATOM     36  C   UNL     1       2.494   8.626   6.597  1.00  0.00     0.074 A 
ATOM     37  C   UNL     1       1.619   9.340   5.670  1.00  0.00     0.031 C 
ATOM     38  C   UNL     1       3.830   8.345   6.566  1.00  0.00     0.031 A 
BRANCH  25  39
ATOM     39  C   UNL     1       3.324  10.094   1.550  1.00  0.00    -0.014 A 
ATOM     40  C   UNL     1       3.922  11.334   1.862  1.00  0.00     0.010 A 
ATOM     41  C   UNL     1       2.011  10.135   1.034  1.00  0.00     0.010 A 
ATOM     42  C   UNL     1       3.206  12.534   1.755  1.00  0.00     0.020 A 
ATOM     43  C   UNL     1       1.308  11.329   0.875  1.00  0.00     0.020 A 
ATOM     44  C   UNL     1       1.896  12.519   1.277  1.00  0.00     0.054 A 
BRANCH  44  45
ATOM     45  S   UNL     1       0.936  14.052   1.255  1.00  0.00     0.124 S 
ATOM     46  O   UNL     1       0.767  14.317   2.680  1.00  0.00    -0.237 OA
ATOM     47  O   UNL     1       1.826  14.962   0.539  1.00  0.00    -0.237 OA
ATOM     48  O   UNL     1      -0.280  13.681   0.534  1.00  0.00    -0.744 OA
ENDBRANCH  44  45
ENDBRANCH  25  39
BRANCH  26  49
ATOM     49  C   UNL     1      -1.871   6.950   7.254  1.00  0.00    -0.014 A 
ATOM     50  C   UNL     1      -2.240   7.956   8.169  1.00  0.00     0.010 A 
ATOM     51  C   UNL     1      -2.904   6.286   6.563  1.00  0.00     0.010 A 
ATOM     52  C   UNL     1      -3.586   8.331   8.331  1.00  0.00     0.020 A 
ATOM     53  C   UNL     1      -4.247   6.645   6.728  1.00  0.00     0.020 A 
ATOM     54  C   UNL     1      -4.580   7.685   7.591  1.00  0.00     0.054 A 
BRANCH  54  55
ATOM     55  S   UNL     1      -6.291   8.297   7.659  1.00  0.00     0.124 S 
ATOM     56  O   UNL     1      -6.713   7.893   8.996  1.00  0.00    -0.237 OA
ATOM     57  O   UNL     1      -6.125   9.733   7.455  1.00  0.00    -0.237 OA
ATOM     58  O   UNL     1      -6.951   7.593   6.561  1.00  0.00    -0.744 OA
ENDBRANCH  54  55
ENDBRANCH  26  49
BRANCH  38  59
ATOM     59  C   UNL     1       4.429   7.544   7.697  1.00  0.00    -0.014 A 
ATOM     60  C   UNL     1       4.007   6.251   8.060  1.00  0.00     0.010 A 
ATOM     61  C   UNL     1       5.557   8.086   8.339  1.00  0.00     0.010 A 
ATOM     62  C   UNL     1       4.676   5.536   9.065  1.00  0.00     0.020 A 
ATOM     63  C   UNL     1       6.240   7.371   9.324  1.00  0.00     0.020 A 
ATOM     64  C   UNL     1       5.789   6.104   9.691  1.00  0.00     0.054 A 
BRANCH  64  65
ATOM     65  S   UNL     1       6.674   5.161  10.964  1.00  0.00     0.124 S 
ATOM     66  O   UNL     1       5.711   5.127  12.061  1.00  0.00    -0.237 OA
ATOM     67  O   UNL     1       6.923   3.881  10.305  1.00  0.00    -0.237 OA
ATOM     68  O   UNL     1       7.873   5.959  11.219  1.00  0.00    -0.744 OA
ENDBRANCH  64  65
ENDBRANCH  38  59
ENDBRANCH  12  13
ENDBRANCH   5   7
ENDBRANCH   2   3
ENDBRANCH   1   2
BRANCH   1  69
ATOM     69  C   UNL     1       4.576  -2.511   2.321  1.00  0.00     0.023 C 
BRANCH  69  70
ATOM     70  C   UNL     1       4.980  -3.749   1.534  1.00  0.00     0.116 C 
BRANCH  70  71
ATOM     71  N   UNL     1       6.418  -3.977   1.514  1.00  0.00    -0.351 N 
ATOM     72  C   UNL     1       7.135  -5.083   1.923  1.00  0.00     0.269 C 
ATOM     73  H   UNL     1       6.957  -3.235   1.157  1.00  0.00     0.163 HD
ATOM     74  O   UNL     1       8.365  -5.062   1.875  1.00  0.00    -0.268 OA
BRANCH  72  75
ATOM     75  C   UNL     1       6.418  -6.310   2.368  1.00  0.00     0.129 A 
ATOM     76  C   UNL     1       5.424  -6.846   1.587  1.00  0.00     0.039 A 
ATOM     77  N   UNL     1       6.787  -6.864   3.527  1.00  0.00    -0.243 NA
ATOM     78  C   UNL     1       4.669  -7.953   2.042  1.00  0.00    -0.021 A 
ATOM     79  C   UNL     1       6.139  -7.950   3.954  1.00  0.00     0.072 A 
ATOM     80  C   UNL     1       5.037  -8.588   3.298  1.00  0.00     0.012 A 
ATOM     81  C   UNL     1       6.655  -8.440   5.132  1.00  0.00     0.029 A 
ATOM     82  C   UNL     1       4.489  -9.786   3.975  1.00  0.00    -0.009 A 
ATOM     83  C   UNL     1       6.143  -9.567   5.751  1.00  0.00     0.011 A 
ATOM     84  C   UNL     1       5.070 -10.243   5.194  1.00  0.00    -0.018 A 
ATOM     85  C   UNL     1       3.410 -10.587   3.534  1.00  0.00     0.009 A 
ATOM     86  C   UNL     1       4.598 -11.380   5.874  1.00  0.00     0.009 A 
ATOM     87  C   UNL     1       2.932 -11.717   4.211  1.00  0.00     0.001 A 
ATOM     88  C   UNL     1       3.529 -12.117   5.387  1.00  0.00     0.001 A 
BRANCH  78  89
ATOM     89  C   UNL     1       3.584  -8.310   1.051  1.00  0.00     0.115 C 
ATOM     90  C   UNL     1       2.174  -8.302   1.513  1.00  0.00     0.123 C 
ATOM     91  C   UNL     1       3.576  -9.612   0.320  1.00  0.00     0.083 C 
ATOM     92  N   UNL     1       1.483  -9.275   1.010  1.00  0.00    -0.162 NA
ATOM     93  N   UNL     1       2.372 -10.107   0.243  1.00  0.00    -0.154 NA
BRANCH  91  94
ATOM     94  C   UNL     1       4.743 -10.181  -0.388  1.00  0.00    -0.001 A 
ATOM     95  C   UNL     1       4.513 -10.832  -1.608  1.00  0.00     0.013 A 
ATOM     96  C   UNL     1       6.051 -10.085   0.102  1.00  0.00     0.013 A 
ATOM     97  C   UNL     1       5.584 -11.348  -2.342  1.00  0.00     0.040 A 
ATOM     98  C   UNL     1       7.120 -10.600  -0.634  1.00  0.00     0.040 A 
ATOM     99  C   UNL     1       6.878 -11.222  -1.851  1.00  0.00     0.123 A 
ATOM    100  F   UNL     1       7.905 -11.711  -2.557  1.00  0.00    -0.207 F 
ENDBRANCH  91  94
ENDBRANCH  78  89
ENDBRANCH  72  75
ENDBRANCH  70  71
ENDBRANCH  69  70
ENDBRANCH   1  69
TORSDOF 16
