REMARK SMILES Cc1nn(C)c(=O)c(C(=O)N2CCCC[C@H]2C(=O)NCCCCNC(=O)c2ccc(-c3c4nc(c(-c5ccc(S(=O)(=O)[O-])cc5)c5ccc([nH]5)c(-c5ccc(S(=O)(=O)[O-])cc5)c5nc(c(-c6ccc(S(=O)(=O)[O-])cc6)c6ccc3[nH]6)C=C5)C=C4)cc2)c1C
REMARK SMILES IDX 22 1 21 2 20 3 19 4 17 5 18 6 16 8 11 9 12 10 13 11 15 12
REMARK SMILES IDX 14 13 9 14 10 15 8 16 1 17 2 18 3 19 87 20 4 21 88 22 5 23
REMARK SMILES IDX 6 24 7 25 23 26 24 27 25 28 26 30 27 31 28 32 86 33 29 34
REMARK SMILES IDX 85 35 30 36 31 37 32 38 79 39 33 40 84 41 78 42 80 43 34 44
REMARK SMILES IDX 83 45 77 46 76 47 35 49 65 50 46 51 64 52 47 53 50 54 63 55
REMARK SMILES IDX 81 56 48 57 49 58 62 60 82 61 51 62 36 63 37 64 45 65 38 66
REMARK SMILES IDX 44 67 39 68 40 69 41 70 42 71 43 72 66 73 67 74 75 75 68 76
REMARK SMILES IDX 74 77 69 78 70 79 71 80 72 81 73 82 52 83 53 84 61 85 54 86
REMARK SMILES IDX 60 87 55 88 56 89 57 90 58 91 59 92
REMARK H PARENT 19 7 24 29 80 48 50 59
REMARK Flexibility Score: inf
ROOT
ATOM      1  C   UNL     1      -2.350   5.854  -4.784  1.00  0.00     0.023 C 
ENDROOT
BRANCH   1   2
ATOM      2  C   UNL     1      -1.999   4.684  -5.704  1.00  0.00     0.023 C 
BRANCH   2   3
ATOM      3  C   UNL     1      -0.548   4.208  -5.640  1.00  0.00     0.116 C 
BRANCH   3   4
ATOM      4  N   UNL     1      -0.232   3.500  -4.418  1.00  0.00    -0.354 N 
ATOM      5  C   UNL     1       0.030   2.204  -4.114  1.00  0.00     0.242 C 
ATOM      6  O   UNL     1       0.521   2.038  -2.987  1.00  0.00    -0.273 OA
ATOM      7  H   UNL     1      -0.199   4.091  -3.631  1.00  0.00     0.163 HD
BRANCH   5   8
ATOM      8  C   UNL     1      -0.332   0.947  -4.960  1.00  0.00     0.174 C 
ATOM      9  N   UNL     1      -1.546   0.244  -4.483  1.00  0.00    -0.326 N 
ATOM     10  C   UNL     1      -2.807   0.760  -4.989  1.00  0.00     0.120 C 
ATOM     11  C   UNL     1      -2.854   0.605  -6.499  1.00  0.00     0.022 C 
ATOM     12  C   UNL     1      -0.334   1.022  -6.497  1.00  0.00     0.035 C 
ATOM     13  C   UNL     1      -1.689   1.344  -7.147  1.00  0.00     0.004 C 
BRANCH   9  14
ATOM     14  C   UNL     1      -1.577  -1.006  -3.870  1.00  0.00     0.260 C 
ATOM     15  O   UNL     1      -2.543  -1.764  -3.983  1.00  0.00    -0.269 OA
BRANCH  14  16
ATOM     16  C   UNL     1      -0.498  -1.383  -2.923  1.00  0.00     0.111 A 
ATOM     17  C   UNL     1       1.106  -0.371   0.310  1.00  0.00     0.069 C 
ATOM     18  C   UNL     1       0.587  -1.267  -0.790  1.00  0.00     0.062 A 
ATOM     19  N   UNL     1       1.039  -2.480  -0.821  1.00  0.00    -0.175 NA
ATOM     20  C   UNL     1      -0.410  -0.726  -1.751  1.00  0.00    -0.010 A 
ATOM     21  N   UNL     1       0.690  -3.251  -1.898  1.00  0.00    -0.232 N 
ATOM     22  C   UNL     1      -1.312   0.368  -1.259  1.00  0.00     0.047 C 
ATOM     23  C   UNL     1       1.037  -4.657  -1.800  1.00  0.00     0.178 C 
ATOM     24  C   UNL     1       0.150  -2.720  -3.067  1.00  0.00     0.279 A 
ATOM     25  O   UNL     1       0.133  -3.318  -4.142  1.00  0.00    -0.267 OA
ENDBRANCH  14  16
ENDBRANCH   9  14
ENDBRANCH   5   8
ENDBRANCH   3   4
ENDBRANCH   2   3
ENDBRANCH   1   2
BRANCH   1  26
ATOM     26  C   UNL     1      -1.449   7.077  -4.897  1.00  0.00     0.116 C 
BRANCH  26  27
ATOM     27  N   UNL     1      -1.263   7.548  -6.262  1.00  0.00    -0.352 N 
ATOM     28  C   UNL     1      -1.101   8.843  -6.694  1.00  0.00     0.251 C 
ATOM     29  H   UNL     1      -1.251   6.855  -6.960  1.00  0.00     0.163 HD
ATOM     30  O   UNL     1      -1.006   9.096  -7.891  1.00  0.00    -0.269 OA
BRANCH  28  31
ATOM     31  C   UNL     1      -1.092   9.924  -5.691  1.00  0.00     0.039 A 
ATOM     32  C   UNL     1      -2.021  10.960  -5.811  1.00  0.00     0.014 A 
ATOM     33  C   UNL     1      -0.231   9.856  -4.593  1.00  0.00     0.014 A 
ATOM     34  C   UNL     1      -2.134  11.896  -4.784  1.00  0.00     0.010 A 
ATOM     35  C   UNL     1      -0.394  10.748  -3.540  1.00  0.00     0.010 A 
ATOM     36  C   UNL     1      -1.347  11.775  -3.627  1.00  0.00    -0.014 A 
BRANCH  36  37
ATOM     37  C   UNL     1      -1.487  12.734  -2.506  1.00  0.00     0.031 A 
ATOM     38  C   UNL     1      -0.351  13.662  -2.181  1.00  0.00     0.074 A 
ATOM     39  C   UNL     1      -2.615  12.746  -1.769  1.00  0.00     0.049 A 
ATOM     40  N   UNL     1      -0.257  14.544  -1.221  1.00  0.00    -0.248 NA
ATOM     41  C   UNL     1       0.846  13.572  -3.035  1.00  0.00     0.031 C 
ATOM     42  C   UNL     1      -3.776  11.877  -1.978  1.00  0.00     0.029 A 
ATOM     43  N   UNL     1      -2.975  13.526  -0.699  1.00  0.00    -0.354 N 
ATOM     44  C   UNL     1       1.004  15.112  -1.356  1.00  0.00     0.074 A 
ATOM     45  C   UNL     1       1.664  14.431  -2.446  1.00  0.00     0.031 C 
ATOM     46  C   UNL     1      -4.736  12.205  -1.097  1.00  0.00     0.029 A 
ATOM     47  C   UNL     1      -4.247  13.279  -0.238  1.00  0.00     0.049 A 
ATOM     48  H   UNL     1      -2.379  14.200  -0.299  1.00  0.00     0.167 HD
ATOM     49  C   UNL     1       1.551  16.133  -0.657  1.00  0.00     0.031 A 
ATOM     50  C   UNL     1      -4.942  13.861   0.759  1.00  0.00     0.031 A 
ATOM     51  C   UNL     1       0.886  16.816   0.418  1.00  0.00     0.049 A 
ATOM     52  C   UNL     1      -4.296  14.969   1.546  1.00  0.00     0.074 A 
ATOM     53  C   UNL     1       1.347  17.873   1.182  1.00  0.00     0.029 A 
ATOM     54  N   UNL     1      -0.389  16.516   0.872  1.00  0.00    -0.354 N 
ATOM     55  N   UNL     1      -3.109  15.504   1.391  1.00  0.00    -0.248 NA
ATOM     56  C   UNL     1      -5.086  15.553   2.639  1.00  0.00     0.031 C 
ATOM     57  C   UNL     1       0.361  18.191   2.121  1.00  0.00     0.029 A 
ATOM     58  C   UNL     1      -0.730  17.362   1.911  1.00  0.00     0.049 A 
ATOM     59  H   UNL     1      -0.967  15.807   0.508  1.00  0.00     0.167 HD
ATOM     60  C   UNL     1      -3.018  16.505   2.352  1.00  0.00     0.074 A 
ATOM     61  C   UNL     1      -4.274  16.508   3.074  1.00  0.00     0.031 C 
ATOM     62  C   UNL     1      -1.988  17.346   2.613  1.00  0.00     0.031 A 
BRANCH  49  63
ATOM     63  C   UNL     1       2.932  16.579  -1.054  1.00  0.00    -0.014 A 
ATOM     64  C   UNL     1       3.139  17.269  -2.263  1.00  0.00     0.010 A 
ATOM     65  C   UNL     1       4.026  16.334  -0.207  1.00  0.00     0.010 A 
ATOM     66  C   UNL     1       4.422  17.674  -2.635  1.00  0.00     0.020 A 
ATOM     67  C   UNL     1       5.309  16.762  -0.563  1.00  0.00     0.020 A 
ATOM     68  C   UNL     1       5.500  17.416  -1.783  1.00  0.00     0.054 A 
BRANCH  68  69
ATOM     69  S   UNL     1       7.151  17.977  -2.283  1.00  0.00     0.124 S 
ATOM     70  O   UNL     1       7.469  17.047  -3.364  1.00  0.00    -0.237 OA
ATOM     71  O   UNL     1       6.909  19.357  -2.693  1.00  0.00    -0.237 OA
ATOM     72  O   UNL     1       7.952  17.820  -1.072  1.00  0.00    -0.744 OA
ENDBRANCH  68  69
ENDBRANCH  49  63
BRANCH  50  73
ATOM     73  C   UNL     1      -6.340  13.438   1.044  1.00  0.00    -0.014 A 
ATOM     74  C   UNL     1      -7.413  14.286   0.718  1.00  0.00     0.010 A 
ATOM     75  C   UNL     1      -6.610  12.189   1.632  1.00  0.00     0.010 A 
ATOM     76  C   UNL     1      -8.730  13.900   0.988  1.00  0.00     0.020 A 
ATOM     77  C   UNL     1      -7.927  11.790   1.882  1.00  0.00     0.020 A 
ATOM     78  C   UNL     1      -8.978  12.653   1.567  1.00  0.00     0.054 A 
BRANCH  78  79
ATOM     79  S   UNL     1     -10.698  12.155   1.863  1.00  0.00     0.124 S 
ATOM     80  O   UNL     1     -11.069  13.002   2.992  1.00  0.00    -0.237 OA
ATOM     81  O   UNL     1     -11.342  12.476   0.591  1.00  0.00    -0.237 OA
ATOM     82  O   UNL     1     -10.594  10.728   2.157  1.00  0.00    -0.744 OA
ENDBRANCH  78  79
ENDBRANCH  50  73
BRANCH  62  83
ATOM     83  C   UNL     1      -2.178  18.355   3.711  1.00  0.00    -0.014 A 
ATOM     84  C   UNL     1      -2.122  17.970   5.062  1.00  0.00     0.010 A 
ATOM     85  C   UNL     1      -2.330  19.715   3.386  1.00  0.00     0.010 A 
ATOM     86  C   UNL     1      -2.232  18.929   6.071  1.00  0.00     0.020 A 
ATOM     87  C   UNL     1      -2.416  20.679   4.393  1.00  0.00     0.020 A 
ATOM     88  C   UNL     1      -2.374  20.278   5.730  1.00  0.00     0.054 A 
BRANCH  88  89
ATOM     89  S   UNL     1      -2.447  21.508   7.060  1.00  0.00     0.124 S 
ATOM     90  O   UNL     1      -3.783  21.286   7.607  1.00  0.00    -0.237 OA
ATOM     91  O   UNL     1      -1.339  21.110   7.925  1.00  0.00    -0.237 OA
ATOM     92  O   UNL     1      -2.261  22.781   6.366  1.00  0.00    -0.744 OA
ENDBRANCH  88  89
ENDBRANCH  62  83
ENDBRANCH  36  37
ENDBRANCH  28  31
ENDBRANCH  26  27
ENDBRANCH   1  26
TORSDOF 16
