REMARK SMILES O=C(NCCCCNC(=O)[C@H]1CC2=c3ccccc3=N[C@H]2[C@@H](c2ccccc2)[NH2+]1)c1ccc(-c2c3nc(c(-c4ccc(S(=O)(=O)[O-])cc4)c4ccc([nH]4)c(-c4ccc(S(=O)(=O)[O-])cc4)c4nc(c(-c5ccc(S(=O)(=O)[O-])cc5)c5ccc2[nH]5)C=C4)C=C3)cc1
REMARK SMILES IDX 4 1 3 2 1 3 2 4 30 6 31 7 89 8 32 9 88 10 33 11 34 12 35 13
REMARK SMILES IDX 82 14 36 15 87 16 81 17 83 18 37 19 86 20 80 21 79 22 38 24
REMARK SMILES IDX 68 25 49 26 67 27 50 28 53 29 66 30 84 31 51 32 52 33 65 35
REMARK SMILES IDX 85 36 54 37 39 38 40 39 48 40 41 41 47 42 42 43 43 44 44 45
REMARK SMILES IDX 45 46 46 47 69 48 70 49 78 50 71 51 77 52 72 53 73 54 74 55
REMARK SMILES IDX 75 56 76 57 55 58 56 59 64 60 57 61 63 62 58 63 59 64 60 65
REMARK SMILES IDX 61 66 62 67 5 68 6 69 7 70 8 71 9 72 10 74 11 75 12 76 29 77
REMARK SMILES IDX 13 78 22 79 14 82 21 83 15 84 19 85 20 86 16 87 18 88 17 89
REMARK SMILES IDX 23 90 24 91 28 92 25 93 27 94 26 95
REMARK H PARENT 3 5 83 23 53 34 8 73 29 80 29 81
REMARK Flexibility Score: inf
ROOT
ATOM      1  C   UNL     1       4.564   0.654  -0.714  1.00  0.00     0.116 C 
ENDROOT
BRANCH   1   2
ATOM      2  N   UNL     1       3.128   0.776  -0.498  1.00  0.00    -0.352 N 
ATOM      3  O   UNL     1       1.085   0.143   0.212  1.00  0.00    -0.269 OA
ATOM      4  C   UNL     1       2.298  -0.041   0.230  1.00  0.00     0.251 C 
ATOM      5  H   UNL     1       2.695   1.546  -0.933  1.00  0.00     0.163 HD
BRANCH   4   6
ATOM      6  C   UNL     1       2.883  -1.153   1.003  1.00  0.00     0.039 A 
ATOM      7  C   UNL     1       2.293  -2.415   0.929  1.00  0.00     0.014 A 
ATOM      8  C   UNL     1       4.037  -0.954   1.766  1.00  0.00     0.014 A 
ATOM      9  C   UNL     1       2.894  -3.490   1.583  1.00  0.00     0.010 A 
ATOM     10  C   UNL     1       4.689  -2.042   2.327  1.00  0.00     0.010 A 
ATOM     11  C   UNL     1       4.111  -3.316   2.264  1.00  0.00    -0.014 A 
BRANCH  11  12
ATOM     12  C   UNL     1       4.769  -4.450   2.956  1.00  0.00     0.031 A 
ATOM     13  C   UNL     1       4.942  -4.415   4.449  1.00  0.00     0.074 A 
ATOM     14  C   UNL     1       5.230  -5.492   2.240  1.00  0.00     0.049 A 
ATOM     15  N   UNL     1       5.478  -5.313   5.235  1.00  0.00    -0.248 NA
ATOM     16  C   UNL     1       4.482  -3.204   5.151  1.00  0.00     0.031 C 
ATOM     17  C   UNL     1       5.169  -5.608   0.781  1.00  0.00     0.029 A 
ATOM     18  N   UNL     1       5.826  -6.660   2.643  1.00  0.00    -0.354 N 
ATOM     19  C   UNL     1       5.418  -4.774   6.514  1.00  0.00     0.074 A 
ATOM     20  C   UNL     1       4.877  -3.441   6.391  1.00  0.00     0.031 C 
ATOM     21  C   UNL     1       5.652  -6.806   0.417  1.00  0.00     0.029 A 
ATOM     22  C   UNL     1       6.086  -7.529   1.609  1.00  0.00     0.049 A 
ATOM     23  H   UNL     1       6.047  -6.858   3.581  1.00  0.00     0.167 HD
ATOM     24  C   UNL     1       5.741  -5.355   7.693  1.00  0.00     0.031 A 
ATOM     25  C   UNL     1       6.595  -8.777   1.621  1.00  0.00     0.031 A 
ATOM     26  C   UNL     1       6.259  -6.690   7.809  1.00  0.00     0.049 A 
ATOM     27  C   UNL     1       6.939  -9.411   2.938  1.00  0.00     0.074 A 
ATOM     28  C   UNL     1       6.582  -7.389   8.957  1.00  0.00     0.029 A 
ATOM     29  N   UNL     1       6.520  -7.533   6.738  1.00  0.00    -0.354 N 
ATOM     30  N   UNL     1       6.831  -8.906   4.144  1.00  0.00    -0.248 NA
ATOM     31  C   UNL     1       7.461 -10.783   2.902  1.00  0.00     0.031 C 
ATOM     32  C   UNL     1       7.085  -8.637   8.578  1.00  0.00     0.029 A 
ATOM     33  C   UNL     1       7.019  -8.739   7.197  1.00  0.00     0.049 A 
ATOM     34  H   UNL     1       6.372  -7.306   5.791  1.00  0.00     0.167 HD
ATOM     35  C   UNL     1       7.272  -9.897   5.013  1.00  0.00     0.074 A 
ATOM     36  C   UNL     1       7.618 -11.043   4.194  1.00  0.00     0.031 C 
ATOM     37  C   UNL     1       7.387  -9.858   6.364  1.00  0.00     0.031 A 
BRANCH  24  38
ATOM     38  C   UNL     1       5.506  -4.557   8.949  1.00  0.00    -0.014 A 
ATOM     39  C   UNL     1       6.592  -4.142   9.740  1.00  0.00     0.010 A 
ATOM     40  C   UNL     1       4.197  -4.255   9.373  1.00  0.00     0.010 A 
ATOM     41  C   UNL     1       6.375  -3.447  10.933  1.00  0.00     0.020 A 
ATOM     42  C   UNL     1       3.978  -3.532  10.548  1.00  0.00     0.020 A 
ATOM     43  C   UNL     1       5.069  -3.148  11.330  1.00  0.00     0.054 A 
BRANCH  43  44
ATOM     44  S   UNL     1       4.803  -2.226  12.870  1.00  0.00     0.124 S 
ATOM     45  O   UNL     1       4.977  -3.262  13.882  1.00  0.00    -0.237 OA
ATOM     46  O   UNL     1       5.850  -1.208  12.819  1.00  0.00    -0.237 OA
ATOM     47  O   UNL     1       3.443  -1.711  12.726  1.00  0.00    -0.744 OA
ENDBRANCH  43  44
ENDBRANCH  24  38
BRANCH  25  48
ATOM     48  C   UNL     1       6.720  -9.511   0.332  1.00  0.00    -0.014 A 
ATOM     49  C   UNL     1       7.672  -9.115  -0.626  1.00  0.00     0.010 A 
ATOM     50  C   UNL     1       5.801 -10.523   0.005  1.00  0.00     0.010 A 
ATOM     51  C   UNL     1       7.657  -9.666  -1.910  1.00  0.00     0.020 A 
ATOM     52  C   UNL     1       5.799 -11.095  -1.271  1.00  0.00     0.020 A 
ATOM     53  C   UNL     1       6.704 -10.636  -2.231  1.00  0.00     0.054 A 
BRANCH  53  54
ATOM     54  S   UNL     1       6.633 -11.261  -3.933  1.00  0.00     0.124 S 
ATOM     55  O   UNL     1       6.002 -10.145  -4.633  1.00  0.00    -0.237 OA
ATOM     56  O   UNL     1       8.041 -11.486  -4.250  1.00  0.00    -0.237 OA
ATOM     57  O   UNL     1       5.821 -12.469  -3.821  1.00  0.00    -0.744 OA
ENDBRANCH  53  54
ENDBRANCH  25  48
BRANCH  37  58
ATOM     58  C   UNL     1       7.946 -11.074   7.053  1.00  0.00    -0.014 A 
ATOM     59  C   UNL     1       7.124 -11.847   7.895  1.00  0.00     0.010 A 
ATOM     60  C   UNL     1       9.313 -11.386   6.954  1.00  0.00     0.010 A 
ATOM     61  C   UNL     1       7.664 -12.895   8.643  1.00  0.00     0.020 A 
ATOM     62  C   UNL     1       9.851 -12.453   7.678  1.00  0.00     0.020 A 
ATOM     63  C   UNL     1       9.027 -13.186   8.536  1.00  0.00     0.054 A 
BRANCH  63  64
ATOM     64  S   UNL     1       9.714 -14.547   9.518  1.00  0.00     0.124 S 
ATOM     65  O   UNL     1       9.856 -13.933  10.835  1.00  0.00    -0.237 OA
ATOM     66  O   UNL     1       8.683 -15.577   9.410  1.00  0.00    -0.237 OA
ATOM     67  O   UNL     1      10.968 -14.860   8.835  1.00  0.00    -0.744 OA
ENDBRANCH  63  64
ENDBRANCH  37  58
ENDBRANCH  11  12
ENDBRANCH   4   6
ENDBRANCH   1   2
BRANCH   1  68
ATOM     68  C   UNL     1       4.998   1.022  -2.123  1.00  0.00     0.023 C 
BRANCH  68  69
ATOM     69  C   UNL     1       4.512   2.385  -2.598  1.00  0.00     0.023 C 
BRANCH  69  70
ATOM     70  C   UNL     1       4.967   3.570  -1.747  1.00  0.00     0.116 C 
BRANCH  70  71
ATOM     71  N   UNL     1       6.361   3.886  -1.985  1.00  0.00    -0.351 N 
ATOM     72  C   UNL     1       6.933   4.886  -2.721  1.00  0.00     0.278 C 
ATOM     73  H   UNL     1       7.001   3.282  -1.544  1.00  0.00     0.163 HD
ATOM     74  O   UNL     1       8.158   4.852  -2.869  1.00  0.00    -0.268 OA
BRANCH  72  75
ATOM     75  C   UNL     1       6.090   6.031  -3.332  1.00  0.00     0.277 C 
ATOM     76  C   UNL     1       5.069   5.519  -4.378  1.00  0.00     0.109 C 
ATOM     77  N   UNL     1       5.562   6.880  -2.234  1.00  0.00    -0.327 N 
ATOM     78  C   UNL     1       3.736   6.160  -4.193  1.00  0.00    -0.024 C 
ATOM     79  C   UNL     1       4.665   7.972  -2.695  1.00  0.00     0.243 C 
ATOM     80  H   UNL     1       6.353   7.300  -1.744  1.00  0.00     0.347 HD
ATOM     81  H   UNL     1       5.006   6.274  -1.631  1.00  0.00     0.347 HD
ATOM     82  C   UNL     1       2.509   5.664  -4.084  1.00  0.00     0.002 A 
ATOM     83  C   UNL     1       3.752   7.639  -3.939  1.00  0.00     0.196 C 
ATOM     84  C   UNL     1       1.917   4.369  -4.133  1.00  0.00     0.010 A 
ATOM     85  C   UNL     1       1.710   6.866  -3.783  1.00  0.00     0.066 A 
ATOM     86  N   UNL     1       2.322   8.011  -3.759  1.00  0.00    -0.270 NA
ATOM     87  C   UNL     1       0.614   4.241  -3.829  1.00  0.00     0.001 A 
ATOM     88  C   UNL     1       0.277   6.651  -3.494  1.00  0.00     0.028 A 
ATOM     89  C   UNL     1      -0.203   5.396  -3.495  1.00  0.00     0.002 A 
BRANCH  79  90
ATOM     90  C   UNL     1       3.895   8.547  -1.506  1.00  0.00     0.012 A 
ATOM     91  C   UNL     1       3.039   7.750  -0.723  1.00  0.00     0.010 A 
ATOM     92  C   UNL     1       3.978   9.918  -1.216  1.00  0.00     0.010 A 
ATOM     93  C   UNL     1       2.277   8.311   0.303  1.00  0.00     0.001 A 
ATOM     94  C   UNL     1       3.215  10.477  -0.189  1.00  0.00     0.001 A 
ATOM     95  C   UNL     1       2.362   9.675   0.566  1.00  0.00     0.000 A 
ENDBRANCH  79  90
ENDBRANCH  72  75
ENDBRANCH  70  71
ENDBRANCH  69  70
ENDBRANCH  68  69
ENDBRANCH   1  68
TORSDOF 15
