REMARK SMILES C#CCN(CC(=O)NCCCCNC(=O)c1ccc(-c2c3nc(c(-c4ccc(S(=O)(=O)[O-])cc4)c4ccc([nH]4)c(-c4ccc(S(=O)(=O)[O-])cc4)c4nc(c(-c5ccc(S(=O)(=O)[O-])cc5)c5ccc2[nH]5)C=C4)C=C3)cc1)C(=O)CCOc1ccc(C)cc1
REMARK SMILES IDX 9 1 8 2 6 3 7 4 5 6 4 7 3 8 2 9 1 10 76 11 77 12 78 13 79 14
REMARK SMILES IDX 80 15 81 16 82 17 87 18 83 19 86 20 84 21 85 22 10 23 11 24
REMARK SMILES IDX 12 25 13 26 14 27 15 29 16 30 17 31 75 32 18 33 74 34 19 35
REMARK SMILES IDX 20 36 21 37 68 38 22 39 73 40 67 41 69 42 23 43 72 44 66 45
REMARK SMILES IDX 65 46 24 48 54 49 35 50 53 51 36 52 39 53 52 54 70 55 37 56
REMARK SMILES IDX 38 57 51 59 71 60 40 61 25 62 26 63 34 64 27 65 33 66 28 67
REMARK SMILES IDX 29 68 30 69 31 70 32 71 55 72 56 73 64 74 57 75 63 76 58 77
REMARK SMILES IDX 59 78 60 79 61 80 62 81 41 82 42 83 50 84 43 85 49 86 44 87
REMARK SMILES IDX 45 88 46 89 47 90 48 91
REMARK H PARENT 8 5 13 28 69 47 39 58
REMARK Flexibility Score: inf
ROOT
ATOM      1  C   UNL     1      -5.231  -0.341  -0.480  1.00  0.00     0.116 C 
ENDROOT
BRANCH   1   2
ATOM      2  N   UNL     1      -5.611  -0.392   0.908  1.00  0.00    -0.355 N 
ATOM      3  C   UNL     1      -4.827  -0.116   1.986  1.00  0.00     0.239 C 
ATOM      4  O   UNL     1      -5.217  -0.481   3.096  1.00  0.00    -0.273 OA
ATOM      5  H   UNL     1      -6.540  -0.656   1.099  1.00  0.00     0.163 HD
BRANCH   3   6
ATOM      6  C   UNL     1      -3.491   0.627   1.790  1.00  0.00     0.220 C 
BRANCH   6   7
ATOM      7  N   UNL     1      -2.350  -0.214   1.391  1.00  0.00    -0.322 N 
BRANCH   7   8
ATOM      8  C   UNL     1      -1.731  -0.005   0.037  1.00  0.00     0.209 C 
BRANCH   8   9
ATOM      9  C   UNL     1      -0.211  -0.005   0.037  1.00  0.00    -0.085 C 
ATOM     10  C   UNL     1       1.093  -0.005   0.037  1.00  0.00     0.006 C 
ENDBRANCH   8   9
ENDBRANCH   7   8
BRANCH   7  11
ATOM     11  C   UNL     1      -1.815  -1.153   2.276  1.00  0.00     0.227 C 
ATOM     12  O   UNL     1      -1.102  -2.079   1.880  1.00  0.00    -0.275 OA
BRANCH  11  13
ATOM     13  C   UNL     1      -2.006  -0.941   3.791  1.00  0.00     0.141 C 
BRANCH  13  14
ATOM     14  C   UNL     1      -0.865  -0.145   4.478  1.00  0.00     0.239 C 
BRANCH  14  15
ATOM     15  O   UNL     1      -1.064   1.281   4.720  1.00  0.00    -0.493 OA
BRANCH  15  16
ATOM     16  C   UNL     1      -0.727   2.180   3.744  1.00  0.00     0.119 A 
ATOM     17  C   UNL     1      -0.636   3.548   3.988  1.00  0.00     0.046 A 
ATOM     18  C   UNL     1      -0.526   1.797   2.449  1.00  0.00     0.046 A 
ATOM     19  C   UNL     1      -0.450   4.473   2.920  1.00  0.00     0.007 A 
ATOM     20  C   UNL     1      -0.522   2.691   1.385  1.00  0.00     0.007 A 
ATOM     21  C   UNL     1      -0.463   4.045   1.592  1.00  0.00    -0.051 A 
ATOM     22  C   UNL     1      -0.328   4.898   0.368  1.00  0.00     0.044 C 
ENDBRANCH  15  16
ENDBRANCH  14  15
ENDBRANCH  13  14
ENDBRANCH  11  13
ENDBRANCH   7  11
ENDBRANCH   6   7
ENDBRANCH   3   6
ENDBRANCH   1   2
BRANCH   1  23
ATOM     23  C   UNL     1      -4.814  -1.728  -0.964  1.00  0.00     0.023 C 
BRANCH  23  24
ATOM     24  C   UNL     1      -5.963  -2.738  -1.030  1.00  0.00     0.023 C 
BRANCH  24  25
ATOM     25  C   UNL     1      -7.206  -2.228  -1.743  1.00  0.00     0.116 C 
BRANCH  25  26
ATOM     26  N   UNL     1      -6.918  -1.694  -3.066  1.00  0.00    -0.352 N 
ATOM     27  C   UNL     1      -7.740  -1.692  -4.171  1.00  0.00     0.251 C 
ATOM     28  H   UNL     1      -6.031  -1.285  -3.185  1.00  0.00     0.163 HD
ATOM     29  O   UNL     1      -7.343  -1.309  -5.251  1.00  0.00    -0.269 OA
BRANCH  27  30
ATOM     30  C   UNL     1      -9.109  -2.215  -3.994  1.00  0.00     0.039 A 
ATOM     31  C   UNL     1      -9.518  -3.299  -4.769  1.00  0.00     0.014 A 
ATOM     32  C   UNL     1      -9.925  -1.696  -2.986  1.00  0.00     0.014 A 
ATOM     33  C   UNL     1     -10.743  -3.904  -4.494  1.00  0.00     0.010 A 
ATOM     34  C   UNL     1     -11.106  -2.350  -2.664  1.00  0.00     0.010 A 
ATOM     35  C   UNL     1     -11.530  -3.454  -3.420  1.00  0.00    -0.014 A 
BRANCH  35  36
ATOM     36  C   UNL     1     -12.814  -4.114  -3.085  1.00  0.00     0.031 A 
ATOM     37  C   UNL     1     -14.099  -3.343  -3.204  1.00  0.00     0.074 A 
ATOM     38  C   UNL     1     -12.817  -5.383  -2.632  1.00  0.00     0.049 A 
ATOM     39  N   UNL     1     -15.318  -3.724  -2.923  1.00  0.00    -0.248 NA
ATOM     40  C   UNL     1     -13.999  -1.951  -3.676  1.00  0.00     0.031 C 
ATOM     41  C   UNL     1     -11.629  -6.219  -2.438  1.00  0.00     0.029 A 
ATOM     42  N   UNL     1     -13.856  -6.194  -2.253  1.00  0.00    -0.354 N 
ATOM     43  C   UNL     1     -16.124  -2.621  -3.175  1.00  0.00     0.074 A 
ATOM     44  C   UNL     1     -15.252  -1.537  -3.566  1.00  0.00     0.031 C 
ATOM     45  C   UNL     1     -12.011  -7.435  -2.012  1.00  0.00     0.029 A 
ATOM     46  C   UNL     1     -13.462  -7.452  -1.861  1.00  0.00     0.049 A 
ATOM     47  H   UNL     1     -14.797  -5.903  -2.261  1.00  0.00     0.167 HD
ATOM     48  C   UNL     1     -17.473  -2.526  -3.114  1.00  0.00     0.031 A 
ATOM     49  C   UNL     1     -14.190  -8.500  -1.429  1.00  0.00     0.031 A 
ATOM     50  C   UNL     1     -18.335  -3.611  -2.731  1.00  0.00     0.049 A 
ATOM     51  C   UNL     1     -15.686  -8.362  -1.345  1.00  0.00     0.074 A 
ATOM     52  C   UNL     1     -19.717  -3.633  -2.675  1.00  0.00     0.029 A 
ATOM     53  N   UNL     1     -17.897  -4.868  -2.340  1.00  0.00    -0.354 N 
ATOM     54  N   UNL     1     -16.437  -7.328  -1.645  1.00  0.00    -0.248 NA
ATOM     55  C   UNL     1     -16.435  -9.535  -0.875  1.00  0.00     0.031 C 
ATOM     56  C   UNL     1     -20.113  -4.886  -2.199  1.00  0.00     0.029 A 
ATOM     57  C   UNL     1     -18.981  -5.667  -2.021  1.00  0.00     0.049 A 
ATOM     58  H   UNL     1     -16.955  -5.149  -2.296  1.00  0.00     0.167 HD
ATOM     59  C   UNL     1     -17.748  -7.739  -1.433  1.00  0.00     0.074 A 
ATOM     60  C   UNL     1     -17.688  -9.118  -0.993  1.00  0.00     0.031 C 
ATOM     61  C   UNL     1     -18.900  -7.040  -1.589  1.00  0.00     0.031 A 
BRANCH  48  62
ATOM     62  C   UNL     1     -18.092  -1.201  -3.472  1.00  0.00    -0.014 A 
ATOM     63  C   UNL     1     -18.060  -0.720  -4.795  1.00  0.00     0.010 A 
ATOM     64  C   UNL     1     -18.741  -0.439  -2.484  1.00  0.00     0.010 A 
ATOM     65  C   UNL     1     -18.626   0.517  -5.113  1.00  0.00     0.020 A 
ATOM     66  C   UNL     1     -19.337   0.784  -2.805  1.00  0.00     0.020 A 
ATOM     67  C   UNL     1     -19.260   1.262  -4.115  1.00  0.00     0.054 A 
BRANCH  67  68
ATOM     68  S   UNL     1     -20.007   2.852  -4.564  1.00  0.00     0.124 S 
ATOM     69  O   UNL     1     -18.828   3.686  -4.784  1.00  0.00    -0.237 OA
ATOM     70  O   UNL     1     -20.773   2.519  -5.762  1.00  0.00    -0.237 OA
ATOM     71  O   UNL     1     -20.807   3.203  -3.393  1.00  0.00    -0.744 OA
ENDBRANCH  67  68
ENDBRANCH  48  62
BRANCH  49  72
ATOM     72  C   UNL     1     -13.518  -9.778  -1.061  1.00  0.00    -0.014 A 
ATOM     73  C   UNL     1     -13.695 -10.930  -1.848  1.00  0.00     0.010 A 
ATOM     74  C   UNL     1     -12.700  -9.852   0.081  1.00  0.00     0.010 A 
ATOM     75  C   UNL     1     -13.091 -12.137  -1.486  1.00  0.00     0.020 A 
ATOM     76  C   UNL     1     -12.069 -11.049   0.430  1.00  0.00     0.020 A 
ATOM     77  C   UNL     1     -12.280 -12.189  -0.348  1.00  0.00     0.054 A 
BRANCH  77  78
ATOM     78  S   UNL     1     -11.478 -13.758   0.084  1.00  0.00     0.124 S 
ATOM     79  O   UNL     1     -12.604 -14.551   0.568  1.00  0.00    -0.237 OA
ATOM     80  O   UNL     1     -10.908 -14.181  -1.193  1.00  0.00    -0.237 OA
ATOM     81  O   UNL     1     -10.500 -13.374   1.098  1.00  0.00    -0.744 OA
ENDBRANCH  77  78
ENDBRANCH  49  72
BRANCH  61  82
ATOM     82  C   UNL     1     -20.193  -7.764  -1.325  1.00  0.00    -0.014 A 
ATOM     83  C   UNL     1     -20.585  -8.112  -0.021  1.00  0.00     0.010 A 
ATOM     84  C   UNL     1     -21.056  -8.048  -2.400  1.00  0.00     0.010 A 
ATOM     85  C   UNL     1     -21.803  -8.760   0.200  1.00  0.00     0.020 A 
ATOM     86  C   UNL     1     -22.288  -8.667  -2.180  1.00  0.00     0.020 A 
ATOM     87  C   UNL     1     -22.648  -9.032  -0.881  1.00  0.00     0.054 A 
BRANCH  87  88
ATOM     88  S   UNL     1     -24.244  -9.831  -0.561  1.00  0.00     0.124 S 
ATOM     89  O   UNL     1     -23.840 -11.198  -0.244  1.00  0.00    -0.237 OA
ATOM     90  O   UNL     1     -24.771  -9.056   0.559  1.00  0.00    -0.237 OA
ATOM     91  O   UNL     1     -24.970  -9.671  -1.819  1.00  0.00    -0.744 OA
ENDBRANCH  87  88
ENDBRANCH  61  82
ENDBRANCH  35  36
ENDBRANCH  27  30
ENDBRANCH  25  26
ENDBRANCH  24  25
ENDBRANCH  23  24
ENDBRANCH   1  23
TORSDOF 22
