REMARK SMILES Cc1cc(C(=O)N[C@H](CC(C)C)C(=O)NCCCCNC(=O)c2ccc(-c3c4nc(c(-c5ccc(S(=O)(=O)[O-])cc5)c5ccc([nH]5)c(-c5ccc(S(=O)(=O)[O-])cc5)c5nc(c(-c6ccc(S(=O)(=O)[O-])cc6)c6ccc3[nH]6)C=C5)C=C4)cc2)sc1Br
REMARK SMILES IDX 18 1 17 2 16 3 15 4 13 5 14 6 8 8 7 9 5 10 6 11 4 13 1 14
REMARK SMILES IDX 2 15 3 16 84 17 83 18 85 19 9 20 10 21 11 22 12 23 19 24
REMARK SMILES IDX 20 25 21 26 22 28 23 29 24 30 82 31 25 32 81 33 26 34 27 35
REMARK SMILES IDX 28 36 75 37 29 38 80 39 74 40 76 41 30 42 79 43 73 44 72 45
REMARK SMILES IDX 31 47 61 48 42 49 60 50 43 51 46 52 59 53 77 54 44 55 45 56
REMARK SMILES IDX 58 58 78 59 47 60 32 61 33 62 41 63 34 64 40 65 35 66 36 67
REMARK SMILES IDX 37 68 38 69 39 70 62 71 63 72 71 73 64 74 70 75 65 76 66 77
REMARK SMILES IDX 67 78 68 79 69 80 48 81 49 82 57 83 50 84 56 85 51 86 52 87
REMARK SMILES IDX 53 88 54 89 55 90
REMARK H PARENT 15 7 7 12 20 27 76 46 46 57
REMARK Flexibility Score: inf
ROOT
ATOM      1  C   UNL     1       4.662  -8.973  -1.497  1.00  0.00     0.023 C 
ENDROOT
BRANCH   1   2
ATOM      2  C   UNL     1       3.299  -8.412  -1.082  1.00  0.00     0.023 C 
BRANCH   2   3
ATOM      3  C   UNL     1       3.265  -7.619   0.234  1.00  0.00     0.116 C 
BRANCH   3   4
ATOM      4  N   UNL     1       3.722  -6.259   0.030  1.00  0.00    -0.354 N 
ATOM      5  C   UNL     1       3.054  -5.093  -0.186  1.00  0.00     0.242 C 
ATOM      6  O   UNL     1       3.738  -4.131  -0.557  1.00  0.00    -0.273 OA
ATOM      7  H   UNL     1       4.701  -6.160   0.053  1.00  0.00     0.163 HD
BRANCH   5   8
ATOM      8  C   UNL     1       1.521  -4.923  -0.029  1.00  0.00     0.171 C 
BRANCH   8   9
ATOM      9  N   UNL     1       1.075  -5.236   1.315  1.00  0.00    -0.340 N 
ATOM     10  C   UNL     1       0.835  -4.449   2.421  1.00  0.00     0.262 C 
ATOM     11  O   UNL     1       0.425  -5.086   3.397  1.00  0.00    -0.268 OA
ATOM     12  H   UNL     1       0.911  -6.195   1.467  1.00  0.00     0.164 HD
BRANCH  10  13
ATOM     13  C   UNL     1       1.008  -2.997   2.429  1.00  0.00     0.093 A 
ATOM     14  C   UNL     1       2.143   0.387   1.182  1.00  0.00     0.046 C 
ATOM     15  C   UNL     1       1.548  -0.725   1.983  1.00  0.00    -0.025 A 
ATOM     16  C   UNL     1       1.732  -2.115   1.643  1.00  0.00     0.030 A 
ATOM     17  C   UNL     1       0.778  -0.627   3.119  1.00  0.00     0.074 A 
ATOM     18  S   UNL     1       0.221  -2.118   3.692  1.00  0.00    -0.123 S 
ATOM     19  Br  UNL     1       0.345   0.981   3.993  1.00  0.00    -0.039 Br
ENDBRANCH  10  13
ENDBRANCH   8   9
BRANCH   8  20
ATOM     20  C   UNL     1       0.648  -5.452  -1.188  1.00  0.00     0.038 C 
BRANCH  20  21
ATOM     21  C   UNL     1       0.171  -6.913  -1.242  1.00  0.00    -0.015 C 
ATOM     22  C   UNL     1      -0.934  -7.266  -0.250  1.00  0.00     0.007 C 
ATOM     23  C   UNL     1      -0.303  -7.246  -2.664  1.00  0.00     0.007 C 
ENDBRANCH  20  21
ENDBRANCH   8  20
ENDBRANCH   5   8
ENDBRANCH   3   4
ENDBRANCH   2   3
ENDBRANCH   1   2
BRANCH   1  24
ATOM     24  C   UNL     1       5.167 -10.113  -0.621  1.00  0.00     0.116 C 
BRANCH  24  25
ATOM     25  N   UNL     1       4.268 -11.264  -0.621  1.00  0.00    -0.352 N 
ATOM     26  C   UNL     1       4.241 -12.318   0.273  1.00  0.00     0.251 C 
ATOM     27  H   UNL     1       3.602 -11.293  -1.345  1.00  0.00     0.163 HD
ATOM     28  O   UNL     1       3.714 -13.377  -0.019  1.00  0.00    -0.269 OA
BRANCH  26  29
ATOM     29  C   UNL     1       4.872 -12.126   1.591  1.00  0.00     0.039 A 
ATOM     30  C   UNL     1       5.814 -13.042   2.061  1.00  0.00     0.014 A 
ATOM     31  C   UNL     1       4.564 -10.972   2.312  1.00  0.00     0.014 A 
ATOM     32  C   UNL     1       6.527 -12.736   3.217  1.00  0.00     0.010 A 
ATOM     33  C   UNL     1       5.331 -10.630   3.406  1.00  0.00     0.010 A 
ATOM     34  C   UNL     1       6.310 -11.510   3.870  1.00  0.00    -0.014 A 
BRANCH  34  35
ATOM     35  C   UNL     1       7.246 -11.074   4.912  1.00  0.00     0.031 A 
ATOM     36  C   UNL     1       8.678 -11.057   4.487  1.00  0.00     0.074 A 
ATOM     37  C   UNL     1       6.871 -10.489   6.070  1.00  0.00     0.049 A 
ATOM     38  N   UNL     1       9.654 -11.781   4.928  1.00  0.00    -0.248 NA
ATOM     39  C   UNL     1       9.039 -10.218   3.329  1.00  0.00     0.031 C 
ATOM     40  C   UNL     1       5.511 -10.117   6.476  1.00  0.00     0.029 A 
ATOM     41  N   UNL     1       7.638  -9.973   7.074  1.00  0.00    -0.354 N 
ATOM     42  C   UNL     1      10.795 -11.323   4.271  1.00  0.00     0.074 A 
ATOM     43  C   UNL     1      10.329 -10.517   3.172  1.00  0.00     0.031 C 
ATOM     44  C   UNL     1       5.572  -9.227   7.489  1.00  0.00     0.029 A 
ATOM     45  C   UNL     1       6.953  -9.101   7.916  1.00  0.00     0.049 A 
ATOM     46  H   UNL     1       8.589 -10.197   7.192  1.00  0.00     0.167 HD
ATOM     47  C   UNL     1      12.031 -11.408   4.840  1.00  0.00     0.031 A 
ATOM     48  C   UNL     1       7.479  -8.299   8.874  1.00  0.00     0.031 A 
ATOM     49  C   UNL     1      12.029 -12.290   5.978  1.00  0.00     0.049 A 
ATOM     50  C   UNL     1       8.812  -8.838   9.221  1.00  0.00     0.074 A 
ATOM     51  C   UNL     1      11.779 -13.627   6.197  1.00  0.00     0.029 A 
ATOM     52  N   UNL     1      11.966 -11.670   7.201  1.00  0.00    -0.354 N 
ATOM     53  N   UNL     1       8.997  -9.990   9.800  1.00  0.00    -0.248 NA
ATOM     54  C   UNL     1       9.992  -8.255   8.603  1.00  0.00     0.031 C 
ATOM     55  C   UNL     1      11.191 -13.691   7.494  1.00  0.00     0.029 A 
ATOM     56  C   UNL     1      11.165 -12.403   8.033  1.00  0.00     0.049 A 
ATOM     57  H   UNL     1      12.424 -10.832   7.441  1.00  0.00     0.167 HD
ATOM     58  C   UNL     1      10.174 -10.473   9.255  1.00  0.00     0.074 A 
ATOM     59  C   UNL     1      10.811  -9.308   8.651  1.00  0.00     0.031 C 
ATOM     60  C   UNL     1      10.371 -11.815   9.095  1.00  0.00     0.031 A 
BRANCH  47  61
ATOM     61  C   UNL     1      13.108 -10.348   4.678  1.00  0.00    -0.014 A 
ATOM     62  C   UNL     1      14.339 -10.522   5.350  1.00  0.00     0.010 A 
ATOM     63  C   UNL     1      12.855  -9.066   4.150  1.00  0.00     0.010 A 
ATOM     64  C   UNL     1      15.220  -9.450   5.556  1.00  0.00     0.020 A 
ATOM     65  C   UNL     1      13.746  -8.002   4.309  1.00  0.00     0.020 A 
ATOM     66  C   UNL     1      14.908  -8.191   5.044  1.00  0.00     0.054 A 
BRANCH  66  67
ATOM     67  S   UNL     1      15.996  -6.789   5.395  1.00  0.00     0.124 S 
ATOM     68  O   UNL     1      15.818  -6.625   6.833  1.00  0.00    -0.237 OA
ATOM     69  O   UNL     1      17.298  -7.295   4.969  1.00  0.00    -0.237 OA
ATOM     70  O   UNL     1      15.449  -5.718   4.566  1.00  0.00    -0.744 OA
ENDBRANCH  66  67
ENDBRANCH  47  61
BRANCH  48  71
ATOM     71  C   UNL     1       7.018  -6.962   9.326  1.00  0.00    -0.014 A 
ATOM     72  C   UNL     1       7.528  -6.385  10.504  1.00  0.00     0.010 A 
ATOM     73  C   UNL     1       6.297  -6.128   8.447  1.00  0.00     0.010 A 
ATOM     74  C   UNL     1       7.394  -5.009  10.753  1.00  0.00     0.020 A 
ATOM     75  C   UNL     1       6.149  -4.758   8.693  1.00  0.00     0.020 A 
ATOM     76  C   UNL     1       6.726  -4.199   9.831  1.00  0.00     0.054 A 
BRANCH  76  77
ATOM     77  S   UNL     1       6.739  -2.394  10.055  1.00  0.00     0.124 S 
ATOM     78  O   UNL     1       5.842  -2.215  11.192  1.00  0.00    -0.237 OA
ATOM     79  O   UNL     1       8.150  -2.116  10.312  1.00  0.00    -0.237 OA
ATOM     80  O   UNL     1       6.236  -1.886   8.780  1.00  0.00    -0.744 OA
ENDBRANCH  76  77
ENDBRANCH  48  71
BRANCH  60  81
ATOM     81  C   UNL     1       9.569 -12.764   9.953  1.00  0.00    -0.014 A 
ATOM     82  C   UNL     1       8.163 -12.823   9.993  1.00  0.00     0.010 A 
ATOM     83  C   UNL     1      10.300 -13.702  10.704  1.00  0.00     0.010 A 
ATOM     84  C   UNL     1       7.511 -13.766  10.803  1.00  0.00     0.020 A 
ATOM     85  C   UNL     1       9.659 -14.658  11.492  1.00  0.00     0.020 A 
ATOM     86  C   UNL     1       8.267 -14.674  11.553  1.00  0.00     0.054 A 
BRANCH  86  87
ATOM     87  S   UNL     1       7.425 -15.890  12.603  1.00  0.00     0.124 S 
ATOM     88  O   UNL     1       6.821 -15.054  13.636  1.00  0.00    -0.237 OA
ATOM     89  O   UNL     1       6.488 -16.524  11.678  1.00  0.00    -0.237 OA
ATOM     90  O   UNL     1       8.507 -16.759  13.066  1.00  0.00    -0.744 OA
ENDBRANCH  86  87
ENDBRANCH  60  81
ENDBRANCH  34  35
ENDBRANCH  26  29
ENDBRANCH  24  25
ENDBRANCH   1  24
TORSDOF 18
