REMARK SMILES C[C@]1(C(=O)NCCCCNC(=O)c2ccc(-c3c4nc(c(-c5ccc(S(=O)(=O)[O-])cc5)c5ccc([nH]5)c(-c5ccc(S(=O)(=O)[O-])cc5)c5nc(c(-c6ccc(S(=O)(=O)[O-])cc6)c6ccc3[nH]6)C=C5)C=C4)cc2)CCN(c2ccc([N+](=O)[O-])c(N)n2)C1
REMARK SMILES IDX 8 1 7 2 6 3 5 4 3 5 4 6 2 8 1 9 73 10 86 11 74 12 75 13
REMARK SMILES IDX 76 14 77 15 85 16 78 17 83 18 79 19 84 20 80 23 81 24 82 25
REMARK SMILES IDX 9 26 10 27 11 28 12 30 13 31 14 32 72 33 15 34 71 35 16 36
REMARK SMILES IDX 17 37 18 38 65 39 19 40 70 41 64 42 66 43 20 44 69 45 63 46
REMARK SMILES IDX 62 47 21 49 51 50 32 51 50 52 33 53 36 54 49 55 67 56 34 57
REMARK SMILES IDX 35 58 48 60 68 61 37 62 22 63 23 64 31 65 24 66 30 67 25 68
REMARK SMILES IDX 26 69 27 70 28 71 29 72 52 73 53 74 61 75 54 76 60 77 55 78
REMARK SMILES IDX 56 79 57 80 58 81 59 82 38 83 39 84 47 85 40 86 46 87 41 88
REMARK SMILES IDX 42 89 43 90 44 91 45 92
REMARK H PARENT 5 7 84 21 84 22 10 29 66 48 36 59
REMARK Flexibility Score: inf
ROOT
ATOM      1  C   UNL     1      -1.671   3.408   0.707  1.00  0.00     0.023 C 
ENDROOT
BRANCH   1   2
ATOM      2  C   UNL     1      -2.068   1.983   1.093  1.00  0.00     0.023 C 
BRANCH   2   3
ATOM      3  C   UNL     1      -1.576   0.866   0.178  1.00  0.00     0.116 C 
BRANCH   3   4
ATOM      4  N   UNL     1      -0.135   0.740   0.142  1.00  0.00    -0.356 N 
ATOM      5  C   UNL     1       0.673  -0.339  -0.045  1.00  0.00     0.227 C 
ATOM      6  O   UNL     1       1.867  -0.077  -0.220  1.00  0.00    -0.274 OA
ATOM      7  H   UNL     1       0.348   1.587   0.278  1.00  0.00     0.163 HD
BRANCH   5   8
ATOM      8  C   UNL     1       0.185  -1.796   0.054  1.00  0.00     0.066 C 
ATOM      9  C   UNL     1      -1.141  -2.097  -0.664  1.00  0.00     0.024 C 
ATOM     10  C   UNL     1       1.267  -2.756  -0.500  1.00  0.00     0.040 C 
ATOM     11  C   UNL     1       0.157  -2.214   1.538  1.00  0.00     0.134 C 
ATOM     12  C   UNL     1       1.063  -4.062   0.266  1.00  0.00     0.119 C 
ATOM     13  N   UNL     1       0.443  -3.648   1.518  1.00  0.00    -0.355 N 
BRANCH  13  14
ATOM     14  C   UNL     1       0.586  -4.415   2.647  1.00  0.00     0.131 A 
ATOM     15  C   UNL     1      -0.223  -4.226   3.763  1.00  0.00     0.054 A 
ATOM     16  N   UNL     1       1.529  -5.388   2.647  1.00  0.00    -0.207 NA
ATOM     17  C   UNL     1      -0.059  -5.037   4.885  1.00  0.00     0.093 A 
ATOM     18  C   UNL     1       1.737  -6.149   3.744  1.00  0.00     0.204 A 
ATOM     19  C   UNL     1       0.943  -6.008   4.872  1.00  0.00     0.311 A 
BRANCH  18  20
ATOM     20  N   UNL     1       2.730  -7.097   3.587  1.00  0.00    -0.378 N 
ATOM     21  H   UNL     1       2.956  -7.701   4.330  1.00  0.00     0.158 HD
ATOM     22  H   UNL     1       3.211  -7.168   2.731  1.00  0.00     0.158 HD
ENDBRANCH  18  20
BRANCH  19  23
ATOM     23  N   UNL     1       1.141  -6.840   6.047  1.00  0.00     0.066 N 
ATOM     24  O   UNL     1       0.159  -7.035   6.779  1.00  0.00    -0.258 OA
ATOM     25  O   UNL     1       2.280  -7.279   6.275  1.00  0.00    -0.258 OA
ENDBRANCH  19  23
ENDBRANCH  13  14
ENDBRANCH   5   8
ENDBRANCH   3   4
ENDBRANCH   2   3
ENDBRANCH   1   2
BRANCH   1  26
ATOM     26  C   UNL     1      -2.033   3.850  -0.708  1.00  0.00     0.116 C 
BRANCH  26  27
ATOM     27  N   UNL     1      -3.451   3.722  -1.013  1.00  0.00    -0.352 N 
ATOM     28  C   UNL     1      -4.344   4.662  -1.475  1.00  0.00     0.251 C 
ATOM     29  H   UNL     1      -3.829   2.825  -0.866  1.00  0.00     0.163 HD
ATOM     30  O   UNL     1      -5.534   4.371  -1.572  1.00  0.00    -0.269 OA
BRANCH  28  31
ATOM     31  C   UNL     1      -3.884   6.026  -1.815  1.00  0.00     0.039 A 
ATOM     32  C   UNL     1      -4.607   7.122  -1.333  1.00  0.00     0.014 A 
ATOM     33  C   UNL     1      -2.738   6.231  -2.587  1.00  0.00     0.014 A 
ATOM     34  C   UNL     1      -4.127   8.417  -1.546  1.00  0.00     0.010 A 
ATOM     35  C   UNL     1      -2.222   7.517  -2.733  1.00  0.00     0.010 A 
ATOM     36  C   UNL     1      -2.904   8.623  -2.204  1.00  0.00    -0.014 A 
BRANCH  36  37
ATOM     37  C   UNL     1      -2.311   9.981  -2.331  1.00  0.00     0.031 A 
ATOM     38  C   UNL     1      -2.093  10.590  -3.691  1.00  0.00     0.074 A 
ATOM     39  C   UNL     1      -1.899  10.636  -1.226  1.00  0.00     0.049 A 
ATOM     40  N   UNL     1      -1.506  11.716  -4.004  1.00  0.00    -0.248 NA
ATOM     41  C   UNL     1      -2.577   9.822  -4.850  1.00  0.00     0.031 C 
ATOM     42  C   UNL     1      -2.011  10.138   0.148  1.00  0.00     0.029 A 
ATOM     43  N   UNL     1      -1.290  11.859  -1.083  1.00  0.00    -0.354 N 
ATOM     44  C   UNL     1      -1.538  11.787  -5.392  1.00  0.00     0.074 A 
ATOM     45  C   UNL     1      -2.158  10.567  -5.863  1.00  0.00     0.031 C 
ATOM     46  C   UNL     1      -1.506  11.053   0.992  1.00  0.00     0.029 A 
ATOM     47  C   UNL     1      -0.998  12.183   0.222  1.00  0.00     0.049 A 
ATOM     48  H   UNL     1      -1.082  12.448  -1.844  1.00  0.00     0.167 HD
ATOM     49  C   UNL     1      -1.113  12.785  -6.202  1.00  0.00     0.031 A 
ATOM     50  C   UNL     1      -0.379  13.262   0.741  1.00  0.00     0.031 A 
ATOM     51  C   UNL     1      -0.510  14.005  -5.734  1.00  0.00     0.049 A 
ATOM     52  C   UNL     1       0.090  14.355  -0.182  1.00  0.00     0.074 A 
ATOM     53  C   UNL     1      -0.082  15.092  -6.477  1.00  0.00     0.029 A 
ATOM     54  N   UNL     1      -0.258  14.305  -4.405  1.00  0.00    -0.354 N 
ATOM     55  N   UNL     1       0.003  14.422  -1.489  1.00  0.00    -0.248 NA
ATOM     56  C   UNL     1       0.731  15.522   0.441  1.00  0.00     0.031 C 
ATOM     57  C   UNL     1       0.465  16.034  -5.599  1.00  0.00     0.029 A 
ATOM     58  C   UNL     1       0.329  15.555  -4.307  1.00  0.00     0.049 A 
ATOM     59  H   UNL     1      -0.466  13.717  -3.643  1.00  0.00     0.167 HD
ATOM     60  C   UNL     1       0.551  15.651  -1.841  1.00  0.00     0.074 A 
ATOM     61  C   UNL     1       0.951  16.300  -0.610  1.00  0.00     0.031 C 
ATOM     62  C   UNL     1       0.711  16.192  -3.073  1.00  0.00     0.031 A 
BRANCH  49  63
ATOM     63  C   UNL     1      -1.298  12.608  -7.685  1.00  0.00    -0.014 A 
ATOM     64  C   UNL     1      -2.579  12.677  -8.262  1.00  0.00     0.010 A 
ATOM     65  C   UNL     1      -0.179  12.434  -8.520  1.00  0.00     0.010 A 
ATOM     66  C   UNL     1      -2.742  12.546  -9.643  1.00  0.00     0.020 A 
ATOM     67  C   UNL     1      -0.336  12.328  -9.906  1.00  0.00     0.020 A 
ATOM     68  C   UNL     1      -1.618  12.373 -10.457  1.00  0.00     0.054 A 
BRANCH  68  69
ATOM     69  S   UNL     1      -1.857  12.249 -12.250  1.00  0.00     0.124 S 
ATOM     70  O   UNL     1      -2.434  10.913 -12.385  1.00  0.00    -0.237 OA
ATOM     71  O   UNL     1      -2.768  13.357 -12.529  1.00  0.00    -0.237 OA
ATOM     72  O   UNL     1      -0.509  12.403 -12.792  1.00  0.00    -0.744 OA
ENDBRANCH  68  69
ENDBRANCH  49  63
BRANCH  50  73
ATOM     73  C   UNL     1      -0.163  13.370   2.210  1.00  0.00    -0.014 A 
ATOM     74  C   UNL     1      -0.867  14.321   2.970  1.00  0.00     0.010 A 
ATOM     75  C   UNL     1       0.768  12.535   2.855  1.00  0.00     0.010 A 
ATOM     76  C   UNL     1      -0.619  14.460   4.339  1.00  0.00     0.020 A 
ATOM     77  C   UNL     1       0.998  12.651   4.229  1.00  0.00     0.020 A 
ATOM     78  C   UNL     1       0.316  13.627   4.958  1.00  0.00     0.054 A 
BRANCH  78  79
ATOM     79  S   UNL     1       0.610  13.808   6.740  1.00  0.00     0.124 S 
ATOM     80  O   UNL     1       1.427  15.016   6.790  1.00  0.00    -0.237 OA
ATOM     81  O   UNL     1      -0.744  13.936   7.274  1.00  0.00    -0.237 OA
ATOM     82  O   UNL     1       1.298  12.569   7.099  1.00  0.00    -0.744 OA
ENDBRANCH  78  79
ENDBRANCH  50  73
BRANCH  62  83
ATOM     83  C   UNL     1       1.306  17.573  -3.153  1.00  0.00    -0.014 A 
ATOM     84  C   UNL     1       2.673  17.792  -2.913  1.00  0.00     0.010 A 
ATOM     85  C   UNL     1       0.491  18.656  -3.528  1.00  0.00     0.010 A 
ATOM     86  C   UNL     1       3.210  19.078  -3.019  1.00  0.00     0.020 A 
ATOM     87  C   UNL     1       1.029  19.939  -3.661  1.00  0.00     0.020 A 
ATOM     88  C   UNL     1       2.384  20.143  -3.392  1.00  0.00     0.054 A 
BRANCH  88  89
ATOM     89  S   UNL     1       3.113  21.795  -3.567  1.00  0.00     0.124 S 
ATOM     90  O   UNL     1       3.298  22.195  -2.175  1.00  0.00    -0.237 OA
ATOM     91  O   UNL     1       4.340  21.526  -4.313  1.00  0.00    -0.237 OA
ATOM     92  O   UNL     1       2.097  22.546  -4.302  1.00  0.00    -0.744 OA
ENDBRANCH  88  89
ENDBRANCH  62  83
ENDBRANCH  36  37
ENDBRANCH  28  31
ENDBRANCH  26  27
ENDBRANCH   1  26
TORSDOF 17
