REMARK SMILES C=CCN(CC(=O)NCCCCNC(=O)c1ccc(-c2c3nc(c(-c4ccc(S(=O)(=O)[O-])cc4)c4ccc([nH]4)c(-c4ccc(S(=O)(=O)[O-])cc4)c4nc(c(-c5ccc(S(=O)(=O)[O-])cc5)c5ccc2[nH]5)C=C4)C=C3)cc1)C(=O)[C@@H]1Oc2ccccc2O[C@H]1C
REMARK SMILES IDX 10 1 9 2 8 3 6 4 7 5 5 7 4 8 3 9 2 10 1 11 76 12 77 13 78 14
REMARK SMILES IDX 79 15 87 16 80 17 86 18 88 19 81 20 85 21 82 22 84 23 83 24
REMARK SMILES IDX 11 25 12 26 13 27 14 28 15 30 16 31 17 32 75 33 18 34 74 35
REMARK SMILES IDX 19 36 20 37 21 38 68 39 22 40 73 41 67 42 69 43 23 44 72 45
REMARK SMILES IDX 66 46 65 47 24 49 54 50 35 51 53 52 36 53 39 54 52 55 70 56
REMARK SMILES IDX 37 57 38 58 51 60 71 61 40 62 25 63 26 64 34 65 27 66 33 67
REMARK SMILES IDX 28 68 29 69 30 70 31 71 32 72 55 73 56 74 64 75 57 76 63 77
REMARK SMILES IDX 58 78 59 79 60 80 61 81 62 82 41 83 42 84 50 85 43 86 49 87
REMARK SMILES IDX 44 88 45 89 46 90 47 91 48 92
REMARK H PARENT 8 6 13 29 69 48 39 59
REMARK Flexibility Score: inf
ROOT
ATOM      1  C   UNL     1      -4.424  -0.193   0.118  1.00  0.00     0.023 C 
ENDROOT
BRANCH   1   2
ATOM      2  C   UNL     1      -4.510  -1.348   1.115  1.00  0.00     0.116 C 
BRANCH   2   3
ATOM      3  N   UNL     1      -4.700  -2.625   0.456  1.00  0.00    -0.355 N 
ATOM      4  C   UNL     1      -3.797  -3.606   0.159  1.00  0.00     0.239 C 
ATOM      5  O   UNL     1      -4.204  -4.588  -0.467  1.00  0.00    -0.273 OA
ATOM      6  H   UNL     1      -5.625  -2.815   0.180  1.00  0.00     0.163 HD
BRANCH   4   7
ATOM      7  C   UNL     1      -2.315  -3.469   0.543  1.00  0.00     0.219 C 
BRANCH   7   8
ATOM      8  N   UNL     1      -1.605  -2.530  -0.328  1.00  0.00    -0.326 N 
BRANCH   8   9
ATOM      9  C   UNL     1      -1.113  -1.290   0.272  1.00  0.00     0.147 C 
BRANCH   9  10
ATOM     10  C   UNL     1       0.377  -1.283   0.427  1.00  0.00    -0.014 C 
ATOM     11  C   UNL     1       1.129  -0.187   0.253  1.00  0.00     0.006 C 
ENDBRANCH   9  10
ENDBRANCH   8   9
BRANCH   8  12
ATOM     12  C   UNL     1      -1.038  -3.051  -1.492  1.00  0.00     0.268 C 
ATOM     13  O   UNL     1      -0.263  -4.010  -1.432  1.00  0.00    -0.270 OA
BRANCH  12  14
ATOM     14  C   UNL     1      -1.464  -2.457  -2.851  1.00  0.00     0.302 C 
ATOM     15  O   UNL     1      -0.925  -1.132  -2.892  1.00  0.00    -0.473 OA
ATOM     16  C   UNL     1      -2.987  -2.592  -3.073  1.00  0.00     0.221 C 
ATOM     17  C   UNL     1      -1.857  -0.153  -3.043  1.00  0.00     0.162 A 
ATOM     18  O   UNL     1      -3.500  -1.619  -3.998  1.00  0.00    -0.482 OA
ATOM     19  C   UNL     1      -3.373  -3.971  -3.611  1.00  0.00     0.057 C 
ATOM     20  C   UNL     1      -1.500   1.110  -2.584  1.00  0.00     0.050 A 
ATOM     21  C   UNL     1      -3.122  -0.377  -3.573  1.00  0.00     0.161 A 
ATOM     22  C   UNL     1      -2.440   2.135  -2.582  1.00  0.00     0.004 A 
ATOM     23  C   UNL     1      -4.042   0.662  -3.647  1.00  0.00     0.050 A 
ATOM     24  C   UNL     1      -3.709   1.913  -3.119  1.00  0.00     0.004 A 
ENDBRANCH  12  14
ENDBRANCH   8  12
ENDBRANCH   7   8
ENDBRANCH   4   7
ENDBRANCH   2   3
ENDBRANCH   1   2
BRANCH   1  25
ATOM     25  C   UNL     1      -5.740   0.134  -0.583  1.00  0.00     0.023 C 
BRANCH  25  26
ATOM     26  C   UNL     1      -6.824   0.719   0.308  1.00  0.00     0.116 C 
BRANCH  26  27
ATOM     27  N   UNL     1      -6.473   2.030   0.839  1.00  0.00    -0.352 N 
ATOM     28  C   UNL     1      -7.118   3.240   0.737  1.00  0.00     0.251 C 
ATOM     29  H   UNL     1      -5.635   2.053   1.357  1.00  0.00     0.163 HD
ATOM     30  O   UNL     1      -6.549   4.254   1.144  1.00  0.00    -0.269 OA
BRANCH  28  31
ATOM     31  C   UNL     1      -8.461   3.345   0.118  1.00  0.00     0.039 A 
ATOM     32  C   UNL     1      -8.778   4.479  -0.637  1.00  0.00     0.014 A 
ATOM     33  C   UNL     1      -9.413   2.337   0.273  1.00  0.00     0.014 A 
ATOM     34  C   UNL     1     -10.010   4.559  -1.295  1.00  0.00     0.010 A 
ATOM     35  C   UNL     1     -10.579   2.358  -0.484  1.00  0.00     0.010 A 
ATOM     36  C   UNL     1     -10.903   3.476  -1.265  1.00  0.00    -0.014 A 
BRANCH  36  37
ATOM     37  C   UNL     1     -12.188   3.489  -2.016  1.00  0.00     0.031 A 
ATOM     38  C   UNL     1     -13.492   3.305  -1.280  1.00  0.00     0.074 A 
ATOM     39  C   UNL     1     -12.181   3.583  -3.361  1.00  0.00     0.049 A 
ATOM     40  N   UNL     1     -14.703   3.188  -1.762  1.00  0.00    -0.248 NA
ATOM     41  C   UNL     1     -13.423   3.201   0.188  1.00  0.00     0.031 C 
ATOM     42  C   UNL     1     -10.985   3.713  -4.198  1.00  0.00     0.029 A 
ATOM     43  N   UNL     1     -13.214   3.574  -4.265  1.00  0.00    -0.354 N 
ATOM     44  C   UNL     1     -15.528   2.966  -0.664  1.00  0.00     0.074 A 
ATOM     45  C   UNL     1     -14.674   2.902   0.500  1.00  0.00     0.031 C 
ATOM     46  C   UNL     1     -11.355   3.810  -5.485  1.00  0.00     0.029 A 
ATOM     47  C   UNL     1     -12.807   3.697  -5.573  1.00  0.00     0.049 A 
ATOM     48  H   UNL     1     -14.159   3.488  -4.001  1.00  0.00     0.167 HD
ATOM     49  C   UNL     1     -16.877   2.854  -0.621  1.00  0.00     0.031 A 
ATOM     50  C   UNL     1     -13.519   3.708  -6.718  1.00  0.00     0.031 A 
ATOM     51  C   UNL     1     -17.725   2.945  -1.778  1.00  0.00     0.049 A 
ATOM     52  C   UNL     1     -15.017   3.583  -6.647  1.00  0.00     0.074 A 
ATOM     53  C   UNL     1     -19.107   2.912  -1.837  1.00  0.00     0.029 A 
ATOM     54  N   UNL     1     -17.272   3.090  -3.081  1.00  0.00    -0.354 N 
ATOM     55  N   UNL     1     -15.783   3.443  -5.591  1.00  0.00    -0.248 NA
ATOM     56  C   UNL     1     -15.747   3.631  -7.921  1.00  0.00     0.031 C 
ATOM     57  C   UNL     1     -19.488   2.978  -3.180  1.00  0.00     0.029 A 
ATOM     58  C   UNL     1     -18.347   3.122  -3.954  1.00  0.00     0.049 A 
ATOM     59  H   UNL     1     -16.327   3.160  -3.346  1.00  0.00     0.167 HD
ATOM     60  C   UNL     1     -17.087   3.415  -6.071  1.00  0.00     0.074 A 
ATOM     61  C   UNL     1     -17.006   3.569  -7.510  1.00  0.00     0.031 C 
ATOM     62  C   UNL     1     -18.248   3.276  -5.383  1.00  0.00     0.031 A 
BRANCH  49  63
ATOM     63  C   UNL     1     -17.516   2.618   0.725  1.00  0.00    -0.014 A 
ATOM     64  C   UNL     1     -17.498   3.608   1.726  1.00  0.00     0.010 A 
ATOM     65  C   UNL     1     -18.172   1.401   0.984  1.00  0.00     0.010 A 
ATOM     66  C   UNL     1     -18.077   3.366   2.974  1.00  0.00     0.020 A 
ATOM     67  C   UNL     1     -18.784   1.167   2.219  1.00  0.00     0.020 A 
ATOM     68  C   UNL     1     -18.715   2.145   3.214  1.00  0.00     0.054 A 
BRANCH  68  69
ATOM     69  S   UNL     1     -19.473   1.867   4.838  1.00  0.00     0.124 S 
ATOM     70  O   UNL     1     -18.299   1.712   5.694  1.00  0.00    -0.237 OA
ATOM     71  O   UNL     1     -20.243   3.091   5.044  1.00  0.00    -0.237 OA
ATOM     72  O   UNL     1     -20.269   0.657   4.647  1.00  0.00    -0.744 OA
ENDBRANCH  68  69
ENDBRANCH  49  63
BRANCH  50  73
ATOM     73  C   UNL     1     -12.823   3.864  -8.026  1.00  0.00    -0.014 A 
ATOM     74  C   UNL     1     -12.962   5.048  -8.772  1.00  0.00     0.010 A 
ATOM     75  C   UNL     1     -12.000   2.837  -8.525  1.00  0.00     0.010 A 
ATOM     76  C   UNL     1     -12.308   5.196  -9.998  1.00  0.00     0.020 A 
ATOM     77  C   UNL     1     -11.319   2.994  -9.736  1.00  0.00     0.020 A 
ATOM     78  C   UNL     1     -11.486   4.169 -10.471  1.00  0.00     0.054 A 
BRANCH  78  79
ATOM     79  S   UNL     1     -10.604   4.407 -12.039  1.00  0.00     0.124 S 
ATOM     80  O   UNL     1     -11.687   4.321 -13.013  1.00  0.00    -0.237 OA
ATOM     81  O   UNL     1     -10.011   5.731 -11.866  1.00  0.00    -0.237 OA
ATOM     82  O   UNL     1      -9.648   3.303 -12.064  1.00  0.00    -0.744 OA
ENDBRANCH  78  79
ENDBRANCH  50  73
BRANCH  62  83
ATOM     83  C   UNL     1     -19.532   3.322  -6.170  1.00  0.00    -0.014 A 
ATOM     84  C   UNL     1     -19.908   2.268  -7.020  1.00  0.00     0.010 A 
ATOM     85  C   UNL     1     -20.403   4.415  -6.005  1.00  0.00     0.010 A 
ATOM     86  C   UNL     1     -21.119   2.322  -7.716  1.00  0.00     0.020 A 
ATOM     87  C   UNL     1     -21.628   4.457  -6.674  1.00  0.00     0.020 A 
ATOM     88  C   UNL     1     -21.971   3.416  -7.537  1.00  0.00     0.054 A 
BRANCH  88  89
ATOM     89  S   UNL     1     -23.557   3.438  -8.416  1.00  0.00     0.124 S 
ATOM     90  O   UNL     1     -23.139   3.691  -9.792  1.00  0.00    -0.237 OA
ATOM     91  O   UNL     1     -24.086   2.101  -8.155  1.00  0.00    -0.237 OA
ATOM     92  O   UNL     1     -24.293   4.527  -7.779  1.00  0.00    -0.744 OA
ENDBRANCH  88  89
ENDBRANCH  62  83
ENDBRANCH  36  37
ENDBRANCH  28  31
ENDBRANCH  26  27
ENDBRANCH  25  26
ENDBRANCH   1  25
TORSDOF 19
