REMARK SMILES Cc1cscc1CNC(=O)N[C@](C)(C(=O)NCCCCNC(=O)c1ccc(-c2c3nc(c(-c4ccc(S(=O)(=O)[O-])cc4)c4ccc([nH]4)c(-c4ccc(S(=O)(=O)[O-])cc4)c4nc(c(-c5ccc(S(=O)(=O)[O-])cc5)c5ccc2[nH]5)C=C4)C=C3)cc1)C1CC1
REMARK SMILES IDX 18 1 17 2 16 3 14 4 15 5 12 7 13 8 11 9 8 10 9 11 10 13 7 15
REMARK SMILES IDX 6 16 1 17 2 18 3 19 4 20 5 21 84 22 85 23 86 24 19 25 20 26
REMARK SMILES IDX 21 27 22 28 23 30 24 31 25 32 83 33 26 34 82 35 27 36 28 37
REMARK SMILES IDX 29 38 76 39 30 40 81 41 75 42 77 43 31 44 80 45 74 46 73 47
REMARK SMILES IDX 32 49 62 50 43 51 61 52 44 53 47 54 60 55 78 56 45 57 46 58
REMARK SMILES IDX 59 60 79 61 48 62 33 63 34 64 42 65 35 66 41 67 36 68 37 69
REMARK SMILES IDX 38 70 39 71 40 72 63 73 64 74 72 75 65 76 71 77 66 78 67 79
REMARK SMILES IDX 68 80 69 81 70 82 49 83 50 84 58 85 51 86 57 87 52 88 53 89
REMARK SMILES IDX 54 90 55 91 56 92
REMARK H PARENT 16 6 8 12 11 14 21 29 77 48 47 59
REMARK Flexibility Score: inf
ROOT
ATOM      1  C   UNL     1      -1.685   7.553   1.724  1.00  0.00     0.023 C 
ENDROOT
BRANCH   1   2
ATOM      2  C   UNL     1      -0.592   6.953   2.615  1.00  0.00     0.116 C 
BRANCH   2   3
ATOM      3  N   UNL     1      -0.993   5.676   3.175  1.00  0.00    -0.354 N 
ATOM      4  C   UNL     1      -0.762   4.386   2.802  1.00  0.00     0.245 C 
ATOM      5  O   UNL     1      -1.628   3.600   3.200  1.00  0.00    -0.272 OA
ATOM      6  H   UNL     1      -1.542   5.758   3.988  1.00  0.00     0.163 HD
BRANCH   4   7
ATOM      7  C   UNL     1       0.394   3.965   1.810  1.00  0.00     0.120 C 
ATOM      8  C   UNL     1      -0.080   4.386   0.405  1.00  0.00     0.046 C 
BRANCH   7   9
ATOM      9  N   UNL     1       1.614   4.723   2.186  1.00  0.00    -0.324 N 
ATOM     10  N   UNL     1       3.334   4.430   0.568  1.00  0.00    -0.334 N 
ATOM     11  C   UNL     1       2.807   4.997   1.655  1.00  0.00     0.315 C 
ATOM     12  H   UNL     1       4.049   4.973   0.164  1.00  0.00     0.165 HD
ATOM     13  O   UNL     1       3.484   5.864   2.217  1.00  0.00    -0.249 OA
ATOM     14  H   UNL     1       1.515   5.139   3.073  1.00  0.00     0.166 HD
BRANCH  10  15
ATOM     15  C   UNL     1       3.092   3.201  -0.148  1.00  0.00     0.154 C 
BRANCH  15  16
ATOM     16  C   UNL     1       3.211   3.357  -1.635  1.00  0.00    -0.015 A 
ATOM     17  C   UNL     1       2.975   0.803  -2.130  1.00  0.00     0.045 C 
ATOM     18  C   UNL     1       3.139   2.231  -2.549  1.00  0.00    -0.035 A 
ATOM     19  C   UNL     1       3.204   2.643  -3.866  1.00  0.00     0.068 A 
ATOM     20  S   UNL     1       3.360   4.333  -4.024  1.00  0.00    -0.152 S 
ATOM     21  C   UNL     1       3.322   4.548  -2.331  1.00  0.00     0.070 A 
ENDBRANCH  15  16
ENDBRANCH  10  15
ENDBRANCH   7   9
BRANCH   7  22
ATOM     22  C   UNL     1       0.754   2.471   1.925  1.00  0.00     0.024 C 
ATOM     23  C   UNL     1      -0.007   1.338   2.591  1.00  0.00     0.007 C 
ATOM     24  C   UNL     1      -0.004   1.445   1.101  1.00  0.00     0.007 C 
ENDBRANCH   7  22
ENDBRANCH   4   7
ENDBRANCH   2   3
ENDBRANCH   1   2
BRANCH   1  25
ATOM     25  C   UNL     1      -3.077   7.682   2.357  1.00  0.00     0.023 C 
BRANCH  25  26
ATOM     26  C   UNL     1      -3.141   8.368   3.718  1.00  0.00     0.116 C 
BRANCH  26  27
ATOM     27  N   UNL     1      -2.631   9.727   3.701  1.00  0.00    -0.352 N 
ATOM     28  C   UNL     1      -3.134  10.853   4.315  1.00  0.00     0.251 C 
ATOM     29  H   UNL     1      -1.810   9.863   3.175  1.00  0.00     0.163 HD
ATOM     30  O   UNL     1      -2.623  11.941   4.099  1.00  0.00    -0.269 OA
BRANCH  28  31
ATOM     31  C   UNL     1      -4.316  10.748   5.206  1.00  0.00     0.039 A 
ATOM     32  C   UNL     1      -5.350  11.677   5.056  1.00  0.00     0.014 A 
ATOM     33  C   UNL     1      -4.410   9.748   6.178  1.00  0.00     0.014 A 
ATOM     34  C   UNL     1      -6.506  11.562   5.834  1.00  0.00     0.010 A 
ATOM     35  C   UNL     1      -5.590   9.596   6.905  1.00  0.00     0.010 A 
ATOM     36  C   UNL     1      -6.651  10.500   6.741  1.00  0.00    -0.014 A 
BRANCH  36  37
ATOM     37  C   UNL     1      -7.909  10.313   7.513  1.00  0.00     0.031 A 
ATOM     38  C   UNL     1      -7.904  10.419   9.014  1.00  0.00     0.074 A 
ATOM     39  C   UNL     1      -9.045   9.985   6.866  1.00  0.00     0.049 A 
ATOM     40  N   UNL     1      -8.889  10.239   9.857  1.00  0.00    -0.248 NA
ATOM     41  C   UNL     1      -6.620  10.749   9.653  1.00  0.00     0.031 C 
ATOM     42  C   UNL     1      -9.176   9.809   5.418  1.00  0.00     0.029 A 
ATOM     43  N   UNL     1     -10.308   9.732   7.344  1.00  0.00    -0.354 N 
ATOM     44  C   UNL     1      -8.342  10.414  11.123  1.00  0.00     0.074 A 
ATOM     45  C   UNL     1      -6.929  10.668  10.939  1.00  0.00     0.031 C 
ATOM     46  C   UNL     1     -10.450   9.503   5.124  1.00  0.00     0.029 A 
ATOM     47  C   UNL     1     -11.219   9.420   6.362  1.00  0.00     0.049 A 
ATOM     48  H   UNL     1     -10.539   9.770   8.300  1.00  0.00     0.167 HD
ATOM     49  C   UNL     1      -8.960  10.383  12.328  1.00  0.00     0.031 A 
ATOM     50  C   UNL     1     -12.524   9.098   6.445  1.00  0.00     0.031 A 
ATOM     51  C   UNL     1     -10.367  10.137  12.508  1.00  0.00     0.049 A 
ATOM     52  C   UNL     1     -13.189   9.065   7.794  1.00  0.00     0.074 A 
ATOM     53  C   UNL     1     -11.098  10.143  13.684  1.00  0.00     0.029 A 
ATOM     54  N   UNL     1     -11.256   9.838  11.487  1.00  0.00    -0.354 N 
ATOM     55  N   UNL     1     -12.668   9.300   8.975  1.00  0.00    -0.248 NA
ATOM     56  C   UNL     1     -14.621   8.734   7.821  1.00  0.00     0.031 C 
ATOM     57  C   UNL     1     -12.418   9.796  13.380  1.00  0.00     0.029 A 
ATOM     58  C   UNL     1     -12.524   9.633  12.008  1.00  0.00     0.049 A 
ATOM     59  H   UNL     1     -11.022   9.779  10.533  1.00  0.00     0.167 HD
ATOM     60  C   UNL     1     -13.714   9.173   9.882  1.00  0.00     0.074 A 
ATOM     61  C   UNL     1     -14.899   8.853   9.112  1.00  0.00     0.031 C 
ATOM     62  C   UNL     1     -13.695   9.311  11.231  1.00  0.00     0.031 A 
BRANCH  49  63
ATOM     63  C   UNL     1      -8.110  10.612  13.551  1.00  0.00    -0.014 A 
ATOM     64  C   UNL     1      -7.553  11.875  13.824  1.00  0.00     0.010 A 
ATOM     65  C   UNL     1      -7.887   9.558  14.456  1.00  0.00     0.010 A 
ATOM     66  C   UNL     1      -6.748  12.067  14.950  1.00  0.00     0.020 A 
ATOM     67  C   UNL     1      -7.107   9.754  15.600  1.00  0.00     0.020 A 
ATOM     68  C   UNL     1      -6.526  11.003  15.829  1.00  0.00     0.054 A 
BRANCH  68  69
ATOM     69  S   UNL     1      -5.484  11.282  17.287  1.00  0.00     0.124 S 
ATOM     70  O   UNL     1      -4.150  11.351  16.694  1.00  0.00    -0.237 OA
ATOM     71  O   UNL     1      -6.002  12.541  17.815  1.00  0.00    -0.237 OA
ATOM     72  O   UNL     1      -5.734  10.110  18.122  1.00  0.00    -0.744 OA
ENDBRANCH  68  69
ENDBRANCH  49  63
BRANCH  50  73
ATOM     73  C   UNL     1     -13.293   8.798   5.206  1.00  0.00    -0.014 A 
ATOM     74  C   UNL     1     -14.257   9.704   4.728  1.00  0.00     0.010 A 
ATOM     75  C   UNL     1     -13.049   7.616   4.484  1.00  0.00     0.010 A 
ATOM     76  C   UNL     1     -14.971   9.428   3.558  1.00  0.00     0.020 A 
ATOM     77  C   UNL     1     -13.742   7.349   3.299  1.00  0.00     0.020 A 
ATOM     78  C   UNL     1     -14.706   8.253   2.849  1.00  0.00     0.054 A 
BRANCH  78  79
ATOM     79  S   UNL     1     -15.600   7.946   1.300  1.00  0.00     0.124 S 
ATOM     80  O   UNL     1     -16.930   7.588   1.783  1.00  0.00    -0.237 OA
ATOM     81  O   UNL     1     -15.499   9.233   0.616  1.00  0.00    -0.237 OA
ATOM     82  O   UNL     1     -14.845   6.859   0.679  1.00  0.00    -0.744 OA
ENDBRANCH  78  79
ENDBRANCH  50  73
BRANCH  62  83
ATOM     83  C   UNL     1     -15.000   9.150  11.964  1.00  0.00    -0.014 A 
ATOM     84  C   UNL     1     -15.600   7.888  12.119  1.00  0.00     0.010 A 
ATOM     85  C   UNL     1     -15.607  10.274  12.553  1.00  0.00     0.010 A 
ATOM     86  C   UNL     1     -16.799   7.758  12.825  1.00  0.00     0.020 A 
ATOM     87  C   UNL     1     -16.792  10.144  13.283  1.00  0.00     0.020 A 
ATOM     88  C   UNL     1     -17.388   8.888  13.402  1.00  0.00     0.054 A 
BRANCH  88  89
ATOM     89  S   UNL     1     -18.921   8.686  14.350  1.00  0.00     0.124 S 
ATOM     90  O   UNL     1     -19.906   8.474  13.293  1.00  0.00    -0.237 OA
ATOM     91  O   UNL     1     -18.633   7.522  15.184  1.00  0.00    -0.237 OA
ATOM     92  O   UNL     1     -19.048   9.948  15.076  1.00  0.00    -0.744 OA
ENDBRANCH  88  89
ENDBRANCH  62  83
ENDBRANCH  36  37
ENDBRANCH  28  31
ENDBRANCH  26  27
ENDBRANCH  25  26
ENDBRANCH   1  25
TORSDOF 18
