REMARK SMILES Cc1ccc(-c2coc3cc4oc(=O)c(CC(=O)N[C@H](Cc5ccccc5)C(=O)NCCCCNC(=O)c5ccc(-c6c7nc(c(-c8ccc(S(=O)(=O)[O-])cc8)c8ccc([nH]8)c(-c8ccc(S(=O)(=O)[O-])cc8)c8nc(c(-c9ccc(S(=O)(=O)[O-])cc9)c9ccc6[nH]9)C=C8)C=C7)cc5)c(C)c4cc23)cc1
REMARK SMILES IDX 32 1 31 2 30 3 28 4 29 5 20 7 19 8 17 9 18 10 16 12 15 13
REMARK SMILES IDX 6 14 7 15 102 16 8 17 9 18 101 19 10 20 100 21 11 22 98 23
REMARK SMILES IDX 12 24 99 25 13 26 14 27 5 28 1 29 2 30 3 31 104 32 4 33
REMARK SMILES IDX 103 34 21 35 22 36 23 37 27 38 24 39 26 40 25 41 33 42 34 43
REMARK SMILES IDX 35 44 36 45 37 47 38 48 39 49 97 50 40 51 96 52 41 53 42 54
REMARK SMILES IDX 43 55 90 56 44 57 95 58 89 59 91 60 45 61 94 62 88 63 87 64
REMARK SMILES IDX 46 66 76 67 57 68 75 69 58 70 61 71 74 72 92 73 59 74 60 75
REMARK SMILES IDX 73 77 93 78 62 79 47 80 48 81 56 82 49 83 55 84 50 85 51 86
REMARK SMILES IDX 52 87 53 88 54 89 77 90 78 91 86 92 79 93 85 94 80 95 81 96
REMARK SMILES IDX 82 97 83 98 84 99 63 100 64 101 72 102 65 103 71 104 66 105
REMARK SMILES IDX 67 106 68 107 69 108 70 109
REMARK H PARENT 30 6 19 11 35 46 91 65 61 76
REMARK Flexibility Score: inf
ROOT
ATOM      1  C   UNL     1      -5.349   9.900  -2.686  1.00  0.00     0.023 C 
ENDROOT
BRANCH   1   2
ATOM      2  C   UNL     1      -6.148   8.991  -1.736  1.00  0.00     0.116 C 
BRANCH   2   3
ATOM      3  N   UNL     1      -7.459   8.558  -2.234  1.00  0.00    -0.354 N 
ATOM      4  C   UNL     1      -7.873   7.383  -2.814  1.00  0.00     0.242 C 
ATOM      5  O   UNL     1      -9.053   7.276  -3.156  1.00  0.00    -0.273 OA
ATOM      6  H   UNL     1      -8.171   9.231  -2.135  1.00  0.00     0.163 HD
BRANCH   4   7
ATOM      7  C   UNL     1      -6.856   6.261  -3.124  1.00  0.00     0.175 C 
BRANCH   7   8
ATOM      8  N   UNL     1      -6.230   5.917  -1.834  1.00  0.00    -0.344 N 
ATOM      9  C   UNL     1      -5.226   5.109  -1.423  1.00  0.00     0.225 C 
ATOM     10  O   UNL     1      -5.146   4.902  -0.208  1.00  0.00    -0.275 OA
ATOM     11  H   UNL     1      -6.649   6.396  -1.082  1.00  0.00     0.164 HD
BRANCH   9  12
ATOM     12  C   UNL     1      -4.196   4.511  -2.365  1.00  0.00     0.143 C 
BRANCH  12  13
ATOM     13  C   UNL     1      -4.745   3.439  -3.267  1.00  0.00     0.051 A 
ATOM     14  C   UNL     1      -8.466  -1.378  -4.712  1.00  0.00     0.028 A 
ATOM     15  C   UNL     1      -8.861  -1.470  -6.030  1.00  0.00     0.205 A 
ATOM     16  C   UNL     1      -7.609  -0.242  -4.635  1.00  0.00     0.029 A 
ATOM     17  O   UNL     1      -8.289  -0.487  -6.775  1.00  0.00    -0.464 OA
ATOM     18  C   UNL     1      -7.516   0.251  -5.931  1.00  0.00     0.138 A 
ATOM     19  C   UNL     1      -6.889   0.408  -3.611  1.00  0.00     0.025 A 
ATOM     20  C   UNL     1      -6.724   1.331  -6.293  1.00  0.00     0.095 A 
ATOM     21  C   UNL     1      -6.094   1.526  -3.915  1.00  0.00     0.022 A 
ATOM     22  C   UNL     1      -6.010   1.930  -5.249  1.00  0.00     0.142 A 
ATOM     23  C   UNL     1      -5.429   2.341  -2.880  1.00  0.00    -0.029 A 
ATOM     24  O   UNL     1      -5.141   2.964  -5.632  1.00  0.00    -0.422 OA
ATOM     25  C   UNL     1      -5.595   1.925  -1.440  1.00  0.00     0.046 C 
ATOM     26  C   UNL     1      -4.375   3.621  -4.693  1.00  0.00     0.340 A 
ATOM     27  O   UNL     1      -3.421   4.322  -5.019  1.00  0.00    -0.246 OA
BRANCH  14  28
ATOM     28  C   UNL     1      -8.849  -2.315  -3.678  1.00  0.00    -0.015 A 
ATOM     29  C   UNL     1      -9.717  -5.088  -0.491  1.00  0.00     0.044 C 
ATOM     30  C   UNL     1      -9.438  -4.119  -1.602  1.00  0.00    -0.051 A 
ATOM     31  C   UNL     1      -8.901  -4.579  -2.810  1.00  0.00     0.004 A 
ATOM     32  C   UNL     1      -9.687  -2.751  -1.444  1.00  0.00     0.004 A 
ATOM     33  C   UNL     1      -8.610  -3.684  -3.842  1.00  0.00     0.009 A 
ATOM     34  C   UNL     1      -9.395  -1.855  -2.475  1.00  0.00     0.009 A 
ENDBRANCH  14  28
ENDBRANCH  12  13
ENDBRANCH   9  12
ENDBRANCH   7   8
BRANCH   7  35
ATOM     35  C   UNL     1      -5.976   6.781  -4.274  1.00  0.00     0.070 C 
BRANCH  35  36
ATOM     36  C   UNL     1      -6.180   6.192  -5.658  1.00  0.00    -0.045 A 
ATOM     37  C   UNL     1      -5.136   6.347  -6.587  1.00  0.00     0.004 A 
ATOM     38  C   UNL     1      -7.366   5.587  -6.092  1.00  0.00     0.004 A 
ATOM     39  C   UNL     1      -5.242   5.849  -7.885  1.00  0.00     0.000 A 
ATOM     40  C   UNL     1      -7.472   5.085  -7.394  1.00  0.00     0.000 A 
ATOM     41  C   UNL     1      -6.408   5.208  -8.287  1.00  0.00     0.000 A 
ENDBRANCH  35  36
ENDBRANCH   7  35
ENDBRANCH   4   7
ENDBRANCH   2   3
ENDBRANCH   1   2
BRANCH   1  42
ATOM     42  C   UNL     1      -6.090  11.120  -3.231  1.00  0.00     0.023 C 
BRANCH  42  43
ATOM     43  C   UNL     1      -6.470  12.128  -2.163  1.00  0.00     0.116 C 
BRANCH  43  44
ATOM     44  N   UNL     1      -5.450  13.108  -1.827  1.00  0.00    -0.352 N 
ATOM     45  C   UNL     1      -5.846  14.333  -1.275  1.00  0.00     0.251 C 
ATOM     46  H   UNL     1      -4.498  12.914  -1.984  1.00  0.00     0.163 HD
ATOM     47  O   UNL     1      -5.834  15.393  -1.845  1.00  0.00    -0.269 OA
BRANCH  45  48
ATOM     48  C   UNL     1      -6.437  14.189   0.079  1.00  0.00     0.039 A 
ATOM     49  C   UNL     1      -5.672  14.430   1.220  1.00  0.00     0.014 A 
ATOM     50  C   UNL     1      -7.681  13.563   0.160  1.00  0.00     0.014 A 
ATOM     51  C   UNL     1      -6.087  13.887   2.436  1.00  0.00     0.010 A 
ATOM     52  C   UNL     1      -8.033  12.938   1.331  1.00  0.00     0.010 A 
ATOM     53  C   UNL     1      -7.215  13.066   2.458  1.00  0.00    -0.014 A 
BRANCH  53  54
ATOM     54  C   UNL     1      -7.655  12.279   3.599  1.00  0.00     0.031 A 
ATOM     55  C   UNL     1      -8.806  12.776   4.395  1.00  0.00     0.074 A 
ATOM     56  C   UNL     1      -7.136  11.045   3.796  1.00  0.00     0.049 A 
ATOM     57  N   UNL     1      -9.146  12.321   5.552  1.00  0.00    -0.248 NA
ATOM     58  C   UNL     1      -9.650  13.891   3.957  1.00  0.00     0.031 C 
ATOM     59  C   UNL     1      -7.678   9.998   4.663  1.00  0.00     0.029 A 
ATOM     60  N   UNL     1      -5.905  10.515   3.394  1.00  0.00    -0.354 N 
ATOM     61  C   UNL     1     -10.389  12.835   5.853  1.00  0.00     0.074 A 
ATOM     62  C   UNL     1     -10.597  13.895   4.900  1.00  0.00     0.031 C 
ATOM     63  C   UNL     1      -6.684   9.152   4.983  1.00  0.00     0.029 A 
ATOM     64  C   UNL     1      -5.457   9.749   4.484  1.00  0.00     0.049 A 
ATOM     65  H   UNL     1      -5.450  10.650   2.532  1.00  0.00     0.167 HD
ATOM     66  C   UNL     1     -11.157  12.200   6.784  1.00  0.00     0.031 A 
ATOM     67  C   UNL     1      -4.397  10.095   5.280  1.00  0.00     0.031 A 
ATOM     68  C   UNL     1     -10.374  11.193   7.502  1.00  0.00     0.049 A 
ATOM     69  C   UNL     1      -4.782  10.259   6.745  1.00  0.00     0.074 A 
ATOM     70  C   UNL     1     -10.302   9.813   7.424  1.00  0.00     0.029 A 
ATOM     71  N   UNL     1      -9.269  11.606   8.240  1.00  0.00    -0.354 N 
ATOM     72  N   UNL     1      -6.004  10.457   7.161  1.00  0.00    -0.248 NA
ATOM     73  C   UNL     1      -3.827  10.221   7.850  1.00  0.00     0.031 C 
ATOM     74  C   UNL     1      -9.071   9.412   8.017  1.00  0.00     0.029 A 
ATOM     75  C   UNL     1      -8.428  10.541   8.497  1.00  0.00     0.049 A 
ATOM     76  H   UNL     1      -9.108  12.531   8.538  1.00  0.00     0.167 HD
ATOM     77  C   UNL     1      -6.027  10.549   8.528  1.00  0.00     0.074 A 
ATOM     78  C   UNL     1      -4.635  10.388   8.914  1.00  0.00     0.031 C 
ATOM     79  C   UNL     1      -7.183  10.749   9.231  1.00  0.00     0.031 A 
BRANCH  66  80
ATOM     80  C   UNL     1     -12.670  12.310   6.880  1.00  0.00    -0.014 A 
ATOM     81  C   UNL     1     -13.382  11.406   7.697  1.00  0.00     0.010 A 
ATOM     82  C   UNL     1     -13.461  13.193   6.118  1.00  0.00     0.010 A 
ATOM     83  C   UNL     1     -14.789  11.353   7.709  1.00  0.00     0.020 A 
ATOM     84  C   UNL     1     -14.863  13.161   6.125  1.00  0.00     0.020 A 
ATOM     85  C   UNL     1     -15.522  12.226   6.908  1.00  0.00     0.054 A 
BRANCH  85  86
ATOM     86  S   UNL     1     -17.330  12.116   6.877  1.00  0.00     0.124 S 
ATOM     87  O   UNL     1     -17.553  10.782   6.328  1.00  0.00    -0.237 OA
ATOM     88  O   UNL     1     -17.683  12.288   8.283  1.00  0.00    -0.237 OA
ATOM     89  O   UNL     1     -17.730  13.217   6.002  1.00  0.00    -0.744 OA
ENDBRANCH  85  86
ENDBRANCH  66  80
BRANCH  67  90
ATOM     90  C   UNL     1      -3.326  10.865   4.582  1.00  0.00    -0.014 A 
ATOM     91  C   UNL     1      -2.588  10.185   3.588  1.00  0.00     0.010 A 
ATOM     92  C   UNL     1      -3.353  12.270   4.561  1.00  0.00     0.010 A 
ATOM     93  C   UNL     1      -2.088  10.873   2.480  1.00  0.00     0.020 A 
ATOM     94  C   UNL     1      -2.833  12.965   3.458  1.00  0.00     0.020 A 
ATOM     95  C   UNL     1      -2.291  12.249   2.386  1.00  0.00     0.054 A 
BRANCH  95  96
ATOM     96  S   UNL     1      -2.042  13.040   0.764  1.00  0.00     0.124 S 
ATOM     97  O   UNL     1      -0.676  12.652   0.431  1.00  0.00    -0.237 OA
ATOM     98  O   UNL     1      -3.095  12.416  -0.044  1.00  0.00    -0.237 OA
ATOM     99  O   UNL     1      -2.244  14.457   1.046  1.00  0.00    -0.744 OA
ENDBRANCH  95  96
ENDBRANCH  67  90
BRANCH  79 100
ATOM    100  C   UNL     1      -7.280  11.097  10.702  1.00  0.00    -0.014 A 
ATOM    101  C   UNL     1      -6.232  11.645  11.456  1.00  0.00     0.010 A 
ATOM    102  C   UNL     1      -8.538  10.992  11.348  1.00  0.00     0.010 A 
ATOM    103  C   UNL     1      -6.407  12.004  12.802  1.00  0.00     0.020 A 
ATOM    104  C   UNL     1      -8.739  11.395  12.671  1.00  0.00     0.020 A 
ATOM    105  C   UNL     1      -7.659  11.873  13.402  1.00  0.00     0.054 A 
BRANCH 105 106
ATOM    106  S   UNL     1      -7.888  12.396  15.120  1.00  0.00     0.124 S 
ATOM    107  O   UNL     1      -7.494  11.197  15.854  1.00  0.00    -0.237 OA
ATOM    108  O   UNL     1      -6.975  13.531  15.240  1.00  0.00    -0.237 OA
ATOM    109  O   UNL     1      -9.306  12.738  15.188  1.00  0.00    -0.744 OA
ENDBRANCH 105 106
ENDBRANCH  79 100
ENDBRANCH  53  54
ENDBRANCH  45  48
ENDBRANCH  43  44
ENDBRANCH  42  43
ENDBRANCH   1  42
TORSDOF 20
