REMARK SMILES Cc1cc2c(c(C)c1Br)C=C(C(=O)NCCCCNC(=O)c1ccc(-c3c4nc(c(-c5ccc(S(=O)(=O)[O-])cc5)c5ccc([nH]5)c(-c5ccc(S(=O)(=O)[O-])cc5)c5nc(c(-c6ccc(S(=O)(=O)[O-])cc6)c6ccc3[nH]6)C=C5)C=C4)cc1)[C@@H](C(F)(F)F)O2
REMARK SMILES IDX 17 1 16 2 15 3 14 4 12 5 13 6 11 8 1 9 2 10 3 11 8 12 4 13
REMARK SMILES IDX 6 14 9 15 5 16 87 17 7 18 10 19 82 20 83 21 84 22 85 23
REMARK SMILES IDX 86 24 18 25 19 26 20 27 21 29 22 30 23 31 81 32 24 33 80 34
REMARK SMILES IDX 25 35 26 36 27 37 74 38 28 39 79 40 73 41 75 42 29 43 78 44
REMARK SMILES IDX 72 45 71 46 30 48 60 49 41 50 59 51 42 52 45 53 58 54 76 55
REMARK SMILES IDX 43 56 44 57 57 59 77 60 46 61 31 62 32 63 40 64 33 65 39 66
REMARK SMILES IDX 34 67 35 68 36 69 37 70 38 71 61 72 62 73 70 74 63 75 69 76
REMARK SMILES IDX 64 77 65 78 66 79 67 80 68 81 47 82 48 83 56 84 49 85 55 86
REMARK SMILES IDX 50 87 51 88 52 89 53 90 54 91
REMARK H PARENT 14 7 19 28 75 47 45 58
REMARK Flexibility Score: inf
ROOT
ATOM      1  C   UNL     1      -6.655   7.638  -2.153  1.00  0.00     0.023 C 
ENDROOT
BRANCH   1   2
ATOM      2  C   UNL     1      -5.779   6.387  -2.047  1.00  0.00     0.023 C 
BRANCH   2   3
ATOM      3  C   UNL     1      -4.552   6.402  -2.954  1.00  0.00     0.116 C 
BRANCH   3   4
ATOM      4  N   UNL     1      -3.433   7.098  -2.342  1.00  0.00    -0.352 N 
ATOM      5  C   UNL     1      -2.265   6.764  -1.748  1.00  0.00     0.251 C 
ATOM      6  O   UNL     1      -1.587   7.718  -1.350  1.00  0.00    -0.270 OA
ATOM      7  H   UNL     1      -3.559   8.074  -2.367  1.00  0.00     0.163 HD
BRANCH   5   8
ATOM      8  C   UNL     1      -1.758   5.372  -1.552  1.00  0.00     0.067 C 
ATOM      9  C   UNL     1       1.361  -0.097   0.123  1.00  0.00     0.046 C 
ATOM     10  C   UNL     1       0.925   1.325  -0.113  1.00  0.00    -0.033 A 
ATOM     11  C   UNL     1      -0.318   1.534  -0.718  1.00  0.00     0.051 A 
ATOM     12  C   UNL     1       1.685   2.446   0.284  1.00  0.00     0.024 A 
ATOM     13  C   UNL     1      -0.789   2.822  -0.947  1.00  0.00     0.128 A 
ATOM     14  C   UNL     1       1.224   3.766   0.043  1.00  0.00    -0.026 A 
ATOM     15  Br  UNL     1       3.343   2.140   1.194  1.00  0.00    -0.050 Br
ATOM     16  C   UNL     1      -0.043   3.942  -0.569  1.00  0.00     0.021 A 
ATOM     17  O   UNL     1      -2.031   2.902  -1.509  1.00  0.00    -0.475 OA
ATOM     18  C   UNL     1       2.023   4.987   0.439  1.00  0.00     0.046 C 
ATOM     19  C   UNL     1      -0.653   5.258  -0.790  1.00  0.00     0.026 C 
ATOM     20  C   UNL     1      -2.368   4.151  -2.169  1.00  0.00     0.314 C 
BRANCH  20  21
ATOM     21  C   UNL     1      -2.067   4.027  -3.674  1.00  0.00     0.429 C 
ATOM     22  F   UNL     1      -2.872   3.092  -4.241  1.00  0.00    -0.167 F 
ATOM     23  F   UNL     1      -2.287   5.180  -4.346  1.00  0.00    -0.167 F 
ATOM     24  F   UNL     1      -0.789   3.662  -3.921  1.00  0.00    -0.167 F 
ENDBRANCH  20  21
ENDBRANCH   5   8
ENDBRANCH   3   4
ENDBRANCH   2   3
ENDBRANCH   1   2
BRANCH   1  25
ATOM     25  C   UNL     1      -7.143   7.985  -3.560  1.00  0.00     0.116 C 
BRANCH  25  26
ATOM     26  N   UNL     1      -7.774   6.872  -4.255  1.00  0.00    -0.352 N 
ATOM     27  C   UNL     1      -8.772   6.923  -5.200  1.00  0.00     0.251 C 
ATOM     28  H   UNL     1      -7.446   5.974  -4.021  1.00  0.00     0.163 HD
ATOM     29  O   UNL     1      -9.259   5.892  -5.651  1.00  0.00    -0.269 OA
BRANCH  27  30
ATOM     30  C   UNL     1      -9.278   8.243  -5.622  1.00  0.00     0.039 A 
ATOM     31  C   UNL     1     -10.637   8.522  -5.466  1.00  0.00     0.014 A 
ATOM     32  C   UNL     1      -8.394   9.220  -6.087  1.00  0.00     0.014 A 
ATOM     33  C   UNL     1     -11.100   9.816  -5.703  1.00  0.00     0.010 A 
ATOM     34  C   UNL     1      -8.849  10.522  -6.269  1.00  0.00     0.010 A 
ATOM     35  C   UNL     1     -10.202  10.833  -6.065  1.00  0.00    -0.014 A 
BRANCH  35  36
ATOM     36  C   UNL     1     -10.656  12.236  -6.214  1.00  0.00     0.031 A 
ATOM     37  C   UNL     1     -10.639  12.893  -7.564  1.00  0.00     0.074 A 
ATOM     38  C   UNL     1     -11.026  12.934  -5.122  1.00  0.00     0.049 A 
ATOM     39  N   UNL     1     -10.941  14.125  -7.882  1.00  0.00    -0.248 NA
ATOM     40  C   UNL     1     -10.208  12.063  -8.700  1.00  0.00     0.031 C 
ATOM     41  C   UNL     1     -11.053  12.414  -3.752  1.00  0.00     0.029 A 
ATOM     42  N   UNL     1     -11.450  14.232  -4.992  1.00  0.00    -0.354 N 
ATOM     43  C   UNL     1     -10.728  14.222  -9.251  1.00  0.00     0.074 A 
ATOM     44  C   UNL     1     -10.229  12.939  -9.695  1.00  0.00     0.031 C 
ATOM     45  C   UNL     1     -11.503  13.374  -2.927  1.00  0.00     0.029 A 
ATOM     46  C   UNL     1     -11.762  14.584  -3.700  1.00  0.00     0.049 A 
ATOM     47  H   UNL     1     -11.523  14.853  -5.752  1.00  0.00     0.167 HD
ATOM     48  C   UNL     1     -10.947  15.279 -10.069  1.00  0.00     0.031 A 
ATOM     49  C   UNL     1     -12.210  15.749  -3.195  1.00  0.00     0.031 A 
ATOM     50  C   UNL     1     -11.452  16.550  -9.627  1.00  0.00     0.049 A 
ATOM     51  C   UNL     1     -12.438  16.911  -4.121  1.00  0.00     0.074 A 
ATOM     52  C   UNL     1     -11.736  17.673 -10.384  1.00  0.00     0.029 A 
ATOM     53  N   UNL     1     -11.755  16.866  -8.312  1.00  0.00    -0.354 N 
ATOM     54  N   UNL     1     -12.258  16.974  -5.418  1.00  0.00    -0.248 NA
ATOM     55  C   UNL     1     -12.935  18.154  -3.516  1.00  0.00     0.031 C 
ATOM     56  C   UNL     1     -12.183  18.679  -9.520  1.00  0.00     0.029 A 
ATOM     57  C   UNL     1     -12.214  18.169  -8.232  1.00  0.00     0.049 A 
ATOM     58  H   UNL     1     -11.657  16.254  -7.547  1.00  0.00     0.167 HD
ATOM     59  C   UNL     1     -12.638  18.259  -5.789  1.00  0.00     0.074 A 
ATOM     60  C   UNL     1     -13.067  18.935  -4.581  1.00  0.00     0.031 C 
ATOM     61  C   UNL     1     -12.633  18.825  -7.020  1.00  0.00     0.031 A 
BRANCH  48  62
ATOM     62  C   UNL     1     -10.643  15.092 -11.529  1.00  0.00    -0.014 A 
ATOM     63  C   UNL     1     -11.475  14.299 -12.340  1.00  0.00     0.010 A 
ATOM     64  C   UNL     1      -9.529  15.729 -12.103  1.00  0.00     0.010 A 
ATOM     65  C   UNL     1     -11.176  14.113 -13.691  1.00  0.00     0.020 A 
ATOM     66  C   UNL     1      -9.239  15.563 -13.461  1.00  0.00     0.020 A 
ATOM     67  C   UNL     1     -10.055  14.742 -14.242  1.00  0.00     0.054 A 
BRANCH  67  68
ATOM     68  S   UNL     1      -9.696  14.492 -16.002  1.00  0.00     0.124 S 
ATOM     69  O   UNL     1      -9.167  13.130 -16.009  1.00  0.00    -0.237 OA
ATOM     70  O   UNL     1     -11.007  14.659 -16.625  1.00  0.00    -0.237 OA
ATOM     71  O   UNL     1      -8.725  15.539 -16.309  1.00  0.00    -0.744 OA
ENDBRANCH  67  68
ENDBRANCH  48  62
BRANCH  49  72
ATOM     72  C   UNL     1     -12.507  15.858  -1.743  1.00  0.00    -0.014 A 
ATOM     73  C   UNL     1     -13.840  15.858  -1.294  1.00  0.00     0.010 A 
ATOM     74  C   UNL     1     -11.466  15.924  -0.800  1.00  0.00     0.010 A 
ATOM     75  C   UNL     1     -14.126  15.925   0.072  1.00  0.00     0.020 A 
ATOM     76  C   UNL     1     -11.749  15.971   0.568  1.00  0.00     0.020 A 
ATOM     77  C   UNL     1     -13.078  15.976   0.995  1.00  0.00     0.054 A 
BRANCH  77  78
ATOM     78  S   UNL     1     -13.474  15.987   2.767  1.00  0.00     0.124 S 
ATOM     79  O   UNL     1     -13.942  17.355   2.965  1.00  0.00    -0.237 OA
ATOM     80  O   UNL     1     -14.495  14.947   2.868  1.00  0.00    -0.237 OA
ATOM     81  O   UNL     1     -12.199  15.661   3.402  1.00  0.00    -0.744 OA
ENDBRANCH  77  78
ENDBRANCH  49  72
BRANCH  61  82
ATOM     82  C   UNL     1     -13.124  20.241  -7.132  1.00  0.00    -0.014 A 
ATOM     83  C   UNL     1     -12.315  21.319  -6.732  1.00  0.00     0.010 A 
ATOM     84  C   UNL     1     -14.378  20.498  -7.714  1.00  0.00     0.010 A 
ATOM     85  C   UNL     1     -12.760  22.632  -6.898  1.00  0.00     0.020 A 
ATOM     86  C   UNL     1     -14.818  21.811  -7.900  1.00  0.00     0.020 A 
ATOM     87  C   UNL     1     -14.008  22.870  -7.483  1.00  0.00     0.054 A 
BRANCH  87  88
ATOM     88  S   UNL     1     -14.537  24.585  -7.745  1.00  0.00     0.124 S 
ATOM     89  O   UNL     1     -14.908  24.999  -6.395  1.00  0.00    -0.237 OA
ATOM     90  O   UNL     1     -13.334  25.214  -8.287  1.00  0.00    -0.237 OA
ATOM     91  O   UNL     1     -15.647  24.465  -8.688  1.00  0.00    -0.744 OA
ENDBRANCH  87  88
ENDBRANCH  61  82
ENDBRANCH  35  36
ENDBRANCH  27  30
ENDBRANCH  25  26
ENDBRANCH   1  25
TORSDOF 15
