REMARK SMILES [NH3+]Cc1ccc(C(=O)N2[C@@H](C(=O)NCCCCNC(=O)c3ccc(-c4c5nc(c(-c6ccc(S(=O)(=O)[O-])cc6)c6ccc([nH]6)c(-c6ccc(S(=O)(=O)[O-])cc6)c6nc(c(-c7ccc(S(=O)(=O)[O-])cc7)c7ccc4[nH]7)C=C6)C=C5)cc3)C[C@H]3CCCC[C@@H]32)o1
REMARK SMILES IDX 15 1 14 2 13 3 11 4 12 5 10 7 9 8 87 9 81 10 82 11 86 12
REMARK SMILES IDX 83 13 85 14 84 15 7 16 8 17 6 18 3 19 4 20 88 21 5 22 2 23
REMARK SMILES IDX 1 24 16 28 17 29 18 30 19 31 20 33 21 34 22 35 80 36 23 37
REMARK SMILES IDX 79 38 24 39 25 40 26 41 73 42 27 43 78 44 72 45 74 46 28 47
REMARK SMILES IDX 77 48 71 49 70 50 29 52 59 53 40 54 58 55 41 56 44 57 57 58
REMARK SMILES IDX 75 59 42 60 43 61 56 63 76 64 45 65 30 66 31 67 39 68 32 69
REMARK SMILES IDX 38 70 33 71 34 72 35 73 36 74 37 75 60 76 61 77 69 78 62 79
REMARK SMILES IDX 68 80 63 81 64 82 65 83 66 84 67 85 46 86 47 87 55 88 48 89
REMARK SMILES IDX 54 90 49 91 50 92 51 93 52 94 53 95
REMARK H PARENT 13 6 1 25 1 26 1 27 18 32 74 51 44 62
REMARK Flexibility Score: inf
ROOT
ATOM      1  C   UNL     1       6.388   7.226  -1.850  1.00  0.00     0.023 C 
ENDROOT
BRANCH   1   2
ATOM      2  C   UNL     1       5.835   6.134  -0.931  1.00  0.00     0.116 C 
BRANCH   2   3
ATOM      3  N   UNL     1       5.463   6.630   0.381  1.00  0.00    -0.354 N 
ATOM      4  C   UNL     1       4.262   6.960   0.931  1.00  0.00     0.242 C 
ATOM      5  O   UNL     1       4.282   7.278   2.128  1.00  0.00    -0.273 OA
ATOM      6  H   UNL     1       6.226   6.752   0.991  1.00  0.00     0.163 HD
BRANCH   4   7
ATOM      7  C   UNL     1       2.955   7.192   0.127  1.00  0.00     0.175 C 
ATOM      8  N   UNL     1       2.696   6.419  -1.100  1.00  0.00    -0.321 N 
ATOM      9  C   UNL     1       2.834   7.275  -2.264  1.00  0.00     0.089 C 
ATOM     10  C   UNL     1       2.961   8.669  -0.340  1.00  0.00     0.041 C 
ATOM     11  C   UNL     1       2.329   8.611  -1.723  1.00  0.00     0.014 C 
ATOM     12  C   UNL     1       2.101   6.948  -3.561  1.00  0.00     0.025 C 
ATOM     13  C   UNL     1       2.662   9.744  -2.679  1.00  0.00     0.006 C 
ATOM     14  C   UNL     1       2.381   8.060  -4.582  1.00  0.00     0.002 C 
ATOM     15  C   UNL     1       2.043   9.459  -4.052  1.00  0.00     0.000 C 
BRANCH   8  16
ATOM     16  C   UNL     1       2.454   5.054  -1.191  1.00  0.00     0.290 C 
ATOM     17  O   UNL     1       2.818   4.438  -2.194  1.00  0.00    -0.265 OA
BRANCH  16  18
ATOM     18  C   UNL     1       1.705   4.394  -0.133  1.00  0.00     0.192 A 
ATOM     19  C   UNL     1       0.911   2.589   0.882  1.00  0.00     0.159 A 
ATOM     20  C   UNL     1       0.247   3.664   1.427  1.00  0.00     0.052 A 
ATOM     21  O   UNL     1       1.810   3.027  -0.047  1.00  0.00    -0.450 OA
ATOM     22  C   UNL     1       0.743   4.817   0.769  1.00  0.00     0.057 A 
BRANCH  19  23
ATOM     23  C   UNL     1       0.795   1.118   1.094  1.00  0.00     0.335 C 
BRANCH  23  24
ATOM     24  N   UNL     1       1.285   0.346  -0.047  1.00  0.00    -0.351 N 
ATOM     25  H   UNL     1       1.184  -0.650   0.148  1.00  0.00     0.344 HD
ATOM     26  H   UNL     1       2.269   0.564  -0.207  1.00  0.00     0.344 HD
ATOM     27  H   UNL     1       0.744   0.587  -0.878  1.00  0.00     0.344 HD
ENDBRANCH  23  24
ENDBRANCH  19  23
ENDBRANCH  16  18
ENDBRANCH   8  16
ENDBRANCH   4   7
ENDBRANCH   2   3
ENDBRANCH   1   2
BRANCH   1  28
ATOM     28  C   UNL     1       7.898   7.449  -1.771  1.00  0.00     0.023 C 
BRANCH  28  29
ATOM     29  C   UNL     1       8.759   6.221  -2.054  1.00  0.00     0.116 C 
BRANCH  29  30
ATOM     30  N   UNL     1       8.473   5.567  -3.323  1.00  0.00    -0.352 N 
ATOM     31  C   UNL     1       9.323   4.793  -4.081  1.00  0.00     0.251 C 
ATOM     32  H   UNL     1       7.565   5.694  -3.682  1.00  0.00     0.163 HD
ATOM     33  O   UNL     1       8.974   4.375  -5.181  1.00  0.00    -0.269 OA
BRANCH  31  34
ATOM     34  C   UNL     1      10.682   4.517  -3.571  1.00  0.00     0.039 A 
ATOM     35  C   UNL     1      11.780   4.805  -4.385  1.00  0.00     0.014 A 
ATOM     36  C   UNL     1      10.869   4.040  -2.272  1.00  0.00     0.014 A 
ATOM     37  C   UNL     1      13.071   4.691  -3.863  1.00  0.00     0.010 A 
ATOM     38  C   UNL     1      12.150   3.995  -1.732  1.00  0.00     0.010 A 
ATOM     39  C   UNL     1      13.263   4.326  -2.520  1.00  0.00    -0.014 A 
BRANCH  39  40
ATOM     40  C   UNL     1      14.618   4.295  -1.916  1.00  0.00     0.031 A 
ATOM     41  C   UNL     1      15.195   2.996  -1.424  1.00  0.00     0.074 A 
ATOM     42  C   UNL     1      15.297   5.447  -1.742  1.00  0.00     0.049 A 
ATOM     43  N   UNL     1      16.331   2.778  -0.814  1.00  0.00    -0.248 NA
ATOM     44  C   UNL     1      14.374   1.789  -1.618  1.00  0.00     0.031 C 
ATOM     45  C   UNL     1      14.822   6.779  -2.125  1.00  0.00     0.029 A 
ATOM     46  N   UNL     1      16.531   5.683  -1.189  1.00  0.00    -0.354 N 
ATOM     47  C   UNL     1      16.352   1.417  -0.532  1.00  0.00     0.074 A 
ATOM     48  C   UNL     1      15.096   0.869  -0.995  1.00  0.00     0.031 C 
ATOM     49  C   UNL     1      15.764   7.687  -1.820  1.00  0.00     0.029 A 
ATOM     50  C   UNL     1      16.893   7.009  -1.191  1.00  0.00     0.049 A 
ATOM     51  H   UNL     1      17.103   4.969  -0.824  1.00  0.00     0.167 HD
ATOM     52  C   UNL     1      17.336   0.685   0.043  1.00  0.00     0.031 A 
ATOM     53  C   UNL     1      18.009   7.613  -0.739  1.00  0.00     0.031 A 
ATOM     54  C   UNL     1      18.593   1.228   0.482  1.00  0.00     0.049 A 
ATOM     55  C   UNL     1      19.099   6.776  -0.128  1.00  0.00     0.074 A 
ATOM     56  C   UNL     1      19.679   0.560   1.020  1.00  0.00     0.029 A 
ATOM     57  N   UNL     1      18.934   2.571   0.431  1.00  0.00    -0.354 N 
ATOM     58  N   UNL     1      19.127   5.479   0.070  1.00  0.00    -0.248 NA
ATOM     59  C   UNL     1      20.313   7.481   0.306  1.00  0.00     0.031 C 
ATOM     60  C   UNL     1      20.664   1.504   1.328  1.00  0.00     0.029 A 
ATOM     61  C   UNL     1      20.209   2.754   0.939  1.00  0.00     0.049 A 
ATOM     62  H   UNL     1      18.356   3.288   0.084  1.00  0.00     0.167 HD
ATOM     63  C   UNL     1      20.372   5.210   0.629  1.00  0.00     0.074 A 
ATOM     64  C   UNL     1      21.070   6.476   0.724  1.00  0.00     0.031 C 
ATOM     65  C   UNL     1      20.889   4.021   1.025  1.00  0.00     0.031 A 
BRANCH  52  66
ATOM     66  C   UNL     1      17.086  -0.788   0.224  1.00  0.00    -0.014 A 
ATOM     67  C   UNL     1      17.055  -1.658  -0.881  1.00  0.00     0.010 A 
ATOM     68  C   UNL     1      16.903  -1.314   1.516  1.00  0.00     0.010 A 
ATOM     69  C   UNL     1      16.800  -3.020  -0.702  1.00  0.00     0.020 A 
ATOM     70  C   UNL     1      16.674  -2.681   1.701  1.00  0.00     0.020 A 
ATOM     71  C   UNL     1      16.605  -3.522   0.588  1.00  0.00     0.054 A 
BRANCH  71  72
ATOM     72  S   UNL     1      16.291  -5.296   0.794  1.00  0.00     0.124 S 
ATOM     73  O   UNL     1      14.900  -5.407   0.361  1.00  0.00    -0.237 OA
ATOM     74  O   UNL     1      17.276  -5.904  -0.098  1.00  0.00    -0.237 OA
ATOM     75  O   UNL     1      16.521  -5.525   2.218  1.00  0.00    -0.744 OA
ENDBRANCH  71  72
ENDBRANCH  52  66
BRANCH  53  76
ATOM     76  C   UNL     1      18.164   9.086  -0.875  1.00  0.00    -0.014 A 
ATOM     77  C   UNL     1      19.051   9.623  -1.824  1.00  0.00     0.010 A 
ATOM     78  C   UNL     1      17.413   9.960  -0.068  1.00  0.00     0.010 A 
ATOM     79  C   UNL     1      19.198  11.007  -1.954  1.00  0.00     0.020 A 
ATOM     80  C   UNL     1      17.539  11.345  -0.212  1.00  0.00     0.020 A 
ATOM     81  C   UNL     1      18.440  11.860  -1.147  1.00  0.00     0.054 A 
BRANCH  81  82
ATOM     82  S   UNL     1      18.604  13.653  -1.370  1.00  0.00     0.124 S 
ATOM     83  O   UNL     1      19.875  13.926  -0.708  1.00  0.00    -0.237 OA
ATOM     84  O   UNL     1      18.603  13.794  -2.824  1.00  0.00    -0.237 OA
ATOM     85  O   UNL     1      17.420  14.188  -0.701  1.00  0.00    -0.744 OA
ENDBRANCH  81  82
ENDBRANCH  53  76
BRANCH  65  86
ATOM     86  C   UNL     1      22.292   4.026   1.568  1.00  0.00    -0.014 A 
ATOM     87  C   UNL     1      22.573   4.525   2.852  1.00  0.00     0.010 A 
ATOM     88  C   UNL     1      23.334   3.474   0.800  1.00  0.00     0.010 A 
ATOM     89  C   UNL     1      23.879   4.498   3.347  1.00  0.00     0.020 A 
ATOM     90  C   UNL     1      24.636   3.425   1.302  1.00  0.00     0.020 A 
ATOM     91  C   UNL     1      24.903   3.950   2.568  1.00  0.00     0.054 A 
BRANCH  91  92
ATOM     92  S   UNL     1      26.583   3.887   3.249  1.00  0.00     0.124 S 
ATOM     93  O   UNL     1      27.022   5.272   3.102  1.00  0.00    -0.237 OA
ATOM     94  O   UNL     1      26.359   3.442   4.622  1.00  0.00    -0.237 OA
ATOM     95  O   UNL     1      27.267   2.922   2.392  1.00  0.00    -0.744 OA
ENDBRANCH  91  92
ENDBRANCH  65  86
ENDBRANCH  39  40
ENDBRANCH  31  34
ENDBRANCH  29  30
ENDBRANCH  28  29
ENDBRANCH   1  28
TORSDOF 18
