REMARK SMILES O=C(CCC(=O)N1N=C(c2ccc(F)cc2)C[C@@H]1c1ccc2nccnc2c1)NCCCCNC(=O)c1ccc(-c2c3nc(c(-c4ccc(S(=O)(=O)[O-])cc4)c4ccc([nH]4)c(-c4ccc(S(=O)(=O)[O-])cc4)c4nc(c(-c5ccc(S(=O)(=O)[O-])cc5)c5ccc2[nH]5)C=C4)C=C3)cc1
REMARK SMILES IDX 31 1 30 2 29 3 1 4 2 5 3 7 4 8 5 9 6 10 7 11 8 12 18 13 9 14
REMARK SMILES IDX 17 15 19 16 20 17 28 18 21 19 27 20 22 21 26 22 23 23 25 24
REMARK SMILES IDX 24 25 10 26 11 27 16 28 12 29 15 30 13 31 14 32 32 33 33 34
REMARK SMILES IDX 34 35 35 36 36 38 37 39 38 40 96 41 39 42 95 43 40 44 41 45
REMARK SMILES IDX 42 46 89 47 43 48 94 49 88 50 90 51 44 52 93 53 87 54 86 55
REMARK SMILES IDX 45 57 75 58 56 59 74 60 57 61 60 62 73 63 91 64 58 65 59 66
REMARK SMILES IDX 72 68 92 69 61 70 46 71 47 72 55 73 48 74 54 75 49 76 50 77
REMARK SMILES IDX 51 78 52 79 53 80 76 81 77 82 85 83 78 84 84 85 79 86 80 87
REMARK SMILES IDX 81 88 82 89 83 90 62 91 63 92 71 93 64 94 70 95 65 96 66 97
REMARK SMILES IDX 67 98 68 99 69 100
REMARK H PARENT 29 6 34 37 90 56 60 67
REMARK Flexibility Score: inf
ROOT
ATOM      1  C   UNL     1       1.534  -2.858   2.962  1.00  0.00     0.023 C 
ENDROOT
BRANCH   1   2
ATOM      2  C   UNL     1       1.035  -1.472   2.283  1.00  0.00     0.116 C 
BRANCH   2   3
ATOM      3  N   UNL     1       1.370  -0.965   0.933  1.00  0.00    -0.356 N 
ATOM      4  O   UNL     1       0.938   1.263   1.357  1.00  0.00    -0.275 OA
ATOM      5  C   UNL     1       1.448   0.413   0.638  1.00  0.00     0.220 C 
ATOM      6  H   UNL     1       1.546  -1.613   0.213  1.00  0.00     0.163 HD
BRANCH   5   7
ATOM      7  C   UNL     1       2.358   0.808  -0.574  1.00  0.00     0.110 C 
BRANCH   7   8
ATOM      8  C   UNL     1       3.367   1.956  -0.259  1.00  0.00     0.112 C 
BRANCH   8   9
ATOM      9  C   UNL     1       4.827   1.813   0.287  1.00  0.00     0.243 C 
ATOM     10  O   UNL     1       5.671   2.646  -0.063  1.00  0.00    -0.273 OA
BRANCH   9  11
ATOM     11  N   UNL     1       5.093   0.905   1.301  1.00  0.00    -0.225 N 
ATOM     12  N   UNL     1       5.476   1.402   2.570  1.00  0.00    -0.174 NA
ATOM     13  C   UNL     1       4.458  -0.372   1.399  1.00  0.00     0.147 C 
ATOM     14  C   UNL     1       5.029   0.562   3.461  1.00  0.00     0.071 C 
ATOM     15  C   UNL     1       4.282  -0.591   2.876  1.00  0.00     0.091 C 
BRANCH  13  16
ATOM     16  C   UNL     1       4.768  -1.466   0.375  1.00  0.00    -0.021 A 
ATOM     17  C   UNL     1       3.798  -2.449   0.168  1.00  0.00     0.008 A 
ATOM     18  C   UNL     1       5.810  -1.486  -0.555  1.00  0.00     0.036 A 
ATOM     19  C   UNL     1       3.798  -3.386  -0.858  1.00  0.00     0.031 A 
ATOM     20  C   UNL     1       5.853  -2.422  -1.622  1.00  0.00     0.089 A 
ATOM     21  C   UNL     1       4.816  -3.383  -1.761  1.00  0.00     0.089 A 
ATOM     22  N   UNL     1       6.840  -2.407  -2.537  1.00  0.00    -0.253 NA
ATOM     23  N   UNL     1       4.749  -4.292  -2.748  1.00  0.00    -0.253 NA
ATOM     24  C   UNL     1       6.782  -3.340  -3.524  1.00  0.00     0.132 A 
ATOM     25  C   UNL     1       5.762  -4.264  -3.627  1.00  0.00     0.132 A 
ENDBRANCH  13  16
BRANCH  14  26
ATOM     26  C   UNL     1       5.102   0.680   4.955  1.00  0.00    -0.002 A 
ATOM     27  C   UNL     1       4.769  -0.418   5.773  1.00  0.00     0.013 A 
ATOM     28  C   UNL     1       5.465   1.873   5.580  1.00  0.00     0.013 A 
ATOM     29  C   UNL     1       4.918  -0.379   7.163  1.00  0.00     0.040 A 
ATOM     30  C   UNL     1       5.558   1.935   6.983  1.00  0.00     0.040 A 
ATOM     31  C   UNL     1       5.317   0.803   7.757  1.00  0.00     0.123 A 
ATOM     32  F   UNL     1       5.453   0.855   9.088  1.00  0.00    -0.207 F 
ENDBRANCH  14  26
ENDBRANCH   9  11
ENDBRANCH   8   9
ENDBRANCH   7   8
ENDBRANCH   5   7
ENDBRANCH   2   3
ENDBRANCH   1   2
BRANCH   1  33
ATOM     33  C   UNL     1       2.786  -3.838   2.875  1.00  0.00     0.023 C 
BRANCH  33  34
ATOM     34  C   UNL     1       4.051  -3.930   3.794  1.00  0.00     0.116 C 
BRANCH  34  35
ATOM     35  N   UNL     1       3.820  -3.914   5.222  1.00  0.00    -0.352 N 
ATOM     36  C   UNL     1       4.698  -4.106   6.277  1.00  0.00     0.251 C 
ATOM     37  H   UNL     1       2.888  -3.738   5.487  1.00  0.00     0.163 HD
ATOM     38  O   UNL     1       4.191  -4.405   7.361  1.00  0.00    -0.269 OA
BRANCH  36  39
ATOM     39  C   UNL     1       6.190  -3.950   6.221  1.00  0.00     0.039 A 
ATOM     40  C   UNL     1       6.960  -4.707   7.125  1.00  0.00     0.014 A 
ATOM     41  C   UNL     1       6.853  -2.985   5.459  1.00  0.00     0.014 A 
ATOM     42  C   UNL     1       8.345  -4.508   7.254  1.00  0.00     0.010 A 
ATOM     43  C   UNL     1       8.234  -2.764   5.601  1.00  0.00     0.010 A 
ATOM     44  C   UNL     1       8.995  -3.529   6.493  1.00  0.00    -0.014 A 
BRANCH  44  45
ATOM     45  C   UNL     1      10.479  -3.430   6.472  1.00  0.00     0.031 A 
ATOM     46  C   UNL     1      11.231  -2.374   7.232  1.00  0.00     0.074 A 
ATOM     47  C   UNL     1      11.138  -4.289   5.671  1.00  0.00     0.049 A 
ATOM     48  N   UNL     1      12.526  -2.208   7.343  1.00  0.00    -0.248 NA
ATOM     49  C   UNL     1      10.434  -1.366   7.946  1.00  0.00     0.031 C 
ATOM     50  C   UNL     1      10.494  -5.307   4.835  1.00  0.00     0.029 A 
ATOM     51  N   UNL     1      12.474  -4.438   5.407  1.00  0.00    -0.354 N 
ATOM     52  C   UNL     1      12.705  -1.091   8.154  1.00  0.00     0.074 A 
ATOM     53  C   UNL     1      11.380  -0.593   8.468  1.00  0.00     0.031 C 
ATOM     54  C   UNL     1      11.435  -5.973   4.151  1.00  0.00     0.029 A 
ATOM     55  C   UNL     1      12.744  -5.427   4.490  1.00  0.00     0.049 A 
ATOM     56  H   UNL     1      13.173  -3.892   5.833  1.00  0.00     0.167 HD
ATOM     57  C   UNL     1      13.866  -0.544   8.598  1.00  0.00     0.031 A 
ATOM     58  C   UNL     1      13.914  -5.853   3.980  1.00  0.00     0.031 A 
ATOM     59  C   UNL     1      15.175  -1.030   8.224  1.00  0.00     0.049 A 
ATOM     60  C   UNL     1      15.185  -5.233   4.482  1.00  0.00     0.074 A 
ATOM     61  C   UNL     1      16.416  -0.591   8.655  1.00  0.00     0.029 A 
ATOM     62  N   UNL     1      15.412  -2.049   7.310  1.00  0.00    -0.354 N 
ATOM     63  N   UNL     1      15.337  -4.259   5.349  1.00  0.00    -0.248 NA
ATOM     64  C   UNL     1      16.442  -5.788   3.966  1.00  0.00     0.031 C 
ATOM     65  C   UNL     1      17.400  -1.302   7.956  1.00  0.00     0.029 A 
ATOM     66  C   UNL     1      16.775  -2.233   7.142  1.00  0.00     0.049 A 
ATOM     67  H   UNL     1      14.712  -2.566   6.849  1.00  0.00     0.167 HD
ATOM     68  C   UNL     1      16.708  -4.101   5.502  1.00  0.00     0.074 A 
ATOM     69  C   UNL     1      17.339  -5.094   4.653  1.00  0.00     0.031 C 
ATOM     70  C   UNL     1      17.384  -3.217   6.278  1.00  0.00     0.031 A 
BRANCH  57  71
ATOM     71  C   UNL     1      13.783   0.640   9.535  1.00  0.00    -0.014 A 
ATOM     72  C   UNL     1      13.278   0.495  10.841  1.00  0.00     0.010 A 
ATOM     73  C   UNL     1      14.278   1.898   9.140  1.00  0.00     0.010 A 
ATOM     74  C   UNL     1      13.229   1.588  11.714  1.00  0.00     0.020 A 
ATOM     75  C   UNL     1      14.257   2.988  10.020  1.00  0.00     0.020 A 
ATOM     76  C   UNL     1      13.717   2.829  11.297  1.00  0.00     0.054 A 
BRANCH  76  77
ATOM     77  S   UNL     1      13.656   4.221  12.461  1.00  0.00     0.124 S 
ATOM     78  O   UNL     1      12.223   4.498  12.528  1.00  0.00    -0.237 OA
ATOM     79  O   UNL     1      14.241   3.652  13.672  1.00  0.00    -0.237 OA
ATOM     80  O   UNL     1      14.459   5.255  11.811  1.00  0.00    -0.744 OA
ENDBRANCH  76  77
ENDBRANCH  57  71
BRANCH  58  81
ATOM     81  C   UNL     1      13.918  -6.948   2.973  1.00  0.00    -0.014 A 
ATOM     82  C   UNL     1      14.373  -8.233   3.313  1.00  0.00     0.010 A 
ATOM     83  C   UNL     1      13.406  -6.724   1.681  1.00  0.00     0.010 A 
ATOM     84  C   UNL     1      14.331  -9.270   2.377  1.00  0.00     0.020 A 
ATOM     85  C   UNL     1      13.334  -7.765   0.752  1.00  0.00     0.020 A 
ATOM     86  C   UNL     1      13.806  -9.030   1.103  1.00  0.00     0.054 A 
BRANCH  86  87
ATOM     87  S   UNL     1      13.706 -10.409  -0.072  1.00  0.00     0.124 S 
ATOM     88  O   UNL     1      15.105 -10.612  -0.424  1.00  0.00    -0.237 OA
ATOM     89  O   UNL     1      13.091 -11.462   0.729  1.00  0.00    -0.237 OA
ATOM     90  O   UNL     1      12.859  -9.882  -1.146  1.00  0.00    -0.744 OA
ENDBRANCH  86  87
ENDBRANCH  58  81
BRANCH  70  91
ATOM     91  C   UNL     1      18.888  -3.301   6.258  1.00  0.00    -0.014 A 
ATOM     92  C   UNL     1      19.627  -2.910   5.126  1.00  0.00     0.010 A 
ATOM     93  C   UNL     1      19.573  -3.746   7.403  1.00  0.00     0.010 A 
ATOM     94  C   UNL     1      21.021  -2.997   5.128  1.00  0.00     0.020 A 
ATOM     95  C   UNL     1      20.969  -3.804   7.420  1.00  0.00     0.020 A 
ATOM     96  C   UNL     1      21.683  -3.444   6.276  1.00  0.00     0.054 A 
BRANCH  96  97
ATOM     97  S   UNL     1      23.495  -3.510   6.266  1.00  0.00     0.124 S 
ATOM     98  O   UNL     1      23.753  -4.652   5.392  1.00  0.00    -0.237 OA
ATOM     99  O   UNL     1      23.860  -2.205   5.720  1.00  0.00    -0.237 OA
ATOM    100  O   UNL     1      23.844  -3.711   7.671  1.00  0.00    -0.744 OA
ENDBRANCH  96  97
ENDBRANCH  70  91
ENDBRANCH  44  45
ENDBRANCH  36  39
ENDBRANCH  34  35
ENDBRANCH  33  34
ENDBRANCH   1  33
TORSDOF 19
