REMARK SMILES O=C(NCCCCNC(=O)c1cc(/C=C/c2cc(O)cc(O)c2)ccc1O)c1ccc(-c2c3nc(c(-c4ccc(S(=O)(=O)[O-])cc4)c4ccc([nH]4)c(-c4ccc(S(=O)(=O)[O-])cc4)c4nc(c(-c5ccc(S(=O)(=O)[O-])cc5)c5ccc2[nH]5)C=C4)C=C3)cc1
REMARK SMILES IDX 5 1 4 2 3 3 1 4 2 5 28 7 29 8 87 9 30 10 86 11 31 12 32 13
REMARK SMILES IDX 33 14 80 15 34 16 85 17 79 18 81 19 35 20 84 21 78 22 77 23
REMARK SMILES IDX 36 25 66 26 47 27 65 28 48 29 51 30 64 31 82 32 49 33 50 34
REMARK SMILES IDX 63 36 83 37 52 38 37 39 38 40 46 41 39 42 45 43 40 44 41 45
REMARK SMILES IDX 42 46 43 47 44 48 67 49 68 50 76 51 69 52 75 53 70 54 71 55
REMARK SMILES IDX 72 56 73 57 74 58 53 59 54 60 62 61 55 62 61 63 56 64 57 65
REMARK SMILES IDX 58 66 59 67 60 68 6 69 7 70 8 71 9 72 10 74 11 75 12 76
REMARK SMILES IDX 26 77 13 78 25 79 24 80 27 81 14 83 15 84 16 85 17 86 23 87
REMARK SMILES IDX 18 88 21 89 20 90 19 91 22 93
REMARK H PARENT 3 6 81 24 51 35 8 73 27 82 19 92 22 94
REMARK Flexibility Score: inf
ROOT
ATOM      1  C   UNL     1       4.928  -2.712  -0.004  1.00  0.00     0.023 C 
ENDROOT
BRANCH   1   2
ATOM      2  C   UNL     1       4.654  -1.272  -0.421  1.00  0.00     0.116 C 
BRANCH   2   3
ATOM      3  N   UNL     1       3.236  -0.973  -0.568  1.00  0.00    -0.352 N 
ATOM      4  O   UNL     1       1.265   0.037  -0.141  1.00  0.00    -0.269 OA
ATOM      5  C   UNL     1       2.481   0.011   0.027  1.00  0.00     0.251 C 
ATOM      6  H   UNL     1       2.745  -1.564  -1.184  1.00  0.00     0.163 HD
BRANCH   5   7
ATOM      7  C   UNL     1       3.132   1.012   0.902  1.00  0.00     0.039 A 
ATOM      8  C   UNL     1       4.315   1.641   0.510  1.00  0.00     0.014 A 
ATOM      9  C   UNL     1       2.566   1.298   2.148  1.00  0.00     0.014 A 
ATOM     10  C   UNL     1       5.024   2.406   1.431  1.00  0.00     0.010 A 
ATOM     11  C   UNL     1       3.238   2.141   3.040  1.00  0.00     0.010 A 
ATOM     12  C   UNL     1       4.500   2.657   2.710  1.00  0.00    -0.014 A 
BRANCH  12  13
ATOM     13  C   UNL     1       5.299   3.458   3.676  1.00  0.00     0.031 A 
ATOM     14  C   UNL     1       5.830   2.842   4.945  1.00  0.00     0.074 A 
ATOM     15  C   UNL     1       5.601   4.735   3.372  1.00  0.00     0.049 A 
ATOM     16  N   UNL     1       6.609   3.376   5.853  1.00  0.00    -0.248 NA
ATOM     17  C   UNL     1       5.433   1.456   5.240  1.00  0.00     0.031 C 
ATOM     18  C   UNL     1       5.141   5.450   2.178  1.00  0.00     0.029 A 
ATOM     19  N   UNL     1       6.394   5.647   4.021  1.00  0.00    -0.354 N 
ATOM     20  C   UNL     1       6.770   2.407   6.838  1.00  0.00     0.074 A 
ATOM     21  C   UNL     1       5.994   1.257   6.425  1.00  0.00     0.031 C 
ATOM     22  C   UNL     1       5.713   6.663   2.146  1.00  0.00     0.029 A 
ATOM     23  C   UNL     1       6.537   6.832   3.338  1.00  0.00     0.049 A 
ATOM     24  H   UNL     1       6.819   5.471   4.891  1.00  0.00     0.167 HD
ATOM     25  C   UNL     1       7.499   2.466   7.979  1.00  0.00     0.031 A 
ATOM     26  C   UNL     1       7.254   7.933   3.630  1.00  0.00     0.031 A 
ATOM     27  C   UNL     1       8.290   3.599   8.380  1.00  0.00     0.049 A 
ATOM     28  C   UNL     1       8.073   7.963   4.887  1.00  0.00     0.074 A 
ATOM     29  C   UNL     1       9.087   3.739   9.504  1.00  0.00     0.029 A 
ATOM     30  N   UNL     1       8.390   4.786   7.671  1.00  0.00    -0.354 N 
ATOM     31  N   UNL     1       8.226   7.027   5.792  1.00  0.00    -0.248 NA
ATOM     32  C   UNL     1       8.820   9.199   5.159  1.00  0.00     0.031 C 
ATOM     33  C   UNL     1       9.644   5.024   9.489  1.00  0.00     0.029 A 
ATOM     34  C   UNL     1       9.225   5.668   8.337  1.00  0.00     0.049 A 
ATOM     35  H   UNL     1       7.934   4.975   6.819  1.00  0.00     0.167 HD
ATOM     36  C   UNL     1       9.099   7.555   6.735  1.00  0.00     0.074 A 
ATOM     37  C   UNL     1       9.453   8.885   6.281  1.00  0.00     0.031 C 
ATOM     38  C   UNL     1       9.564   6.989   7.875  1.00  0.00     0.031 A 
BRANCH  25  39
ATOM     39  C   UNL     1       7.453   1.272   8.895  1.00  0.00    -0.014 A 
ATOM     40  C   UNL     1       8.143   0.086   8.584  1.00  0.00     0.010 A 
ATOM     41  C   UNL     1       6.736   1.350  10.103  1.00  0.00     0.010 A 
ATOM     42  C   UNL     1       8.084  -1.013   9.446  1.00  0.00     0.020 A 
ATOM     43  C   UNL     1       6.692   0.260  10.977  1.00  0.00     0.020 A 
ATOM     44  C   UNL     1       7.351  -0.922  10.633  1.00  0.00     0.054 A 
BRANCH  44  45
ATOM     45  S   UNL     1       7.294  -2.358  11.742  1.00  0.00     0.124 S 
ATOM     46  O   UNL     1       6.323  -3.217  11.068  1.00  0.00    -0.237 OA
ATOM     47  O   UNL     1       8.674  -2.837  11.724  1.00  0.00    -0.237 OA
ATOM     48  O   UNL     1       6.851  -1.794  13.014  1.00  0.00    -0.744 OA
ENDBRANCH  44  45
ENDBRANCH  25  39
BRANCH  26  49
ATOM     49  C   UNL     1       7.238   9.088   2.696  1.00  0.00    -0.014 A 
ATOM     50  C   UNL     1       8.357   9.373   1.896  1.00  0.00     0.010 A 
ATOM     51  C   UNL     1       6.085   9.886   2.576  1.00  0.00     0.010 A 
ATOM     52  C   UNL     1       8.327  10.441   0.995  1.00  0.00     0.020 A 
ATOM     53  C   UNL     1       6.044  10.939   1.661  1.00  0.00     0.020 A 
ATOM     54  C   UNL     1       7.170  11.216   0.882  1.00  0.00     0.054 A 
BRANCH  54  55
ATOM     55  S   UNL     1       7.121  12.554  -0.343  1.00  0.00     0.124 S 
ATOM     56  O   UNL     1       7.840  13.621   0.346  1.00  0.00    -0.237 OA
ATOM     57  O   UNL     1       7.808  11.964  -1.489  1.00  0.00    -0.237 OA
ATOM     58  O   UNL     1       5.690  12.783  -0.536  1.00  0.00    -0.744 OA
ENDBRANCH  54  55
ENDBRANCH  26  49
BRANCH  38  59
ATOM     59  C   UNL     1      10.526   7.801   8.696  1.00  0.00    -0.014 A 
ATOM     60  C   UNL     1      10.081   8.881   9.478  1.00  0.00     0.010 A 
ATOM     61  C   UNL     1      11.891   7.463   8.701  1.00  0.00     0.010 A 
ATOM     62  C   UNL     1      10.991   9.636  10.221  1.00  0.00     0.020 A 
ATOM     63  C   UNL     1      12.802   8.203   9.459  1.00  0.00     0.020 A 
ATOM     64  C   UNL     1      12.348   9.297  10.200  1.00  0.00     0.054 A 
BRANCH  64  65
ATOM     65  S   UNL     1      13.514  10.275  11.188  1.00  0.00     0.124 S 
ATOM     66  O   UNL     1      13.719  11.447  10.341  1.00  0.00    -0.237 OA
ATOM     67  O   UNL     1      12.773  10.514  12.424  1.00  0.00    -0.237 OA
ATOM     68  O   UNL     1      14.671   9.393  11.325  1.00  0.00    -0.744 OA
ENDBRANCH  64  65
ENDBRANCH  38  59
ENDBRANCH  12  13
ENDBRANCH   5   7
ENDBRANCH   2   3
ENDBRANCH   1   2
BRANCH   1  69
ATOM     69  C   UNL     1       4.427  -3.784  -0.969  1.00  0.00     0.023 C 
BRANCH  69  70
ATOM     70  C   UNL     1       4.826  -3.590  -2.428  1.00  0.00     0.116 C 
BRANCH  70  71
ATOM     71  N   UNL     1       6.264  -3.562  -2.622  1.00  0.00    -0.352 N 
ATOM     72  C   UNL     1       7.007  -4.259  -3.542  1.00  0.00     0.255 C 
ATOM     73  H   UNL     1       6.770  -2.971  -2.018  1.00  0.00     0.163 HD
ATOM     74  O   UNL     1       8.230  -4.159  -3.574  1.00  0.00    -0.269 OA
BRANCH  72  75
ATOM     75  C   UNL     1       6.335  -5.216  -4.439  1.00  0.00     0.082 A 
ATOM     76  C   UNL     1       6.644  -6.571  -4.263  1.00  0.00     0.025 A 
ATOM     77  C   UNL     1       5.418  -4.817  -5.413  1.00  0.00     0.128 A 
ATOM     78  C   UNL     1       6.011  -7.550  -5.035  1.00  0.00    -0.025 A 
ATOM     79  C   UNL     1       4.771  -5.779  -6.182  1.00  0.00     0.047 A 
ATOM     80  C   UNL     1       5.061  -7.135  -5.984  1.00  0.00     0.012 A 
BRANCH  77  81
ATOM     81  O   UNL     1       5.137  -3.494  -5.599  1.00  0.00    -0.507 OA
ATOM     82  H   UNL     1       5.572  -2.846  -5.081  1.00  0.00     0.293 HD
ENDBRANCH  77  81
BRANCH  78  83
ATOM     83  C   UNL     1       6.269  -8.993  -4.883  1.00  0.00     0.009 C 
ATOM     84  C   UNL     1       7.269  -9.543  -4.174  1.00  0.00     0.009 C 
BRANCH  84  85
ATOM     85  C   UNL     1       7.480 -10.995  -4.093  1.00  0.00    -0.018 A 
ATOM     86  C   UNL     1       7.490 -11.793  -5.246  1.00  0.00     0.054 A 
ATOM     87  C   UNL     1       7.737 -11.582  -2.848  1.00  0.00     0.054 A 
ATOM     88  C   UNL     1       7.730 -13.161  -5.140  1.00  0.00     0.119 A 
ATOM     89  C   UNL     1       7.973 -12.954  -2.766  1.00  0.00     0.119 A 
ATOM     90  C   UNL     1       7.967 -13.749  -3.905  1.00  0.00     0.092 A 
BRANCH  88  91
ATOM     91  O   UNL     1       7.747 -13.963  -6.245  1.00  0.00    -0.508 OA
ATOM     92  H   UNL     1       7.590 -13.596  -7.093  1.00  0.00     0.293 HD
ENDBRANCH  88  91
BRANCH  89  93
ATOM     93  O   UNL     1       8.220 -13.561  -1.569  1.00  0.00    -0.508 OA
ATOM     94  H   UNL     1       8.376 -14.484  -1.535  1.00  0.00     0.293 HD
ENDBRANCH  89  93
ENDBRANCH  84  85
ENDBRANCH  78  83
ENDBRANCH  72  75
ENDBRANCH  70  71
ENDBRANCH  69  70
ENDBRANCH   1  69
TORSDOF 19
