REMARK SMILES Cc1nn([C@H]2CCS(=O)(=O)C2)c(C)c1/C=C(\CC(=O)NCCCCNC(=O)c1ccc(-c2c3nc(c(-c4ccc(S(=O)(=O)[O-])cc4)c4ccc([nH]4)c(-c4ccc(S(=O)(=O)[O-])cc4)c4nc(c(-c5ccc(S(=O)(=O)[O-])cc5)c5ccc2[nH]5)C=C4)C=C3)cc1)c1nc2ccccc2s1
REMARK SMILES IDX 22 1 21 2 20 3 18 4 19 5 17 7 16 8 15 9 14 10 1 11 2 12 3 13
REMARK SMILES IDX 4 14 12 15 13 16 5 17 6 18 11 19 7 20 8 21 9 22 10 23 88 24
REMARK SMILES IDX 89 25 96 26 90 27 95 28 91 29 94 30 92 31 93 32 23 33 24 34
REMARK SMILES IDX 25 35 26 36 27 38 28 39 29 40 87 41 30 42 86 43 31 44 32 45
REMARK SMILES IDX 33 46 80 47 34 48 85 49 79 50 81 51 35 52 84 53 78 54 77 55
REMARK SMILES IDX 36 57 66 58 47 59 65 60 48 61 51 62 64 63 82 64 49 65 50 66
REMARK SMILES IDX 63 68 83 69 52 70 37 71 38 72 46 73 39 74 45 75 40 76 41 77
REMARK SMILES IDX 42 78 43 79 44 80 67 81 68 82 76 83 69 84 75 85 70 86 71 87
REMARK SMILES IDX 72 88 73 89 74 90 53 91 54 92 62 93 55 94 61 95 56 96 57 97
REMARK SMILES IDX 58 98 59 99 60 100
REMARK H PARENT 20 6 25 37 81 56 51 67
REMARK Flexibility Score: inf
ROOT
ATOM      1  C   UNL     1       0.160  -1.010 -10.722  1.00  0.00     0.023 C 
ENDROOT
BRANCH   1   2
ATOM      2  C   UNL     1      -0.928  -0.521  -9.765  1.00  0.00     0.116 C 
BRANCH   2   3
ATOM      3  N   UNL     1      -2.231  -0.502 -10.394  1.00  0.00    -0.356 N 
ATOM      4  C   UNL     1      -3.232  -1.428 -10.313  1.00  0.00     0.224 C 
ATOM      5  O   UNL     1      -4.195  -1.336 -11.074  1.00  0.00    -0.275 OA
ATOM      6  H   UNL     1      -2.421   0.283 -10.957  1.00  0.00     0.163 HD
BRANCH   4   7
ATOM      7  C   UNL     1      -3.197  -2.464  -9.196  1.00  0.00     0.138 C 
BRANCH   7   8
ATOM      8  C   UNL     1      -2.237  -3.627  -9.357  1.00  0.00    -0.002 C 
ATOM      9  C   UNL     1      -1.323  -4.014  -8.431  1.00  0.00     0.019 C 
BRANCH   9  10
ATOM     10  C   UNL     1      -0.936  -3.362  -7.208  1.00  0.00     0.019 A 
ATOM     11  C   UNL     1       1.553  -4.202  -7.037  1.00  0.00     0.069 C 
ATOM     12  C   UNL     1       0.375  -3.390  -6.645  1.00  0.00     0.067 A 
ATOM     13  N   UNL     1       0.487  -2.524  -5.634  1.00  0.00    -0.177 NA
ATOM     14  N   UNL     1      -0.694  -1.878  -5.636  1.00  0.00    -0.265 N 
ATOM     15  C   UNL     1      -1.663  -2.614  -6.288  1.00  0.00     0.043 A 
ATOM     16  C   UNL     1      -3.110  -2.537  -5.943  1.00  0.00     0.067 C 
BRANCH  14  17
ATOM     17  C   UNL     1      -0.670  -0.463  -5.268  1.00  0.00     0.123 C 
ATOM     18  C   UNL     1       0.423   0.276  -6.078  1.00  0.00     0.044 C 
ATOM     19  C   UNL     1      -1.949   0.320  -5.534  1.00  0.00     0.164 C 
ATOM     20  C   UNL     1       0.263   1.762  -5.830  1.00  0.00     0.139 C 
ATOM     21  S   UNL     1      -1.465   2.025  -5.532  1.00  0.00     0.152 S 
ATOM     22  O   UNL     1      -1.620   2.550  -4.202  1.00  0.00    -0.229 OA
ATOM     23  O   UNL     1      -2.046   2.647  -6.711  1.00  0.00    -0.229 OA
ENDBRANCH  14  17
ENDBRANCH   9  10
BRANCH   8  24
ATOM     24  C   UNL     1      -2.245  -4.314 -10.622  1.00  0.00     0.121 A 
ATOM     25  N   UNL     1      -1.962  -3.726 -11.765  1.00  0.00    -0.236 NA
ATOM     26  S   UNL     1      -2.883  -5.908 -10.792  1.00  0.00    -0.114 S 
ATOM     27  C   UNL     1      -2.628  -4.358 -12.793  1.00  0.00     0.082 A 
ATOM     28  C   UNL     1      -3.209  -5.580 -12.456  1.00  0.00     0.055 A 
ATOM     29  C   UNL     1      -2.819  -3.840 -14.089  1.00  0.00     0.030 A 
ATOM     30  C   UNL     1      -3.965  -6.317 -13.380  1.00  0.00     0.021 A 
ATOM     31  C   UNL     1      -3.640  -4.524 -14.989  1.00  0.00     0.002 A 
ATOM     32  C   UNL     1      -4.203  -5.748 -14.637  1.00  0.00     0.002 A 
ENDBRANCH   8  24
ENDBRANCH   7   8
ENDBRANCH   4   7
ENDBRANCH   2   3
ENDBRANCH   1   2
BRANCH   1  33
ATOM     33  C   UNL     1       0.396  -0.103 -11.938  1.00  0.00     0.023 C 
BRANCH  33  34
ATOM     34  C   UNL     1       0.960   1.270 -11.595  1.00  0.00     0.116 C 
BRANCH  34  35
ATOM     35  N   UNL     1       2.309   1.191 -11.040  1.00  0.00    -0.352 N 
ATOM     36  C   UNL     1       3.055   2.207 -10.478  1.00  0.00     0.251 C 
ATOM     37  H   UNL     1       2.738   0.306 -11.071  1.00  0.00     0.163 HD
ATOM     38  O   UNL     1       4.278   2.131 -10.436  1.00  0.00    -0.269 OA
BRANCH  36  39
ATOM     39  C   UNL     1       2.359   3.369  -9.898  1.00  0.00     0.039 A 
ATOM     40  C   UNL     1       2.834   4.669 -10.075  1.00  0.00     0.014 A 
ATOM     41  C   UNL     1       1.204   3.134  -9.155  1.00  0.00     0.014 A 
ATOM     42  C   UNL     1       2.095   5.735  -9.561  1.00  0.00     0.010 A 
ATOM     43  C   UNL     1       0.430   4.188  -8.721  1.00  0.00     0.010 A 
ATOM     44  C   UNL     1       0.882   5.490  -8.894  1.00  0.00    -0.014 A 
BRANCH  44  45
ATOM     45  C   UNL     1      -0.024   6.590  -8.565  1.00  0.00     0.031 A 
ATOM     46  C   UNL     1      -0.443   7.390  -9.747  1.00  0.00     0.074 A 
ATOM     47  C   UNL     1      -0.659   6.731  -7.381  1.00  0.00     0.049 A 
ATOM     48  N   UNL     1      -0.119   8.607 -10.034  1.00  0.00    -0.248 NA
ATOM     49  C   UNL     1      -1.187   6.702 -10.817  1.00  0.00     0.031 C 
ATOM     50  C   UNL     1      -0.628   5.822  -6.232  1.00  0.00     0.029 A 
ATOM     51  N   UNL     1      -1.583   7.660  -7.002  1.00  0.00    -0.354 N 
ATOM     52  C   UNL     1      -0.823   8.920 -11.192  1.00  0.00     0.074 A 
ATOM     53  C   UNL     1      -1.276   7.665 -11.737  1.00  0.00     0.031 C 
ATOM     54  C   UNL     1      -1.661   6.103  -5.405  1.00  0.00     0.029 A 
ATOM     55  C   UNL     1      -2.317   7.311  -5.871  1.00  0.00     0.049 A 
ATOM     56  H   UNL     1      -1.719   8.506  -7.487  1.00  0.00     0.167 HD
ATOM     57  C   UNL     1      -1.222  10.196 -11.458  1.00  0.00     0.031 A 
ATOM     58  C   UNL     1      -3.408   7.948  -5.373  1.00  0.00     0.031 A 
ATOM     59  C   UNL     1      -0.562  11.148 -10.598  1.00  0.00     0.049 A 
ATOM     60  C   UNL     1      -3.400   9.323  -5.925  1.00  0.00     0.074 A 
ATOM     61  C   UNL     1       0.750  11.478 -10.325  1.00  0.00     0.029 A 
ATOM     62  N   UNL     1      -1.306  11.653  -9.557  1.00  0.00    -0.354 N 
ATOM     63  N   UNL     1      -2.494  10.212  -5.631  1.00  0.00    -0.248 NA
ATOM     64  C   UNL     1      -4.164   9.589  -7.132  1.00  0.00     0.031 C 
ATOM     65  C   UNL     1       0.779  11.746  -8.925  1.00  0.00     0.029 A 
ATOM     66  C   UNL     1      -0.524  11.640  -8.433  1.00  0.00     0.049 A 
ATOM     67  H   UNL     1      -2.237  11.969  -9.611  1.00  0.00     0.167 HD
ATOM     68  C   UNL     1      -2.263  10.885  -6.820  1.00  0.00     0.074 A 
ATOM     69  C   UNL     1      -3.401  10.544  -7.671  1.00  0.00     0.031 C 
ATOM     70  C   UNL     1      -1.037  11.422  -7.096  1.00  0.00     0.031 A 
BRANCH  57  71
ATOM     71  C   UNL     1      -2.518  10.537 -12.163  1.00  0.00    -0.014 A 
ATOM     72  C   UNL     1      -2.824  11.895 -12.393  1.00  0.00     0.010 A 
ATOM     73  C   UNL     1      -3.566   9.611 -12.342  1.00  0.00     0.010 A 
ATOM     74  C   UNL     1      -4.129  12.307 -12.698  1.00  0.00     0.020 A 
ATOM     75  C   UNL     1      -4.858  10.006 -12.693  1.00  0.00     0.020 A 
ATOM     76  C   UNL     1      -5.140  11.357 -12.832  1.00  0.00     0.054 A 
BRANCH  76  77
ATOM     77  S   UNL     1      -6.840  11.903 -13.124  1.00  0.00     0.124 S 
ATOM     78  O   UNL     1      -7.159  12.571 -11.867  1.00  0.00    -0.237 OA
ATOM     79  O   UNL     1      -6.687  12.774 -14.286  1.00  0.00    -0.237 OA
ATOM     80  O   UNL     1      -7.559  10.657 -13.376  1.00  0.00    -0.744 OA
ENDBRANCH  76  77
ENDBRANCH  57  71
BRANCH  58  81
ATOM     81  C   UNL     1      -4.589   7.386  -4.668  1.00  0.00    -0.014 A 
ATOM     82  C   UNL     1      -5.508   8.230  -4.012  1.00  0.00     0.010 A 
ATOM     83  C   UNL     1      -4.975   6.049  -4.889  1.00  0.00     0.010 A 
ATOM     84  C   UNL     1      -6.792   7.775  -3.663  1.00  0.00     0.020 A 
ATOM     85  C   UNL     1      -6.250   5.586  -4.538  1.00  0.00     0.020 A 
ATOM     86  C   UNL     1      -7.164   6.460  -3.951  1.00  0.00     0.054 A 
BRANCH  86  87
ATOM     87  S   UNL     1      -8.885   5.936  -3.679  1.00  0.00     0.124 S 
ATOM     88  O   UNL     1      -8.972   5.891  -2.222  1.00  0.00    -0.237 OA
ATOM     89  O   UNL     1      -9.649   7.001  -4.324  1.00  0.00    -0.237 OA
ATOM     90  O   UNL     1      -8.960   4.636  -4.343  1.00  0.00    -0.744 OA
ENDBRANCH  86  87
ENDBRANCH  58  81
BRANCH  70  91
ATOM     91  C   UNL     1      -0.058  11.605  -5.958  1.00  0.00    -0.014 A 
ATOM     92  C   UNL     1       0.415  10.563  -5.135  1.00  0.00     0.010 A 
ATOM     93  C   UNL     1       0.494  12.888  -5.790  1.00  0.00     0.010 A 
ATOM     94  C   UNL     1       1.380  10.812  -4.146  1.00  0.00     0.020 A 
ATOM     95  C   UNL     1       1.470  13.138  -4.824  1.00  0.00     0.020 A 
ATOM     96  C   UNL     1       1.898  12.102  -3.995  1.00  0.00     0.054 A 
BRANCH  96  97
ATOM     97  S   UNL     1       3.155  12.421  -2.726  1.00  0.00     0.124 S 
ATOM     98  O   UNL     1       2.407  12.246  -1.485  1.00  0.00    -0.237 OA
ATOM     99  O   UNL     1       4.164  11.400  -3.003  1.00  0.00    -0.237 OA
ATOM    100  O   UNL     1       3.586  13.792  -2.998  1.00  0.00    -0.744 OA
ENDBRANCH  96  97
ENDBRANCH  70  91
ENDBRANCH  44  45
ENDBRANCH  36  39
ENDBRANCH  34  35
ENDBRANCH  33  34
ENDBRANCH   1  33
TORSDOF 18
