REMARK SMILES O=C(NCCCCNC(=O)[C@H]1[C@@H](C(=O)Nc2ccccc2-c2ccccc2)[C@@H]2C=C[C@H]1O2)c1ccc(-c2c3nc(c(-c4ccc(S(=O)(=O)[O-])cc4)c4ccc([nH]4)c(-c4ccc(S(=O)(=O)[O-])cc4)c4nc(c(-c5ccc(S(=O)(=O)[O-])cc5)c5ccc2[nH]5)C=C4)C=C3)cc1
REMARK SMILES IDX 5 1 4 2 3 3 1 4 2 5 33 7 34 8 92 9 35 10 91 11 36 12 37 13
REMARK SMILES IDX 38 14 85 15 39 16 90 17 84 18 86 19 40 20 89 21 83 22 82 23
REMARK SMILES IDX 41 25 71 26 52 27 70 28 53 29 56 30 69 31 87 32 54 33 55 34
REMARK SMILES IDX 68 36 88 37 57 38 42 39 43 40 51 41 44 42 50 43 45 44 46 45
REMARK SMILES IDX 47 46 48 47 49 48 72 49 73 50 81 51 74 52 80 53 75 54 76 55
REMARK SMILES IDX 77 56 78 57 79 58 58 59 59 60 67 61 60 62 66 63 61 64 62 65
REMARK SMILES IDX 63 66 64 67 65 68 6 69 7 70 8 71 9 72 10 74 11 75 12 76
REMARK SMILES IDX 31 77 28 78 30 79 32 80 29 81 13 82 14 83 15 84 16 86 17 87
REMARK SMILES IDX 21 88 18 89 20 90 19 91 22 92 23 93 27 94 24 95 26 96 25 97
REMARK H PARENT 3 6 86 24 56 35 8 73 15 85
REMARK Flexibility Score: inf
ROOT
ATOM      1  C   UNL     1       9.217  -3.651   9.034  1.00  0.00     0.023 C 
ENDROOT
BRANCH   1   2
ATOM      2  C   UNL     1      10.644  -3.304   8.641  1.00  0.00     0.116 C 
BRANCH   2   3
ATOM      3  N   UNL     1      10.873  -1.868   8.616  1.00  0.00    -0.352 N 
ATOM      4  O   UNL     1      11.728   0.091   9.329  1.00  0.00    -0.269 OA
ATOM      5  C   UNL     1      11.793  -1.130   9.320  1.00  0.00     0.251 C 
ATOM      6  H   UNL     1      10.288  -1.355   8.013  1.00  0.00     0.163 HD
BRANCH   5   7
ATOM      7  C   UNL     1      12.846  -1.836  10.077  1.00  0.00     0.039 A 
ATOM      8  C   UNL     1      13.573  -2.870   9.479  1.00  0.00     0.014 A 
ATOM      9  C   UNL     1      13.090  -1.467  11.400  1.00  0.00     0.014 A 
ATOM     10  C   UNL     1      14.462  -3.618  10.241  1.00  0.00     0.010 A 
ATOM     11  C   UNL     1      14.041  -2.168  12.140  1.00  0.00     0.010 A 
ATOM     12  C   UNL     1      14.717  -3.263  11.574  1.00  0.00    -0.014 A 
BRANCH  12  13
ATOM     13  C   UNL     1      15.739  -3.993  12.359  1.00  0.00     0.031 A 
ATOM     14  C   UNL     1      15.356  -4.767  13.587  1.00  0.00     0.074 A 
ATOM     15  C   UNL     1      17.029  -3.908  11.981  1.00  0.00     0.049 A 
ATOM     16  N   UNL     1      16.128  -5.368  14.454  1.00  0.00    -0.248 NA
ATOM     17  C   UNL     1      13.919  -4.868  13.885  1.00  0.00     0.031 C 
ATOM     18  C   UNL     1      17.515  -3.190  10.801  1.00  0.00     0.029 A 
ATOM     19  N   UNL     1      18.166  -4.411  12.558  1.00  0.00    -0.354 N 
ATOM     20  C   UNL     1      15.277  -5.893  15.419  1.00  0.00     0.074 A 
ATOM     21  C   UNL     1      13.930  -5.521  15.039  1.00  0.00     0.031 C 
ATOM     22  C   UNL     1      18.849  -3.300  10.740  1.00  0.00     0.029 A 
ATOM     23  C   UNL     1      19.317  -4.033  11.911  1.00  0.00     0.049 A 
ATOM     24  H   UNL     1      18.158  -4.986  13.357  1.00  0.00     0.167 HD
ATOM     25  C   UNL     1      15.594  -6.614  16.523  1.00  0.00     0.031 A 
ATOM     26  C   UNL     1      20.610  -4.212  12.241  1.00  0.00     0.031 A 
ATOM     27  C   UNL     1      16.943  -6.956  16.896  1.00  0.00     0.049 A 
ATOM     28  C   UNL     1      20.944  -4.967  13.493  1.00  0.00     0.074 A 
ATOM     29  C   UNL     1      17.372  -7.709  17.975  1.00  0.00     0.029 A 
ATOM     30  N   UNL     1      18.082  -6.553  16.212  1.00  0.00    -0.354 N 
ATOM     31  N   UNL     1      20.128  -5.489  14.377  1.00  0.00    -0.248 NA
ATOM     32  C   UNL     1      22.368  -5.166  13.790  1.00  0.00     0.031 C 
ATOM     33  C   UNL     1      18.770  -7.704  17.981  1.00  0.00     0.029 A 
ATOM     34  C   UNL     1      19.214  -7.015  16.862  1.00  0.00     0.049 A 
ATOM     35  H   UNL     1      18.084  -6.017  15.386  1.00  0.00     0.167 HD
ATOM     36  C   UNL     1      20.938  -6.106  15.322  1.00  0.00     0.074 A 
ATOM     37  C   UNL     1      22.308  -5.891  14.901  1.00  0.00     0.031 C 
ATOM     38  C   UNL     1      20.574  -6.798  16.430  1.00  0.00     0.031 A 
BRANCH  25  39
ATOM     39  C   UNL     1      14.464  -7.024  17.433  1.00  0.00    -0.014 A 
ATOM     40  C   UNL     1      13.493  -7.959  17.030  1.00  0.00     0.010 A 
ATOM     41  C   UNL     1      14.374  -6.462  18.720  1.00  0.00     0.010 A 
ATOM     42  C   UNL     1      12.416  -8.268  17.867  1.00  0.00     0.020 A 
ATOM     43  C   UNL     1      13.318  -6.795  19.574  1.00  0.00     0.020 A 
ATOM     44  C   UNL     1      12.329  -7.674  19.129  1.00  0.00     0.054 A 
BRANCH  44  45
ATOM     45  S   UNL     1      10.904  -8.064  20.181  1.00  0.00     0.124 S 
ATOM     46  O   UNL     1       9.828  -7.343  19.505  1.00  0.00    -0.237 OA
ATOM     47  O   UNL     1      10.832  -9.520  20.097  1.00  0.00    -0.237 OA
ATOM     48  O   UNL     1      11.281  -7.535  21.489  1.00  0.00    -0.744 OA
ENDBRANCH  44  45
ENDBRANCH  25  39
BRANCH  26  49
ATOM     49  C   UNL     1      21.661  -3.634  11.362  1.00  0.00    -0.014 A 
ATOM     50  C   UNL     1      22.436  -4.462  10.533  1.00  0.00     0.010 A 
ATOM     51  C   UNL     1      21.821  -2.237  11.280  1.00  0.00     0.010 A 
ATOM     52  C   UNL     1      23.344  -3.902   9.630  1.00  0.00     0.020 A 
ATOM     53  C   UNL     1      22.706  -1.674  10.358  1.00  0.00     0.020 A 
ATOM     54  C   UNL     1      23.464  -2.512   9.539  1.00  0.00     0.054 A 
BRANCH  54  55
ATOM     55  S   UNL     1      24.572  -1.811   8.285  1.00  0.00     0.124 S 
ATOM     56  O   UNL     1      25.887  -2.131   8.829  1.00  0.00    -0.237 OA
ATOM     57  O   UNL     1      24.188  -2.546   7.082  1.00  0.00    -0.237 OA
ATOM     58  O   UNL     1      24.225  -0.392   8.274  1.00  0.00    -0.744 OA
ENDBRANCH  54  55
ENDBRANCH  26  49
BRANCH  38  59
ATOM     59  C   UNL     1      21.665  -7.429  17.253  1.00  0.00    -0.014 A 
ATOM     60  C   UNL     1      22.495  -6.661  18.087  1.00  0.00     0.010 A 
ATOM     61  C   UNL     1      21.782  -8.832  17.271  1.00  0.00     0.010 A 
ATOM     62  C   UNL     1      23.424  -7.286  18.925  1.00  0.00     0.020 A 
ATOM     63  C   UNL     1      22.688  -9.461  18.126  1.00  0.00     0.020 A 
ATOM     64  C   UNL     1      23.506  -8.683  18.947  1.00  0.00     0.054 A 
BRANCH  64  65
ATOM     65  S   UNL     1      24.647  -9.473  20.116  1.00  0.00     0.124 S 
ATOM     66  O   UNL     1      25.947  -9.170  19.525  1.00  0.00    -0.237 OA
ATOM     67  O   UNL     1      24.349  -8.781  21.368  1.00  0.00    -0.237 OA
ATOM     68  O   UNL     1      24.259 -10.881  20.082  1.00  0.00    -0.744 OA
ENDBRANCH  64  65
ENDBRANCH  38  59
ENDBRANCH  12  13
ENDBRANCH   5   7
ENDBRANCH   2   3
ENDBRANCH   1   2
BRANCH   1  69
ATOM     69  C   UNL     1       8.145  -3.041   8.134  1.00  0.00     0.023 C 
BRANCH  69  70
ATOM     70  C   UNL     1       8.327  -3.338   6.648  1.00  0.00     0.116 C 
BRANCH  70  71
ATOM     71  N   UNL     1       8.263  -4.757   6.364  1.00  0.00    -0.356 N 
ATOM     72  C   UNL     1       7.359  -5.457   5.617  1.00  0.00     0.227 C 
ATOM     73  H   UNL     1       8.978  -5.298   6.770  1.00  0.00     0.163 HD
ATOM     74  O   UNL     1       7.727  -6.560   5.212  1.00  0.00    -0.275 OA
BRANCH  72  75
ATOM     75  C   UNL     1       6.108  -4.763   5.120  1.00  0.00     0.127 C 
ATOM     76  C   UNL     1       5.015  -5.597   4.403  1.00  0.00     0.127 C 
ATOM     77  C   UNL     1       5.247  -4.009   6.148  1.00  0.00     0.155 C 
ATOM     78  C   UNL     1       3.725  -5.070   5.035  1.00  0.00     0.155 C 
ATOM     79  C   UNL     1       4.478  -2.952   5.394  1.00  0.00     0.004 C 
ATOM     80  O   UNL     1       4.161  -4.928   6.405  1.00  0.00    -0.365 OA
ATOM     81  C   UNL     1       3.547  -3.613   4.692  1.00  0.00     0.004 C 
BRANCH  76  82
ATOM     82  C   UNL     1       5.014  -7.098   4.491  1.00  0.00     0.231 C 
ATOM     83  O   UNL     1       5.349  -7.690   5.523  1.00  0.00    -0.274 OA
ATOM     84  N   UNL     1       4.449  -7.885   3.528  1.00  0.00    -0.325 N 
ATOM     85  H   UNL     1       4.601  -8.842   3.702  1.00  0.00     0.169 HD
BRANCH  84  86
ATOM     86  C   UNL     1       3.701  -7.680   2.343  1.00  0.00     0.049 A 
ATOM     87  C   UNL     1       2.674  -8.642   2.200  1.00  0.00     0.027 A 
ATOM     88  C   UNL     1       3.841  -6.688   1.340  1.00  0.00     0.005 A 
ATOM     89  C   UNL     1       1.738  -8.584   1.170  1.00  0.00     0.002 A 
ATOM     90  C   UNL     1       2.871  -6.655   0.306  1.00  0.00     0.011 A 
ATOM     91  C   UNL     1       1.825  -7.575   0.229  1.00  0.00     0.001 A 
BRANCH  88  92
ATOM     92  C   UNL     1       4.956  -5.725   1.214  1.00  0.00    -0.016 A 
ATOM     93  C   UNL     1       4.694  -4.338   1.132  1.00  0.00     0.009 A 
ATOM     94  C   UNL     1       6.297  -6.139   1.266  1.00  0.00     0.009 A 
ATOM     95  C   UNL     1       5.730  -3.402   1.192  1.00  0.00     0.001 A 
ATOM     96  C   UNL     1       7.333  -5.200   1.316  1.00  0.00     0.001 A 
ATOM     97  C   UNL     1       7.048  -3.835   1.296  1.00  0.00     0.000 A 
ENDBRANCH  88  92
ENDBRANCH  84  86
ENDBRANCH  76  82
ENDBRANCH  72  75
ENDBRANCH  70  71
ENDBRANCH  69  70
ENDBRANCH   1  69
TORSDOF 17
