REMARK SMILES COc1ccc(-c2nc(NCC(=O)NCCCCNC(=O)c3ccc(-c4c5nc(c(-c6ccc(S(=O)(=O)[O-])cc6)c6ccc([nH]6)c(-c6ccc(S(=O)(=O)[O-])cc6)c6nc(c(-c7ccc(S(=O)(=O)[O-])cc7)c7ccc4[nH]7)C=C6)C=C5)cc3)sc2-c2ccc(OC)cc2)cc1
REMARK SMILES IDX 16 1 15 2 14 3 12 4 13 5 11 7 10 8 9 10 7 11 8 12 83 13
REMARK SMILES IDX 82 14 6 15 3 16 4 17 93 18 5 19 92 20 2 21 1 22 84 23 85 24
REMARK SMILES IDX 91 25 86 26 90 27 87 28 88 29 89 30 17 31 18 32 19 33 20 34
REMARK SMILES IDX 21 36 22 37 23 38 81 39 24 40 80 41 25 42 26 43 27 44 74 45
REMARK SMILES IDX 28 46 79 47 73 48 75 49 29 50 78 51 72 52 71 53 30 55 60 56
REMARK SMILES IDX 41 57 59 58 42 59 45 60 58 61 76 62 43 63 44 64 57 66 77 67
REMARK SMILES IDX 46 68 31 69 32 70 40 71 33 72 39 73 34 74 35 75 36 76 37 77
REMARK SMILES IDX 38 78 61 79 62 80 70 81 63 82 69 83 64 84 65 85 66 86 67 87
REMARK SMILES IDX 68 88 47 89 48 90 56 91 49 92 55 93 50 94 51 95 52 96 53 97
REMARK SMILES IDX 54 98
REMARK H PARENT 14 6 10 9 19 35 75 54 45 65
REMARK Flexibility Score: inf
ROOT
ATOM      1  C   UNL     1       5.816   5.755   5.771  1.00  0.00     0.023 C 
ENDROOT
BRANCH   1   2
ATOM      2  C   UNL     1       5.387   6.999   6.546  1.00  0.00     0.116 C 
BRANCH   2   3
ATOM      3  N   UNL     1       6.156   8.164   6.156  1.00  0.00    -0.355 N 
ATOM      4  C   UNL     1       5.791   9.177   5.310  1.00  0.00     0.239 C 
ATOM      5  O   UNL     1       6.617  10.055   5.052  1.00  0.00    -0.273 OA
ATOM      6  H   UNL     1       7.055   8.237   6.549  1.00  0.00     0.163 HD
BRANCH   4   7
ATOM      7  C   UNL     1       4.367   9.227   4.744  1.00  0.00     0.215 C 
BRANCH   7   8
ATOM      8  N   UNL     1       4.123   8.147   3.803  1.00  0.00    -0.352 N 
ATOM      9  H   UNL     1       4.771   8.037   3.070  1.00  0.00     0.163 HD
BRANCH   8  10
ATOM     10  C   UNL     1       3.089   7.282   3.845  1.00  0.00     0.184 A 
ATOM     11  C   UNL     1       1.913   5.485   3.285  1.00  0.00     0.091 A 
ATOM     12  N   UNL     1       3.000   6.290   2.989  1.00  0.00    -0.220 NA
ATOM     13  C   UNL     1       1.217   5.828   4.435  1.00  0.00     0.064 A 
ATOM     14  S   UNL     1       1.812   7.329   5.003  1.00  0.00    -0.096 S 
BRANCH  11  15
ATOM     15  C   UNL     1       1.561   4.356   2.437  1.00  0.00     0.002 A 
ATOM     16  C   UNL     1       0.847   2.159   0.836  1.00  0.00     0.118 A 
ATOM     17  C   UNL     1      -0.084   3.160   1.116  1.00  0.00     0.047 A 
ATOM     18  C   UNL     1       2.145   2.270   1.337  1.00  0.00     0.047 A 
ATOM     19  C   UNL     1       0.266   4.249   1.915  1.00  0.00     0.014 A 
ATOM     20  C   UNL     1       2.504   3.371   2.129  1.00  0.00     0.014 A 
BRANCH  16  21
ATOM     21  O   UNL     1       0.376   1.152   0.039  1.00  0.00    -0.497 OA
ATOM     22  C   UNL     1       1.093  -0.075   0.087  1.00  0.00     0.278 C 
ENDBRANCH  16  21
ENDBRANCH  11  15
BRANCH  13  23
ATOM     23  C   UNL     1       0.165   5.125   5.170  1.00  0.00    -0.006 A 
ATOM     24  C   UNL     1      -1.052   5.739   5.482  1.00  0.00     0.013 A 
ATOM     25  C   UNL     1       0.371   3.797   5.574  1.00  0.00     0.013 A 
ATOM     26  C   UNL     1      -2.043   5.030   6.169  1.00  0.00     0.047 A 
ATOM     27  C   UNL     1      -0.622   3.090   6.260  1.00  0.00     0.047 A 
ATOM     28  C   UNL     1      -1.839   3.703   6.552  1.00  0.00     0.118 A 
BRANCH  28  29
ATOM     29  O   UNL     1      -2.894   3.122   7.199  1.00  0.00    -0.497 OA
ATOM     30  C   UNL     1      -2.774   1.736   7.497  1.00  0.00     0.278 C 
ENDBRANCH  28  29
ENDBRANCH  13  23
ENDBRANCH   8  10
ENDBRANCH   7   8
ENDBRANCH   4   7
ENDBRANCH   2   3
ENDBRANCH   1   2
BRANCH   1  31
ATOM     31  C   UNL     1       7.163   5.176   6.217  1.00  0.00     0.023 C 
BRANCH  31  32
ATOM     32  C   UNL     1       7.232   4.746   7.680  1.00  0.00     0.116 C 
BRANCH  32  33
ATOM     33  N   UNL     1       6.250   3.731   8.027  1.00  0.00    -0.352 N 
ATOM     34  C   UNL     1       6.389   2.660   8.877  1.00  0.00     0.251 C 
ATOM     35  H   UNL     1       5.370   3.823   7.595  1.00  0.00     0.163 HD
ATOM     36  O   UNL     1       5.495   1.823   8.964  1.00  0.00    -0.269 OA
BRANCH  34  37
ATOM     37  C   UNL     1       7.638   2.504   9.654  1.00  0.00     0.039 A 
ATOM     38  C   UNL     1       8.284   1.265   9.651  1.00  0.00     0.014 A 
ATOM     39  C   UNL     1       8.184   3.581  10.357  1.00  0.00     0.014 A 
ATOM     40  C   UNL     1       9.515   1.127  10.296  1.00  0.00     0.010 A 
ATOM     41  C   UNL     1       9.441   3.459  10.941  1.00  0.00     0.010 A 
ATOM     42  C   UNL     1      10.122   2.232  10.914  1.00  0.00    -0.014 A 
BRANCH  42  43
ATOM     43  C   UNL     1      11.473   2.130  11.524  1.00  0.00     0.031 A 
ATOM     44  C   UNL     1      11.655   2.328  13.004  1.00  0.00     0.074 A 
ATOM     45  C   UNL     1      12.546   1.927  10.734  1.00  0.00     0.049 A 
ATOM     46  N   UNL     1      12.760   2.334  13.704  1.00  0.00    -0.248 NA
ATOM     47  C   UNL     1      10.439   2.575  13.795  1.00  0.00     0.031 C 
ATOM     48  C   UNL     1      12.509   1.762   9.278  1.00  0.00     0.029 A 
ATOM     49  N   UNL     1      13.880   1.833  11.043  1.00  0.00    -0.354 N 
ATOM     50  C   UNL     1      12.376   2.602  15.013  1.00  0.00     0.074 A 
ATOM     51  C   UNL     1      10.943   2.800  15.000  1.00  0.00     0.031 C 
ATOM     52  C   UNL     1      13.758   1.561   8.827  1.00  0.00     0.029 A 
ATOM     53  C   UNL     1      14.687   1.621   9.950  1.00  0.00     0.049 A 
ATOM     54  H   UNL     1      14.226   1.910  11.962  1.00  0.00     0.167 HD
ATOM     55  C   UNL     1      13.144   2.662  16.128  1.00  0.00     0.031 A 
ATOM     56  C   UNL     1      16.026   1.495   9.859  1.00  0.00     0.031 A 
ATOM     57  C   UNL     1      14.568   2.457  16.140  1.00  0.00     0.049 A 
ATOM     58  C   UNL     1      16.858   1.569  11.109  1.00  0.00     0.074 A 
ATOM     59  C   UNL     1      15.425   2.441  17.227  1.00  0.00     0.029 A 
ATOM     60  N   UNL     1      15.346   2.234  15.014  1.00  0.00    -0.354 N 
ATOM     61  N   UNL     1      16.469   1.760  12.347  1.00  0.00    -0.248 NA
ATOM     62  C   UNL     1      18.309   1.400  10.951  1.00  0.00     0.031 C 
ATOM     63  C   UNL     1      16.729   2.256  16.752  1.00  0.00     0.029 A 
ATOM     64  C   UNL     1      16.676   2.102  15.376  1.00  0.00     0.049 A 
ATOM     65  H   UNL     1      15.003   2.178  14.093  1.00  0.00     0.167 HD
ATOM     66  C   UNL     1      17.624   1.708  13.119  1.00  0.00     0.074 A 
ATOM     67  C   UNL     1      18.724   1.456  12.210  1.00  0.00     0.031 C 
ATOM     68  C   UNL     1      17.761   1.854  14.460  1.00  0.00     0.031 A 
BRANCH  55  69
ATOM     69  C   UNL     1      12.450   2.970  17.429  1.00  0.00    -0.014 A 
ATOM     70  C   UNL     1      11.586   2.037  18.031  1.00  0.00     0.010 A 
ATOM     71  C   UNL     1      12.682   4.200  18.072  1.00  0.00     0.010 A 
ATOM     72  C   UNL     1      10.928   2.347  19.223  1.00  0.00     0.020 A 
ATOM     73  C   UNL     1      12.048   4.503  19.280  1.00  0.00     0.020 A 
ATOM     74  C   UNL     1      11.157   3.582  19.837  1.00  0.00     0.054 A 
BRANCH  74  75
ATOM     75  S   UNL     1      10.293   3.957  21.386  1.00  0.00     0.124 S 
ATOM     76  O   UNL     1       8.935   4.223  20.915  1.00  0.00    -0.237 OA
ATOM     77  O   UNL     1      10.460   2.727  22.155  1.00  0.00    -0.237 OA
ATOM     78  O   UNL     1      11.008   5.118  21.910  1.00  0.00    -0.744 OA
ENDBRANCH  74  75
ENDBRANCH  55  69
BRANCH  56  79
ATOM     79  C   UNL     1      16.657   1.259   8.533  1.00  0.00    -0.014 A 
ATOM     80  C   UNL     1      17.192  -0.001   8.214  1.00  0.00     0.010 A 
ATOM     81  C   UNL     1      16.705   2.286   7.572  1.00  0.00     0.010 A 
ATOM     82  C   UNL     1      17.772  -0.229   6.963  1.00  0.00     0.020 A 
ATOM     83  C   UNL     1      17.261   2.054   6.310  1.00  0.00     0.020 A 
ATOM     84  C   UNL     1      17.800   0.800   6.017  1.00  0.00     0.054 A 
BRANCH  84  85
ATOM     85  S   UNL     1      18.500   0.462   4.377  1.00  0.00     0.124 S 
ATOM     86  O   UNL     1      19.931   0.433   4.658  1.00  0.00    -0.237 OA
ATOM     87  O   UNL     1      17.895  -0.823   4.035  1.00  0.00    -0.237 OA
ATOM     88  O   UNL     1      18.041   1.592   3.572  1.00  0.00    -0.744 OA
ENDBRANCH  84  85
ENDBRANCH  56  79
BRANCH  68  89
ATOM     89  C   UNL     1      19.145   1.713  15.035  1.00  0.00    -0.014 A 
ATOM     90  C   UNL     1      20.114   2.715  14.856  1.00  0.00     0.010 A 
ATOM     91  C   UNL     1      19.461   0.583  15.812  1.00  0.00     0.010 A 
ATOM     92  C   UNL     1      21.385   2.576  15.421  1.00  0.00     0.020 A 
ATOM     93  C   UNL     1      20.721   0.453  16.400  1.00  0.00     0.020 A 
ATOM     94  C   UNL     1      21.681   1.445  16.189  1.00  0.00     0.054 A 
BRANCH  94  95
ATOM     95  S   UNL     1      23.322   1.309  16.950  1.00  0.00     0.124 S 
ATOM     96  O   UNL     1      24.160   0.969  15.804  1.00  0.00    -0.237 OA
ATOM     97  O   UNL     1      23.530   2.644  17.506  1.00  0.00    -0.237 OA
ATOM     98  O   UNL     1      23.157   0.247  17.940  1.00  0.00    -0.744 OA
ENDBRANCH  94  95
ENDBRANCH  68  89
ENDBRANCH  42  43
ENDBRANCH  34  37
ENDBRANCH  32  33
ENDBRANCH  31  32
ENDBRANCH   1  31
TORSDOF 20
