REMARK SMILES Cc1c(Cl)ccc2c1C=C(C(=O)NCCCCNC(=O)c1ccc(-c3c4nc(c(-c5ccc(S(=O)(=O)[O-])cc5)c5ccc([nH]5)c(-c5ccc(S(=O)(=O)[O-])cc5)c5nc(c(-c6ccc(S(=O)(=O)[O-])cc6)c6ccc3[nH]6)C=C5)C=C4)cc1)[C@@H](C(F)(F)F)O2
REMARK SMILES IDX 16 1 15 2 14 3 13 4 11 5 12 6 10 8 1 9 2 10 3 11 8 12 4 13
REMARK SMILES IDX 5 14 7 15 9 16 6 17 86 18 81 19 82 20 83 21 84 22 85 23
REMARK SMILES IDX 17 24 18 25 19 26 20 28 21 29 22 30 80 31 23 32 79 33 24 34
REMARK SMILES IDX 25 35 26 36 73 37 27 38 78 39 72 40 74 41 28 42 77 43 71 44
REMARK SMILES IDX 70 45 29 47 59 48 40 49 58 50 41 51 44 52 57 53 75 54 42 55
REMARK SMILES IDX 43 56 56 58 76 59 45 60 30 61 31 62 39 63 32 64 38 65 33 66
REMARK SMILES IDX 34 67 35 68 36 69 37 70 60 71 61 72 69 73 62 74 68 75 63 76
REMARK SMILES IDX 64 77 65 78 66 79 67 80 46 81 47 82 55 83 48 84 54 85 49 86
REMARK SMILES IDX 50 87 51 88 52 89 53 90
REMARK H PARENT 13 7 18 27 74 46 44 57
REMARK Flexibility Score: inf
ROOT
ATOM      1  C   UNL     1      -6.077  -0.415   5.985  1.00  0.00     0.023 C 
ENDROOT
BRANCH   1   2
ATOM      2  C   UNL     1      -5.221  -1.338   5.112  1.00  0.00     0.023 C 
BRANCH   2   3
ATOM      3  C   UNL     1      -5.385  -1.112   3.612  1.00  0.00     0.116 C 
BRANCH   3   4
ATOM      4  N   UNL     1      -4.567  -0.011   3.134  1.00  0.00    -0.352 N 
ATOM      5  C   UNL     1      -3.404   0.138   2.460  1.00  0.00     0.251 C 
ATOM      6  O   UNL     1      -3.058   1.308   2.264  1.00  0.00    -0.270 OA
ATOM      7  H   UNL     1      -4.966   0.859   3.362  1.00  0.00     0.163 HD
BRANCH   5   8
ATOM      8  C   UNL     1      -2.545  -0.974   1.950  1.00  0.00     0.067 C 
ATOM      9  C   UNL     1       1.102   0.168  -0.105  1.00  0.00     0.047 C 
ATOM     10  C   UNL     1       0.729  -1.271   0.157  1.00  0.00    -0.021 A 
ATOM     11  C   UNL     1       1.508  -2.323  -0.374  1.00  0.00     0.044 A 
ATOM     12  C   UNL     1      -0.443  -1.603   0.881  1.00  0.00     0.022 A 
ATOM     13  Cl  UNL     1       2.916  -2.039  -1.340  1.00  0.00    -0.084 Cl
ATOM     14  C   UNL     1       1.168  -3.660  -0.148  1.00  0.00     0.024 A 
ATOM     15  C   UNL     1      -0.768  -2.952   1.086  1.00  0.00     0.128 A 
ATOM     16  C   UNL     1      -1.347  -0.603   1.460  1.00  0.00     0.026 C 
ATOM     17  C   UNL     1       0.037  -3.974   0.594  1.00  0.00     0.048 A 
ATOM     18  O   UNL     1      -1.857  -3.357   1.806  1.00  0.00    -0.475 OA
ATOM     19  C   UNL     1      -2.957  -2.414   1.907  1.00  0.00     0.314 C 
BRANCH  19  20
ATOM     20  C   UNL     1      -3.981  -2.708   0.794  1.00  0.00     0.429 C 
ATOM     21  F   UNL     1      -4.524  -3.940   0.963  1.00  0.00    -0.167 F 
ATOM     22  F   UNL     1      -5.012  -1.832   0.791  1.00  0.00    -0.167 F 
ATOM     23  F   UNL     1      -3.430  -2.676  -0.440  1.00  0.00    -0.167 F 
ENDBRANCH  19  20
ENDBRANCH   5   8
ENDBRANCH   3   4
ENDBRANCH   2   3
ENDBRANCH   1   2
BRANCH   1  24
ATOM     24  C   UNL     1      -7.579  -0.444   5.700  1.00  0.00     0.116 C 
BRANCH  24  25
ATOM     25  N   UNL     1      -8.149  -1.784   5.699  1.00  0.00    -0.352 N 
ATOM     26  C   UNL     1      -9.428  -2.150   6.044  1.00  0.00     0.251 C 
ATOM     27  H   UNL     1      -7.548  -2.512   5.419  1.00  0.00     0.163 HD
ATOM     28  O   UNL     1      -9.769  -3.327   6.052  1.00  0.00    -0.269 OA
BRANCH  26  29
ATOM     29  C   UNL     1     -10.367  -1.089   6.446  1.00  0.00     0.039 A 
ATOM     30  C   UNL     1     -10.838  -1.075   7.760  1.00  0.00     0.014 A 
ATOM     31  C   UNL     1     -10.683  -0.061   5.553  1.00  0.00     0.014 A 
ATOM     32  C   UNL     1     -11.577   0.019   8.206  1.00  0.00     0.010 A 
ATOM     33  C   UNL     1     -11.390   1.046   6.011  1.00  0.00     0.010 A 
ATOM     34  C   UNL     1     -11.827   1.100   7.344  1.00  0.00    -0.014 A 
BRANCH  34  35
ATOM     35  C   UNL     1     -12.525   2.309   7.834  1.00  0.00     0.031 A 
ATOM     36  C   UNL     1     -13.928   2.595   7.393  1.00  0.00     0.074 A 
ATOM     37  C   UNL     1     -11.873   3.168   8.642  1.00  0.00     0.049 A 
ATOM     38  N   UNL     1     -14.689   3.614   7.694  1.00  0.00    -0.248 NA
ATOM     39  C   UNL     1     -14.552   1.618   6.487  1.00  0.00     0.031 C 
ATOM     40  C   UNL     1     -10.495   3.007   9.114  1.00  0.00     0.029 A 
ATOM     41  N   UNL     1     -12.285   4.346   9.211  1.00  0.00    -0.354 N 
ATOM     42  C   UNL     1     -15.880   3.406   7.012  1.00  0.00     0.074 A 
ATOM     43  C   UNL     1     -15.729   2.183   6.254  1.00  0.00     0.031 C 
ATOM     44  C   UNL     1     -10.187   4.036   9.922  1.00  0.00     0.029 A 
ATOM     45  C   UNL     1     -11.333   4.936  10.007  1.00  0.00     0.049 A 
ATOM     46  H   UNL     1     -13.178   4.732   9.063  1.00  0.00     0.167 HD
ATOM     47  C   UNL     1     -17.004   4.159   7.029  1.00  0.00     0.031 A 
ATOM     48  C   UNL     1     -11.380   6.070  10.732  1.00  0.00     0.031 A 
ATOM     49  C   UNL     1     -17.157   5.367   7.790  1.00  0.00     0.049 A 
ATOM     50  C   UNL     1     -12.639   6.888  10.740  1.00  0.00     0.074 A 
ATOM     51  C   UNL     1     -18.268   6.184   7.891  1.00  0.00     0.029 A 
ATOM     52  N   UNL     1     -16.170   5.928   8.586  1.00  0.00    -0.354 N 
ATOM     53  N   UNL     1     -13.765   6.662  10.106  1.00  0.00    -0.248 NA
ATOM     54  C   UNL     1     -12.640   8.106  11.562  1.00  0.00     0.031 C 
ATOM     55  C   UNL     1     -17.947   7.252   8.736  1.00  0.00     0.029 A 
ATOM     56  C   UNL     1     -16.645   7.082   9.181  1.00  0.00     0.049 A 
ATOM     57  H   UNL     1     -15.266   5.559   8.709  1.00  0.00     0.167 HD
ATOM     58  C   UNL     1     -14.616   7.699  10.467  1.00  0.00     0.074 A 
ATOM     59  C   UNL     1     -13.876   8.555  11.373  1.00  0.00     0.031 C 
ATOM     60  C   UNL     1     -15.896   7.917  10.084  1.00  0.00     0.031 A 
BRANCH  47  61
ATOM     61  C   UNL     1     -18.160   3.682   6.200  1.00  0.00    -0.014 A 
ATOM     62  C   UNL     1     -18.958   2.610   6.637  1.00  0.00     0.010 A 
ATOM     63  C   UNL     1     -18.470   4.325   4.989  1.00  0.00     0.010 A 
ATOM     64  C   UNL     1     -20.029   2.167   5.860  1.00  0.00     0.020 A 
ATOM     65  C   UNL     1     -19.552   3.894   4.216  1.00  0.00     0.020 A 
ATOM     66  C   UNL     1     -20.318   2.810   4.652  1.00  0.00     0.054 A 
BRANCH  66  67
ATOM     67  S   UNL     1     -21.717   2.209   3.668  1.00  0.00     0.124 S 
ATOM     68  O   UNL     1     -21.259   0.879   3.272  1.00  0.00    -0.237 OA
ATOM     69  O   UNL     1     -22.815   2.234   4.630  1.00  0.00    -0.237 OA
ATOM     70  O   UNL     1     -21.820   3.178   2.580  1.00  0.00    -0.744 OA
ENDBRANCH  66  67
ENDBRANCH  47  61
BRANCH  48  71
ATOM     71  C   UNL     1     -10.201   6.464  11.543  1.00  0.00    -0.014 A 
ATOM     72  C   UNL     1     -10.175   6.192  12.922  1.00  0.00     0.010 A 
ATOM     73  C   UNL     1      -9.078   7.050  10.934  1.00  0.00     0.010 A 
ATOM     74  C   UNL     1      -9.038   6.489  13.678  1.00  0.00     0.020 A 
ATOM     75  C   UNL     1      -7.934   7.337  11.685  1.00  0.00     0.020 A 
ATOM     76  C   UNL     1      -7.920   7.051  13.052  1.00  0.00     0.054 A 
BRANCH  76  77
ATOM     77  S   UNL     1      -6.432   7.351  14.046  1.00  0.00     0.124 S 
ATOM     78  O   UNL     1      -6.889   8.371  14.984  1.00  0.00    -0.237 OA
ATOM     79  O   UNL     1      -6.174   6.032  14.620  1.00  0.00    -0.237 OA
ATOM     80  O   UNL     1      -5.447   7.800  13.064  1.00  0.00    -0.744 OA
ENDBRANCH  76  77
ENDBRANCH  48  71
BRANCH  60  81
ATOM     81  C   UNL     1     -16.603   9.114  10.649  1.00  0.00    -0.014 A 
ATOM     82  C   UNL     1     -16.429  10.384  10.076  1.00  0.00     0.010 A 
ATOM     83  C   UNL     1     -17.546   8.940  11.678  1.00  0.00     0.010 A 
ATOM     84  C   UNL     1     -17.198  11.464  10.518  1.00  0.00     0.020 A 
ATOM     85  C   UNL     1     -18.324  10.015  12.114  1.00  0.00     0.020 A 
ATOM     86  C   UNL     1     -18.147  11.270  11.527  1.00  0.00     0.054 A 
BRANCH  86  87
ATOM     87  S   UNL     1     -19.190  12.672  12.016  1.00  0.00     0.124 S 
ATOM     88  O   UNL     1     -18.218  13.582  12.615  1.00  0.00    -0.237 OA
ATOM     89  O   UNL     1     -19.754  13.105  10.741  1.00  0.00    -0.237 OA
ATOM     90  O   UNL     1     -20.148  12.084  12.950  1.00  0.00    -0.744 OA
ENDBRANCH  86  87
ENDBRANCH  60  81
ENDBRANCH  34  35
ENDBRANCH  26  29
ENDBRANCH  24  25
ENDBRANCH   1  24
TORSDOF 15
