REMARK SMILES O=C(NCCCCNC(=O)[C@@H]1CCCN(C(=O)[C@H]2CC=CCC2)C1)c1ccc(-c2c3nc(c(-c4ccc(S(=O)(=O)[O-])cc4)c4ccc([nH]4)c(-c4ccc(S(=O)(=O)[O-])cc4)c4nc(c(-c5ccc(S(=O)(=O)[O-])cc5)c5ccc2[nH]5)C=C4)C=C3)cc1
REMARK SMILES IDX 5 1 4 2 3 3 1 4 2 5 25 7 26 8 84 9 27 10 83 11 28 12 29 13
REMARK SMILES IDX 30 14 77 15 31 16 82 17 76 18 78 19 32 20 81 21 75 22 74 23
REMARK SMILES IDX 33 25 63 26 44 27 62 28 45 29 48 30 61 31 79 32 46 33 47 34
REMARK SMILES IDX 60 36 80 37 49 38 34 39 35 40 43 41 36 42 42 43 37 44 38 45
REMARK SMILES IDX 39 46 40 47 41 48 64 49 65 50 73 51 66 52 72 53 67 54 68 55
REMARK SMILES IDX 69 56 70 57 71 58 50 59 51 60 59 61 52 62 58 63 53 64 54 65
REMARK SMILES IDX 55 66 56 67 57 68 6 69 7 70 8 71 9 72 10 74 11 75 12 76
REMARK SMILES IDX 24 77 13 78 15 79 14 80 16 81 17 82 18 83 19 84 23 85 20 86
REMARK SMILES IDX 22 87 21 88
REMARK H PARENT 3 6 78 24 48 35 8 73
REMARK Flexibility Score: inf
ROOT
ATOM      1  C   UNL     1       4.886  -2.543  -0.048  1.00  0.00     0.023 C 
ENDROOT
BRANCH   1   2
ATOM      2  C   UNL     1       4.525  -1.078  -0.224  1.00  0.00     0.116 C 
BRANCH   2   3
ATOM      3  N   UNL     1       3.106  -0.855  -0.471  1.00  0.00    -0.352 N 
ATOM      4  O   UNL     1       1.124   0.213  -0.270  1.00  0.00    -0.269 OA
ATOM      5  C   UNL     1       2.328   0.206  -0.062  1.00  0.00     0.251 C 
ATOM      6  H   UNL     1       2.646  -1.549  -0.995  1.00  0.00     0.163 HD
BRANCH   5   7
ATOM      7  C   UNL     1       2.980   1.307   0.674  1.00  0.00     0.039 A 
ATOM      8  C   UNL     1       4.161   1.867   0.186  1.00  0.00     0.014 A 
ATOM      9  C   UNL     1       2.458   1.707   1.906  1.00  0.00     0.014 A 
ATOM     10  C   UNL     1       4.915   2.690   1.009  1.00  0.00     0.010 A 
ATOM     11  C   UNL     1       3.172   2.615   2.691  1.00  0.00     0.010 A 
ATOM     12  C   UNL     1       4.430   3.074   2.271  1.00  0.00    -0.014 A 
BRANCH  12  13
ATOM     13  C   UNL     1       5.257   3.972   3.114  1.00  0.00     0.031 A 
ATOM     14  C   UNL     1       5.810   3.510   4.436  1.00  0.00     0.074 A 
ATOM     15  C   UNL     1       5.556   5.199   2.643  1.00  0.00     0.049 A 
ATOM     16  N   UNL     1       6.588   4.154   5.269  1.00  0.00    -0.248 NA
ATOM     17  C   UNL     1       5.439   2.159   4.888  1.00  0.00     0.031 C 
ATOM     18  C   UNL     1       5.079   5.752   1.372  1.00  0.00     0.029 A 
ATOM     19  N   UNL     1       6.359   6.184   3.153  1.00  0.00    -0.354 N 
ATOM     20  C   UNL     1       6.768   3.307   6.357  1.00  0.00     0.074 A 
ATOM     21  C   UNL     1       6.010   2.105   6.084  1.00  0.00     0.031 C 
ATOM     22  C   UNL     1       5.655   6.944   1.168  1.00  0.00     0.029 A 
ATOM     23  C   UNL     1       6.485   7.271   2.321  1.00  0.00     0.049 A 
ATOM     24  H   UNL     1       6.802   6.121   4.030  1.00  0.00     0.167 HD
ATOM     25  C   UNL     1       7.496   3.515   7.482  1.00  0.00     0.031 A 
ATOM     26  C   UNL     1       7.185   8.410   2.469  1.00  0.00     0.031 A 
ATOM     27  C   UNL     1       8.264   4.706   7.737  1.00  0.00     0.049 A 
ATOM     28  C   UNL     1       7.992   8.609   3.717  1.00  0.00     0.074 A 
ATOM     29  C   UNL     1       9.057   5.002   8.833  1.00  0.00     0.029 A 
ATOM     30  N   UNL     1       8.340   5.798   6.884  1.00  0.00    -0.354 N 
ATOM     31  N   UNL     1       8.152   7.793   4.730  1.00  0.00    -0.248 NA
ATOM     32  C   UNL     1       8.710   9.883   3.841  1.00  0.00     0.031 C 
ATOM     33  C   UNL     1       9.582   6.288   8.660  1.00  0.00     0.029 A 
ATOM     34  C   UNL     1       9.154   6.774   7.434  1.00  0.00     0.049 A 
ATOM     35  H   UNL     1       7.882   5.868   6.015  1.00  0.00     0.167 HD
ATOM     36  C   UNL     1       9.006   8.448   5.608  1.00  0.00     0.074 A 
ATOM     37  C   UNL     1       9.340   9.719   4.996  1.00  0.00     0.031 C 
ATOM     38  C   UNL     1       9.470   8.034   6.813  1.00  0.00     0.031 A 
BRANCH  25  39
ATOM     39  C   UNL     1       7.464   2.446   8.542  1.00  0.00    -0.014 A 
ATOM     40  C   UNL     1       8.142   1.225   8.377  1.00  0.00     0.010 A 
ATOM     41  C   UNL     1       6.770   2.684   9.743  1.00  0.00     0.010 A 
ATOM     42  C   UNL     1       8.091   0.246   9.374  1.00  0.00     0.020 A 
ATOM     43  C   UNL     1       6.735   1.717  10.753  1.00  0.00     0.020 A 
ATOM     44  C   UNL     1       7.380   0.495  10.553  1.00  0.00     0.054 A 
BRANCH  44  45
ATOM     45  S   UNL     1       7.333  -0.787  11.836  1.00  0.00     0.124 S 
ATOM     46  O   UNL     1       6.375  -1.736  11.274  1.00  0.00    -0.237 OA
ATOM     47  O   UNL     1       8.718  -1.248  11.884  1.00  0.00    -0.237 OA
ATOM     48  O   UNL     1       6.877  -0.071  13.025  1.00  0.00    -0.744 OA
ENDBRANCH  44  45
ENDBRANCH  25  39
BRANCH  26  49
ATOM     49  C   UNL     1       7.148   9.438   1.396  1.00  0.00    -0.014 A 
ATOM     50  C   UNL     1       8.273   9.661   0.584  1.00  0.00     0.010 A 
ATOM     51  C   UNL     1       5.969  10.165   1.151  1.00  0.00     0.010 A 
ATOM     52  C   UNL     1       8.221  10.600  -0.451  1.00  0.00     0.020 A 
ATOM     53  C   UNL     1       5.905  11.083   0.101  1.00  0.00     0.020 A 
ATOM     54  C   UNL     1       7.036  11.302  -0.687  1.00  0.00     0.054 A 
BRANCH  54  55
ATOM     55  S   UNL     1       6.965  12.464  -2.079  1.00  0.00     0.124 S 
ATOM     56  O   UNL     1       7.674  13.621  -1.542  1.00  0.00    -0.237 OA
ATOM     57  O   UNL     1       7.655  11.733  -3.139  1.00  0.00    -0.237 OA
ATOM     58  O   UNL     1       5.532  12.649  -2.294  1.00  0.00    -0.744 OA
ENDBRANCH  54  55
ENDBRANCH  26  49
BRANCH  38  59
ATOM     59  C   UNL     1      10.417   8.957   7.527  1.00  0.00    -0.014 A 
ATOM     60  C   UNL     1       9.960  10.135   8.144  1.00  0.00     0.010 A 
ATOM     61  C   UNL     1      11.783   8.629   7.596  1.00  0.00     0.010 A 
ATOM     62  C   UNL     1      10.860  10.991   8.783  1.00  0.00     0.020 A 
ATOM     63  C   UNL     1      12.682   9.470   8.254  1.00  0.00     0.020 A 
ATOM     64  C   UNL     1      12.218  10.656   8.827  1.00  0.00     0.054 A 
BRANCH  64  65
ATOM     65  S   UNL     1      13.369  11.771   9.677  1.00  0.00     0.124 S 
ATOM     66  O   UNL     1      13.547  12.831   8.689  1.00  0.00    -0.237 OA
ATOM     67  O   UNL     1      12.627  12.148  10.877  1.00  0.00    -0.237 OA
ATOM     68  O   UNL     1      14.544  10.936   9.915  1.00  0.00    -0.744 OA
ENDBRANCH  64  65
ENDBRANCH  38  59
ENDBRANCH  12  13
ENDBRANCH   5   7
ENDBRANCH   2   3
ENDBRANCH   1   2
BRANCH   1  69
ATOM     69  C   UNL     1       4.474  -3.445  -1.212  1.00  0.00     0.023 C 
BRANCH  69  70
ATOM     70  C   UNL     1       5.164  -3.131  -2.540  1.00  0.00     0.116 C 
BRANCH  70  71
ATOM     71  N   UNL     1       6.540  -3.578  -2.546  1.00  0.00    -0.356 N 
ATOM     72  C   UNL     1       7.177  -4.681  -3.009  1.00  0.00     0.224 C 
ATOM     73  H   UNL     1       7.152  -2.937  -2.118  1.00  0.00     0.163 HD
ATOM     74  O   UNL     1       8.401  -4.671  -2.830  1.00  0.00    -0.275 OA
BRANCH  72  75
ATOM     75  C   UNL     1       6.519  -5.808  -3.826  1.00  0.00     0.098 C 
ATOM     76  C   UNL     1       5.083  -6.241  -3.515  1.00  0.00     0.017 C 
ATOM     77  C   UNL     1       7.419  -7.074  -3.742  1.00  0.00     0.133 C 
ATOM     78  C   UNL     1       4.982  -6.927  -2.163  1.00  0.00     0.022 C 
ATOM     79  N   UNL     1       7.262  -7.774  -2.455  1.00  0.00    -0.342 N 
ATOM     80  C   UNL     1       5.901  -8.127  -2.102  1.00  0.00     0.119 C 
BRANCH  79  81
ATOM     81  C   UNL     1       8.390  -8.244  -1.803  1.00  0.00     0.226 C 
ATOM     82  O   UNL     1       9.458  -8.377  -2.412  1.00  0.00    -0.275 OA
BRANCH  81  83
ATOM     83  C   UNL     1       8.362  -8.562  -0.294  1.00  0.00     0.083 C 
ATOM     84  C   UNL     1       7.987  -7.345   0.564  1.00  0.00     0.040 C 
ATOM     85  C   UNL     1       7.745  -9.912   0.104  1.00  0.00     0.018 C 
ATOM     86  C   UNL     1       6.761  -7.482   1.409  1.00  0.00    -0.030 C 
ATOM     87  C   UNL     1       6.415  -9.900   0.870  1.00  0.00     0.028 C 
ATOM     88  C   UNL     1       6.064  -8.615   1.546  1.00  0.00    -0.031 C 
ENDBRANCH  81  83
ENDBRANCH  79  81
ENDBRANCH  72  75
ENDBRANCH  70  71
ENDBRANCH  69  70
ENDBRANCH   1  69
TORSDOF 16
