REMARK SMILES Cn1ccc(-c2n[nH]c(=O)n2-c2ccc(C(=O)NCCCCNC(=O)c3ccc(-c4c5nc(c(-c6ccc(S(=O)(=O)[O-])cc6)c6ccc([nH]6)c(-c6ccc(S(=O)(=O)[O-])cc6)c6nc(c(-c7ccc(S(=O)(=O)[O-])cc7)c7ccc4[nH]7)C=C6)C=C5)cc3)cc2)n1
REMARK SMILES IDX 21 1 20 2 19 3 18 4 16 5 17 6 15 8 12 9 13 10 87 11 14 12
REMARK SMILES IDX 86 13 11 14 6 15 7 16 8 17 9 18 10 20 5 21 1 22 2 23 3 24
REMARK SMILES IDX 88 25 4 26 22 27 23 28 24 29 25 31 26 32 27 33 85 34 28 35
REMARK SMILES IDX 84 36 29 37 30 38 31 39 78 40 32 41 83 42 77 43 79 44 33 45
REMARK SMILES IDX 82 46 76 47 75 48 34 50 64 51 45 52 63 53 46 54 49 55 62 56
REMARK SMILES IDX 80 57 47 58 48 59 61 61 81 62 50 63 35 64 36 65 44 66 37 67
REMARK SMILES IDX 43 68 38 69 39 70 40 71 41 72 42 73 65 74 66 75 74 76 67 77
REMARK SMILES IDX 73 78 68 79 69 80 70 81 71 82 72 83 51 84 52 85 60 86 53 87
REMARK SMILES IDX 59 88 54 89 55 90 56 91 57 92 58 93
REMARK H PARENT 18 7 8 19 23 30 79 49 49 60
REMARK Flexibility Score: inf
ROOT
ATOM      1  C   UNL     1       1.132   0.651   8.855  1.00  0.00     0.023 C 
ENDROOT
BRANCH   1   2
ATOM      2  C   UNL     1       1.270   0.618   7.325  1.00  0.00     0.023 C 
BRANCH   2   3
ATOM      3  C   UNL     1       0.025   1.073   6.547  1.00  0.00     0.116 C 
BRANCH   3   4
ATOM      4  N   UNL     1      -0.101   2.518   6.570  1.00  0.00    -0.352 N 
ATOM      5  C   UNL     1       0.333   3.515   5.730  1.00  0.00     0.251 C 
ATOM      6  O   UNL     1       0.112   4.676   6.078  1.00  0.00    -0.269 OA
ATOM      7  H   UNL     1      -0.602   2.854   7.348  1.00  0.00     0.163 HD
BRANCH   5   8
ATOM      8  C   UNL     1       1.012   3.274   4.422  1.00  0.00     0.039 A 
ATOM      9  C   UNL     1       2.119   2.931   1.849  1.00  0.00     0.052 A 
ATOM     10  C   UNL     1       1.559   4.156   2.205  1.00  0.00     0.028 A 
ATOM     11  C   UNL     1       2.193   1.911   2.801  1.00  0.00     0.028 A 
ATOM     12  C   UNL     1       0.980   4.312   3.472  1.00  0.00     0.016 A 
ATOM     13  C   UNL     1       1.689   2.103   4.088  1.00  0.00     0.016 A 
BRANCH   9  14
ATOM     14  N   UNL     1       2.683   2.721   0.584  1.00  0.00    -0.242 N 
ATOM     15  C   UNL     1       2.563   1.625  -0.220  1.00  0.00     0.189 A 
ATOM     16  N   UNL     1       3.488   1.510  -1.136  1.00  0.00    -0.150 NA
ATOM     17  N   UNL     1       4.260   2.627  -0.952  1.00  0.00    -0.226 N 
ATOM     18  C   UNL     1       3.784   3.394   0.114  1.00  0.00     0.348 A 
ATOM     19  H   UNL     1       5.045   2.858  -1.499  1.00  0.00     0.195 HD
ATOM     20  O   UNL     1       4.342   4.389   0.553  1.00  0.00    -0.246 OA
BRANCH  15  21
ATOM     21  C   UNL     1       1.464   0.680  -0.118  1.00  0.00     0.130 A 
ATOM     22  C   UNL     1      -1.980   0.043   0.027  1.00  0.00     0.173 C 
ATOM     23  N   UNL     1      -0.537  -0.036   0.007  1.00  0.00    -0.275 N 
ATOM     24  C   UNL     1       0.222  -1.164  -0.097  1.00  0.00     0.109 A 
ATOM     25  N   UNL     1       0.194   1.092   0.048  1.00  0.00    -0.170 NA
ATOM     26  C   UNL     1       1.522  -0.734  -0.215  1.00  0.00     0.054 A 
ENDBRANCH  15  21
ENDBRANCH   9  14
ENDBRANCH   5   8
ENDBRANCH   3   4
ENDBRANCH   2   3
ENDBRANCH   1   2
BRANCH   1  27
ATOM     27  C   UNL     1       0.178  -0.390   9.426  1.00  0.00     0.116 C 
BRANCH  27  28
ATOM     28  N   UNL     1       0.600  -1.772   9.156  1.00  0.00    -0.352 N 
ATOM     29  C   UNL     1      -0.129  -2.945   9.330  1.00  0.00     0.251 C 
ATOM     30  H   UNL     1       1.514  -1.882   8.807  1.00  0.00     0.163 HD
ATOM     31  O   UNL     1       0.421  -4.025   9.444  1.00  0.00    -0.269 OA
BRANCH  29  32
ATOM     32  C   UNL     1      -1.598  -2.835   9.326  1.00  0.00     0.039 A 
ATOM     33  C   UNL     1      -2.435  -3.532  10.204  1.00  0.00     0.014 A 
ATOM     34  C   UNL     1      -2.115  -1.923   8.419  1.00  0.00     0.014 A 
ATOM     35  C   UNL     1      -3.801  -3.245  10.185  1.00  0.00     0.010 A 
ATOM     36  C   UNL     1      -3.374  -1.448   8.607  1.00  0.00     0.010 A 
ATOM     37  C   UNL     1      -4.253  -2.194   9.376  1.00  0.00    -0.014 A 
BRANCH  37  38
ATOM     38  C   UNL     1      -5.645  -1.794   9.263  1.00  0.00     0.031 A 
ATOM     39  C   UNL     1      -6.232  -1.186  10.486  1.00  0.00     0.074 A 
ATOM     40  C   UNL     1      -6.211  -1.681   8.037  1.00  0.00     0.049 A 
ATOM     41  N   UNL     1      -7.198  -1.643  11.207  1.00  0.00    -0.248 NA
ATOM     42  C   UNL     1      -5.583   0.008  11.057  1.00  0.00     0.031 C 
ATOM     43  C   UNL     1      -5.592  -1.882   6.713  1.00  0.00     0.029 A 
ATOM     44  N   UNL     1      -7.430  -1.198   7.704  1.00  0.00    -0.354 N 
ATOM     45  C   UNL     1      -7.419  -0.701  12.210  1.00  0.00     0.074 A 
ATOM     46  C   UNL     1      -6.285   0.188  12.178  1.00  0.00     0.031 C 
ATOM     47  C   UNL     1      -6.337  -1.272   5.764  1.00  0.00     0.029 A 
ATOM     48  C   UNL     1      -7.565  -0.805   6.377  1.00  0.00     0.049 A 
ATOM     49  H   UNL     1      -8.167  -1.129   8.354  1.00  0.00     0.167 HD
ATOM     50  C   UNL     1      -8.621  -0.597  12.845  1.00  0.00     0.031 A 
ATOM     51  C   UNL     1      -8.597  -0.100   5.844  1.00  0.00     0.031 A 
ATOM     52  C   UNL     1      -9.486  -1.698  12.502  1.00  0.00     0.049 A 
ATOM     53  C   UNL     1      -9.729  -0.230   6.801  1.00  0.00     0.074 A 
ATOM     54  C   UNL     1      -9.435  -3.063  12.693  1.00  0.00     0.029 A 
ATOM     55  N   UNL     1     -10.381  -1.486  11.478  1.00  0.00    -0.354 N 
ATOM     56  N   UNL     1     -10.296  -1.373   7.082  1.00  0.00    -0.248 NA
ATOM     57  C   UNL     1      -9.876   0.803   7.816  1.00  0.00     0.031 C 
ATOM     58  C   UNL     1      -9.902  -3.615  11.464  1.00  0.00     0.029 A 
ATOM     59  C   UNL     1     -10.300  -2.563  10.633  1.00  0.00     0.049 A 
ATOM     60  H   UNL     1     -10.971  -0.704  11.372  1.00  0.00     0.167 HD
ATOM     61  C   UNL     1     -10.492  -1.348   8.458  1.00  0.00     0.074 A 
ATOM     62  C   UNL     1     -10.286   0.050   8.842  1.00  0.00     0.031 C 
ATOM     63  C   UNL     1     -10.507  -2.497   9.199  1.00  0.00     0.031 A 
BRANCH  50  64
ATOM     64  C   UNL     1      -9.166   0.657  13.479  1.00  0.00    -0.014 A 
ATOM     65  C   UNL     1     -10.400   0.583  14.160  1.00  0.00     0.010 A 
ATOM     66  C   UNL     1      -8.657   1.944  13.218  1.00  0.00     0.010 A 
ATOM     67  C   UNL     1     -11.123   1.737  14.489  1.00  0.00     0.020 A 
ATOM     68  C   UNL     1      -9.351   3.103  13.580  1.00  0.00     0.020 A 
ATOM     69  C   UNL     1     -10.598   2.990  14.180  1.00  0.00     0.054 A 
BRANCH  69  70
ATOM     70  S   UNL     1     -11.594   4.466  14.501  1.00  0.00     0.124 S 
ATOM     71  O   UNL     1     -12.714   4.279  13.582  1.00  0.00    -0.237 OA
ATOM     72  O   UNL     1     -11.908   4.326  15.920  1.00  0.00    -0.237 OA
ATOM     73  O   UNL     1     -10.691   5.567  14.172  1.00  0.00    -0.744 OA
ENDBRANCH  69  70
ENDBRANCH  50  64
BRANCH  51  74
ATOM     74  C   UNL     1      -8.527   0.966   4.805  1.00  0.00    -0.014 A 
ATOM     75  C   UNL     1      -9.683   1.441   4.156  1.00  0.00     0.010 A 
ATOM     76  C   UNL     1      -7.343   1.720   4.655  1.00  0.00     0.010 A 
ATOM     77  C   UNL     1      -9.668   2.653   3.437  1.00  0.00     0.020 A 
ATOM     78  C   UNL     1      -7.320   2.925   3.940  1.00  0.00     0.020 A 
ATOM     79  C   UNL     1      -8.490   3.400   3.353  1.00  0.00     0.054 A 
BRANCH  79  80
ATOM     80  S   UNL     1      -8.520   5.051   2.587  1.00  0.00     0.124 S 
ATOM     81  O   UNL     1      -8.698   4.733   1.173  1.00  0.00    -0.237 OA
ATOM     82  O   UNL     1      -9.661   5.684   3.241  1.00  0.00    -0.237 OA
ATOM     83  O   UNL     1      -7.217   5.614   2.936  1.00  0.00    -0.744 OA
ENDBRANCH  79  80
ENDBRANCH  51  74
BRANCH  63  84
ATOM     84  C   UNL     1     -10.520  -3.829   8.478  1.00  0.00    -0.014 A 
ATOM     85  C   UNL     1      -9.462  -4.303   7.675  1.00  0.00     0.010 A 
ATOM     86  C   UNL     1     -11.560  -4.718   8.800  1.00  0.00     0.010 A 
ATOM     87  C   UNL     1      -9.455  -5.626   7.200  1.00  0.00     0.020 A 
ATOM     88  C   UNL     1     -11.551  -6.038   8.346  1.00  0.00     0.020 A 
ATOM     89  C   UNL     1     -10.502  -6.486   7.542  1.00  0.00     0.054 A 
BRANCH  89  90
ATOM     90  S   UNL     1     -10.470  -8.213   6.979  1.00  0.00     0.124 S 
ATOM     91  O   UNL     1     -10.684  -8.080   5.541  1.00  0.00    -0.237 OA
ATOM     92  O   UNL     1      -9.137  -8.661   7.378  1.00  0.00    -0.237 OA
ATOM     93  O   UNL     1     -11.569  -8.839   7.713  1.00  0.00    -0.744 OA
ENDBRANCH  89  90
ENDBRANCH  63  84
ENDBRANCH  37  38
ENDBRANCH  29  32
ENDBRANCH  27  28
ENDBRANCH   1  27
TORSDOF 16
