REMARK SMILES CN(C)c1oc(/C=N/c2ccc(O)c(C(=O)NCCCCNC(=O)c3ccc(-c4c5nc(c(-c6ccc(S(=O)(=O)[O-])cc6)c6ccc([nH]6)c(-c6ccc(S(=O)(=O)[O-])cc6)c6nc(c(-c7ccc(S(=O)(=O)[O-])cc7)c7ccc4[nH]7)C=C6)C=C5)cc3)c2)cc1Br
REMARK SMILES IDX 19 1 18 2 17 3 15 4 16 5 14 7 9 8 10 9 85 10 11 11 12 12
REMARK SMILES IDX 8 13 7 14 6 15 4 16 5 17 87 18 86 19 88 20 2 21 1 22 3 23
REMARK SMILES IDX 13 24 20 26 21 27 22 28 23 29 24 31 25 32 26 33 84 34 27 35
REMARK SMILES IDX 83 36 28 37 29 38 30 39 77 40 31 41 82 42 76 43 78 44 32 45
REMARK SMILES IDX 81 46 75 47 74 48 33 50 63 51 44 52 62 53 45 54 48 55 61 56
REMARK SMILES IDX 79 57 46 58 47 59 60 61 80 62 49 63 34 64 35 65 43 66 36 67
REMARK SMILES IDX 42 68 37 69 38 70 39 71 40 72 41 73 64 74 65 75 73 76 66 77
REMARK SMILES IDX 72 78 67 79 68 80 69 81 70 82 71 83 50 84 51 85 59 86 52 87
REMARK SMILES IDX 58 88 53 89 54 90 55 91 56 92 57 93
REMARK H PARENT 17 6 13 25 22 30 78 49 48 60
REMARK Flexibility Score: inf
ROOT
ATOM      1  C   UNL     1      -0.122 -12.469   7.181  1.00  0.00     0.023 C 
ENDROOT
BRANCH   1   2
ATOM      2  C   UNL     1      -0.208 -11.114   7.891  1.00  0.00     0.116 C 
BRANCH   2   3
ATOM      3  N   UNL     1       1.021 -10.373   7.715  1.00  0.00    -0.352 N 
ATOM      4  C   UNL     1       1.411  -9.417   6.817  1.00  0.00     0.255 C 
ATOM      5  O   UNL     1       2.574  -9.018   6.939  1.00  0.00    -0.269 OA
ATOM      6  H   UNL     1       1.716 -10.603   8.373  1.00  0.00     0.163 HD
BRANCH   4   7
ATOM      7  C   UNL     1       0.553  -8.778   5.766  1.00  0.00     0.083 A 
ATOM      8  C   UNL     1       0.383  -6.775   4.341  1.00  0.00     0.064 A 
ATOM      9  C   UNL     1      -0.718  -7.329   3.694  1.00  0.00     0.032 A 
ATOM     10  C   UNL     1       0.987  -7.491   5.378  1.00  0.00     0.046 A 
ATOM     11  C   UNL     1      -1.176  -8.594   4.055  1.00  0.00     0.049 A 
ATOM     12  C   UNL     1      -0.521  -9.328   5.055  1.00  0.00     0.128 A 
BRANCH   8  13
ATOM     13  N   UNL     1       1.028  -5.633   3.860  1.00  0.00    -0.253 NA
ATOM     14  C   UNL     1       0.361  -4.552   3.631  1.00  0.00     0.158 C 
BRANCH  14  15
ATOM     15  C   UNL     1       1.036  -3.457   2.995  1.00  0.00     0.149 A 
ATOM     16  C   UNL     1       1.152  -1.536   1.916  1.00  0.00     0.210 A 
ATOM     17  O   UNL     1       0.321  -2.347   2.646  1.00  0.00    -0.438 OA
ATOM     18  C   UNL     1       2.405  -2.112   1.872  1.00  0.00     0.082 A 
ATOM     19  C   UNL     1       2.344  -3.327   2.577  1.00  0.00     0.070 A 
ATOM     20  Br  UNL     1       3.986  -1.485   1.083  1.00  0.00    -0.045 Br
BRANCH  16  21
ATOM     21  N   UNL     1       0.595  -0.424   1.379  1.00  0.00    -0.348 N 
ATOM     22  C   UNL     1       0.980   0.030   0.057  1.00  0.00     0.146 C 
ATOM     23  C   UNL     1      -0.472   0.261   2.083  1.00  0.00     0.146 C 
ENDBRANCH  16  21
ENDBRANCH  14  15
ENDBRANCH   8  13
BRANCH  12  24
ATOM     24  O   UNL     1      -0.935 -10.614   5.227  1.00  0.00    -0.507 OA
ATOM     25  H   UNL     1      -1.659 -10.943   4.731  1.00  0.00     0.293 HD
ENDBRANCH  12  24
ENDBRANCH   4   7
ENDBRANCH   2   3
ENDBRANCH   1   2
BRANCH   1  26
ATOM     26  C   UNL     1       0.554 -13.576   7.992  1.00  0.00     0.023 C 
BRANCH  26  27
ATOM     27  C   UNL     1      -0.204 -14.014   9.241  1.00  0.00     0.116 C 
BRANCH  27  28
ATOM     28  N   UNL     1      -1.560 -14.470   8.965  1.00  0.00    -0.352 N 
ATOM     29  C   UNL     1      -2.282 -15.453   9.600  1.00  0.00     0.251 C 
ATOM     30  H   UNL     1      -2.021 -14.013   8.225  1.00  0.00     0.163 HD
ATOM     31  O   UNL     1      -3.388 -15.775   9.186  1.00  0.00    -0.269 OA
BRANCH  29  32
ATOM     32  C   UNL     1      -1.681 -16.148  10.758  1.00  0.00     0.039 A 
ATOM     33  C   UNL     1      -1.630 -17.544  10.748  1.00  0.00     0.014 A 
ATOM     34  C   UNL     1      -1.116 -15.424  11.810  1.00  0.00     0.014 A 
ATOM     35  C   UNL     1      -0.929 -18.212  11.753  1.00  0.00     0.010 A 
ATOM     36  C   UNL     1      -0.368 -16.088  12.778  1.00  0.00     0.010 A 
ATOM     37  C   UNL     1      -0.251 -17.486  12.746  1.00  0.00    -0.014 A 
BRANCH  37  38
ATOM     38  C   UNL     1       0.636 -18.166  13.722  1.00  0.00     0.031 A 
ATOM     39  C   UNL     1       0.303 -18.161  15.187  1.00  0.00     0.074 A 
ATOM     40  C   UNL     1       1.788 -18.718  13.288  1.00  0.00     0.049 A 
ATOM     41  N   UNL     1       0.993 -18.646  16.186  1.00  0.00    -0.248 NA
ATOM     42  C   UNL     1      -0.955 -17.508  15.584  1.00  0.00     0.031 C 
ATOM     43  C   UNL     1       2.246 -18.743  11.895  1.00  0.00     0.029 A 
ATOM     44  N   UNL     1       2.790 -19.354  13.976  1.00  0.00    -0.354 N 
ATOM     45  C   UNL     1       0.265 -18.345  17.330  1.00  0.00     0.074 A 
ATOM     46  C   UNL     1      -0.903 -17.604  16.905  1.00  0.00     0.031 C 
ATOM     47  C   UNL     1       3.426 -19.380  11.831  1.00  0.00     0.029 A 
ATOM     48  C   UNL     1       3.828 -19.775  13.176  1.00  0.00     0.049 A 
ATOM     49  H   UNL     1       2.769 -19.496  14.950  1.00  0.00     0.167 HD
ATOM     50  C   UNL     1       0.539 -18.668  18.616  1.00  0.00     0.031 A 
ATOM     51  C   UNL     1       4.979 -20.400  13.492  1.00  0.00     0.031 A 
ATOM     52  C   UNL     1       1.692 -19.421  19.034  1.00  0.00     0.049 A 
ATOM     53  C   UNL     1       5.259 -20.738  14.929  1.00  0.00     0.074 A 
ATOM     54  C   UNL     1       2.013 -19.866  20.304  1.00  0.00     0.029 A 
ATOM     55  N   UNL     1       2.715 -19.834  18.195  1.00  0.00    -0.354 N 
ATOM     56  N   UNL     1       4.516 -20.517  15.987  1.00  0.00    -0.248 NA
ATOM     57  C   UNL     1       6.533 -21.414  15.215  1.00  0.00     0.031 C 
ATOM     58  C   UNL     1       3.254 -20.508  20.242  1.00  0.00     0.029 A 
ATOM     59  C   UNL     1       3.683 -20.502  18.925  1.00  0.00     0.049 A 
ATOM     60  H   UNL     1       2.748 -19.676  17.224  1.00  0.00     0.167 HD
ATOM     61  C   UNL     1       5.224 -21.044  17.061  1.00  0.00     0.074 A 
ATOM     62  C   UNL     1       6.444 -21.610  16.523  1.00  0.00     0.031 C 
ATOM     63  C   UNL     1       4.894 -21.055  18.375  1.00  0.00     0.031 A 
BRANCH  50  64
ATOM     64  C   UNL     1      -0.427 -18.210  19.674  1.00  0.00    -0.014 A 
ATOM     65  C   UNL     1      -1.685 -18.823  19.820  1.00  0.00     0.010 A 
ATOM     66  C   UNL     1      -0.046 -17.202  20.579  1.00  0.00     0.010 A 
ATOM     67  C   UNL     1      -2.554 -18.418  20.835  1.00  0.00     0.020 A 
ATOM     68  C   UNL     1      -0.905 -16.810  21.610  1.00  0.00     0.020 A 
ATOM     69  C   UNL     1      -2.159 -17.413  21.724  1.00  0.00     0.054 A 
BRANCH  69  70
ATOM     70  S   UNL     1      -3.291 -16.940  23.060  1.00  0.00     0.124 S 
ATOM     71  O   UNL     1      -4.302 -16.171  22.340  1.00  0.00    -0.237 OA
ATOM     72  O   UNL     1      -3.736 -18.232  23.577  1.00  0.00    -0.237 OA
ATOM     73  O   UNL     1      -2.449 -16.166  23.969  1.00  0.00    -0.744 OA
ENDBRANCH  69  70
ENDBRANCH  50  64
BRANCH  51  74
ATOM     74  C   UNL     1       5.957 -20.750  12.427  1.00  0.00    -0.014 A 
ATOM     75  C   UNL     1       6.149 -22.092  12.053  1.00  0.00     0.010 A 
ATOM     76  C   UNL     1       6.709 -19.747  11.790  1.00  0.00     0.010 A 
ATOM     77  C   UNL     1       7.096 -22.427  11.081  1.00  0.00     0.020 A 
ATOM     78  C   UNL     1       7.639 -20.076  10.800  1.00  0.00     0.020 A 
ATOM     79  C   UNL     1       7.838 -21.416  10.463  1.00  0.00     0.054 A 
BRANCH  79  80
ATOM     80  S   UNL     1       9.040 -21.869   9.182  1.00  0.00     0.124 S 
ATOM     81  O   UNL     1      10.155 -22.372   9.977  1.00  0.00    -0.237 OA
ATOM     82  O   UNL     1       8.315 -22.870   8.403  1.00  0.00    -0.237 OA
ATOM     83  O   UNL     1       9.285 -20.608   8.485  1.00  0.00    -0.744 OA
ENDBRANCH  79  80
ENDBRANCH  51  74
BRANCH  63  84
ATOM     84  C   UNL     1       5.857 -21.716  19.322  1.00  0.00    -0.014 A 
ATOM     85  C   UNL     1       7.066 -21.091  19.674  1.00  0.00     0.010 A 
ATOM     86  C   UNL     1       5.527 -22.953  19.903  1.00  0.00     0.010 A 
ATOM     87  C   UNL     1       7.942 -21.706  20.573  1.00  0.00     0.020 A 
ATOM     88  C   UNL     1       6.388 -23.560  20.820  1.00  0.00     0.020 A 
ATOM     89  C   UNL     1       7.598 -22.938  21.139  1.00  0.00     0.054 A 
BRANCH  89  90
ATOM     90  S   UNL     1       8.729 -23.696  22.337  1.00  0.00     0.124 S 
ATOM     91  O   UNL     1       9.779 -24.224  21.472  1.00  0.00    -0.237 OA
ATOM     92  O   UNL     1       9.115 -22.564  23.177  1.00  0.00    -0.237 OA
ATOM     93  O   UNL     1       7.903 -24.702  23.002  1.00  0.00    -0.744 OA
ENDBRANCH  89  90
ENDBRANCH  63  84
ENDBRANCH  37  38
ENDBRANCH  29  32
ENDBRANCH  27  28
ENDBRANCH  26  27
ENDBRANCH   1  26
TORSDOF 18
