REMARK SMILES O=C(NCCCCNC(=O)[C@@H]1[C@H](C(=O)NCc2ccncc2)[C@H]2C=C[C@@H]1O2)c1ccc(-c2c3nc(c(-c4ccc(S(=O)(=O)[O-])cc4)c4ccc([nH]4)c(-c4ccc(S(=O)(=O)[O-])cc4)c4nc(c(-c5ccc(S(=O)(=O)[O-])cc5)c5ccc2[nH]5)C=C4)C=C3)cc1
REMARK SMILES IDX 5 1 4 2 3 3 1 4 2 5 28 7 29 8 87 9 30 10 86 11 31 12 32 13
REMARK SMILES IDX 33 14 80 15 34 16 85 17 79 18 81 19 35 20 84 21 78 22 77 23
REMARK SMILES IDX 36 25 66 26 47 27 65 28 48 29 51 30 64 31 82 32 49 33 50 34
REMARK SMILES IDX 63 36 83 37 52 38 37 39 38 40 46 41 39 42 45 43 40 44 41 45
REMARK SMILES IDX 42 46 43 47 44 48 67 49 68 50 76 51 69 52 75 53 70 54 71 55
REMARK SMILES IDX 72 56 73 57 74 58 53 59 54 60 62 61 55 62 61 63 56 64 57 65
REMARK SMILES IDX 58 66 59 67 60 68 6 69 7 70 8 71 9 72 10 74 11 75 12 76
REMARK SMILES IDX 26 77 23 78 25 79 27 80 24 81 13 82 14 83 15 84 16 86 17 87
REMARK SMILES IDX 18 88 22 89 19 90 21 91 20 92
REMARK H PARENT 3 6 81 24 51 35 8 73 15 85
REMARK Flexibility Score: inf
ROOT
ATOM      1  C   UNL     1       4.614  -2.216   0.199  1.00  0.00     0.023 C 
ENDROOT
BRANCH   1   2
ATOM      2  C   UNL     1       4.298  -1.004  -0.654  1.00  0.00     0.116 C 
BRANCH   2   3
ATOM      3  N   UNL     1       2.864  -0.756  -0.744  1.00  0.00    -0.352 N 
ATOM      4  O   UNL     1       0.913   0.278  -0.296  1.00  0.00    -0.269 OA
ATOM      5  C   UNL     1       2.132   0.332  -0.324  1.00  0.00     0.251 C 
ATOM      6  H   UNL     1       2.341  -1.474  -1.168  1.00  0.00     0.163 HD
BRANCH   5   7
ATOM      7  C   UNL     1       2.843   1.555   0.104  1.00  0.00     0.039 A 
ATOM      8  C   UNL     1       3.961   1.991  -0.605  1.00  0.00     0.014 A 
ATOM      9  C   UNL     1       2.396   2.262   1.223  1.00  0.00     0.014 A 
ATOM     10  C   UNL     1       4.740   3.014  -0.094  1.00  0.00     0.010 A 
ATOM     11  C   UNL     1       3.111   3.380   1.660  1.00  0.00     0.010 A 
ATOM     12  C   UNL     1       4.303   3.747   1.020  1.00  0.00    -0.014 A 
BRANCH  12  13
ATOM     13  C   UNL     1       5.076   4.948   1.417  1.00  0.00     0.031 A 
ATOM     14  C   UNL     1       5.734   5.047   2.762  1.00  0.00     0.074 A 
ATOM     15  C   UNL     1       5.215   5.934   0.508  1.00  0.00     0.049 A 
ATOM     16  N   UNL     1       6.467   6.018   3.244  1.00  0.00    -0.248 NA
ATOM     17  C   UNL     1       5.541   3.923   3.691  1.00  0.00     0.031 C 
ATOM     18  C   UNL     1       4.617   5.932  -0.833  1.00  0.00     0.029 A 
ATOM     19  N   UNL     1       5.932   7.099   0.544  1.00  0.00    -0.354 N 
ATOM     20  C   UNL     1       6.789   5.644   4.543  1.00  0.00     0.074 A 
ATOM     21  C   UNL     1       6.165   4.359   4.777  1.00  0.00     0.031 C 
ATOM     22  C   UNL     1       5.066   6.990  -1.518  1.00  0.00     0.029 A 
ATOM     23  C   UNL     1       5.901   7.796  -0.640  1.00  0.00     0.049 A 
ATOM     24  H   UNL     1       6.422   7.408   1.341  1.00  0.00     0.167 HD
ATOM     25  C   UNL     1       7.530   6.319   5.455  1.00  0.00     0.031 A 
ATOM     26  C   UNL     1       6.466   8.968  -0.982  1.00  0.00     0.031 A 
ATOM     27  C   UNL     1       8.145   7.597   5.201  1.00  0.00     0.049 A 
ATOM     28  C   UNL     1       7.271   9.698   0.048  1.00  0.00     0.074 A 
ATOM     29  C   UNL     1       8.928   8.363   6.048  1.00  0.00     0.029 A 
ATOM     30  N   UNL     1       8.046   8.300   4.007  1.00  0.00    -0.354 N 
ATOM     31  N   UNL     1       7.557   9.331   1.274  1.00  0.00    -0.248 NA
ATOM     32  C   UNL     1       7.816  11.001  -0.344  1.00  0.00     0.031 C 
ATOM     33  C   UNL     1       9.262   9.548   5.382  1.00  0.00     0.029 A 
ATOM     34  C   UNL     1       8.734   9.498   4.101  1.00  0.00     0.049 A 
ATOM     35  H   UNL     1       7.557   7.991   3.210  1.00  0.00     0.167 HD
ATOM     36  C   UNL     1       8.325  10.359   1.803  1.00  0.00     0.074 A 
ATOM     37  C   UNL     1       8.475  11.349   0.753  1.00  0.00     0.031 C 
ATOM     38  C   UNL     1       8.855  10.473   3.046  1.00  0.00     0.031 A 
BRANCH  25  39
ATOM     39  C   UNL     1       7.665   5.710   6.828  1.00  0.00    -0.014 A 
ATOM     40  C   UNL     1       8.443   4.560   7.052  1.00  0.00     0.010 A 
ATOM     41  C   UNL     1       7.002   6.307   7.917  1.00  0.00     0.010 A 
ATOM     42  C   UNL     1       8.509   3.986   8.326  1.00  0.00     0.020 A 
ATOM     43  C   UNL     1       7.086   5.751   9.197  1.00  0.00     0.020 A 
ATOM     44  C   UNL     1       7.819   4.579   9.389  1.00  0.00     0.054 A 
BRANCH  44  45
ATOM     45  S   UNL     1       7.903   3.806  11.028  1.00  0.00     0.124 S 
ATOM     46  O   UNL     1       7.014   2.658  10.863  1.00  0.00    -0.237 OA
ATOM     47  O   UNL     1       9.321   3.486  11.163  1.00  0.00    -0.237 OA
ATOM     48  O   UNL     1       7.414   4.847  11.928  1.00  0.00    -0.744 OA
ENDBRANCH  44  45
ENDBRANCH  25  39
BRANCH  26  49
ATOM     49  C   UNL     1       6.265   9.502  -2.355  1.00  0.00    -0.014 A 
ATOM     50  C   UNL     1       7.322   9.507  -3.280  1.00  0.00     0.010 A 
ATOM     51  C   UNL     1       4.989   9.930  -2.769  1.00  0.00     0.010 A 
ATOM     52  C   UNL     1       7.105   9.923  -4.597  1.00  0.00     0.020 A 
ATOM     53  C   UNL     1       4.762  10.317  -4.091  1.00  0.00     0.020 A 
ATOM     54  C   UNL     1       5.824  10.316  -4.997  1.00  0.00     0.054 A 
BRANCH  54  55
ATOM     55  S   UNL     1       5.543  10.759  -6.733  1.00  0.00     0.124 S 
ATOM     56  O   UNL     1       6.141  12.089  -6.807  1.00  0.00    -0.237 OA
ATOM     57  O   UNL     1       6.256   9.704  -7.449  1.00  0.00    -0.237 OA
ATOM     58  O   UNL     1       4.089  10.716  -6.866  1.00  0.00    -0.744 OA
ENDBRANCH  54  55
ENDBRANCH  26  49
BRANCH  38  59
ATOM     59  C   UNL     1       9.664  11.710   3.321  1.00  0.00    -0.014 A 
ATOM     60  C   UNL     1       9.043  12.958   3.503  1.00  0.00     0.010 A 
ATOM     61  C   UNL     1      11.063  11.612   3.426  1.00  0.00     0.010 A 
ATOM     62  C   UNL     1       9.813  14.096   3.750  1.00  0.00     0.020 A 
ATOM     63  C   UNL     1      11.833  12.743   3.698  1.00  0.00     0.020 A 
ATOM     64  C   UNL     1      11.204  13.982   3.843  1.00  0.00     0.054 A 
BRANCH  64  65
ATOM     65  S   UNL     1      12.182  15.467   4.197  1.00  0.00     0.124 S 
ATOM     66  O   UNL     1      12.173  16.150   2.906  1.00  0.00    -0.237 OA
ATOM     67  O   UNL     1      11.413  16.114   5.257  1.00  0.00    -0.237 OA
ATOM     68  O   UNL     1      13.479  14.936   4.612  1.00  0.00    -0.744 OA
ENDBRANCH  64  65
ENDBRANCH  38  59
ENDBRANCH  12  13
ENDBRANCH   5   7
ENDBRANCH   2   3
ENDBRANCH   1   2
BRANCH   1  69
ATOM     69  C   UNL     1       4.079  -3.514  -0.387  1.00  0.00     0.023 C 
BRANCH  69  70
ATOM     70  C   UNL     1       4.845  -4.046  -1.593  1.00  0.00     0.116 C 
BRANCH  70  71
ATOM     71  N   UNL     1       6.231  -4.373  -1.305  1.00  0.00    -0.356 N 
ATOM     72  C   UNL     1       6.850  -5.589  -1.295  1.00  0.00     0.227 C 
ATOM     73  H   UNL     1       6.808  -3.606  -1.084  1.00  0.00     0.163 HD
ATOM     74  O   UNL     1       8.076  -5.621  -1.387  1.00  0.00    -0.275 OA
BRANCH  72  75
ATOM     75  C   UNL     1       6.027  -6.848  -1.332  1.00  0.00     0.127 C 
ATOM     76  C   UNL     1       5.055  -7.183  -0.180  1.00  0.00     0.127 C 
ATOM     77  C   UNL     1       6.894  -8.129  -1.368  1.00  0.00     0.155 C 
ATOM     78  C   UNL     1       5.412  -8.634   0.142  1.00  0.00     0.155 C 
ATOM     79  C   UNL     1       6.063  -9.234  -1.959  1.00  0.00     0.004 C 
ATOM     80  O   UNL     1       6.853  -8.570   0.015  1.00  0.00    -0.365 OA
ATOM     81  C   UNL     1       5.130  -9.525  -1.040  1.00  0.00     0.004 C 
BRANCH  76  82
ATOM     82  C   UNL     1       4.929  -6.371   1.098  1.00  0.00     0.227 C 
ATOM     83  O   UNL     1       3.791  -6.239   1.574  1.00  0.00    -0.275 OA
ATOM     84  N   UNL     1       5.920  -5.765   1.788  1.00  0.00    -0.352 N 
ATOM     85  H   UNL     1       5.659  -4.918   2.215  1.00  0.00     0.163 HD
BRANCH  84  86
ATOM     86  C   UNL     1       7.301  -6.145   2.011  1.00  0.00     0.151 C 
BRANCH  86  87
ATOM     87  C   UNL     1       8.330  -5.112   1.642  1.00  0.00    -0.026 A 
ATOM     88  C   UNL     1       9.591  -5.553   1.218  1.00  0.00     0.025 A 
ATOM     89  C   UNL     1       8.123  -3.734   1.746  1.00  0.00     0.025 A 
ATOM     90  C   UNL     1      10.554  -4.619   0.873  1.00  0.00     0.111 A 
ATOM     91  C   UNL     1       9.156  -2.876   1.388  1.00  0.00     0.111 A 
ATOM     92  N   UNL     1      10.365  -3.287   0.950  1.00  0.00    -0.265 NA
ENDBRANCH  86  87
ENDBRANCH  84  86
ENDBRANCH  76  82
ENDBRANCH  72  75
ENDBRANCH  70  71
ENDBRANCH  69  70
ENDBRANCH   1  69
TORSDOF 17
