REMARK SMILES COc1cccc([C@@H]2[NH2+][C@@](C)(C(=O)NCCCCNC(=O)c3ccc(-c4c5nc(c(-c6ccc(S(=O)(=O)[O-])cc6)c6ccc([nH]6)c(-c6ccc(S(=O)(=O)[O-])cc6)c6nc(c(-c7ccc(S(=O)(=O)[O-])cc7)c7ccc4[nH]7)C=C6)C=C5)cc3)[C@@H]3C(=O)N(C)C(=O)[C@@H]32)c1O
REMARK SMILES IDX 17 1 16 2 15 3 14 4 12 5 13 6 10 8 8 9 9 10 89 11 82 14
REMARK SMILES IDX 87 15 11 16 83 17 85 18 88 19 84 20 86 21 7 22 3 23 4 24
REMARK SMILES IDX 90 25 5 26 6 27 2 28 1 29 91 30 18 32 19 33 20 34 21 36
REMARK SMILES IDX 22 37 23 38 81 39 24 40 80 41 25 42 26 43 27 44 74 45 28 46
REMARK SMILES IDX 79 47 73 48 75 49 29 50 78 51 72 52 71 53 30 55 60 56 41 57
REMARK SMILES IDX 59 58 42 59 45 60 58 61 76 62 43 63 44 64 57 66 77 67 46 68
REMARK SMILES IDX 31 69 32 70 40 71 33 72 39 73 34 74 35 75 36 76 37 77 38 78
REMARK SMILES IDX 61 79 62 80 70 81 63 82 69 83 64 84 65 85 66 86 67 87 68 88
REMARK SMILES IDX 47 89 48 90 56 91 49 92 55 93 50 94 51 95 52 96 53 97 54 98
REMARK H PARENT 14 7 9 12 9 13 91 31 19 35 75 54 45 65
REMARK Flexibility Score: inf
ROOT
ATOM      1  C   UNL     1      -3.116  -9.555  -1.400  1.00  0.00     0.023 C 
ENDROOT
BRANCH   1   2
ATOM      2  C   UNL     1      -3.503  -8.170  -1.920  1.00  0.00     0.023 C 
BRANCH   2   3
ATOM      3  C   UNL     1      -3.177  -7.004  -0.997  1.00  0.00     0.116 C 
BRANCH   3   4
ATOM      4  N   UNL     1      -1.772  -6.922  -0.683  1.00  0.00    -0.351 N 
ATOM      5  C   UNL     1      -0.974  -5.849  -0.463  1.00  0.00     0.281 C 
ATOM      6  O   UNL     1       0.228  -6.114  -0.321  1.00  0.00    -0.268 OA
ATOM      7  H   UNL     1      -1.315  -7.792  -0.619  1.00  0.00     0.163 HD
BRANCH   5   8
ATOM      8  C   UNL     1      -1.493  -4.365  -0.408  1.00  0.00     0.185 C 
ATOM      9  C   UNL     1      -0.357  -3.217  -2.207  1.00  0.00     0.232 C 
ATOM     10  N   UNL     1      -1.655  -3.819  -1.796  1.00  0.00    -0.326 N 
ATOM     11  C   UNL     1       0.563  -3.186  -0.956  1.00  0.00     0.161 C 
ATOM     12  H   UNL     1      -1.907  -4.571  -2.437  1.00  0.00     0.347 HD
ATOM     13  H   UNL     1      -2.394  -3.116  -1.816  1.00  0.00     0.347 HD
ATOM     14  C   UNL     1      -0.345  -3.562   0.205  1.00  0.00     0.169 C 
ATOM     15  C   UNL     1       1.168  -1.903  -0.446  1.00  0.00     0.239 C 
ATOM     16  C   UNL     1      -2.774  -4.219   0.422  1.00  0.00     0.091 C 
ATOM     17  C   UNL     1      -0.661  -2.238   0.850  1.00  0.00     0.240 C 
ATOM     18  N   UNL     1       0.327  -1.367   0.491  1.00  0.00    -0.285 N 
ATOM     19  O   UNL     1       2.252  -1.466  -0.805  1.00  0.00    -0.274 OA
ATOM     20  O   UNL     1      -1.577  -1.999   1.605  1.00  0.00    -0.274 OA
ATOM     21  C   UNL     1       0.336  -0.006   0.975  1.00  0.00     0.156 C 
BRANCH   9  22
ATOM     22  C   UNL     1      -0.479  -1.994  -3.122  1.00  0.00     0.056 A 
ATOM     23  C   UNL     1       0.082   0.360  -3.462  1.00  0.00     0.161 A 
ATOM     24  C   UNL     1       0.068   0.200  -4.834  1.00  0.00     0.050 A 
ATOM     25  C   UNL     1      -0.397  -0.681  -2.665  1.00  0.00     0.166 A 
ATOM     26  C   UNL     1      -0.334  -1.027  -5.364  1.00  0.00     0.005 A 
ATOM     27  C   UNL     1      -0.545  -2.132  -4.517  1.00  0.00     0.014 A 
BRANCH  23  28
ATOM     28  O   UNL     1       0.483   1.559  -2.933  1.00  0.00    -0.493 OA
ATOM     29  C   UNL     1       1.780   1.413  -2.332  1.00  0.00     0.278 C 
ENDBRANCH  23  28
BRANCH  25  30
ATOM     30  O   UNL     1      -1.025  -0.345  -1.503  1.00  0.00    -0.504 OA
ATOM     31  H   UNL     1      -0.979   0.534  -1.183  1.00  0.00     0.293 HD
ENDBRANCH  25  30
ENDBRANCH   9  22
ENDBRANCH   5   8
ENDBRANCH   3   4
ENDBRANCH   2   3
ENDBRANCH   1   2
BRANCH   1  32
ATOM     32  C   UNL     1      -3.577  -9.882   0.016  1.00  0.00     0.116 C 
BRANCH  32  33
ATOM     33  N   UNL     1      -5.016  -9.755   0.187  1.00  0.00    -0.352 N 
ATOM     34  C   UNL     1      -5.941 -10.701   0.556  1.00  0.00     0.251 C 
ATOM     35  H   UNL     1      -5.382  -8.857   0.012  1.00  0.00     0.163 HD
ATOM     36  O   UNL     1      -7.139 -10.444   0.496  1.00  0.00    -0.269 OA
BRANCH  34  37
ATOM     37  C   UNL     1      -5.485 -12.037   0.991  1.00  0.00     0.039 A 
ATOM     38  C   UNL     1      -6.078 -13.169   0.429  1.00  0.00     0.014 A 
ATOM     39  C   UNL     1      -4.452 -12.169   1.923  1.00  0.00     0.014 A 
ATOM     40  C   UNL     1      -5.578 -14.434   0.743  1.00  0.00     0.010 A 
ATOM     41  C   UNL     1      -3.902 -13.424   2.170  1.00  0.00     0.010 A 
ATOM     42  C   UNL     1      -4.457 -14.569   1.579  1.00  0.00    -0.014 A 
BRANCH  42  43
ATOM     43  C   UNL     1      -3.842 -15.899   1.823  1.00  0.00     0.031 A 
ATOM     44  C   UNL     1      -3.808 -16.482   3.210  1.00  0.00     0.074 A 
ATOM     45  C   UNL     1      -3.266 -16.560   0.798  1.00  0.00     0.049 A 
ATOM     46  N   UNL     1      -3.306 -17.621   3.611  1.00  0.00    -0.248 NA
ATOM     47  C   UNL     1      -4.391 -15.669   4.290  1.00  0.00     0.031 C 
ATOM     48  C   UNL     1      -3.185 -16.076  -0.583  1.00  0.00     0.029 A 
ATOM     49  N   UNL     1      -2.639 -17.780   0.756  1.00  0.00    -0.354 N 
ATOM     50  C   UNL     1      -3.502 -17.658   4.987  1.00  0.00     0.074 A 
ATOM     51  C   UNL     1      -4.117 -16.403   5.359  1.00  0.00     0.031 C 
ATOM     52  C   UNL     1      -2.582 -17.005  -1.341  1.00  0.00     0.029 A 
ATOM     53  C   UNL     1      -2.195 -18.131  -0.498  1.00  0.00     0.049 A 
ATOM     54  H   UNL     1      -2.518 -18.351   1.549  1.00  0.00     0.167 HD
ATOM     55  C   UNL     1      -3.217 -18.655   5.859  1.00  0.00     0.031 A 
ATOM     56  C   UNL     1      -1.549 -19.234  -0.923  1.00  0.00     0.031 A 
ATOM     57  C   UNL     1      -2.608 -19.903   5.482  1.00  0.00     0.049 A 
ATOM     58  C   UNL     1      -1.236 -20.324   0.065  1.00  0.00     0.074 A 
ATOM     59  C   UNL     1      -2.331 -21.000   6.280  1.00  0.00     0.029 A 
ATOM     60  N   UNL     1      -2.175 -20.220   4.204  1.00  0.00    -0.354 N 
ATOM     61  N   UNL     1      -1.503 -20.373   1.349  1.00  0.00    -0.248 NA
ATOM     62  C   UNL     1      -0.548 -21.513  -0.455  1.00  0.00     0.031 C 
ATOM     63  C   UNL     1      -1.678 -21.956   5.496  1.00  0.00     0.029 A 
ATOM     64  C   UNL     1      -1.606 -21.483   4.196  1.00  0.00     0.049 A 
ATOM     65  H   UNL     1      -2.259 -19.634   3.417  1.00  0.00     0.167 HD
ATOM     66  C   UNL     1      -1.036 -21.608   1.785  1.00  0.00     0.074 A 
ATOM     67  C   UNL     1      -0.489 -22.281   0.624  1.00  0.00     0.031 C 
ATOM     68  C   UNL     1      -1.058 -22.137   3.034  1.00  0.00     0.031 A 
BRANCH  55  69
ATOM     69  C   UNL     1      -3.558 -18.429   7.309  1.00  0.00    -0.014 A 
ATOM     70  C   UNL     1      -4.896 -18.365   7.741  1.00  0.00     0.010 A 
ATOM     71  C   UNL     1      -2.528 -18.316   8.261  1.00  0.00     0.010 A 
ATOM     72  C   UNL     1      -5.197 -18.147   9.088  1.00  0.00     0.020 A 
ATOM     73  C   UNL     1      -2.825 -18.129   9.614  1.00  0.00     0.020 A 
ATOM     74  C   UNL     1      -4.158 -18.028  10.016  1.00  0.00     0.054 A 
BRANCH  74  75
ATOM     75  S   UNL     1      -4.580 -17.765  11.761  1.00  0.00     0.124 S 
ATOM     76  O   UNL     1      -5.055 -16.384  11.751  1.00  0.00    -0.237 OA
ATOM     77  O   UNL     1      -5.603 -18.780  11.999  1.00  0.00    -0.237 OA
ATOM     78  O   UNL     1      -3.316 -17.983  12.460  1.00  0.00    -0.744 OA
ENDBRANCH  74  75
ENDBRANCH  55  69
BRANCH  56  79
ATOM     79  C   UNL     1      -1.175 -19.369  -2.358  1.00  0.00    -0.014 A 
ATOM     80  C   UNL     1      -1.826 -20.303  -3.183  1.00  0.00     0.010 A 
ATOM     81  C   UNL     1      -0.176 -18.548  -2.913  1.00  0.00     0.010 A 
ATOM     82  C   UNL     1      -1.475 -20.426  -4.530  1.00  0.00     0.020 A 
ATOM     83  C   UNL     1       0.157 -18.647  -4.267  1.00  0.00     0.020 A 
ATOM     84  C   UNL     1      -0.488 -19.594  -5.065  1.00  0.00     0.054 A 
BRANCH  84  85
ATOM     85  S   UNL     1      -0.090 -19.731  -6.830  1.00  0.00     0.124 S 
ATOM     86  O   UNL     1       0.638 -20.995  -6.880  1.00  0.00    -0.237 OA
ATOM     87  O   UNL     1      -1.412 -19.736  -7.452  1.00  0.00    -0.237 OA
ATOM     88  O   UNL     1       0.710 -18.537  -7.094  1.00  0.00    -0.744 OA
ENDBRANCH  84  85
ENDBRANCH  56  79
BRANCH  68  89
ATOM     89  C   UNL     1      -0.497 -23.524   3.206  1.00  0.00    -0.014 A 
ATOM     90  C   UNL     1       0.884 -23.770   3.116  1.00  0.00     0.010 A 
ATOM     91  C   UNL     1      -1.365 -24.590   3.509  1.00  0.00     0.010 A 
ATOM     92  C   UNL     1       1.384 -25.064   3.288  1.00  0.00     0.020 A 
ATOM     93  C   UNL     1      -0.866 -25.878   3.713  1.00  0.00     0.020 A 
ATOM     94  C   UNL     1       0.505 -26.110   3.585  1.00  0.00     0.054 A 
BRANCH  94  95
ATOM     95  S   UNL     1       1.182 -27.773   3.839  1.00  0.00     0.124 S 
ATOM     96  O   UNL     1       1.537 -28.168   2.478  1.00  0.00    -0.237 OA
ATOM     97  O   UNL     1       2.309 -27.526   4.736  1.00  0.00    -0.237 OA
ATOM     98  O   UNL     1       0.071 -28.514   4.433  1.00  0.00    -0.744 OA
ENDBRANCH  94  95
ENDBRANCH  68  89
ENDBRANCH  42  43
ENDBRANCH  34  37
ENDBRANCH  32  33
ENDBRANCH   1  32
TORSDOF 17
