REMARK SMILES Cc1nc(SCc2ccccc2)[nH]c(=O)c1CCC(=O)NCCCCNC(=O)c1ccc(-c2c3nc(c(-c4ccc(S(=O)(=O)[O-])cc4)c4ccc([nH]4)c(-c4ccc(S(=O)(=O)[O-])cc4)c4nc(c(-c5ccc(S(=O)(=O)[O-])cc5)c5ccc2[nH]5)C=C4)C=C3)cc1
REMARK SMILES IDX 22 1 21 2 19 3 20 4 18 6 17 7 16 8 1 9 2 10 3 11 4 12 14 13
REMARK SMILES IDX 13 14 15 15 5 17 6 18 7 19 8 20 12 21 9 22 11 23 10 24 23 25
REMARK SMILES IDX 24 26 25 27 26 28 27 29 28 31 29 32 30 33 88 34 31 35 87 36
REMARK SMILES IDX 32 37 33 38 34 39 81 40 35 41 86 42 80 43 82 44 36 45 85 46
REMARK SMILES IDX 79 47 78 48 37 50 67 51 48 52 66 53 49 54 52 55 65 56 83 57
REMARK SMILES IDX 50 58 51 59 64 61 84 62 53 63 38 64 39 65 47 66 40 67 46 68
REMARK SMILES IDX 41 69 42 70 43 71 44 72 45 73 68 74 69 75 77 76 70 77 76 78
REMARK SMILES IDX 71 79 72 80 73 81 74 82 75 83 54 84 55 85 63 86 56 87 62 88
REMARK SMILES IDX 57 89 58 90 59 91 60 92 61 93
REMARK H PARENT 21 5 13 16 26 30 82 49 52 60
REMARK Flexibility Score: inf
ROOT
ATOM      1  C   UNL     1       2.468  -0.310  -1.322  1.00  0.00     0.116 C 
ENDROOT
BRANCH   1   2
ATOM      2  N   UNL     1       2.692  -1.740  -1.191  1.00  0.00    -0.356 N 
ATOM      3  C   UNL     1       1.835  -2.786  -1.065  1.00  0.00     0.220 C 
ATOM      4  O   UNL     1       2.308  -3.909  -0.870  1.00  0.00    -0.275 OA
ATOM      5  H   UNL     1       3.642  -1.998  -1.193  1.00  0.00     0.163 HD
BRANCH   3   6
ATOM      6  C   UNL     1       0.338  -2.606  -1.222  1.00  0.00     0.105 C 
BRANCH   6   7
ATOM      7  C   UNL     1      -0.437  -2.738   0.103  1.00  0.00     0.053 C 
BRANCH   7   8
ATOM      8  C   UNL     1      -0.899  -1.396   0.616  1.00  0.00     0.039 A 
ATOM      9  C   UNL     1      -3.313  -1.605   0.004  1.00  0.00     0.067 C 
ATOM     10  C   UNL     1      -2.127  -0.839   0.527  1.00  0.00     0.049 A 
ATOM     11  N   UNL     1      -2.371   0.510   0.738  1.00  0.00    -0.229 NA
ATOM     12  C   UNL     1      -1.349   1.250   0.998  1.00  0.00     0.168 A 
ATOM     13  C   UNL     1       0.119  -0.576   1.299  1.00  0.00     0.254 A 
ATOM     14  N   UNL     1      -0.135   0.752   1.326  1.00  0.00    -0.301 N 
ATOM     15  O   UNL     1       1.146  -1.068   1.763  1.00  0.00    -0.269 OA
ATOM     16  H   UNL     1       0.582   1.372   1.590  1.00  0.00     0.172 HD
BRANCH  12  17
ATOM     17  S   UNL     1      -1.268   2.971   0.919  1.00  0.00    -0.083 SA
BRANCH  17  18
ATOM     18  C   UNL     1      -2.790   3.520   0.149  1.00  0.00     0.113 C 
BRANCH  18  19
ATOM     19  C   UNL     1      -3.111   3.231  -1.306  1.00  0.00    -0.038 A 
ATOM     20  C   UNL     1      -3.837   4.199  -2.026  1.00  0.00     0.004 A 
ATOM     21  C   UNL     1      -2.911   1.994  -1.929  1.00  0.00     0.004 A 
ATOM     22  C   UNL     1      -4.388   3.915  -3.280  1.00  0.00     0.000 A 
ATOM     23  C   UNL     1      -3.481   1.696  -3.170  1.00  0.00     0.000 A 
ATOM     24  C   UNL     1      -4.234   2.651  -3.839  1.00  0.00     0.000 A 
ENDBRANCH  18  19
ENDBRANCH  17  18
ENDBRANCH  12  17
ENDBRANCH   7   8
ENDBRANCH   6   7
ENDBRANCH   3   6
ENDBRANCH   1   2
BRANCH   1  25
ATOM     25  C   UNL     1       3.016   0.434  -0.102  1.00  0.00     0.023 C 
BRANCH  25  26
ATOM     26  C   UNL     1       3.913   1.628  -0.362  1.00  0.00     0.023 C 
BRANCH  26  27
ATOM     27  C   UNL     1       3.476   2.582  -1.458  1.00  0.00     0.116 C 
BRANCH  27  28
ATOM     28  N   UNL     1       2.240   3.320  -1.216  1.00  0.00    -0.352 N 
ATOM     29  C   UNL     1       2.030   4.689  -1.251  1.00  0.00     0.251 C 
ATOM     30  H   UNL     1       1.451   2.772  -1.000  1.00  0.00     0.163 HD
ATOM     31  O   UNL     1       0.917   5.161  -1.048  1.00  0.00    -0.269 OA
BRANCH  29  32
ATOM     32  C   UNL     1       3.191   5.583  -1.464  1.00  0.00     0.039 A 
ATOM     33  C   UNL     1       3.464   6.579  -0.525  1.00  0.00     0.014 A 
ATOM     34  C   UNL     1       4.098   5.310  -2.484  1.00  0.00     0.014 A 
ATOM     35  C   UNL     1       4.722   7.188  -0.522  1.00  0.00     0.010 A 
ATOM     36  C   UNL     1       5.394   5.792  -2.373  1.00  0.00     0.010 A 
ATOM     37  C   UNL     1       5.730   6.736  -1.389  1.00  0.00    -0.014 A 
BRANCH  37  38
ATOM     38  C   UNL     1       7.137   7.220  -1.297  1.00  0.00     0.031 A 
ATOM     39  C   UNL     1       7.815   7.776  -2.526  1.00  0.00     0.074 A 
ATOM     40  C   UNL     1       7.840   7.074  -0.152  1.00  0.00     0.049 A 
ATOM     41  N   UNL     1       9.065   8.122  -2.696  1.00  0.00    -0.248 NA
ATOM     42  C   UNL     1       6.991   7.911  -3.741  1.00  0.00     0.031 C 
ATOM     43  C   UNL     1       7.337   6.485   1.093  1.00  0.00     0.029 A 
ATOM     44  N   UNL     1       9.139   7.407   0.151  1.00  0.00    -0.354 N 
ATOM     45  C   UNL     1       9.178   8.476  -4.036  1.00  0.00     0.074 A 
ATOM     46  C   UNL     1       7.897   8.226  -4.652  1.00  0.00     0.031 C 
ATOM     47  C   UNL     1       8.297   6.541   2.032  1.00  0.00     0.029 A 
ATOM     48  C   UNL     1       9.502   7.120   1.449  1.00  0.00     0.049 A 
ATOM     49  H   UNL     1       9.755   7.813  -0.501  1.00  0.00     0.167 HD
ATOM     50  C   UNL     1      10.238   9.004  -4.692  1.00  0.00     0.031 A 
ATOM     51  C   UNL     1      10.671   7.300   2.096  1.00  0.00     0.031 A 
ATOM     52  C   UNL     1      11.496   9.305  -4.068  1.00  0.00     0.049 A 
ATOM     53  C   UNL     1      11.828   7.915   1.354  1.00  0.00     0.074 A 
ATOM     54  C   UNL     1      12.609   9.908  -4.625  1.00  0.00     0.029 A 
ATOM     55  N   UNL     1      11.801   9.042  -2.742  1.00  0.00    -0.354 N 
ATOM     56  N   UNL     1      11.890   8.305   0.103  1.00  0.00    -0.248 NA
ATOM     57  C   UNL     1      13.068   8.128   2.114  1.00  0.00     0.031 C 
ATOM     58  C   UNL     1      13.605   9.968  -3.647  1.00  0.00     0.029 A 
ATOM     59  C   UNL     1      13.091   9.458  -2.465  1.00  0.00     0.049 A 
ATOM     60  H   UNL     1      11.191   8.621  -2.093  1.00  0.00     0.167 HD
ATOM     61  C   UNL     1      13.165   8.835  -0.065  1.00  0.00     0.074 A 
ATOM     62  C   UNL     1      13.833   8.733   1.216  1.00  0.00     0.031 C 
ATOM     63  C   UNL     1      13.733   9.358  -1.180  1.00  0.00     0.031 A 
BRANCH  50  64
ATOM     64  C   UNL     1      10.065   9.315  -6.156  1.00  0.00    -0.014 A 
ATOM     65  C   UNL     1       9.202  10.342  -6.582  1.00  0.00     0.010 A 
ATOM     66  C   UNL     1      10.797   8.595  -7.117  1.00  0.00     0.010 A 
ATOM     67  C   UNL     1       9.039  10.613  -7.941  1.00  0.00     0.020 A 
ATOM     68  C   UNL     1      10.663   8.887  -8.478  1.00  0.00     0.020 A 
ATOM     69  C   UNL     1       9.772   9.884  -8.882  1.00  0.00     0.054 A 
BRANCH  69  70
ATOM     70  S   UNL     1       9.565  10.284 -10.638  1.00  0.00     0.124 S 
ATOM     71  O   UNL     1       8.231   9.755 -10.912  1.00  0.00    -0.237 OA
ATOM     72  O   UNL     1       9.676  11.740 -10.649  1.00  0.00    -0.237 OA
ATOM     73  O   UNL     1      10.663   9.572 -11.288  1.00  0.00    -0.744 OA
ENDBRANCH  69  70
ENDBRANCH  50  64
BRANCH  51  74
ATOM     74  C   UNL     1      10.808   6.911   3.530  1.00  0.00    -0.014 A 
ATOM     75  C   UNL     1      10.954   7.894   4.527  1.00  0.00     0.010 A 
ATOM     76  C   UNL     1      10.805   5.556   3.909  1.00  0.00     0.010 A 
ATOM     77  C   UNL     1      11.124   7.530   5.867  1.00  0.00     0.020 A 
ATOM     78  C   UNL     1      10.943   5.189   5.252  1.00  0.00     0.020 A 
ATOM     79  C   UNL     1      11.117   6.178   6.221  1.00  0.00     0.054 A 
BRANCH  79  80
ATOM     80  S   UNL     1      11.304   5.730   7.970  1.00  0.00     0.124 S 
ATOM     81  O   UNL     1      12.717   6.008   8.206  1.00  0.00    -0.237 OA
ATOM     82  O   UNL     1      10.362   6.632   8.629  1.00  0.00    -0.237 OA
ATOM     83  O   UNL     1      10.928   4.318   8.003  1.00  0.00    -0.744 OA
ENDBRANCH  79  80
ENDBRANCH  51  74
BRANCH  63  84
ATOM     84  C   UNL     1      15.131   9.902  -1.059  1.00  0.00    -0.014 A 
ATOM     85  C   UNL     1      16.238   9.047  -0.916  1.00  0.00     0.010 A 
ATOM     86  C   UNL     1      15.342  11.290  -1.159  1.00  0.00     0.010 A 
ATOM     87  C   UNL     1      17.530   9.574  -0.846  1.00  0.00     0.020 A 
ATOM     88  C   UNL     1      16.634  11.817  -1.120  1.00  0.00     0.020 A 
ATOM     89  C   UNL     1      17.720  10.956  -0.950  1.00  0.00     0.054 A 
BRANCH  89  90
ATOM     90  S   UNL     1      19.411  11.609  -0.905  1.00  0.00     0.124 S 
ATOM     91  O   UNL     1      19.760  11.450   0.504  1.00  0.00    -0.237 OA
ATOM     92  O   UNL     1      20.118  10.729  -1.832  1.00  0.00    -0.237 OA
ATOM     93  O   UNL     1      19.261  12.990  -1.358  1.00  0.00    -0.744 OA
ENDBRANCH  89  90
ENDBRANCH  63  84
ENDBRANCH  37  38
ENDBRANCH  29  32
ENDBRANCH  27  28
ENDBRANCH  26  27
ENDBRANCH  25  26
ENDBRANCH   1  25
TORSDOF 19
