REMARK SMILES Cc1cccc(N2C(=O)/C(=C/c3ccc(C(=O)NCCCCNC(=O)c4ccc(-c5c6nc(c(-c7ccc(S(=O)(=O)[O-])cc7)c7ccc([nH]7)c(-c7ccc(S(=O)(=O)[O-])cc7)c7nc(c(-c8ccc(S(=O)(=O)[O-])cc8)c8ccc5[nH]8)C=C7)C=C6)cc4)cc3)c3ccccc3C2=O)c1
REMARK SMILES IDX 21 1 20 2 19 3 18 4 16 5 17 6 15 8 12 9 13 10 87 11 14 12
REMARK SMILES IDX 86 13 11 14 7 15 8 16 94 17 9 18 10 19 93 20 95 21 88 22
REMARK SMILES IDX 92 23 89 24 91 25 90 26 6 27 1 28 2 29 3 30 96 31 4 32 5 33
REMARK SMILES IDX 22 34 23 35 24 36 25 38 26 39 27 40 85 41 28 42 84 43 29 44
REMARK SMILES IDX 30 45 31 46 78 47 32 48 83 49 77 50 79 51 33 52 82 53 76 54
REMARK SMILES IDX 75 55 34 57 64 58 45 59 63 60 46 61 49 62 62 63 80 64 47 65
REMARK SMILES IDX 48 66 61 68 81 69 50 70 35 71 36 72 44 73 37 74 43 75 38 76
REMARK SMILES IDX 39 77 40 78 41 79 42 80 65 81 66 82 74 83 67 84 73 85 68 86
REMARK SMILES IDX 69 87 70 88 71 89 72 90 51 91 52 92 60 93 53 94 59 95 54 96
REMARK SMILES IDX 55 97 56 98 57 99 58 100
REMARK H PARENT 18 7 23 37 79 56 49 67
REMARK Flexibility Score: inf
ROOT
ATOM      1  C   UNL     1      -6.025  12.059   2.881  1.00  0.00     0.023 C 
ENDROOT
BRANCH   1   2
ATOM      2  C   UNL     1      -5.541  10.675   2.454  1.00  0.00     0.023 C 
BRANCH   2   3
ATOM      3  C   UNL     1      -5.767  10.309   0.981  1.00  0.00     0.116 C 
BRANCH   3   4
ATOM      4  N   UNL     1      -5.170  11.253   0.040  1.00  0.00    -0.352 N 
ATOM      5  C   UNL     1      -4.177  11.094  -0.897  1.00  0.00     0.251 C 
ATOM      6  O   UNL     1      -3.760  12.064  -1.525  1.00  0.00    -0.269 OA
ATOM      7  H   UNL     1      -5.544  12.163   0.085  1.00  0.00     0.163 HD
BRANCH   5   8
ATOM      8  C   UNL     1      -3.545   9.775  -1.112  1.00  0.00     0.039 A 
ATOM      9  C   UNL     1      -2.270   7.292  -1.171  1.00  0.00    -0.025 A 
ATOM     10  C   UNL     1      -1.510   8.466  -1.137  1.00  0.00     0.009 A 
ATOM     11  C   UNL     1      -3.660   7.374  -1.335  1.00  0.00     0.009 A 
ATOM     12  C   UNL     1      -2.147   9.708  -1.109  1.00  0.00     0.014 A 
ATOM     13  C   UNL     1      -4.298   8.616  -1.310  1.00  0.00     0.014 A 
BRANCH   9  14
ATOM     14  C   UNL     1      -1.593   6.004  -0.974  1.00  0.00     0.022 C 
ATOM     15  N   UNL     1      -1.739   2.651   0.324  1.00  0.00    -0.242 N 
ATOM     16  C   UNL     1      -1.067   3.809  -0.117  1.00  0.00     0.265 C 
ATOM     17  C   UNL     1      -3.066   2.707   0.808  1.00  0.00     0.265 C 
ATOM     18  O   UNL     1       0.048   3.857  -0.637  1.00  0.00    -0.268 OA
ATOM     19  C   UNL     1      -1.852   5.090  -0.009  1.00  0.00     0.049 C 
ATOM     20  C   UNL     1      -3.537   4.000   1.363  1.00  0.00     0.048 A 
ATOM     21  O   UNL     1      -3.876   1.784   0.863  1.00  0.00    -0.268 OA
ATOM     22  C   UNL     1      -2.880   5.180   1.030  1.00  0.00    -0.000 A 
ATOM     23  C   UNL     1      -4.624   4.016   2.252  1.00  0.00     0.014 A 
ATOM     24  C   UNL     1      -3.246   6.362   1.695  1.00  0.00     0.010 A 
ATOM     25  C   UNL     1      -5.027   5.209   2.849  1.00  0.00     0.001 A 
ATOM     26  C   UNL     1      -4.323   6.379   2.586  1.00  0.00     0.001 A 
BRANCH  15  27
ATOM     27  C   UNL     1      -1.075   1.352   0.183  1.00  0.00     0.053 A 
ATOM     28  C   UNL     1       2.493  -0.069   0.023  1.00  0.00     0.044 C 
ATOM     29  C   UNL     1       0.994   0.004   0.044  1.00  0.00    -0.049 A 
ATOM     30  C   UNL     1       0.243  -1.164  -0.068  1.00  0.00     0.003 A 
ATOM     31  C   UNL     1       0.331   1.238   0.190  1.00  0.00     0.030 A 
ATOM     32  C   UNL     1      -1.143  -1.092  -0.054  1.00  0.00     0.002 A 
ATOM     33  C   UNL     1      -1.787   0.146   0.063  1.00  0.00     0.027 A 
ENDBRANCH  15  27
ENDBRANCH   9  14
ENDBRANCH   5   8
ENDBRANCH   3   4
ENDBRANCH   2   3
ENDBRANCH   1   2
BRANCH   1  34
ATOM     34  C   UNL     1      -7.526  12.281   2.731  1.00  0.00     0.116 C 
BRANCH  34  35
ATOM     35  N   UNL     1      -8.272  12.179   3.974  1.00  0.00    -0.352 N 
ATOM     36  C   UNL     1      -9.558  12.645   4.216  1.00  0.00     0.251 C 
ATOM     37  H   UNL     1      -7.818  11.732   4.725  1.00  0.00     0.163 HD
ATOM     38  O   UNL     1      -9.981  12.869   5.335  1.00  0.00    -0.269 OA
BRANCH  36  39
ATOM     39  C   UNL     1     -10.465  12.698   3.048  1.00  0.00     0.039 A 
ATOM     40  C   UNL     1     -11.486  11.741   2.991  1.00  0.00     0.014 A 
ATOM     41  C   UNL     1     -10.129  13.457   1.932  1.00  0.00     0.014 A 
ATOM     42  C   UNL     1     -12.042  11.407   1.760  1.00  0.00     0.010 A 
ATOM     43  C   UNL     1     -10.603  13.053   0.702  1.00  0.00     0.010 A 
ATOM     44  C   UNL     1     -11.520  11.997   0.612  1.00  0.00    -0.014 A 
BRANCH  44  45
ATOM     45  C   UNL     1     -11.826  11.559  -0.743  1.00  0.00     0.031 A 
ATOM     46  C   UNL     1     -12.731  12.378  -1.580  1.00  0.00     0.074 A 
ATOM     47  C   UNL     1     -11.180  10.493  -1.266  1.00  0.00     0.049 A 
ATOM     48  N   UNL     1     -13.306  11.969  -2.660  1.00  0.00    -0.248 NA
ATOM     49  C   UNL     1     -13.120  13.735  -1.205  1.00  0.00     0.031 C 
ATOM     50  C   UNL     1     -11.091  10.127  -2.677  1.00  0.00     0.029 A 
ATOM     51  N   UNL     1     -10.651   9.385  -0.599  1.00  0.00    -0.354 N 
ATOM     52  C   UNL     1     -13.849  13.075  -3.279  1.00  0.00     0.074 A 
ATOM     53  C   UNL     1     -13.822  14.111  -2.276  1.00  0.00     0.031 C 
ATOM     54  C   UNL     1     -10.846   8.810  -2.763  1.00  0.00     0.029 A 
ATOM     55  C   UNL     1     -10.934   8.275  -1.414  1.00  0.00     0.049 A 
ATOM     56  H   UNL     1     -10.178   9.382   0.265  1.00  0.00     0.167 HD
ATOM     57  C   UNL     1     -14.109  13.028  -4.617  1.00  0.00     0.031 A 
ATOM     58  C   UNL     1     -11.745   7.243  -1.035  1.00  0.00     0.031 A 
ATOM     59  C   UNL     1     -13.990  11.663  -5.130  1.00  0.00     0.049 A 
ATOM     60  C   UNL     1     -12.928   7.055  -1.964  1.00  0.00     0.074 A 
ATOM     61  C   UNL     1     -13.018  11.005  -5.864  1.00  0.00     0.029 A 
ATOM     62  N   UNL     1     -14.844  10.681  -4.636  1.00  0.00    -0.354 N 
ATOM     63  N   UNL     1     -13.337   7.958  -2.813  1.00  0.00    -0.248 NA
ATOM     64  C   UNL     1     -13.759   5.854  -1.991  1.00  0.00     0.031 C 
ATOM     65  C   UNL     1     -13.227   9.607  -5.706  1.00  0.00     0.029 A 
ATOM     66  C   UNL     1     -14.350   9.422  -4.917  1.00  0.00     0.049 A 
ATOM     67  H   UNL     1     -15.683  10.859  -4.154  1.00  0.00     0.167 HD
ATOM     68  C   UNL     1     -14.430   7.493  -3.495  1.00  0.00     0.074 A 
ATOM     69  C   UNL     1     -14.654   6.167  -2.946  1.00  0.00     0.031 C 
ATOM     70  C   UNL     1     -15.060   8.236  -4.453  1.00  0.00     0.031 A 
BRANCH  57  71
ATOM     71  C   UNL     1     -14.200  14.254  -5.512  1.00  0.00    -0.014 A 
ATOM     72  C   UNL     1     -14.092  14.104  -6.912  1.00  0.00     0.010 A 
ATOM     73  C   UNL     1     -14.283  15.582  -5.051  1.00  0.00     0.010 A 
ATOM     74  C   UNL     1     -14.000  15.207  -7.782  1.00  0.00     0.020 A 
ATOM     75  C   UNL     1     -14.189  16.693  -5.902  1.00  0.00     0.020 A 
ATOM     76  C   UNL     1     -14.029  16.500  -7.266  1.00  0.00     0.054 A 
BRANCH  76  77
ATOM     77  S   UNL     1     -13.842  17.919  -8.376  1.00  0.00     0.124 S 
ATOM     78  O   UNL     1     -12.511  17.703  -8.938  1.00  0.00    -0.237 OA
ATOM     79  O   UNL     1     -14.957  17.745  -9.302  1.00  0.00    -0.237 OA
ATOM     80  O   UNL     1     -13.953  19.074  -7.486  1.00  0.00    -0.744 OA
ENDBRANCH  76  77
ENDBRANCH  57  71
BRANCH  58  81
ATOM     81  C   UNL     1     -11.745   6.970   0.430  1.00  0.00    -0.014 A 
ATOM     82  C   UNL     1     -10.560   6.439   0.984  1.00  0.00     0.010 A 
ATOM     83  C   UNL     1     -12.656   7.625   1.278  1.00  0.00     0.010 A 
ATOM     84  C   UNL     1     -10.200   6.726   2.302  1.00  0.00     0.020 A 
ATOM     85  C   UNL     1     -12.300   7.906   2.606  1.00  0.00     0.020 A 
ATOM     86  C   UNL     1     -11.042   7.520   3.080  1.00  0.00     0.054 A 
BRANCH  86  87
ATOM     87  S   UNL     1     -10.369   8.206   4.626  1.00  0.00     0.124 S 
ATOM     88  O   UNL     1      -9.991   7.005   5.363  1.00  0.00    -0.237 OA
ATOM     89  O   UNL     1      -9.254   9.017   4.136  1.00  0.00    -0.237 OA
ATOM     90  O   UNL     1     -11.493   8.957   5.175  1.00  0.00    -0.744 OA
ENDBRANCH  86  87
ENDBRANCH  58  81
BRANCH  70  91
ATOM     91  C   UNL     1     -16.377   7.895  -5.111  1.00  0.00    -0.014 A 
ATOM     92  C   UNL     1     -17.360   7.080  -4.530  1.00  0.00     0.010 A 
ATOM     93  C   UNL     1     -16.713   8.535  -6.329  1.00  0.00     0.010 A 
ATOM     94  C   UNL     1     -18.593   6.862  -5.163  1.00  0.00     0.020 A 
ATOM     95  C   UNL     1     -17.956   8.362  -6.946  1.00  0.00     0.020 A 
ATOM     96  C   UNL     1     -18.882   7.502  -6.369  1.00  0.00     0.054 A 
BRANCH  96  97
ATOM     97  S   UNL     1     -20.500   7.268  -7.146  1.00  0.00     0.124 S 
ATOM     98  O   UNL     1     -20.273   6.075  -7.958  1.00  0.00    -0.237 OA
ATOM     99  O   UNL     1     -21.391   7.085  -6.002  1.00  0.00    -0.237 OA
ATOM    100  O   UNL     1     -20.704   8.507  -7.892  1.00  0.00    -0.744 OA
ENDBRANCH  96  97
ENDBRANCH  70  91
ENDBRANCH  44  45
ENDBRANCH  36  39
ENDBRANCH  34  35
ENDBRANCH   1  34
TORSDOF 16
