REMARK SMILES Cc1ccc(S(=O)(=O)Nc2cc3c(cc2C(=O)NCCCCNC(=O)c2ccc(-c4c5nc(c(-c6ccc(S(=O)(=O)[O-])cc6)c6ccc([nH]6)c(-c6ccc(S(=O)(=O)[O-])cc6)c6nc(c(-c7ccc(S(=O)(=O)[O-])cc7)c7ccc4[nH]7)C=C6)C=C5)cc2)OCCO3)s1
REMARK SMILES IDX 20 1 19 2 18 3 16 4 17 5 15 7 10 8 11 9 12 10 14 11 13 12
REMARK SMILES IDX 89 13 86 14 88 15 87 16 9 17 6 19 7 20 8 21 5 22 1 23 2 24
REMARK SMILES IDX 3 25 90 26 4 27 21 28 22 29 23 30 24 31 25 33 26 34 27 35
REMARK SMILES IDX 85 36 28 37 84 38 29 39 30 40 31 41 78 42 32 43 83 44 77 45
REMARK SMILES IDX 79 46 33 47 82 48 76 49 75 50 34 52 64 53 45 54 63 55 46 56
REMARK SMILES IDX 49 57 62 58 80 59 47 60 48 61 61 63 81 64 50 65 35 66 36 67
REMARK SMILES IDX 44 68 37 69 43 70 38 71 39 72 40 73 41 74 42 75 65 76 66 77
REMARK SMILES IDX 74 78 67 79 73 80 68 81 69 82 70 83 71 84 72 85 51 86 52 87
REMARK SMILES IDX 60 88 53 89 59 90 54 91 55 92 56 93 57 94 58 95
REMARK H PARENT 18 6 9 18 23 32 79 51 49 62
REMARK Flexibility Score: inf
ROOT
ATOM      1  C   UNL     1       0.964  -3.008   2.095  1.00  0.00     0.023 C 
ENDROOT
BRANCH   1   2
ATOM      2  C   UNL     1      -0.494  -3.317   2.408  1.00  0.00     0.116 C 
BRANCH   2   3
ATOM      3  N   UNL     1      -1.310  -2.172   2.776  1.00  0.00    -0.352 N 
ATOM      4  C   UNL     1      -2.599  -1.829   2.430  1.00  0.00     0.253 C 
ATOM      5  O   UNL     1      -3.134  -0.889   3.011  1.00  0.00    -0.269 OA
ATOM      6  H   UNL     1      -0.865  -1.530   3.376  1.00  0.00     0.163 HD
BRANCH   4   7
ATOM      7  C   UNL     1      -3.326  -2.551   1.353  1.00  0.00     0.067 A 
ATOM      8  C   UNL     1      -4.024  -1.844   0.352  1.00  0.00     0.066 A 
ATOM      9  C   UNL     1      -4.602  -2.541  -0.717  1.00  0.00     0.078 A 
ATOM     10  C   UNL     1      -4.469  -3.928  -0.798  1.00  0.00     0.163 A 
ATOM     11  C   UNL     1      -3.313  -3.950   1.324  1.00  0.00     0.066 A 
ATOM     12  C   UNL     1      -3.816  -4.626   0.219  1.00  0.00     0.162 A 
ATOM     13  O   UNL     1      -4.986  -4.540  -1.911  1.00  0.00    -0.486 OA
ATOM     14  O   UNL     1      -3.598  -5.979   0.184  1.00  0.00    -0.486 OA
ATOM     15  C   UNL     1      -4.994  -5.970  -1.787  1.00  0.00     0.271 C 
ATOM     16  C   UNL     1      -3.705  -6.471  -1.156  1.00  0.00     0.271 C 
BRANCH   8  17
ATOM     17  N   UNL     1      -4.165  -0.420   0.423  1.00  0.00    -0.278 N 
ATOM     18  H   UNL     1      -4.764  -0.010   1.088  1.00  0.00     0.180 HD
BRANCH  17  19
ATOM     19  S   UNL     1      -3.290   0.543  -0.648  1.00  0.00     0.271 S 
ATOM     20  O   UNL     1      -3.325   1.895  -0.147  1.00  0.00    -0.200 OA
ATOM     21  O   UNL     1      -3.780   0.243  -1.983  1.00  0.00    -0.200 OA
BRANCH  19  22
ATOM     22  C   UNL     1      -1.599  -0.008  -0.673  1.00  0.00     0.140 A 
ATOM     23  C   UNL     1       2.249   0.190   0.076  1.00  0.00     0.056 C 
ATOM     24  C   UNL     1       0.844  -0.102  -0.332  1.00  0.00     0.003 A 
ATOM     25  C   UNL     1       0.389  -1.140  -1.119  1.00  0.00     0.016 A 
ATOM     26  S   UNL     1      -0.441   0.907   0.184  1.00  0.00    -0.127 S 
ATOM     27  C   UNL     1      -1.019  -1.095  -1.300  1.00  0.00     0.034 A 
ENDBRANCH  19  22
ENDBRANCH  17  19
ENDBRANCH   8  17
ENDBRANCH   4   7
ENDBRANCH   2   3
ENDBRANCH   1   2
BRANCH   1  28
ATOM     28  C   UNL     1       1.741  -2.206   3.128  1.00  0.00     0.023 C 
BRANCH  28  29
ATOM     29  C   UNL     1       1.674  -2.731   4.554  1.00  0.00     0.116 C 
BRANCH  29  30
ATOM     30  N   UNL     1       2.048  -4.130   4.675  1.00  0.00    -0.352 N 
ATOM     31  C   UNL     1       2.866  -4.744   5.592  1.00  0.00     0.251 C 
ATOM     32  H   UNL     1       1.655  -4.728   3.999  1.00  0.00     0.163 HD
ATOM     33  O   UNL     1       3.119  -5.939   5.469  1.00  0.00    -0.269 OA
BRANCH  31  34
ATOM     34  C   UNL     1       3.470  -3.965   6.696  1.00  0.00     0.039 A 
ATOM     35  C   UNL     1       4.809  -4.194   7.022  1.00  0.00     0.014 A 
ATOM     36  C   UNL     1       2.730  -3.018   7.409  1.00  0.00     0.014 A 
ATOM     37  C   UNL     1       5.420  -3.435   8.023  1.00  0.00     0.010 A 
ATOM     38  C   UNL     1       3.361  -2.204   8.345  1.00  0.00     0.010 A 
ATOM     39  C   UNL     1       4.707  -2.417   8.675  1.00  0.00    -0.014 A 
BRANCH  39  40
ATOM     40  C   UNL     1       5.340  -1.593   9.735  1.00  0.00     0.031 A 
ATOM     41  C   UNL     1       4.823  -1.664  11.147  1.00  0.00     0.074 A 
ATOM     42  C   UNL     1       6.335  -0.742   9.420  1.00  0.00     0.049 A 
ATOM     43  N   UNL     1       5.219  -1.003  12.205  1.00  0.00    -0.248 NA
ATOM     44  C   UNL     1       3.691  -2.571  11.396  1.00  0.00     0.031 C 
ATOM     45  C   UNL     1       6.881  -0.533   8.076  1.00  0.00     0.029 A 
ATOM     46  N   UNL     1       7.064   0.110  10.210  1.00  0.00    -0.354 N 
ATOM     47  C   UNL     1       4.366  -1.389  13.232  1.00  0.00     0.074 A 
ATOM     48  C   UNL     1       3.402  -2.303  12.661  1.00  0.00     0.031 C 
ATOM     49  C   UNL     1       7.876   0.367   8.142  1.00  0.00     0.029 A 
ATOM     50  C   UNL     1       8.024   0.814   9.523  1.00  0.00     0.049 A 
ATOM     51  H   UNL     1       6.912   0.209  11.178  1.00  0.00     0.167 HD
ATOM     52  C   UNL     1       4.393  -1.035  14.539  1.00  0.00     0.031 A 
ATOM     53  C   UNL     1       8.931   1.709   9.960  1.00  0.00     0.031 A 
ATOM     54  C   UNL     1       5.372  -0.152  15.112  1.00  0.00     0.049 A 
ATOM     55  C   UNL     1       8.993   2.032  11.426  1.00  0.00     0.074 A 
ATOM     56  C   UNL     1       5.530   0.220  16.435  1.00  0.00     0.029 A 
ATOM     57  N   UNL     1       6.369   0.489  14.392  1.00  0.00    -0.354 N 
ATOM     58  N   UNL     1       8.221   1.602  12.397  1.00  0.00    -0.248 NA
ATOM     59  C   UNL     1      10.065   2.937  11.860  1.00  0.00     0.031 C 
ATOM     60  C   UNL     1       6.609   1.109  16.511  1.00  0.00     0.029 A 
ATOM     61  C   UNL     1       7.146   1.256  15.242  1.00  0.00     0.049 A 
ATOM     62  H   UNL     1       6.504   0.411  13.420  1.00  0.00     0.167 HD
ATOM     63  C   UNL     1       8.732   2.163  13.562  1.00  0.00     0.074 A 
ATOM     64  C   UNL     1       9.884   2.953  13.174  1.00  0.00     0.031 C 
ATOM     65  C   UNL     1       8.290   2.033  14.837  1.00  0.00     0.031 A 
BRANCH  52  66
ATOM     66  C   UNL     1       3.322  -1.611  15.428  1.00  0.00    -0.014 A 
ATOM     67  C   UNL     1       3.313  -2.979  15.759  1.00  0.00     0.010 A 
ATOM     68  C   UNL     1       2.307  -0.779  15.931  1.00  0.00     0.010 A 
ATOM     69  C   UNL     1       2.275  -3.515  16.525  1.00  0.00     0.020 A 
ATOM     70  C   UNL     1       1.281  -1.306  16.721  1.00  0.00     0.020 A 
ATOM     71  C   UNL     1       1.258  -2.676  16.992  1.00  0.00     0.054 A 
BRANCH  71  72
ATOM     72  S   UNL     1      -0.086  -3.396  17.974  1.00  0.00     0.124 S 
ATOM     73  O   UNL     1      -0.909  -4.021  16.942  1.00  0.00    -0.237 OA
ATOM     74  O   UNL     1       0.619  -4.321  18.859  1.00  0.00    -0.237 OA
ATOM     75  O   UNL     1      -0.686  -2.241  18.637  1.00  0.00    -0.744 OA
ENDBRANCH  71  72
ENDBRANCH  52  66
BRANCH  53  76
ATOM     76  C   UNL     1       9.890   2.315   8.998  1.00  0.00    -0.014 A 
ATOM     77  C   UNL     1      11.229   1.887   8.968  1.00  0.00     0.010 A 
ATOM     78  C   UNL     1       9.462   3.292   8.082  1.00  0.00     0.010 A 
ATOM     79  C   UNL     1      12.126   2.433   8.046  1.00  0.00     0.020 A 
ATOM     80  C   UNL     1      10.351   3.825   7.144  1.00  0.00     0.020 A 
ATOM     81  C   UNL     1      11.681   3.397   7.137  1.00  0.00     0.054 A 
BRANCH  81  82
ATOM     82  S   UNL     1      12.843   4.038   5.899  1.00  0.00     0.124 S 
ATOM     83  O   UNL     1      13.646   4.967   6.688  1.00  0.00    -0.237 OA
ATOM     84  O   UNL     1      13.531   2.828   5.453  1.00  0.00    -0.237 OA
ATOM     85  O   UNL     1      11.971   4.652   4.900  1.00  0.00    -0.744 OA
ENDBRANCH  81  82
ENDBRANCH  53  76
BRANCH  65  86
ATOM     86  C   UNL     1       9.081   2.728  15.911  1.00  0.00    -0.014 A 
ATOM     87  C   UNL     1       9.020   4.123  16.074  1.00  0.00     0.010 A 
ATOM     88  C   UNL     1       9.870   1.965  16.791  1.00  0.00     0.010 A 
ATOM     89  C   UNL     1       9.769   4.748  17.075  1.00  0.00     0.020 A 
ATOM     90  C   UNL     1      10.601   2.584  17.807  1.00  0.00     0.020 A 
ATOM     91  C   UNL     1      10.560   3.974  17.931  1.00  0.00     0.054 A 
BRANCH  91  92
ATOM     92  S   UNL     1      11.506   4.801  19.239  1.00  0.00     0.124 S 
ATOM     93  O   UNL     1      12.649   5.328  18.498  1.00  0.00    -0.237 OA
ATOM     94  O   UNL     1      10.565   5.801  19.738  1.00  0.00    -0.237 OA
ATOM     95  O   UNL     1      11.813   3.723  20.176  1.00  0.00    -0.744 OA
ENDBRANCH  91  92
ENDBRANCH  65  86
ENDBRANCH  39  40
ENDBRANCH  31  34
ENDBRANCH  29  30
ENDBRANCH  28  29
ENDBRANCH   1  28
TORSDOF 17
