REMARK SMILES O=C1[NH+]=C(Nc2ccc(C(=O)NCCCCNC(=O)c3ccc(-c4c5nc(c(-c6ccc(S(=O)(=O)[O-])cc6)c6ccc([nH]6)c(-c6ccc(S(=O)(=O)[O-])cc6)c6nc(c(-c7ccc(S(=O)(=O)[O-])cc7)c7ccc4[nH]7)C=C6)C=C5)cc3)c(O)c2)S/C1=C\c1ccc[nH]1
REMARK SMILES IDX 15 1 14 2 13 3 12 4 10 5 11 6 9 8 6 9 7 10 82 11 8 12 80 13
REMARK SMILES IDX 5 14 1 15 2 16 3 17 84 18 4 19 83 21 85 22 86 24 87 25 90 26
REMARK SMILES IDX 88 27 89 28 81 30 16 32 17 33 18 34 19 36 20 37 21 38 79 39
REMARK SMILES IDX 22 40 78 41 23 42 24 43 25 44 72 45 26 46 77 47 71 48 73 49
REMARK SMILES IDX 27 50 76 51 70 52 69 53 28 55 58 56 39 57 57 58 40 59 43 60
REMARK SMILES IDX 56 61 74 62 41 63 42 64 55 66 75 67 44 68 29 69 30 70 38 71
REMARK SMILES IDX 31 72 37 73 32 74 33 75 34 76 35 77 36 78 59 79 60 80 68 81
REMARK SMILES IDX 61 82 67 83 62 84 63 85 64 86 65 87 66 88 45 89 46 90 54 91
REMARK SMILES IDX 47 92 53 93 48 94 49 95 50 96 51 97 52 98
REMARK H PARENT 12 7 3 20 5 23 90 29 81 31 17 35 73 54 43 65
REMARK Flexibility Score: inf
ROOT
ATOM      1  C   UNL     1      -1.553   9.981  -3.757  1.00  0.00     0.023 C 
ENDROOT
BRANCH   1   2
ATOM      2  C   UNL     1      -1.257   8.489  -3.627  1.00  0.00     0.023 C 
BRANCH   2   3
ATOM      3  C   UNL     1      -0.328   8.075  -2.490  1.00  0.00     0.116 C 
BRANCH   3   4
ATOM      4  N   UNL     1      -0.776   8.457  -1.160  1.00  0.00    -0.352 N 
ATOM      5  C   UNL     1      -0.612   7.815   0.046  1.00  0.00     0.255 C 
ATOM      6  O   UNL     1      -1.076   8.324   1.064  1.00  0.00    -0.269 OA
ATOM      7  H   UNL     1      -1.273   9.306  -1.116  1.00  0.00     0.163 HD
BRANCH   5   8
ATOM      8  C   UNL     1       0.057   6.494   0.145  1.00  0.00     0.081 A 
ATOM      9  C   UNL     1       1.028   3.843   0.258  1.00  0.00     0.129 A 
ATOM     10  C   UNL     1      -0.095   4.224   0.998  1.00  0.00     0.053 A 
ATOM     11  C   UNL     1       1.701   4.824  -0.480  1.00  0.00     0.098 A 
ATOM     12  C   UNL     1      -0.574   5.536   0.949  1.00  0.00     0.022 A 
ATOM     13  C   UNL     1       1.245   6.144  -0.500  1.00  0.00     0.132 A 
BRANCH   9  14
ATOM     14  N   UNL     1       1.449   2.511   0.164  1.00  0.00    -0.234 N 
ATOM     15  O   UNL     1      -2.276  -0.295  -0.023  1.00  0.00    -0.240 OA
ATOM     16  C   UNL     1      -1.097   0.029   0.056  1.00  0.00     0.346 C 
ATOM     17  N   UNL     1      -0.637   1.322   0.126  1.00  0.00    -0.199 N 
ATOM     18  C   UNL     1       0.019  -0.957   0.082  1.00  0.00     0.111 C 
ATOM     19  C   UNL     1       0.651   1.406   0.156  1.00  0.00     0.322 C 
ATOM     20  H   UNL     1      -1.230   2.107   0.150  1.00  0.00     0.316 HD
ATOM     21  S   UNL     1       1.516  -0.115   0.138  1.00  0.00     0.006 SA
ATOM     22  C   UNL     1      -0.197  -2.279   0.042  1.00  0.00     0.050 C 
ATOM     23  H   UNL     1       2.419   2.357   0.097  1.00  0.00     0.313 HD
BRANCH  22  24
ATOM     24  C   UNL     1       0.851  -3.225   0.136  1.00  0.00     0.039 A 
ATOM     25  C   UNL     1       1.853  -3.449   1.060  1.00  0.00     0.027 A 
ATOM     26  N   UNL     1       0.983  -4.168  -0.855  1.00  0.00    -0.362 N 
ATOM     27  C   UNL     1       2.633  -4.532   0.594  1.00  0.00     0.020 A 
ATOM     28  C   UNL     1       2.080  -4.952  -0.595  1.00  0.00     0.083 A 
ATOM     29  H   UNL     1       0.385  -4.266  -1.630  1.00  0.00     0.166 HD
ENDBRANCH  22  24
ENDBRANCH   9  14
BRANCH  13  30
ATOM     30  O   UNL     1       2.047   7.032  -1.161  1.00  0.00    -0.507 OA
ATOM     31  H   UNL     1       1.802   7.935  -1.213  1.00  0.00     0.293 HD
ENDBRANCH  13  30
ENDBRANCH   5   8
ENDBRANCH   3   4
ENDBRANCH   2   3
ENDBRANCH   1   2
BRANCH   1  32
ATOM     32  C   UNL     1      -0.351  10.916  -3.689  1.00  0.00     0.116 C 
BRANCH  32  33
ATOM     33  N   UNL     1       0.627  10.691  -4.745  1.00  0.00    -0.352 N 
ATOM     34  C   UNL     1       1.052  11.531  -5.750  1.00  0.00     0.251 C 
ATOM     35  H   UNL     1       1.048   9.802  -4.739  1.00  0.00     0.163 HD
ATOM     36  O   UNL     1       1.814  11.109  -6.615  1.00  0.00    -0.269 OA
BRANCH  34  37
ATOM     37  C   UNL     1       0.561  12.925  -5.811  1.00  0.00     0.039 A 
ATOM     38  C   UNL     1       0.098  13.428  -7.029  1.00  0.00     0.014 A 
ATOM     39  C   UNL     1       0.524  13.724  -4.667  1.00  0.00     0.014 A 
ATOM     40  C   UNL     1      -0.492  14.695  -7.076  1.00  0.00     0.010 A 
ATOM     41  C   UNL     1      -0.152  14.940  -4.695  1.00  0.00     0.010 A 
ATOM     42  C   UNL     1      -0.672  15.440  -5.898  1.00  0.00    -0.014 A 
BRANCH  42  43
ATOM     43  C   UNL     1      -1.409  16.732  -5.901  1.00  0.00     0.031 A 
ATOM     44  C   UNL     1      -0.723  17.998  -5.459  1.00  0.00     0.074 A 
ATOM     45  C   UNL     1      -2.718  16.757  -6.229  1.00  0.00     0.049 A 
ATOM     46  N   UNL     1      -1.218  19.204  -5.335  1.00  0.00    -0.248 NA
ATOM     47  C   UNL     1       0.696  17.892  -5.081  1.00  0.00     0.031 C 
ATOM     48  C   UNL     1      -3.514  15.593  -6.629  1.00  0.00     0.029 A 
ATOM     49  N   UNL     1      -3.614  17.797  -6.273  1.00  0.00    -0.354 N 
ATOM     50  C   UNL     1      -0.180  19.990  -4.847  1.00  0.00     0.074 A 
ATOM     51  C   UNL     1       0.953  19.116  -4.645  1.00  0.00     0.031 C 
ATOM     52  C   UNL     1      -4.767  15.989  -6.906  1.00  0.00     0.029 A 
ATOM     53  C   UNL     1      -4.880  17.423  -6.658  1.00  0.00     0.049 A 
ATOM     54  H   UNL     1      -3.371  18.725  -6.050  1.00  0.00     0.167 HD
ATOM     55  C   UNL     1      -0.164  21.324  -4.608  1.00  0.00     0.031 A 
ATOM     56  C   UNL     1      -6.011  18.146  -6.788  1.00  0.00     0.031 A 
ATOM     57  C   UNL     1      -1.292  22.192  -4.818  1.00  0.00     0.049 A 
ATOM     58  C   UNL     1      -5.973  19.623  -6.504  1.00  0.00     0.074 A 
ATOM     59  C   UNL     1      -1.357  23.566  -4.664  1.00  0.00     0.029 A 
ATOM     60  N   UNL     1      -2.552  21.774  -5.218  1.00  0.00    -0.354 N 
ATOM     61  N   UNL     1      -4.960  20.361  -6.117  1.00  0.00    -0.248 NA
ATOM     62  C   UNL     1      -7.226  20.367  -6.686  1.00  0.00     0.031 C 
ATOM     63  C   UNL     1      -2.674  23.970  -4.905  1.00  0.00     0.029 A 
ATOM     64  C   UNL     1      -3.410  22.859  -5.285  1.00  0.00     0.049 A 
ATOM     65  H   UNL     1      -2.800  20.844  -5.423  1.00  0.00     0.167 HD
ATOM     66  C   UNL     1      -5.446  21.662  -6.040  1.00  0.00     0.074 A 
ATOM     67  C   UNL     1      -6.839  21.610  -6.434  1.00  0.00     0.031 C 
ATOM     68  C   UNL     1      -4.796  22.796  -5.678  1.00  0.00     0.031 A 
BRANCH  55  69
ATOM     69  C   UNL     1       1.115  21.924  -4.081  1.00  0.00    -0.014 A 
ATOM     70  C   UNL     1       2.275  21.988  -4.875  1.00  0.00     0.010 A 
ATOM     71  C   UNL     1       1.147  22.469  -2.784  1.00  0.00     0.010 A 
ATOM     72  C   UNL     1       3.453  22.543  -4.367  1.00  0.00     0.020 A 
ATOM     73  C   UNL     1       2.312  23.056  -2.284  1.00  0.00     0.020 A 
ATOM     74  C   UNL     1       3.464  23.073  -3.073  1.00  0.00     0.054 A 
BRANCH  74  75
ATOM     75  S   UNL     1       5.000  23.806  -2.450  1.00  0.00     0.124 S 
ATOM     76  O   UNL     1       5.844  22.628  -2.266  1.00  0.00    -0.237 OA
ATOM     77  O   UNL     1       5.394  24.696  -3.539  1.00  0.00    -0.237 OA
ATOM     78  O   UNL     1       4.592  24.477  -1.218  1.00  0.00    -0.744 OA
ENDBRANCH  74  75
ENDBRANCH  55  69
BRANCH  56  79
ATOM     79  C   UNL     1      -7.274  17.481  -7.218  1.00  0.00    -0.014 A 
ATOM     80  C   UNL     1      -7.833  17.750  -8.480  1.00  0.00     0.010 A 
ATOM     81  C   UNL     1      -7.918  16.561  -6.370  1.00  0.00     0.010 A 
ATOM     82  C   UNL     1      -9.020  17.126  -8.879  1.00  0.00     0.020 A 
ATOM     83  C   UNL     1      -9.086  15.911  -6.778  1.00  0.00     0.020 A 
ATOM     84  C   UNL     1      -9.636  16.206  -8.026  1.00  0.00     0.054 A 
BRANCH  84  85
ATOM     85  S   UNL     1     -11.143  15.366  -8.589  1.00  0.00     0.124 S 
ATOM     86  O   UNL     1     -12.125  16.446  -8.550  1.00  0.00    -0.237 OA
ATOM     87  O   UNL     1     -10.765  14.901  -9.921  1.00  0.00    -0.237 OA
ATOM     88  O   UNL     1     -11.336  14.309  -7.599  1.00  0.00    -0.744 OA
ENDBRANCH  84  85
ENDBRANCH  56  79
BRANCH  68  89
ATOM     89  C   UNL     1      -5.567  24.090  -5.731  1.00  0.00    -0.014 A 
ATOM     90  C   UNL     1      -6.592  24.374  -4.811  1.00  0.00     0.010 A 
ATOM     91  C   UNL     1      -5.214  25.064  -6.683  1.00  0.00     0.010 A 
ATOM     92  C   UNL     1      -7.269  25.596  -4.862  1.00  0.00     0.020 A 
ATOM     93  C   UNL     1      -5.865  26.300  -6.716  1.00  0.00     0.020 A 
ATOM     94  C   UNL     1      -6.899  26.552  -5.814  1.00  0.00     0.054 A 
BRANCH  94  95
ATOM     95  S   UNL     1      -7.761  28.148  -5.827  1.00  0.00     0.124 S 
ATOM     96  O   UNL     1      -9.077  27.779  -6.342  1.00  0.00    -0.237 OA
ATOM     97  O   UNL     1      -7.723  28.543  -4.422  1.00  0.00    -0.237 OA
ATOM     98  O   UNL     1      -6.952  28.972  -6.722  1.00  0.00    -0.744 OA
ENDBRANCH  94  95
ENDBRANCH  68  89
ENDBRANCH  42  43
ENDBRANCH  34  37
ENDBRANCH  32  33
ENDBRANCH   1  32
TORSDOF 17
