REMARK SMILES CCCN(CCC)c1cc(C(=O)NCCCCNC(=O)c2ccc(-c3c4nc(c(-c5ccc(S(=O)(=O)[O-])cc5)c5ccc([nH]5)c(-c5ccc(S(=O)(=O)[O-])cc5)c5nc(c(-c6ccc(S(=O)(=O)[O-])cc6)c6ccc3[nH]6)C=C5)C=C4)cc2)cc(C(F)(F)F)c1
REMARK SMILES IDX 15 1 14 2 13 3 11 4 12 5 10 7 8 8 9 9 87 10 82 11 81 12 4 13
REMARK SMILES IDX 3 14 2 15 1 16 5 17 6 18 7 19 83 20 84 21 85 22 86 23 16 24
REMARK SMILES IDX 17 25 18 26 19 27 20 29 21 30 22 31 80 32 23 33 79 34 24 35
REMARK SMILES IDX 25 36 26 37 73 38 27 39 78 40 72 41 74 42 28 43 77 44 71 45
REMARK SMILES IDX 70 46 29 48 59 49 40 50 58 51 41 52 44 53 57 54 75 55 42 56
REMARK SMILES IDX 43 57 56 59 76 60 45 61 30 62 31 63 39 64 32 65 38 66 33 67
REMARK SMILES IDX 34 68 35 69 36 70 37 71 60 72 61 73 69 74 62 75 68 76 63 77
REMARK SMILES IDX 64 78 65 79 66 80 67 81 46 82 47 83 55 84 48 85 54 86 49 87
REMARK SMILES IDX 50 88 51 89 52 90 53 91
REMARK H PARENT 13 6 18 28 74 47 44 58
REMARK Flexibility Score: inf
ROOT
ATOM      1  C   UNL     1      -1.216   1.000   7.187  1.00  0.00     0.023 C 
ENDROOT
BRANCH   1   2
ATOM      2  C   UNL     1       0.094   0.726   6.465  1.00  0.00     0.116 C 
BRANCH   2   3
ATOM      3  N   UNL     1       0.680  -0.589   6.671  1.00  0.00    -0.352 N 
ATOM      4  C   UNL     1       1.426  -1.358   5.797  1.00  0.00     0.251 C 
ATOM      5  O   UNL     1       1.879  -2.438   6.163  1.00  0.00    -0.269 OA
ATOM      6  H   UNL     1       0.525  -0.987   7.558  1.00  0.00     0.163 HD
BRANCH   4   7
ATOM      7  C   UNL     1       1.581  -0.935   4.379  1.00  0.00     0.042 A 
ATOM      8  C   UNL     1       1.114  -1.542   2.051  1.00  0.00     0.038 A 
ATOM      9  C   UNL     1       1.343  -1.896   3.384  1.00  0.00     0.039 A 
ATOM     10  C   UNL     1       1.184  -0.176   1.763  1.00  0.00     0.039 A 
ATOM     11  C   UNL     1       1.481   0.800   2.726  1.00  0.00     0.058 A 
ATOM     12  C   UNL     1       1.775   0.394   4.024  1.00  0.00     0.027 A 
BRANCH   8  13
ATOM     13  N   UNL     1       0.745  -2.464   1.081  1.00  0.00    -0.372 N 
BRANCH  13  14
ATOM     14  C   UNL     1       1.269  -2.371  -0.290  1.00  0.00     0.116 C 
BRANCH  14  15
ATOM     15  C   UNL     1       0.274  -1.801  -1.318  1.00  0.00     0.018 C 
ATOM     16  C   UNL     1       0.392  -0.306  -1.593  1.00  0.00     0.006 C 
ENDBRANCH  14  15
ENDBRANCH  13  14
BRANCH  13  17
ATOM     17  C   UNL     1      -0.297  -3.470   1.367  1.00  0.00     0.116 C 
BRANCH  17  18
ATOM     18  C   UNL     1       0.218  -4.716   2.097  1.00  0.00     0.018 C 
ATOM     19  C   UNL     1      -0.438  -4.904   3.465  1.00  0.00     0.006 C 
ENDBRANCH  17  18
ENDBRANCH  13  17
ENDBRANCH   8  13
BRANCH  11  20
ATOM     20  C   UNL     1       1.278   2.262   2.428  1.00  0.00     0.416 C 
ATOM     21  F   UNL     1       0.161   2.742   3.049  1.00  0.00    -0.166 F 
ATOM     22  F   UNL     1       2.304   3.042   2.856  1.00  0.00    -0.166 F 
ATOM     23  F   UNL     1       1.112   2.537   1.105  1.00  0.00    -0.166 F 
ENDBRANCH  11  20
ENDBRANCH   4   7
ENDBRANCH   2   3
ENDBRANCH   1   2
BRANCH   1  24
ATOM     24  C   UNL     1      -1.196   0.890   8.703  1.00  0.00     0.023 C 
BRANCH  24  25
ATOM     25  C   UNL     1      -0.032   1.567   9.413  1.00  0.00     0.116 C 
BRANCH  25  26
ATOM     26  N   UNL     1       0.081   2.992   9.141  1.00  0.00    -0.352 N 
ATOM     27  C   UNL     1       0.162   4.056  10.015  1.00  0.00     0.251 C 
ATOM     28  H   UNL     1       0.103   3.233   8.187  1.00  0.00     0.163 HD
ATOM     29  O   UNL     1       0.182   5.196   9.584  1.00  0.00    -0.269 OA
BRANCH  27  30
ATOM     30  C   UNL     1       0.177   3.810  11.477  1.00  0.00     0.039 A 
ATOM     31  C   UNL     1      -0.649   4.586  12.295  1.00  0.00     0.014 A 
ATOM     32  C   UNL     1       0.973   2.809  12.038  1.00  0.00     0.014 A 
ATOM     33  C   UNL     1      -0.739   4.298  13.659  1.00  0.00     0.010 A 
ATOM     34  C   UNL     1       0.809   2.463  13.376  1.00  0.00     0.010 A 
ATOM     35  C   UNL     1      -0.046   3.204  14.204  1.00  0.00    -0.014 A 
BRANCH  35  36
ATOM     36  C   UNL     1      -0.204   2.825  15.633  1.00  0.00     0.031 A 
ATOM     37  C   UNL     1       0.982   2.854  16.560  1.00  0.00     0.074 A 
ATOM     38  C   UNL     1      -1.402   2.400  16.084  1.00  0.00     0.049 A 
ATOM     39  N   UNL     1       1.047   2.529  17.826  1.00  0.00    -0.248 NA
ATOM     40  C   UNL     1       2.270   3.277  15.984  1.00  0.00     0.031 C 
ATOM     41  C   UNL     1      -2.618   2.273  15.276  1.00  0.00     0.029 A 
ATOM     42  N   UNL     1      -1.795   1.994  17.336  1.00  0.00    -0.354 N 
ATOM     43  C   UNL     1       2.379   2.691  18.191  1.00  0.00     0.074 A 
ATOM     44  C   UNL     1       3.098   3.086  17.000  1.00  0.00     0.031 C 
ATOM     45  C   UNL     1      -3.626   1.856  16.059  1.00  0.00     0.029 A 
ATOM     46  C   UNL     1      -3.124   1.648  17.413  1.00  0.00     0.049 A 
ATOM     47  H   UNL     1      -1.183   1.954  18.105  1.00  0.00     0.167 HD
ATOM     48  C   UNL     1       2.951   2.548  19.410  1.00  0.00     0.031 A 
ATOM     49  C   UNL     1      -3.858   1.212  18.456  1.00  0.00     0.031 A 
ATOM     50  C   UNL     1       2.232   2.169  20.598  1.00  0.00     0.049 A 
ATOM     51  C   UNL     1      -3.203   1.068  19.803  1.00  0.00     0.074 A 
ATOM     52  C   UNL     1       2.707   2.055  21.892  1.00  0.00     0.029 A 
ATOM     53  N   UNL     1       0.885   1.842  20.636  1.00  0.00    -0.354 N 
ATOM     54  N   UNL     1      -1.956   1.296  20.142  1.00  0.00    -0.248 NA
ATOM     55  C   UNL     1      -4.058   0.622  20.911  1.00  0.00     0.031 C 
ATOM     56  C   UNL     1       1.659   1.610  22.705  1.00  0.00     0.029 A 
ATOM     57  C   UNL     1       0.517   1.505  21.928  1.00  0.00     0.049 A 
ATOM     58  H   UNL     1       0.279   1.849  19.860  1.00  0.00     0.167 HD
ATOM     59  C   UNL     1      -1.885   1.048  21.508  1.00  0.00     0.074 A 
ATOM     60  C   UNL     1      -3.217   0.671  21.935  1.00  0.00     0.031 C 
ATOM     61  C   UNL     1      -0.813   1.126  22.336  1.00  0.00     0.031 A 
BRANCH  48  62
ATOM     62  C   UNL     1       4.432   2.805  19.518  1.00  0.00    -0.014 A 
ATOM     63  C   UNL     1       4.957   4.102  19.369  1.00  0.00     0.010 A 
ATOM     64  C   UNL     1       5.309   1.743  19.803  1.00  0.00     0.010 A 
ATOM     65  C   UNL     1       6.334   4.324  19.458  1.00  0.00     0.020 A 
ATOM     66  C   UNL     1       6.684   1.966  19.924  1.00  0.00     0.020 A 
ATOM     67  C   UNL     1       7.189   3.253  19.732  1.00  0.00     0.054 A 
BRANCH  67  68
ATOM     68  S   UNL     1       8.969   3.575  19.862  1.00  0.00     0.124 S 
ATOM     69  O   UNL     1       9.336   3.806  18.467  1.00  0.00    -0.237 OA
ATOM     70  O   UNL     1       9.020   4.751  20.727  1.00  0.00    -0.237 OA
ATOM     71  O   UNL     1       9.502   2.349  20.451  1.00  0.00    -0.744 OA
ENDBRANCH  67  68
ENDBRANCH  48  62
BRANCH  49  72
ATOM     72  C   UNL     1      -5.305   0.906  18.274  1.00  0.00    -0.014 A 
ATOM     73  C   UNL     1      -6.288   1.736  18.843  1.00  0.00     0.010 A 
ATOM     74  C   UNL     1      -5.708  -0.212  17.522  1.00  0.00     0.010 A 
ATOM     75  C   UNL     1      -7.645   1.442  18.680  1.00  0.00     0.020 A 
ATOM     76  C   UNL     1      -7.064  -0.493  17.333  1.00  0.00     0.020 A 
ATOM     77  C   UNL     1      -8.025   0.330  17.924  1.00  0.00     0.054 A 
BRANCH  77  78
ATOM     78  S   UNL     1      -9.792  -0.004  17.684  1.00  0.00     0.124 S 
ATOM     79  O   UNL     1     -10.188  -0.504  18.996  1.00  0.00    -0.237 OA
ATOM     80  O   UNL     1     -10.315   1.312  17.323  1.00  0.00    -0.237 OA
ATOM     81  O   UNL     1      -9.810  -0.989  16.605  1.00  0.00    -0.744 OA
ENDBRANCH  77  78
ENDBRANCH  49  72
BRANCH  61  82
ATOM     82  C   UNL     1      -1.044   0.829  23.794  1.00  0.00    -0.014 A 
ATOM     83  C   UNL     1      -1.304  -0.478  24.242  1.00  0.00     0.010 A 
ATOM     84  C   UNL     1      -0.960   1.873  24.735  1.00  0.00     0.010 A 
ATOM     85  C   UNL     1      -1.520  -0.729  25.600  1.00  0.00     0.020 A 
ATOM     86  C   UNL     1      -1.145   1.621  26.096  1.00  0.00     0.020 A 
ATOM     87  C   UNL     1      -1.442   0.323  26.518  1.00  0.00     0.054 A 
BRANCH  87  88
ATOM     88  S   UNL     1      -1.700  -0.032  28.278  1.00  0.00     0.124 S 
ATOM     89  O   UNL     1      -3.145  -0.235  28.337  1.00  0.00    -0.237 OA
ATOM     90  O   UNL     1      -0.888  -1.228  28.487  1.00  0.00    -0.237 OA
ATOM     91  O   UNL     1      -1.212   1.170  28.950  1.00  0.00    -0.744 OA
ENDBRANCH  87  88
ENDBRANCH  61  82
ENDBRANCH  35  36
ENDBRANCH  27  30
ENDBRANCH  25  26
ENDBRANCH  24  25
ENDBRANCH   1  24
TORSDOF 20
