REMARK SMILES COc1ccc(C(=O)C2=C(NCCCCNC(=O)c3ccc(-c4c5nc(c(-c6ccc(S(=O)(=O)[O-])cc6)c6ccc([nH]6)c(-c6ccc(S(=O)(=O)[O-])cc6)c6nc(c(-c7ccc(S(=O)(=O)[O-])cc7)c7ccc4[nH]7)C=C6)C=C5)cc3)C(=O)N(CC(=O)[O-])[C@H]2c2ccccc2)cc1
REMARK SMILES IDX 13 1 12 2 11 3 10 5 9 6 86 7 79 8 81 9 80 10 7 11 8 12 6 13
REMARK SMILES IDX 3 14 4 15 94 16 5 17 93 18 2 19 1 20 87 21 88 22 92 23 89 24
REMARK SMILES IDX 91 25 90 26 82 27 83 28 84 29 85 30 14 31 15 32 16 33 17 34
REMARK SMILES IDX 18 36 19 37 20 38 78 39 21 40 77 41 22 42 23 43 24 44 71 45
REMARK SMILES IDX 25 46 76 47 70 48 72 49 26 50 75 51 69 52 68 53 27 55 57 56
REMARK SMILES IDX 38 57 56 58 39 59 42 60 55 61 73 62 40 63 41 64 54 66 74 67
REMARK SMILES IDX 43 68 28 69 29 70 37 71 30 72 36 73 31 74 32 75 33 76 34 77
REMARK SMILES IDX 35 78 58 79 59 80 67 81 60 82 66 83 61 84 62 85 63 86 64 87
REMARK SMILES IDX 65 88 44 89 45 90 53 91 46 92 52 93 47 94 48 95 49 96 50 97
REMARK SMILES IDX 51 98
REMARK H PARENT 11 4 16 35 72 54 42 65
REMARK Flexibility Score: inf
ROOT
ATOM      1  C   UNL     1       0.352  -5.157  -5.433  1.00  0.00     0.023 C 
ENDROOT
BRANCH   1   2
ATOM      2  C   UNL     1       0.698  -6.421  -4.646  1.00  0.00     0.113 C 
BRANCH   2   3
ATOM      3  N   UNL     1       2.118  -6.671  -4.693  1.00  0.00    -0.380 N 
ATOM      4  H   UNL     1       2.479  -6.858  -5.590  1.00  0.00     0.160 HD
BRANCH   3   5
ATOM      5  C   UNL     1       3.042  -6.691  -3.681  1.00  0.00     0.110 C 
ATOM      6  C   UNL     1       3.041  -6.482  -2.358  1.00  0.00     0.056 C 
ATOM      7  C   UNL     1       4.368  -6.701  -1.692  1.00  0.00     0.153 C 
ATOM      8  C   UNL     1       4.456  -7.102  -3.991  1.00  0.00     0.271 C 
ATOM      9  N   UNL     1       5.155  -7.156  -2.811  1.00  0.00    -0.320 N 
ATOM     10  O   UNL     1       4.876  -7.348  -5.110  1.00  0.00    -0.267 OA
BRANCH   6  11
ATOM     11  C   UNL     1       1.823  -6.297  -1.555  1.00  0.00     0.193 C 
ATOM     12  O   UNL     1       1.232  -7.286  -1.127  1.00  0.00    -0.289 OA
BRANCH  11  13
ATOM     13  C   UNL     1       1.334  -4.928  -1.217  1.00  0.00     0.023 A 
ATOM     14  C   UNL     1       0.444  -2.413  -0.297  1.00  0.00     0.118 A 
ATOM     15  C   UNL     1      -0.320  -3.559  -0.073  1.00  0.00     0.047 A 
ATOM     16  C   UNL     1       1.624  -2.520  -1.028  1.00  0.00     0.047 A 
ATOM     17  C   UNL     1       0.124  -4.809  -0.521  1.00  0.00     0.016 A 
ATOM     18  C   UNL     1       2.046  -3.765  -1.512  1.00  0.00     0.016 A 
BRANCH  14  19
ATOM     19  O   UNL     1      -0.062  -1.265   0.247  1.00  0.00    -0.497 OA
ATOM     20  C   UNL     1       0.669  -0.068   0.008  1.00  0.00     0.278 C 
ENDBRANCH  14  19
ENDBRANCH  11  13
ENDBRANCH   6  11
BRANCH   7  21
ATOM     21  C   UNL     1       4.950  -5.431  -1.085  1.00  0.00    -0.021 A 
ATOM     22  C   UNL     1       5.482  -4.406  -1.896  1.00  0.00     0.006 A 
ATOM     23  C   UNL     1       4.920  -5.234   0.303  1.00  0.00     0.006 A 
ATOM     24  C   UNL     1       5.944  -3.214  -1.338  1.00  0.00     0.000 A 
ATOM     25  C   UNL     1       5.393  -4.043   0.859  1.00  0.00     0.000 A 
ATOM     26  C   UNL     1       5.896  -3.033   0.040  1.00  0.00     0.000 A 
ENDBRANCH   7  21
BRANCH   9  27
ATOM     27  C   UNL     1       6.560  -7.527  -2.723  1.00  0.00     0.173 C 
BRANCH  27  28
ATOM     28  C   UNL     1       6.850  -9.012  -2.876  1.00  0.00     0.061 C 
ATOM     29  O   UNL     1       7.969  -9.502  -2.947  1.00  0.00    -0.548 OA
ATOM     30  O   UNL     1       5.767  -9.811  -2.850  1.00  0.00    -0.548 OA
ENDBRANCH  27  28
ENDBRANCH   9  27
ENDBRANCH   3   5
ENDBRANCH   2   3
ENDBRANCH   1   2
BRANCH   1  31
ATOM     31  C   UNL     1       0.575  -5.256  -6.944  1.00  0.00     0.023 C 
BRANCH  31  32
ATOM     32  C   UNL     1      -0.135  -6.415  -7.639  1.00  0.00     0.116 C 
BRANCH  32  33
ATOM     33  N   UNL     1      -1.578  -6.399  -7.445  1.00  0.00    -0.352 N 
ATOM     34  C   UNL     1      -2.583  -6.533  -8.374  1.00  0.00     0.251 C 
ATOM     35  H   UNL     1      -1.877  -6.275  -6.516  1.00  0.00     0.163 HD
ATOM     36  O   UNL     1      -3.752  -6.366  -8.040  1.00  0.00    -0.269 OA
BRANCH  34  37
ATOM     37  C   UNL     1      -2.249  -6.842  -9.781  1.00  0.00     0.039 A 
ATOM     38  C   UNL     1      -2.840  -6.088 -10.797  1.00  0.00     0.014 A 
ATOM     39  C   UNL     1      -1.338  -7.854 -10.095  1.00  0.00     0.014 A 
ATOM     40  C   UNL     1      -2.456  -6.293 -12.124  1.00  0.00     0.010 A 
ATOM     41  C   UNL     1      -0.905  -8.009 -11.410  1.00  0.00     0.010 A 
ATOM     42  C   UNL     1      -1.452  -7.224 -12.437  1.00  0.00    -0.014 A 
BRANCH  42  43
ATOM     43  C   UNL     1      -0.943  -7.378 -13.824  1.00  0.00     0.031 A 
ATOM     44  C   UNL     1      -1.115  -8.681 -14.556  1.00  0.00     0.074 A 
ATOM     45  C   UNL     1      -0.259  -6.367 -14.398  1.00  0.00     0.049 A 
ATOM     46  N   UNL     1      -0.670  -9.028 -15.737  1.00  0.00    -0.248 NA
ATOM     47  C   UNL     1      -1.864  -9.740 -13.861  1.00  0.00     0.031 C 
ATOM     48  C   UNL     1       0.009  -5.065 -13.781  1.00  0.00     0.029 A 
ATOM     49  N   UNL     1       0.345  -6.279 -15.628  1.00  0.00    -0.354 N 
ATOM     50  C   UNL     1      -1.070 -10.347 -15.919  1.00  0.00     0.074 A 
ATOM     51  C   UNL     1      -1.752 -10.752 -14.709  1.00  0.00     0.031 C 
ATOM     52  C   UNL     1       0.700  -4.303 -14.643  1.00  0.00     0.029 A 
ATOM     53  C   UNL     1       0.964  -5.071 -15.855  1.00  0.00     0.049 A 
ATOM     54  H   UNL     1       0.337  -7.011 -16.286  1.00  0.00     0.167 HD
ATOM     55  C   UNL     1      -0.901 -11.143 -17.002  1.00  0.00     0.031 A 
ATOM     56  C   UNL     1       1.672  -4.633 -16.914  1.00  0.00     0.031 A 
ATOM     57  C   UNL     1      -0.229 -10.735 -18.207  1.00  0.00     0.049 A 
ATOM     58  C   UNL     1       1.863  -5.543 -18.097  1.00  0.00     0.074 A 
ATOM     59  C   UNL     1      -0.051 -11.453 -19.377  1.00  0.00     0.029 A 
ATOM     60  N   UNL     1       0.378  -9.503 -18.398  1.00  0.00    -0.354 N 
ATOM     61  N   UNL     1       1.426  -6.767 -18.273  1.00  0.00    -0.248 NA
ATOM     62  C   UNL     1       2.635  -5.008 -19.228  1.00  0.00     0.031 C 
ATOM     63  C   UNL     1       0.705 -10.673 -20.258  1.00  0.00     0.029 A 
ATOM     64  C   UNL     1       0.949  -9.447 -19.658  1.00  0.00     0.049 A 
ATOM     65  H   UNL     1       0.399  -8.775 -17.736  1.00  0.00     0.167 HD
ATOM     66  C   UNL     1       1.848  -7.139 -19.545  1.00  0.00     0.074 A 
ATOM     67  C   UNL     1       2.562  -6.007 -20.098  1.00  0.00     0.031 C 
ATOM     68  C   UNL     1       1.657  -8.313 -20.196  1.00  0.00     0.031 A 
BRANCH  55  69
ATOM     69  C   UNL     1      -1.452 -12.543 -16.927  1.00  0.00    -0.014 A 
ATOM     70  C   UNL     1      -2.839 -12.777 -16.933  1.00  0.00     0.010 A 
ATOM     71  C   UNL     1      -0.574 -13.641 -16.888  1.00  0.00     0.010 A 
ATOM     72  C   UNL     1      -3.338 -14.080 -16.857  1.00  0.00     0.020 A 
ATOM     73  C   UNL     1      -1.069 -14.948 -16.840  1.00  0.00     0.020 A 
ATOM     74  C   UNL     1      -2.449 -15.157 -16.807  1.00  0.00     0.054 A 
BRANCH  74  75
ATOM     75  S   UNL     1      -3.125 -16.838 -16.727  1.00  0.00     0.124 S 
ATOM     76  O   UNL     1      -3.615 -16.900 -15.352  1.00  0.00    -0.237 OA
ATOM     77  O   UNL     1      -4.157 -16.819 -17.760  1.00  0.00    -0.237 OA
ATOM     78  O   UNL     1      -1.974 -17.690 -17.017  1.00  0.00    -0.744 OA
ENDBRANCH  74  75
ENDBRANCH  55  69
BRANCH  56  79
ATOM     79  C   UNL     1       2.243  -3.258 -16.910  1.00  0.00    -0.014 A 
ATOM     80  C   UNL     1       1.705  -2.262 -17.744  1.00  0.00     0.010 A 
ATOM     81  C   UNL     1       3.318  -2.933 -16.063  1.00  0.00     0.010 A 
ATOM     82  C   UNL     1       2.241  -0.971 -17.743  1.00  0.00     0.020 A 
ATOM     83  C   UNL     1       3.839  -1.636 -16.039  1.00  0.00     0.020 A 
ATOM     84  C   UNL     1       3.304  -0.666 -16.889  1.00  0.00     0.054 A 
BRANCH  84  85
ATOM     85  S   UNL     1       3.949   1.030 -16.866  1.00  0.00     0.124 S 
ATOM     86  O   UNL     1       4.690   1.091 -18.122  1.00  0.00    -0.237 OA
ATOM     87  O   UNL     1       2.729   1.832 -16.811  1.00  0.00    -0.237 OA
ATOM     88  O   UNL     1       4.765   1.069 -15.655  1.00  0.00    -0.744 OA
ENDBRANCH  84  85
ENDBRANCH  56  79
BRANCH  68  89
ATOM     89  C   UNL     1       2.200  -8.427 -21.596  1.00  0.00    -0.014 A 
ATOM     90  C   UNL     1       3.579  -8.552 -21.836  1.00  0.00     0.010 A 
ATOM     91  C   UNL     1       1.307  -8.472 -22.683  1.00  0.00     0.010 A 
ATOM     92  C   UNL     1       4.058  -8.694 -23.141  1.00  0.00     0.020 A 
ATOM     93  C   UNL     1       1.780  -8.641 -23.986  1.00  0.00     0.020 A 
ATOM     94  C   UNL     1       3.155  -8.739 -24.208  1.00  0.00     0.054 A 
BRANCH  94  95
ATOM     95  S   UNL     1       3.798  -8.979 -25.887  1.00  0.00     0.124 S 
ATOM     96  O   UNL     1       4.378  -7.671 -26.180  1.00  0.00    -0.237 OA
ATOM     97  O   UNL     1       4.757 -10.067 -25.712  1.00  0.00    -0.237 OA
ATOM     98  O   UNL     1       2.611  -9.323 -26.668  1.00  0.00    -0.744 OA
ENDBRANCH  94  95
ENDBRANCH  68  89
ENDBRANCH  42  43
ENDBRANCH  34  37
ENDBRANCH  32  33
ENDBRANCH  31  32
ENDBRANCH   1  31
TORSDOF 20
