REMARK SMILES CC(C)(C)c1ccc(C(=O)N/C(=C/c2ccc(O)cc2)C(=O)NCCCCNC(=O)c2ccc(-c3c4nc(c(-c5ccc(S(=O)(=O)[O-])cc5)c5ccc([nH]5)c(-c5ccc(S(=O)(=O)[O-])cc5)c5nc(c(-c6ccc(S(=O)(=O)[O-])cc6)c6ccc3[nH]6)C=C5)C=C4)cc2)cc1
REMARK SMILES IDX 25 1 24 2 23 3 21 4 22 5 12 7 13 8 11 9 9 10 10 11 8 13 5 14
REMARK SMILES IDX 6 15 92 16 7 17 91 18 2 19 1 20 3 21 4 22 14 23 15 24 20 25
REMARK SMILES IDX 16 26 19 27 17 28 18 29 26 31 27 32 28 33 29 34 30 36 31 37
REMARK SMILES IDX 32 38 90 39 33 40 89 41 34 42 35 43 36 44 83 45 37 46 88 47
REMARK SMILES IDX 82 48 84 49 38 50 87 51 81 52 80 53 39 55 69 56 50 57 68 58
REMARK SMILES IDX 51 59 54 60 67 61 85 62 52 63 53 64 66 66 86 67 55 68 40 69
REMARK SMILES IDX 41 70 49 71 42 72 48 73 43 74 44 75 45 76 46 77 47 78 70 79
REMARK SMILES IDX 71 80 79 81 72 82 78 83 73 84 74 85 75 86 76 87 77 88 56 89
REMARK SMILES IDX 57 90 65 91 58 92 64 93 59 94 60 95 61 96 62 97 63 98
REMARK H PARENT 23 6 11 12 18 30 28 35 84 54 54 65
REMARK Flexibility Score: inf
ROOT
ATOM      1  C   UNL     1       7.285  -1.657   0.499  1.00  0.00     0.023 C 
ENDROOT
BRANCH   1   2
ATOM      2  C   UNL     1       6.692  -2.707   1.433  1.00  0.00     0.116 C 
BRANCH   2   3
ATOM      3  N   UNL     1       5.324  -3.058   1.142  1.00  0.00    -0.351 N 
ATOM      4  C   UNL     1       4.878  -4.318   0.867  1.00  0.00     0.267 C 
ATOM      5  O   UNL     1       4.241  -4.460  -0.182  1.00  0.00    -0.268 OA
ATOM      6  H   UNL     1       4.660  -2.331   1.141  1.00  0.00     0.163 HD
BRANCH   4   7
ATOM      7  C   UNL     1       4.976  -5.499   1.843  1.00  0.00     0.107 C 
ATOM      8  C   UNL     1       5.953  -5.869   2.702  1.00  0.00     0.040 C 
BRANCH   7   9
ATOM      9  N   UNL     1       3.898  -6.391   1.812  1.00  0.00    -0.317 N 
ATOM     10  C   UNL     1       2.558  -6.203   1.533  1.00  0.00     0.255 C 
ATOM     11  O   UNL     1       1.845  -7.188   1.336  1.00  0.00    -0.269 OA
ATOM     12  H   UNL     1       4.138  -7.321   2.028  1.00  0.00     0.170 HD
BRANCH  10  13
ATOM     13  C   UNL     1       1.926  -4.859   1.597  1.00  0.00     0.040 A 
ATOM     14  C   UNL     1       0.795  -2.262   1.547  1.00  0.00    -0.043 A 
ATOM     15  C   UNL     1       0.352  -3.272   0.671  1.00  0.00     0.005 A 
ATOM     16  C   UNL     1       1.763  -2.615   2.502  1.00  0.00     0.005 A 
ATOM     17  C   UNL     1       0.905  -4.557   0.697  1.00  0.00     0.014 A 
ATOM     18  C   UNL     1       2.305  -3.905   2.544  1.00  0.00     0.014 A 
BRANCH  14  19
ATOM     19  C   UNL     1       0.286  -0.817   1.388  1.00  0.00    -0.013 C 
ATOM     20  C   UNL     1       0.877  -0.244   0.082  1.00  0.00     0.016 C 
ATOM     21  C   UNL     1       0.708   0.120   2.542  1.00  0.00     0.016 C 
ATOM     22  C   UNL     1      -1.255  -0.772   1.310  1.00  0.00     0.016 C 
ENDBRANCH  14  19
ENDBRANCH  10  13
ENDBRANCH   7   9
BRANCH   8  23
ATOM     23  C   UNL     1       7.168  -5.202   3.162  1.00  0.00    -0.023 A 
ATOM     24  C   UNL     1       8.396  -5.371   2.513  1.00  0.00     0.012 A 
ATOM     25  C   UNL     1       7.089  -4.371   4.291  1.00  0.00     0.012 A 
ATOM     26  C   UNL     1       9.503  -4.626   2.926  1.00  0.00     0.047 A 
ATOM     27  C   UNL     1       8.199  -3.631   4.705  1.00  0.00     0.047 A 
ATOM     28  C   UNL     1       9.388  -3.743   3.997  1.00  0.00     0.115 A 
BRANCH  28  29
ATOM     29  O   UNL     1      10.479  -2.991   4.307  1.00  0.00    -0.508 OA
ATOM     30  H   UNL     1      11.270  -3.086   3.813  1.00  0.00     0.293 HD
ENDBRANCH  28  29
ENDBRANCH   8  23
ENDBRANCH   4   7
ENDBRANCH   2   3
ENDBRANCH   1   2
BRANCH   1  31
ATOM     31  C   UNL     1       7.005  -0.205   0.869  1.00  0.00     0.023 C 
BRANCH  31  32
ATOM     32  C   UNL     1       7.384   0.221   2.285  1.00  0.00     0.116 C 
BRANCH  32  33
ATOM     33  N   UNL     1       8.735  -0.138   2.701  1.00  0.00    -0.352 N 
ATOM     34  C   UNL     1       9.645   0.616   3.410  1.00  0.00     0.251 C 
ATOM     35  H   UNL     1       9.037  -1.039   2.442  1.00  0.00     0.163 HD
ATOM     36  O   UNL     1      10.718   0.134   3.759  1.00  0.00    -0.269 OA
BRANCH  34  37
ATOM     37  C   UNL     1       9.318   2.021   3.727  1.00  0.00     0.039 A 
ATOM     38  C   UNL     1      10.150   3.040   3.257  1.00  0.00     0.014 A 
ATOM     39  C   UNL     1       8.134   2.325   4.403  1.00  0.00     0.014 A 
ATOM     40  C   UNL     1       9.738   4.370   3.372  1.00  0.00     0.010 A 
ATOM     41  C   UNL     1       7.692   3.643   4.447  1.00  0.00     0.010 A 
ATOM     42  C   UNL     1       8.478   4.676   3.914  1.00  0.00    -0.014 A 
BRANCH  42  43
ATOM     43  C   UNL     1       7.938   6.061   3.891  1.00  0.00     0.031 A 
ATOM     44  C   UNL     1       7.633   6.776   5.178  1.00  0.00     0.074 A 
ATOM     45  C   UNL     1       7.634   6.635   2.708  1.00  0.00     0.049 A 
ATOM     46  N   UNL     1       7.083   7.949   5.358  1.00  0.00    -0.248 NA
ATOM     47  C   UNL     1       7.959   6.066   6.425  1.00  0.00     0.031 C 
ATOM     48  C   UNL     1       7.827   6.021   1.391  1.00  0.00     0.029 A 
ATOM     49  N   UNL     1       7.087   7.862   2.422  1.00  0.00    -0.354 N 
ATOM     50  C   UNL     1       6.979   8.109   6.735  1.00  0.00     0.074 A 
ATOM     51  C   UNL     1       7.477   6.893   7.341  1.00  0.00     0.031 C 
ATOM     52  C   UNL     1       7.433   6.884   0.440  1.00  0.00     0.029 A 
ATOM     53  C   UNL     1       6.925   8.095   1.076  1.00  0.00     0.049 A 
ATOM     54  H   UNL     1       6.835   8.514   3.115  1.00  0.00     0.167 HD
ATOM     55  C   UNL     1       6.528   9.178   7.433  1.00  0.00     0.031 A 
ATOM     56  C   UNL     1       6.423   9.162   0.425  1.00  0.00     0.031 A 
ATOM     57  C   UNL     1       6.049  10.391   6.827  1.00  0.00     0.049 A 
ATOM     58  C   UNL     1       5.948  10.347   1.220  1.00  0.00     0.074 A 
ATOM     59  C   UNL     1       5.622  11.553   7.446  1.00  0.00     0.029 A 
ATOM     60  N   UNL     1       5.935  10.601   5.461  1.00  0.00    -0.354 N 
ATOM     61  N   UNL     1       5.920  10.504   2.523  1.00  0.00    -0.248 NA
ATOM     62  C   UNL     1       5.449  11.501   0.461  1.00  0.00     0.031 C 
ATOM     63  C   UNL     1       5.215  12.452   6.454  1.00  0.00     0.029 A 
ATOM     64  C   UNL     1       5.433  11.867   5.217  1.00  0.00     0.049 A 
ATOM     65  H   UNL     1       6.176   9.945   4.767  1.00  0.00     0.167 HD
ATOM     66  C   UNL     1       5.426  11.786   2.737  1.00  0.00     0.074 A 
ATOM     67  C   UNL     1       5.180  12.364   1.432  1.00  0.00     0.031 C 
ATOM     68  C   UNL     1       5.199  12.427   3.910  1.00  0.00     0.031 A 
BRANCH  55  69
ATOM     69  C   UNL     1       6.536   9.076   8.935  1.00  0.00    -0.014 A 
ATOM     70  C   UNL     1       7.745   9.078   9.654  1.00  0.00     0.010 A 
ATOM     71  C   UNL     1       5.321   8.997   9.639  1.00  0.00     0.010 A 
ATOM     72  C   UNL     1       7.741   8.950  11.045  1.00  0.00     0.020 A 
ATOM     73  C   UNL     1       5.312   8.897  11.033  1.00  0.00     0.020 A 
ATOM     74  C   UNL     1       6.524   8.853  11.726  1.00  0.00     0.054 A 
BRANCH  74  75
ATOM     75  S   UNL     1       6.548   8.692  13.532  1.00  0.00     0.124 S 
ATOM     76  O   UNL     1       6.960   7.301  13.703  1.00  0.00    -0.237 OA
ATOM     77  O   UNL     1       7.534   9.693  13.931  1.00  0.00    -0.237 OA
ATOM     78  O   UNL     1       5.172   8.987  13.924  1.00  0.00    -0.744 OA
ENDBRANCH  74  75
ENDBRANCH  55  69
BRANCH  56  79
ATOM     79  C   UNL     1       6.373   9.172  -1.063  1.00  0.00    -0.014 A 
ATOM     80  C   UNL     1       7.256   9.981  -1.798  1.00  0.00     0.010 A 
ATOM     81  C   UNL     1       5.455   8.359  -1.753  1.00  0.00     0.010 A 
ATOM     82  C   UNL     1       7.213   9.992  -3.196  1.00  0.00     0.020 A 
ATOM     83  C   UNL     1       5.426   8.348  -3.151  1.00  0.00     0.020 A 
ATOM     84  C   UNL     1       6.298   9.174  -3.864  1.00  0.00     0.054 A 
BRANCH  84  85
ATOM     85  S   UNL     1       6.296   9.160  -5.679  1.00  0.00     0.124 S 
ATOM     86  O   UNL     1       5.635  10.423  -5.990  1.00  0.00    -0.237 OA
ATOM     87  O   UNL     1       7.721   9.095  -5.996  1.00  0.00    -0.237 OA
ATOM     88  O   UNL     1       5.537   7.956  -6.009  1.00  0.00    -0.744 OA
ENDBRANCH  84  85
ENDBRANCH  56  79
BRANCH  68  89
ATOM     89  C   UNL     1       4.690  13.840   3.838  1.00  0.00    -0.014 A 
ATOM     90  C   UNL     1       3.357  14.116   3.487  1.00  0.00     0.010 A 
ATOM     91  C   UNL     1       5.544  14.901   4.189  1.00  0.00     0.010 A 
ATOM     92  C   UNL     1       2.894  15.434   3.464  1.00  0.00     0.020 A 
ATOM     93  C   UNL     1       5.077  16.218   4.191  1.00  0.00     0.020 A 
ATOM     94  C   UNL     1       3.757  16.477   3.817  1.00  0.00     0.054 A 
BRANCH  94  95
ATOM     95  S   UNL     1       3.119  18.174   3.832  1.00  0.00     0.124 S 
ATOM     96  O   UNL     1       3.068  18.492   2.407  1.00  0.00    -0.237 OA
ATOM     97  O   UNL     1       1.822  18.025   4.489  1.00  0.00    -0.237 OA
ATOM     98  O   UNL     1       4.118  18.913   4.601  1.00  0.00    -0.744 OA
ENDBRANCH  94  95
ENDBRANCH  68  89
ENDBRANCH  42  43
ENDBRANCH  34  37
ENDBRANCH  32  33
ENDBRANCH  31  32
ENDBRANCH   1  31
TORSDOF 19
