REMARK SMILES O=C(NCCCCNC(=O)c1cc(-c2cccc(Cl)c2)ccc1Cl)c1ccc(-c2c3nc(c(-c4ccc(S(=O)(=O)[O-])cc4)c4ccc([nH]4)c(-c4ccc(S(=O)(=O)[O-])cc4)c4nc(c(-c5ccc(S(=O)(=O)[O-])cc5)c5ccc2[nH]5)C=C4)C=C3)cc1
REMARK SMILES IDX 4 1 3 2 1 3 2 4 25 6 26 7 84 8 27 9 83 10 28 11 29 12 30 13
REMARK SMILES IDX 77 14 31 15 82 16 76 17 78 18 32 19 81 20 75 21 74 22 33 24
REMARK SMILES IDX 63 25 44 26 62 27 45 28 48 29 61 30 79 31 46 32 47 33 60 35
REMARK SMILES IDX 80 36 49 37 34 38 35 39 43 40 36 41 42 42 37 43 38 44 39 45
REMARK SMILES IDX 40 46 41 47 64 48 65 49 73 50 66 51 72 52 67 53 68 54 69 55
REMARK SMILES IDX 70 56 71 57 50 58 51 59 59 60 52 61 58 62 53 63 54 64 55 65
REMARK SMILES IDX 56 66 57 67 5 68 6 69 7 70 8 71 9 72 10 74 11 75 12 76 23 77
REMARK SMILES IDX 13 78 22 79 24 80 21 81 14 82 15 83 20 84 16 85 18 86 17 87
REMARK SMILES IDX 19 88
REMARK H PARENT 3 5 78 23 48 34 8 73
REMARK Flexibility Score: inf
ROOT
ATOM      1  C   UNL     1       4.736  -0.812   1.004  1.00  0.00     0.116 C 
ENDROOT
BRANCH   1   2
ATOM      2  N   UNL     1       3.303  -0.899   0.775  1.00  0.00    -0.352 N 
ATOM      3  O   UNL     1       1.273  -0.274   0.035  1.00  0.00    -0.269 OA
ATOM      4  C   UNL     1       2.492  -0.141  -0.035  1.00  0.00     0.251 C 
ATOM      5  H   UNL     1       2.843  -1.609   1.278  1.00  0.00     0.163 HD
BRANCH   4   6
ATOM      6  C   UNL     1       3.076   0.848  -0.967  1.00  0.00     0.039 A 
ATOM      7  C   UNL     1       4.164   0.523  -1.782  1.00  0.00     0.014 A 
ATOM      8  C   UNL     1       2.501   2.120  -1.042  1.00  0.00     0.014 A 
ATOM      9  C   UNL     1       4.756   1.503  -2.576  1.00  0.00     0.010 A 
ATOM     10  C   UNL     1       3.056   3.083  -1.889  1.00  0.00     0.010 A 
ATOM     11  C   UNL     1       4.207   2.792  -2.639  1.00  0.00    -0.014 A 
BRANCH  11  12
ATOM     12  C   UNL     1       4.809   3.828  -3.515  1.00  0.00     0.031 A 
ATOM     13  C   UNL     1       5.431   5.064  -2.926  1.00  0.00     0.074 A 
ATOM     14  C   UNL     1       4.761   3.671  -4.852  1.00  0.00     0.049 A 
ATOM     15  N   UNL     1       5.925   6.110  -3.538  1.00  0.00    -0.248 NA
ATOM     16  C   UNL     1       5.499   5.136  -1.458  1.00  0.00     0.031 C 
ATOM     17  C   UNL     1       4.187   2.515  -5.544  1.00  0.00     0.029 A 
ATOM     18  N   UNL     1       5.188   4.490  -5.866  1.00  0.00    -0.354 N 
ATOM     19  C   UNL     1       6.336   6.979  -2.533  1.00  0.00     0.074 A 
ATOM     20  C   UNL     1       6.017   6.343  -1.272  1.00  0.00     0.031 C 
ATOM     21  C   UNL     1       4.300   2.697  -6.868  1.00  0.00     0.029 A 
ATOM     22  C   UNL     1       4.900   4.004  -7.119  1.00  0.00     0.049 A 
ATOM     23  H   UNL     1       5.654   5.343  -5.712  1.00  0.00     0.167 HD
ATOM     24  C   UNL     1       6.921   8.195  -2.652  1.00  0.00     0.031 A 
ATOM     25  C   UNL     1       5.065   4.557  -8.336  1.00  0.00     0.031 A 
ATOM     26  C   UNL     1       7.226   8.825  -3.910  1.00  0.00     0.049 A 
ATOM     27  C   UNL     1       5.683   5.920  -8.447  1.00  0.00     0.074 A 
ATOM     28  C   UNL     1       7.849  10.041  -4.135  1.00  0.00     0.029 A 
ATOM     29  N   UNL     1       6.921   8.296  -5.155  1.00  0.00    -0.354 N 
ATOM     30  N   UNL     1       6.097   6.712  -7.488  1.00  0.00    -0.248 NA
ATOM     31  C   UNL     1       5.862   6.462  -9.800  1.00  0.00     0.031 C 
ATOM     32  C   UNL     1       7.874  10.270  -5.515  1.00  0.00     0.029 A 
ATOM     33  C   UNL     1       7.320   9.171  -6.152  1.00  0.00     0.049 A 
ATOM     34  H   UNL     1       6.486   7.427  -5.308  1.00  0.00     0.167 HD
ATOM     35  C   UNL     1       6.609   7.838  -8.121  1.00  0.00     0.074 A 
ATOM     36  C   UNL     1       6.454   7.623  -9.546  1.00  0.00     0.031 C 
ATOM     37  C   UNL     1       7.163   8.944  -7.568  1.00  0.00     0.031 A 
BRANCH  24  38
ATOM     38  C   UNL     1       7.224   8.943  -1.379  1.00  0.00    -0.014 A 
ATOM     39  C   UNL     1       8.244   8.524  -0.506  1.00  0.00     0.010 A 
ATOM     40  C   UNL     1       6.474  10.089  -1.053  1.00  0.00     0.010 A 
ATOM     41  C   UNL     1       8.464   9.197   0.700  1.00  0.00     0.020 A 
ATOM     42  C   UNL     1       6.710  10.781   0.138  1.00  0.00     0.020 A 
ATOM     43  C   UNL     1       7.686  10.313   1.020  1.00  0.00     0.054 A 
BRANCH  43  44
ATOM     44  S   UNL     1       7.968  11.150   2.605  1.00  0.00     0.124 S 
ATOM     45  O   UNL     1       7.337  10.227   3.546  1.00  0.00    -0.237 OA
ATOM     46  O   UNL     1       9.425  11.220   2.679  1.00  0.00    -0.237 OA
ATOM     47  O   UNL     1       7.292  12.435   2.444  1.00  0.00    -0.744 OA
ENDBRANCH  43  44
ENDBRANCH  24  38
BRANCH  25  48
ATOM     48  C   UNL     1       4.612   3.802  -9.534  1.00  0.00    -0.014 A 
ATOM     49  C   UNL     1       5.543   3.175 -10.378  1.00  0.00     0.010 A 
ATOM     50  C   UNL     1       3.236   3.627  -9.777  1.00  0.00     0.010 A 
ATOM     51  C   UNL     1       5.106   2.374 -11.437  1.00  0.00     0.020 A 
ATOM     52  C   UNL     1       2.796   2.808 -10.820  1.00  0.00     0.020 A 
ATOM     53  C   UNL     1       3.736   2.187 -11.645  1.00  0.00     0.054 A 
BRANCH  53  54
ATOM     54  S   UNL     1       3.195   1.054 -12.956  1.00  0.00     0.124 S 
ATOM     55  O   UNL     1       3.441   1.843 -14.158  1.00  0.00    -0.237 OA
ATOM     56  O   UNL     1       4.075  -0.096 -12.761  1.00  0.00    -0.237 OA
ATOM     57  O   UNL     1       1.789   0.812 -12.640  1.00  0.00    -0.744 OA
ENDBRANCH  53  54
ENDBRANCH  25  48
BRANCH  37  58
ATOM     58  C   UNL     1       7.687  10.004  -8.499  1.00  0.00    -0.014 A 
ATOM     59  C   UNL     1       6.818  10.887  -9.162  1.00  0.00     0.010 A 
ATOM     60  C   UNL     1       9.078  10.178  -8.629  1.00  0.00     0.010 A 
ATOM     61  C   UNL     1       7.332  11.925  -9.945  1.00  0.00     0.020 A 
ATOM     62  C   UNL     1       9.594  11.228  -9.393  1.00  0.00     0.020 A 
ATOM     63  C   UNL     1       8.717  12.093 -10.049  1.00  0.00     0.054 A 
BRANCH  63  64
ATOM     64  S   UNL     1       9.359  13.501 -10.997  1.00  0.00     0.124 S 
ATOM     65  O   UNL     1       9.134  13.070 -12.373  1.00  0.00    -0.237 OA
ATOM     66  O   UNL     1       8.520  14.606 -10.539  1.00  0.00    -0.237 OA
ATOM     67  O   UNL     1      10.761  13.582 -10.590  1.00  0.00    -0.744 OA
ENDBRANCH  63  64
ENDBRANCH  37  58
ENDBRANCH  11  12
ENDBRANCH   4   6
ENDBRANCH   1   2
BRANCH   1  68
ATOM     68  C   UNL     1       5.084  -0.477   2.452  1.00  0.00     0.023 C 
BRANCH  68  69
ATOM     69  C   UNL     1       4.591  -1.475   3.502  1.00  0.00     0.023 C 
BRANCH  69  70
ATOM     70  C   UNL     1       4.957  -2.933   3.245  1.00  0.00     0.116 C 
BRANCH  70  71
ATOM     71  N   UNL     1       6.392  -3.165   3.212  1.00  0.00    -0.352 N 
ATOM     72  C   UNL     1       7.103  -4.214   3.739  1.00  0.00     0.252 C 
ATOM     73  H   UNL     1       6.924  -2.478   2.749  1.00  0.00     0.163 HD
ATOM     74  O   UNL     1       8.327  -4.252   3.650  1.00  0.00    -0.269 OA
BRANCH  72  75
ATOM     75  C   UNL     1       6.407  -5.274   4.490  1.00  0.00     0.059 A 
ATOM     76  C   UNL     1       6.750  -5.424   5.845  1.00  0.00     0.024 A 
ATOM     77  C   UNL     1       5.485  -6.141   3.897  1.00  0.00     0.053 A 
ATOM     78  C   UNL     1       6.138  -6.410   6.634  1.00  0.00    -0.017 A 
ATOM     79  C   UNL     1       4.828  -7.084   4.687  1.00  0.00     0.022 A 
ATOM     80  Cl  UNL     1       5.149  -6.149   2.204  1.00  0.00    -0.083 Cl
ATOM     81  C   UNL     1       5.145  -7.208   6.042  1.00  0.00     0.010 A 
BRANCH  78  82
ATOM     82  C   UNL     1       6.555  -6.655   8.023  1.00  0.00    -0.017 A 
ATOM     83  C   UNL     1       7.003  -7.934   8.406  1.00  0.00     0.009 A 
ATOM     84  C   UNL     1       6.522  -5.646   8.998  1.00  0.00     0.029 A 
ATOM     85  C   UNL     1       7.393  -8.205   9.718  1.00  0.00     0.002 A 
ATOM     86  C   UNL     1       6.909  -5.922  10.312  1.00  0.00     0.041 A 
ATOM     87  C   UNL     1       7.343  -7.196  10.676  1.00  0.00     0.020 A 
ATOM     88  Cl  UNL     1       6.845  -4.680  11.502  1.00  0.00    -0.084 Cl
ENDBRANCH  78  82
ENDBRANCH  72  75
ENDBRANCH  70  71
ENDBRANCH  69  70
ENDBRANCH  68  69
ENDBRANCH   1  68
TORSDOF 15
