REMARK SMILES O=C(NCCCCNC(=O)c1cc(S(=O)(=O)Nc2cccc(Cl)c2)ccc1O)c1ccc(-c2c3nc(c(-c4ccc(S(=O)(=O)[O-])cc4)c4ccc([nH]4)c(-c4ccc(S(=O)(=O)[O-])cc4)c4nc(c(-c5ccc(S(=O)(=O)[O-])cc5)c5ccc2[nH]5)C=C4)C=C3)cc1
REMARK SMILES IDX 5 1 4 2 3 3 1 4 2 5 29 7 30 8 88 9 31 10 87 11 32 12 33 13
REMARK SMILES IDX 34 14 81 15 35 16 86 17 80 18 82 19 36 20 85 21 79 22 78 23
REMARK SMILES IDX 37 25 67 26 48 27 66 28 49 29 52 30 65 31 83 32 50 33 51 34
REMARK SMILES IDX 64 36 84 37 53 38 38 39 39 40 47 41 40 42 46 43 41 44 42 45
REMARK SMILES IDX 43 46 44 47 45 48 68 49 69 50 77 51 70 52 76 53 71 54 72 55
REMARK SMILES IDX 73 56 74 57 75 58 54 59 55 60 63 61 56 62 62 63 57 64 58 65
REMARK SMILES IDX 59 66 60 67 61 68 6 69 7 70 8 71 9 72 10 74 11 75 12 76
REMARK SMILES IDX 27 77 13 78 26 79 25 80 28 81 14 83 15 84 16 85 17 86 18 88
REMARK SMILES IDX 19 89 24 90 20 91 22 92 21 93 23 94
REMARK H PARENT 3 6 82 24 52 35 8 73 28 82 17 87
REMARK Flexibility Score: inf
ROOT
ATOM      1  C   UNL     1       5.126   2.087   1.333  1.00  0.00     0.023 C 
ENDROOT
BRANCH   1   2
ATOM      2  C   UNL     1       4.729   0.640   1.081  1.00  0.00     0.116 C 
BRANCH   2   3
ATOM      3  N   UNL     1       3.286   0.443   1.041  1.00  0.00    -0.352 N 
ATOM      4  O   UNL     1       1.281  -0.006   0.108  1.00  0.00    -0.269 OA
ATOM      5  C   UNL     1       2.505  -0.041   0.018  1.00  0.00     0.251 C 
ATOM      6  H   UNL     1       2.803   0.692   1.862  1.00  0.00     0.163 HD
BRANCH   5   7
ATOM      7  C   UNL     1       3.150  -0.581  -1.198  1.00  0.00     0.039 A 
ATOM      8  C   UNL     1       4.224  -1.468  -1.093  1.00  0.00     0.014 A 
ATOM      9  C   UNL     1       2.682  -0.188  -2.455  1.00  0.00     0.014 A 
ATOM     10  C   UNL     1       4.923  -1.845  -2.234  1.00  0.00     0.010 A 
ATOM     11  C   UNL     1       3.330  -0.643  -3.607  1.00  0.00     0.010 A 
ATOM     12  C   UNL     1       4.470  -1.456  -3.505  1.00  0.00    -0.014 A 
BRANCH  12  13
ATOM     13  C   UNL     1       5.144  -1.994  -4.713  1.00  0.00     0.031 A 
ATOM     14  C   UNL     1       5.860  -1.093  -5.679  1.00  0.00     0.074 A 
ATOM     15  C   UNL     1       5.096  -3.324  -4.927  1.00  0.00     0.049 A 
ATOM     16  N   UNL     1       6.478  -1.411  -6.789  1.00  0.00    -0.248 NA
ATOM     17  C   UNL     1       5.883   0.346  -5.371  1.00  0.00     0.031 C 
ATOM     18  C   UNL     1       4.421  -4.295  -4.059  1.00  0.00     0.029 A 
ATOM     19  N   UNL     1       5.625  -4.093  -5.931  1.00  0.00    -0.354 N 
ATOM     20  C   UNL     1       6.940  -0.214  -7.326  1.00  0.00     0.074 A 
ATOM     21  C   UNL     1       6.522   0.839  -6.425  1.00  0.00     0.031 C 
ATOM     22  C   UNL     1       4.601  -5.528  -4.550  1.00  0.00     0.029 A 
ATOM     23  C   UNL     1       5.341  -5.433  -5.803  1.00  0.00     0.049 A 
ATOM     24  H   UNL     1       6.157  -3.723  -6.673  1.00  0.00     0.167 HD
ATOM     25  C   UNL     1       7.645  -0.019  -8.466  1.00  0.00     0.031 A 
ATOM     26  C   UNL     1       5.610  -6.470  -6.616  1.00  0.00     0.031 A 
ATOM     27  C   UNL     1       8.060  -1.078  -9.350  1.00  0.00     0.049 A 
ATOM     28  C   UNL     1       6.359  -6.216  -7.891  1.00  0.00     0.074 A 
ATOM     29  C   UNL     1       8.831  -0.986 -10.497  1.00  0.00     0.029 A 
ATOM     30  N   UNL     1       7.730  -2.417  -9.199  1.00  0.00    -0.354 N 
ATOM     31  N   UNL     1       6.842  -5.085  -8.348  1.00  0.00    -0.248 NA
ATOM     32  C   UNL     1       6.595  -7.373  -8.764  1.00  0.00     0.031 C 
ATOM     33  C   UNL     1       8.912  -2.258 -11.073  1.00  0.00     0.029 A 
ATOM     34  C   UNL     1       8.244  -3.153 -10.254  1.00  0.00     0.049 A 
ATOM     35  H   UNL     1       7.207  -2.788  -8.452  1.00  0.00     0.167 HD
ATOM     36  C   UNL     1       7.449  -5.397  -9.557  1.00  0.00     0.074 A 
ATOM     37  C   UNL     1       7.294  -6.825  -9.749  1.00  0.00     0.031 C 
ATOM     38  C   UNL     1       8.074  -4.573 -10.433  1.00  0.00     0.031 A 
BRANCH  25  39
ATOM     39  C   UNL     1       7.990   1.395  -8.856  1.00  0.00    -0.014 A 
ATOM     40  C   UNL     1       8.980   2.124  -8.174  1.00  0.00     0.010 A 
ATOM     41  C   UNL     1       7.370   1.973  -9.980  1.00  0.00     0.010 A 
ATOM     42  C   UNL     1       9.325   3.413  -8.594  1.00  0.00     0.020 A 
ATOM     43  C   UNL     1       7.728   3.252 -10.417  1.00  0.00     0.020 A 
ATOM     44  C   UNL     1       8.696   3.969  -9.713  1.00  0.00     0.054 A 
BRANCH  44  45
ATOM     45  S   UNL     1       9.192   5.627 -10.259  1.00  0.00     0.124 S 
ATOM     46  O   UNL     1       8.611   6.473  -9.219  1.00  0.00    -0.237 OA
ATOM     47  O   UNL     1      10.650   5.542 -10.256  1.00  0.00    -0.237 OA
ATOM     48  O   UNL     1       8.581   5.756 -11.580  1.00  0.00    -0.744 OA
ENDBRANCH  44  45
ENDBRANCH  25  39
BRANCH  26  49
ATOM     49  C   UNL     1       5.120  -7.830  -6.265  1.00  0.00    -0.014 A 
ATOM     50  C   UNL     1       6.018  -8.849  -5.907  1.00  0.00     0.010 A 
ATOM     51  C   UNL     1       3.739  -8.102  -6.268  1.00  0.00     0.010 A 
ATOM     52  C   UNL     1       5.544 -10.123  -5.578  1.00  0.00     0.020 A 
ATOM     53  C   UNL     1       3.260  -9.363  -5.909  1.00  0.00     0.020 A 
ATOM     54  C   UNL     1       4.168 -10.371  -5.581  1.00  0.00     0.054 A 
BRANCH  54  55
ATOM     55  S   UNL     1       3.572 -12.018  -5.112  1.00  0.00     0.124 S 
ATOM     56  O   UNL     1       3.892 -12.805  -6.299  1.00  0.00    -0.237 OA
ATOM     57  O   UNL     1       4.365 -12.315  -3.922  1.00  0.00    -0.237 OA
ATOM     58  O   UNL     1       2.147 -11.808  -4.864  1.00  0.00    -0.744 OA
ENDBRANCH  54  55
ENDBRANCH  26  49
BRANCH  38  59
ATOM     59  C   UNL     1       8.651  -5.197 -11.674  1.00  0.00    -0.014 A 
ATOM     60  C   UNL     1       7.817  -5.629 -12.720  1.00  0.00     0.010 A 
ATOM     61  C   UNL     1      10.046  -5.295 -11.820  1.00  0.00     0.010 A 
ATOM     62  C   UNL     1       8.370  -6.167 -13.885  1.00  0.00     0.020 A 
ATOM     63  C   UNL     1      10.603  -5.808 -12.994  1.00  0.00     0.020 A 
ATOM     64  C   UNL     1       9.760  -6.250 -14.016  1.00  0.00     0.054 A 
BRANCH  64  65
ATOM     65  S   UNL     1      10.453  -6.894 -15.563  1.00  0.00     0.124 S 
ATOM     66  O   UNL     1      10.172  -8.322 -15.451  1.00  0.00    -0.237 OA
ATOM     67  O   UNL     1       9.684  -6.180 -16.580  1.00  0.00    -0.237 OA
ATOM     68  O   UNL     1      11.866  -6.528 -15.489  1.00  0.00    -0.744 OA
ENDBRANCH  64  65
ENDBRANCH  38  59
ENDBRANCH  12  13
ENDBRANCH   5   7
ENDBRANCH   2   3
ENDBRANCH   1   2
BRANCH   1  69
ATOM     69  C   UNL     1       4.685   2.654   2.676  1.00  0.00     0.023 C 
BRANCH  69  70
ATOM     70  C   UNL     1       5.070   1.824   3.893  1.00  0.00     0.116 C 
BRANCH  70  71
ATOM     71  N   UNL     1       6.504   1.668   4.091  1.00  0.00    -0.352 N 
ATOM     72  C   UNL     1       7.208   1.720   5.278  1.00  0.00     0.255 C 
ATOM     73  H   UNL     1       7.038   1.507   3.279  1.00  0.00     0.163 HD
ATOM     74  O   UNL     1       8.425   1.568   5.300  1.00  0.00    -0.269 OA
BRANCH  72  75
ATOM     75  C   UNL     1       6.491   2.090   6.519  1.00  0.00     0.082 A 
ATOM     76  C   UNL     1       6.915   3.242   7.194  1.00  0.00     0.040 A 
ATOM     77  C   UNL     1       5.340   1.420   6.938  1.00  0.00     0.128 A 
ATOM     78  C   UNL     1       6.083   3.820   8.159  1.00  0.00     0.088 A 
ATOM     79  C   UNL     1       4.471   2.041   7.825  1.00  0.00     0.048 A 
ATOM     80  C   UNL     1       4.810   3.286   8.360  1.00  0.00     0.026 A 
BRANCH  77  81
ATOM     81  O   UNL     1       5.020   0.199   6.420  1.00  0.00    -0.507 OA
ATOM     82  H   UNL     1       5.603  -0.224   5.821  1.00  0.00     0.293 HD
ENDBRANCH  77  81
BRANCH  78  83
ATOM     83  S   UNL     1       6.672   5.264   9.013  1.00  0.00     0.261 S 
ATOM     84  O   UNL     1       8.117   5.160   9.078  1.00  0.00    -0.201 OA
ATOM     85  O   UNL     1       6.043   6.401   8.378  1.00  0.00    -0.201 OA
BRANCH  83  86
ATOM     86  N   UNL     1       6.169   5.329  10.642  1.00  0.00    -0.280 N 
ATOM     87  H   UNL     1       6.627   5.947  11.257  1.00  0.00     0.180 HD
BRANCH  86  88
ATOM     88  C   UNL     1       5.108   4.519  11.142  1.00  0.00     0.050 A 
ATOM     89  C   UNL     1       5.344   3.170  11.415  1.00  0.00     0.027 A 
ATOM     90  C   UNL     1       3.826   5.057  11.295  1.00  0.00     0.047 A 
ATOM     91  C   UNL     1       4.285   2.339  11.790  1.00  0.00     0.004 A 
ATOM     92  C   UNL     1       2.778   4.222  11.685  1.00  0.00     0.043 A 
ATOM     93  C   UNL     1       2.998   2.865  11.918  1.00  0.00     0.020 A 
ATOM     94  Cl  UNL     1       1.190   4.865  11.844  1.00  0.00    -0.084 Cl
ENDBRANCH  86  88
ENDBRANCH  83  86
ENDBRANCH  78  83
ENDBRANCH  72  75
ENDBRANCH  70  71
ENDBRANCH  69  70
ENDBRANCH   1  69
TORSDOF 18
