REMARK SMILES O=C(COc1ccccc1/C=C1/SC(=O)N(c2ccc(F)cc2)C1=O)NCCCCNC(=O)c1ccc(-c2c3nc(c(-c4ccc(S(=O)(=O)[O-])cc4)c4ccc([nH]4)c(-c4ccc(S(=O)(=O)[O-])cc4)c4nc(c(-c5ccc(S(=O)(=O)[O-])cc5)c5ccc2[nH]5)C=C4)C=C3)cc1
REMARK SMILES IDX 28 1 27 2 26 3 1 4 2 5 3 7 4 8 5 9 6 10 10 11 7 12 9 13 8 14
REMARK SMILES IDX 11 15 12 16 13 17 24 18 14 19 16 20 25 21 15 22 17 23 18 24
REMARK SMILES IDX 23 25 19 26 22 27 20 28 21 29 29 30 30 31 31 32 32 33 33 35
REMARK SMILES IDX 34 36 35 37 93 38 36 39 92 40 37 41 38 42 39 43 86 44 40 45
REMARK SMILES IDX 91 46 85 47 87 48 41 49 90 50 84 51 83 52 42 54 72 55 53 56
REMARK SMILES IDX 71 57 54 58 57 59 70 60 88 61 55 62 56 63 69 65 89 66 58 67
REMARK SMILES IDX 43 68 44 69 52 70 45 71 51 72 46 73 47 74 48 75 49 76 50 77
REMARK SMILES IDX 73 78 74 79 82 80 75 81 81 82 76 83 77 84 78 85 79 86 80 87
REMARK SMILES IDX 59 88 60 89 68 90 61 91 67 92 62 93 63 94 64 95 65 96 66 97
REMARK H PARENT 26 6 31 34 87 53 57 64
REMARK Flexibility Score: inf
ROOT
ATOM      1  C   UNL     1       2.692  -3.110  -2.354  1.00  0.00     0.023 C 
ENDROOT
BRANCH   1   2
ATOM      2  C   UNL     1       2.706  -2.354  -0.817  1.00  0.00     0.116 C 
BRANCH   2   3
ATOM      3  N   UNL     1       3.095  -0.351  -0.281  1.00  0.00    -0.353 N 
ATOM      4  O   UNL     1       1.838   1.710  -0.787  1.00  0.00    -0.271 OA
ATOM      5  C   UNL     1       2.674   1.071  -0.155  1.00  0.00     0.257 C 
ATOM      6  H   UNL     1       4.021  -0.363   0.053  1.00  0.00     0.163 HD
BRANCH   5   7
ATOM      7  C   UNL     1       3.401   1.771   0.996  1.00  0.00     0.329 C 
BRANCH   7   8
ATOM      8  O   UNL     1       3.937   0.870   1.945  1.00  0.00    -0.483 OA
BRANCH   8   9
ATOM      9  C   UNL     1       3.134   0.523   3.009  1.00  0.00     0.127 A 
ATOM     10  C   UNL     1       3.774   0.728   4.237  1.00  0.00     0.047 A 
ATOM     11  C   UNL     1       1.923  -0.217   2.949  1.00  0.00     0.018 A 
ATOM     12  C   UNL     1       3.255   0.182   5.406  1.00  0.00     0.004 A 
ATOM     13  C   UNL     1       1.426  -0.769   4.139  1.00  0.00     0.012 A 
ATOM     14  C   UNL     1       2.095  -0.584   5.353  1.00  0.00     0.001 A 
BRANCH  11  15
ATOM     15  C   UNL     1       1.177  -0.551   1.719  1.00  0.00     0.033 C 
ATOM     16  C   UNL     1       1.768  -1.301   0.768  1.00  0.00     0.084 C 
ATOM     17  S   UNL     1       1.271  -0.784  -1.403  1.00  0.00    -0.022 SA
ATOM     18  C   UNL     1       3.665  -1.781   0.959  1.00  0.00     0.272 C 
ATOM     19  C   UNL     1       3.534  -0.886  -2.021  1.00  0.00     0.298 C 
ATOM     20  N   UNL     1       4.510  -1.523  -0.627  1.00  0.00    -0.236 N 
ATOM     21  O   UNL     1       4.137  -2.269   1.975  1.00  0.00    -0.268 OA
ATOM     22  O   UNL     1       3.872  -0.496  -3.127  1.00  0.00    -0.260 OA
BRANCH  20  23
ATOM     23  C   UNL     1       5.921  -1.765  -0.713  1.00  0.00     0.053 A 
ATOM     24  C   UNL     1       6.575  -2.507   0.287  1.00  0.00     0.030 A 
ATOM     25  C   UNL     1       6.681  -1.306  -1.794  1.00  0.00     0.030 A 
ATOM     26  C   UNL     1       7.939  -2.795   0.210  1.00  0.00     0.041 A 
ATOM     27  C   UNL     1       8.053  -1.589  -1.869  1.00  0.00     0.041 A 
ATOM     28  C   UNL     1       8.668  -2.333  -0.870  1.00  0.00     0.123 A 
ATOM     29  F   UNL     1       9.974  -2.610  -0.949  1.00  0.00    -0.207 F 
ENDBRANCH  20  23
ENDBRANCH  11  15
ENDBRANCH   8   9
ENDBRANCH   7   8
ENDBRANCH   5   7
ENDBRANCH   2   3
ENDBRANCH   1   2
BRANCH   1  30
ATOM     30  C   UNL     1       4.003  -3.703  -2.887  1.00  0.00     0.023 C 
BRANCH  30  31
ATOM     31  C   UNL     1       4.680  -4.724  -1.988  1.00  0.00     0.116 C 
BRANCH  31  32
ATOM     32  N   UNL     1       4.045  -6.027  -2.034  1.00  0.00    -0.352 N 
ATOM     33  C   UNL     1       4.681  -7.241  -2.167  1.00  0.00     0.251 C 
ATOM     34  H   UNL     1       3.063  -6.046  -1.964  1.00  0.00     0.163 HD
ATOM     35  O   UNL     1       4.045  -8.272  -2.346  1.00  0.00    -0.269 OA
BRANCH  33  36
ATOM     36  C   UNL     1       6.159  -7.256  -2.121  1.00  0.00     0.039 A 
ATOM     37  C   UNL     1       6.869  -7.774  -3.204  1.00  0.00     0.014 A 
ATOM     38  C   UNL     1       6.828  -6.651  -1.051  1.00  0.00     0.014 A 
ATOM     39  C   UNL     1       8.259  -7.656  -3.228  1.00  0.00     0.010 A 
ATOM     40  C   UNL     1       8.203  -6.457  -1.123  1.00  0.00     0.010 A 
ATOM     41  C   UNL     1       8.937  -6.978  -2.200  1.00  0.00    -0.014 A 
BRANCH  41  42
ATOM     42  C   UNL     1      10.418  -6.853  -2.210  1.00  0.00     0.031 A 
ATOM     43  C   UNL     1      11.227  -7.497  -1.112  1.00  0.00     0.074 A 
ATOM     44  C   UNL     1      11.034  -6.148  -3.180  1.00  0.00     0.049 A 
ATOM     45  N   UNL     1      12.524  -7.508  -0.940  1.00  0.00    -0.248 NA
ATOM     46  C   UNL     1      10.479  -8.197  -0.053  1.00  0.00     0.031 C 
ATOM     47  C   UNL     1      10.363  -5.441  -4.273  1.00  0.00     0.029 A 
ATOM     48  N   UNL     1      12.368  -5.918  -3.409  1.00  0.00    -0.354 N 
ATOM     49  C   UNL     1      12.741  -8.192   0.251  1.00  0.00     0.074 A 
ATOM     50  C   UNL     1      11.444  -8.526   0.791  1.00  0.00     0.031 C 
ATOM     51  C   UNL     1      11.289  -4.896  -5.079  1.00  0.00     0.029 A 
ATOM     52  C   UNL     1      12.617  -5.178  -4.542  1.00  0.00     0.049 A 
ATOM     53  H   UNL     1      13.081  -6.251  -2.817  1.00  0.00     0.167 HD
ATOM     54  C   UNL     1      13.915  -8.537   0.831  1.00  0.00     0.031 A 
ATOM     55  C   UNL     1      13.782  -4.777  -5.088  1.00  0.00     0.031 A 
ATOM     56  C   UNL     1      15.204  -8.223   0.278  1.00  0.00     0.049 A 
ATOM     57  C   UNL     1      15.075  -5.171  -4.424  1.00  0.00     0.074 A 
ATOM     58  C   UNL     1      16.453  -8.585   0.751  1.00  0.00     0.029 A 
ATOM     59  N   UNL     1      15.410  -7.472  -0.869  1.00  0.00    -0.354 N 
ATOM     60  N   UNL     1      15.261  -5.888  -3.341  1.00  0.00    -0.248 NA
ATOM     61  C   UNL     1      16.316  -4.715  -5.065  1.00  0.00     0.031 C 
ATOM     62  C   UNL     1      17.416  -8.002  -0.077  1.00  0.00     0.029 A 
ATOM     63  C   UNL     1      16.767  -7.334  -1.104  1.00  0.00     0.049 A 
ATOM     64  H   UNL     1      14.697  -7.093  -1.432  1.00  0.00     0.167 HD
ATOM     65  C   UNL     1      16.639  -5.992  -3.187  1.00  0.00     0.074 A 
ATOM     66  C   UNL     1      17.238  -5.279  -4.297  1.00  0.00     0.031 C 
ATOM     67  C   UNL     1      17.346  -6.622  -2.216  1.00  0.00     0.031 A 
BRANCH  54  68
ATOM     68  C   UNL     1      13.853  -9.290   2.135  1.00  0.00    -0.014 A 
ATOM     69  C   UNL     1      13.371 -10.611   2.195  1.00  0.00     0.010 A 
ATOM     70  C   UNL     1      14.314  -8.679   3.315  1.00  0.00     0.010 A 
ATOM     71  C   UNL     1      13.308 -11.288   3.415  1.00  0.00     0.020 A 
ATOM     72  C   UNL     1      14.284  -9.364   4.533  1.00  0.00     0.020 A 
ATOM     73  C   UNL     1      13.763 -10.659   4.577  1.00  0.00     0.054 A 
BRANCH  73  74
ATOM     74  S   UNL     1      13.691 -11.571   6.143  1.00  0.00     0.124 S 
ATOM     75  O   UNL     1      12.256 -11.585   6.417  1.00  0.00    -0.237 OA
ATOM     76  O   UNL     1      14.274 -12.862   5.789  1.00  0.00    -0.237 OA
ATOM     77  O   UNL     1      14.490 -10.759   7.057  1.00  0.00    -0.744 OA
ENDBRANCH  73  74
ENDBRANCH  54  68
BRANCH  55  78
ATOM     78  C   UNL     1      13.782  -3.978  -6.346  1.00  0.00    -0.014 A 
ATOM     79  C   UNL     1      14.256  -4.535  -7.548  1.00  0.00     0.010 A 
ATOM     80  C   UNL     1      13.304  -2.655  -6.351  1.00  0.00     0.010 A 
ATOM     81  C   UNL     1      14.269  -3.780  -8.725  1.00  0.00     0.020 A 
ATOM     82  C   UNL     1      13.288  -1.906  -7.532  1.00  0.00     0.020 A 
ATOM     83  C   UNL     1      13.782  -2.470  -8.710  1.00  0.00     0.054 A 
BRANCH  83  84
ATOM     84  S   UNL     1      13.765  -1.526 -10.259  1.00  0.00     0.124 S 
ATOM     85  O   UNL     1      15.183  -1.246 -10.461  1.00  0.00    -0.237 OA
ATOM     86  O   UNL     1      13.165  -2.471 -11.197  1.00  0.00    -0.237 OA
ATOM     87  O   UNL     1      12.937  -0.364  -9.942  1.00  0.00    -0.744 OA
ENDBRANCH  83  84
ENDBRANCH  55  78
BRANCH  67  88
ATOM     88  C   UNL     1      18.848  -6.604  -2.325  1.00  0.00    -0.014 A 
ATOM     89  C   UNL     1      19.584  -5.429  -2.096  1.00  0.00     0.010 A 
ATOM     90  C   UNL     1      19.534  -7.802  -2.599  1.00  0.00     0.010 A 
ATOM     91  C   UNL     1      20.980  -5.446  -2.171  1.00  0.00     0.020 A 
ATOM     92  C   UNL     1      20.930  -7.829  -2.643  1.00  0.00     0.020 A 
ATOM     93  C   UNL     1      21.643  -6.647  -2.442  1.00  0.00     0.054 A 
BRANCH  93  94
ATOM     94  S   UNL     1      23.456  -6.650  -2.487  1.00  0.00     0.124 S 
ATOM     95  O   UNL     1      23.731  -5.952  -3.739  1.00  0.00    -0.237 OA
ATOM     96  O   UNL     1      23.808  -5.921  -1.270  1.00  0.00    -0.237 OA
ATOM     97  O   UNL     1      23.802  -8.070  -2.477  1.00  0.00    -0.744 OA
ENDBRANCH  93  94
ENDBRANCH  67  88
ENDBRANCH  41  42
ENDBRANCH  33  36
ENDBRANCH  31  32
ENDBRANCH  30  31
ENDBRANCH   1  30
TORSDOF 18
