REMARK SMILES NS(=O)(=O)c1ccc(-c2coc(=O)n2-c2ccc(C(=O)NCCCCNC(=O)c3ccc(-c4c5nc(c(-c6ccc(S(=O)(=O)[O-])cc6)c6ccc([nH]6)c(-c6ccc(S(=O)(=O)[O-])cc6)c6nc(c(-c7ccc(S(=O)(=O)[O-])cc7)c7ccc4[nH]7)C=C6)C=C5)cc3)cc2)cc1
REMARK SMILES IDX 23 1 22 2 21 3 19 4 20 5 18 7 15 8 16 9 90 10 17 11 89 12
REMARK SMILES IDX 14 13 9 14 10 15 11 16 12 17 13 18 8 19 5 20 6 21 92 22 7 23
REMARK SMILES IDX 91 24 2 25 3 26 4 27 1 28 24 31 25 32 26 33 27 34 28 36
REMARK SMILES IDX 29 37 30 38 88 39 31 40 87 41 32 42 33 43 34 44 81 45 35 46
REMARK SMILES IDX 86 47 80 48 82 49 36 50 85 51 79 52 78 53 37 55 67 56 48 57
REMARK SMILES IDX 66 58 49 59 52 60 65 61 83 62 50 63 51 64 64 66 84 67 53 68
REMARK SMILES IDX 38 69 39 70 47 71 40 72 46 73 41 74 42 75 43 76 44 77 45 78
REMARK SMILES IDX 68 79 69 80 77 81 70 82 76 83 71 84 72 85 73 86 74 87 75 88
REMARK SMILES IDX 54 89 55 90 63 91 56 92 62 93 57 94 58 95 59 96 60 97 61 98
REMARK H PARENT 21 6 1 29 1 30 26 35 82 54 52 65
REMARK Flexibility Score: inf
ROOT
ATOM      1  C   UNL     1       8.748   4.157   1.812  1.00  0.00     0.023 C 
ENDROOT
BRANCH   1   2
ATOM      2  C   UNL     1       7.890   2.906   2.039  1.00  0.00     0.116 C 
BRANCH   2   3
ATOM      3  N   UNL     1       8.061   2.388   3.384  1.00  0.00    -0.352 N 
ATOM      4  C   UNL     1       7.378   2.567   4.561  1.00  0.00     0.251 C 
ATOM      5  O   UNL     1       7.813   1.980   5.552  1.00  0.00    -0.269 OA
ATOM      6  H   UNL     1       8.831   1.780   3.470  1.00  0.00     0.163 HD
BRANCH   4   7
ATOM      7  C   UNL     1       6.136   3.385   4.701  1.00  0.00     0.039 A 
ATOM      8  C   UNL     1       3.693   4.746   5.066  1.00  0.00     0.053 A 
ATOM      9  C   UNL     1       4.124   3.831   6.024  1.00  0.00     0.028 A 
ATOM     10  C   UNL     1       4.507   5.027   3.967  1.00  0.00     0.028 A 
ATOM     11  C   UNL     1       5.322   3.132   5.822  1.00  0.00     0.016 A 
ATOM     12  C   UNL     1       5.741   4.390   3.818  1.00  0.00     0.016 A 
BRANCH   8  13
ATOM     13  N   UNL     1       2.455   5.399   5.183  1.00  0.00    -0.242 N 
ATOM     14  C   UNL     1       1.441   5.453   4.270  1.00  0.00     0.095 A 
ATOM     15  C   UNL     1       0.584   6.356   4.733  1.00  0.00     0.228 A 
ATOM     16  O   UNL     1       0.956   6.937   5.944  1.00  0.00    -0.415 OA
ATOM     17  C   UNL     1       2.161   6.287   6.215  1.00  0.00     0.424 A 
ATOM     18  O   UNL     1       2.834   6.542   7.204  1.00  0.00    -0.223 OA
BRANCH  14  19
ATOM     19  C   UNL     1       1.261   4.567   3.120  1.00  0.00     0.002 A 
ATOM     20  C   UNL     1       0.787   2.830   0.967  1.00  0.00     0.082 A 
ATOM     21  C   UNL     1       1.103   2.303   2.218  1.00  0.00     0.022 A 
ATOM     22  C   UNL     1       0.724   4.215   0.776  1.00  0.00     0.022 A 
ATOM     23  C   UNL     1       1.338   3.173   3.287  1.00  0.00     0.012 A 
ATOM     24  C   UNL     1       0.954   5.079   1.853  1.00  0.00     0.012 A 
BRANCH  20  25
ATOM     25  S   UNL     1       0.466   1.775  -0.419  1.00  0.00     0.238 S 
ATOM     26  O   UNL     1       1.210   2.285  -1.545  1.00  0.00    -0.207 OA
ATOM     27  O   UNL     1      -0.960   1.538  -0.466  1.00  0.00    -0.207 OA
BRANCH  25  28
ATOM     28  N   UNL     1       1.184   0.315  -0.018  1.00  0.00    -0.225 NA
ATOM     29  H   UNL     1       1.041  -0.354  -0.775  1.00  0.00     0.137 HD
ATOM     30  H   UNL     1       0.764  -0.046   0.838  1.00  0.00     0.137 HD
ENDBRANCH  25  28
ENDBRANCH  20  25
ENDBRANCH  14  19
ENDBRANCH   8  13
ENDBRANCH   4   7
ENDBRANCH   2   3
ENDBRANCH   1   2
BRANCH   1  31
ATOM     31  C   UNL     1      10.247   3.886   1.611  1.00  0.00     0.023 C 
BRANCH  31  32
ATOM     32  C   UNL     1      10.601   3.186   0.302  1.00  0.00     0.116 C 
BRANCH  32  33
ATOM     33  N   UNL     1      10.236   3.973  -0.877  1.00  0.00    -0.352 N 
ATOM     34  C   UNL     1      10.126   3.546  -2.187  1.00  0.00     0.251 C 
ATOM     35  H   UNL     1      10.045   4.925  -0.717  1.00  0.00     0.163 HD
ATOM     36  O   UNL     1      10.210   4.342  -3.115  1.00  0.00    -0.269 OA
BRANCH  34  37
ATOM     37  C   UNL     1       9.887   2.116  -2.444  1.00  0.00     0.039 A 
ATOM     38  C   UNL     1      10.576   1.423  -3.443  1.00  0.00     0.014 A 
ATOM     39  C   UNL     1       8.974   1.464  -1.621  1.00  0.00     0.014 A 
ATOM     40  C   UNL     1      10.405   0.043  -3.544  1.00  0.00     0.010 A 
ATOM     41  C   UNL     1       8.913   0.094  -1.629  1.00  0.00     0.010 A 
ATOM     42  C   UNL     1       9.586  -0.620  -2.617  1.00  0.00    -0.014 A 
BRANCH  42  43
ATOM     43  C   UNL     1       9.513  -2.079  -2.578  1.00  0.00     0.031 A 
ATOM     44  C   UNL     1      10.818  -2.767  -2.375  1.00  0.00     0.074 A 
ATOM     45  C   UNL     1       8.340  -2.740  -2.457  1.00  0.00     0.049 A 
ATOM     46  N   UNL     1      11.468  -3.505  -3.213  1.00  0.00    -0.248 NA
ATOM     47  C   UNL     1      11.562  -2.487  -1.134  1.00  0.00     0.031 C 
ATOM     48  C   UNL     1       6.995  -2.167  -2.304  1.00  0.00     0.029 A 
ATOM     49  N   UNL     1       8.112  -4.072  -2.299  1.00  0.00    -0.354 N 
ATOM     50  C   UNL     1      12.579  -3.984  -2.521  1.00  0.00     0.074 A 
ATOM     51  C   UNL     1      12.694  -3.162  -1.344  1.00  0.00     0.031 C 
ATOM     52  C   UNL     1       6.153  -3.107  -1.825  1.00  0.00     0.029 A 
ATOM     53  C   UNL     1       6.844  -4.382  -1.818  1.00  0.00     0.049 A 
ATOM     54  H   UNL     1       8.787  -4.757  -2.507  1.00  0.00     0.167 HD
ATOM     55  C   UNL     1      13.142  -5.190  -2.823  1.00  0.00     0.031 A 
ATOM     56  C   UNL     1       6.394  -5.597  -1.417  1.00  0.00     0.031 A 
ATOM     57  C   UNL     1      12.645  -5.699  -4.078  1.00  0.00     0.049 A 
ATOM     58  C   UNL     1       7.288  -6.610  -2.023  1.00  0.00     0.074 A 
ATOM     59  C   UNL     1      12.647  -5.263  -5.387  1.00  0.00     0.029 A 
ATOM     60  N   UNL     1      11.673  -6.669  -3.998  1.00  0.00    -0.354 N 
ATOM     61  N   UNL     1       7.375  -6.807  -3.309  1.00  0.00    -0.248 NA
ATOM     62  C   UNL     1       8.412  -7.096  -1.241  1.00  0.00     0.031 C 
ATOM     63  C   UNL     1      11.379  -5.658  -5.908  1.00  0.00     0.029 A 
ATOM     64  C   UNL     1      10.703  -6.377  -4.918  1.00  0.00     0.049 A 
ATOM     65  H   UNL     1      11.675  -7.440  -3.386  1.00  0.00     0.167 HD
ATOM     66  C   UNL     1       8.725  -7.027  -3.542  1.00  0.00     0.074 A 
ATOM     67  C   UNL     1       9.290  -7.313  -2.224  1.00  0.00     0.031 C 
ATOM     68  C   UNL     1       9.298  -6.678  -4.733  1.00  0.00     0.031 A 
BRANCH  55  69
ATOM     69  C   UNL     1      13.762  -6.121  -1.796  1.00  0.00    -0.014 A 
ATOM     70  C   UNL     1      14.232  -7.380  -2.232  1.00  0.00     0.010 A 
ATOM     71  C   UNL     1      13.627  -5.946  -0.405  1.00  0.00     0.010 A 
ATOM     72  C   UNL     1      14.428  -8.439  -1.336  1.00  0.00     0.020 A 
ATOM     73  C   UNL     1      13.864  -6.982   0.503  1.00  0.00     0.020 A 
ATOM     74  C   UNL     1      14.216  -8.236   0.026  1.00  0.00     0.054 A 
BRANCH  74  75
ATOM     75  S   UNL     1      14.325  -9.641   1.161  1.00  0.00     0.124 S 
ATOM     76  O   UNL     1      13.188 -10.452   0.737  1.00  0.00    -0.237 OA
ATOM     77  O   UNL     1      15.645 -10.184   0.853  1.00  0.00    -0.237 OA
ATOM     78  O   UNL     1      14.200  -9.024   2.479  1.00  0.00    -0.744 OA
ENDBRANCH  74  75
ENDBRANCH  55  69
BRANCH  56  79
ATOM     79  C   UNL     1       5.426  -5.915  -0.338  1.00  0.00    -0.014 A 
ATOM     80  C   UNL     1       4.820  -7.182  -0.251  1.00  0.00     0.010 A 
ATOM     81  C   UNL     1       5.313  -5.057   0.775  1.00  0.00     0.010 A 
ATOM     82  C   UNL     1       4.174  -7.596   0.928  1.00  0.00     0.020 A 
ATOM     83  C   UNL     1       4.668  -5.461   1.951  1.00  0.00     0.020 A 
ATOM     84  C   UNL     1       4.120  -6.739   2.030  1.00  0.00     0.054 A 
BRANCH  84  85
ATOM     85  S   UNL     1       3.433  -7.341   3.602  1.00  0.00     0.124 S 
ATOM     86  O   UNL     1       2.010  -7.451   3.296  1.00  0.00    -0.237 OA
ATOM     87  O   UNL     1       4.139  -8.604   3.796  1.00  0.00    -0.237 OA
ATOM     88  O   UNL     1       3.780  -6.287   4.554  1.00  0.00    -0.744 OA
ENDBRANCH  84  85
ENDBRANCH  56  79
BRANCH  68  89
ATOM     89  C   UNL     1       8.392  -6.370  -5.902  1.00  0.00    -0.014 A 
ATOM     90  C   UNL     1       7.474  -5.301  -5.931  1.00  0.00     0.010 A 
ATOM     91  C   UNL     1       8.591  -7.113  -7.079  1.00  0.00     0.010 A 
ATOM     92  C   UNL     1       6.758  -5.004  -7.102  1.00  0.00     0.020 A 
ATOM     93  C   UNL     1       7.897  -6.811  -8.251  1.00  0.00     0.020 A 
ATOM     94  C   UNL     1       6.976  -5.764  -8.256  1.00  0.00     0.054 A 
BRANCH  94  95
ATOM     95  S   UNL     1       6.081  -5.355  -9.781  1.00  0.00     0.124 S 
ATOM     96  O   UNL     1       4.707  -5.725  -9.452  1.00  0.00    -0.237 OA
ATOM     97  O   UNL     1       6.329  -3.923  -9.929  1.00  0.00    -0.237 OA
ATOM     98  O   UNL     1       6.720  -6.193 -10.795  1.00  0.00    -0.744 OA
ENDBRANCH  94  95
ENDBRANCH  68  89
ENDBRANCH  42  43
ENDBRANCH  34  37
ENDBRANCH  32  33
ENDBRANCH  31  32
ENDBRANCH   1  31
TORSDOF 18
