REMARK SMILES CCc1c(Cl)ccc2c1C=C(C(=O)NCCCCNC(=O)c1ccc(-c3c4nc(c(-c5ccc(S(=O)(=O)[O-])cc5)c5ccc([nH]5)c(-c5ccc(S(=O)(=O)[O-])cc5)c5nc(c(-c6ccc(S(=O)(=O)[O-])cc6)c6ccc3[nH]6)C=C5)C=C4)cc1)[C@@H](C(F)(F)F)O2
REMARK SMILES IDX 17 1 16 2 15 3 14 4 12 5 13 6 11 8 3 9 4 10 9 11 5 12 6 13
REMARK SMILES IDX 8 14 10 15 7 16 87 17 82 18 2 19 1 20 83 21 84 22 85 23
REMARK SMILES IDX 86 24 18 25 19 26 20 27 21 29 22 30 23 31 81 32 24 33 80 34
REMARK SMILES IDX 25 35 26 36 27 37 74 38 28 39 79 40 73 41 75 42 29 43 78 44
REMARK SMILES IDX 72 45 71 46 30 48 60 49 41 50 59 51 42 52 45 53 58 54 76 55
REMARK SMILES IDX 43 56 44 57 57 59 77 60 46 61 31 62 32 63 40 64 33 65 39 66
REMARK SMILES IDX 34 67 35 68 36 69 37 70 38 71 61 72 62 73 70 74 63 75 69 76
REMARK SMILES IDX 64 77 65 78 66 79 67 80 68 81 47 82 48 83 56 84 49 85 55 86
REMARK SMILES IDX 50 87 51 88 52 89 53 90 54 91
REMARK H PARENT 14 7 19 28 75 47 45 58
REMARK Flexibility Score: inf
ROOT
ATOM      1  C   UNL     1       6.553   0.421   8.409  1.00  0.00     0.023 C 
ENDROOT
BRANCH   1   2
ATOM      2  C   UNL     1       5.864   1.367   7.422  1.00  0.00     0.023 C 
BRANCH   2   3
ATOM      3  C   UNL     1       6.249   1.143   5.962  1.00  0.00     0.116 C 
BRANCH   3   4
ATOM      4  N   UNL     1       5.476   0.076   5.348  1.00  0.00    -0.352 N 
ATOM      5  C   UNL     1       4.431  -0.026   4.495  1.00  0.00     0.251 C 
ATOM      6  O   UNL     1       4.086  -1.180   4.221  1.00  0.00    -0.270 OA
ATOM      7  H   UNL     1       5.801  -0.810   5.627  1.00  0.00     0.163 HD
BRANCH   5   8
ATOM      8  C   UNL     1       3.691   1.123   3.886  1.00  0.00     0.067 C 
ATOM      9  C   UNL     1       0.705   1.586   1.658  1.00  0.00    -0.019 A 
ATOM     10  C   UNL     1       0.000   2.687   1.117  1.00  0.00     0.045 A 
ATOM     11  C   UNL     1       1.780   1.849   2.547  1.00  0.00     0.022 A 
ATOM     12  Cl  UNL     1      -1.312   2.493   0.002  1.00  0.00    -0.084 Cl
ATOM     13  C   UNL     1       0.331   4.000   1.459  1.00  0.00     0.024 A 
ATOM     14  C   UNL     1       2.096   3.179   2.867  1.00  0.00     0.128 A 
ATOM     15  C   UNL     1       2.576   0.803   3.200  1.00  0.00     0.026 C 
ATOM     16  C   UNL     1       1.375   4.245   2.340  1.00  0.00     0.048 A 
ATOM     17  O   UNL     1       3.087   3.527   3.742  1.00  0.00    -0.475 OA
ATOM     18  C   UNL     1       4.135   2.550   3.969  1.00  0.00     0.314 C 
BRANCH   9  19
ATOM     19  C   UNL     1       0.328   0.173   1.250  1.00  0.00     0.034 C 
ATOM     20  C   UNL     1       1.059  -0.269  -0.010  1.00  0.00     0.009 C 
ENDBRANCH   9  19
BRANCH  18  21
ATOM     21  C   UNL     1       5.326   2.857   3.042  1.00  0.00     0.429 C 
ATOM     22  F   UNL     1       5.886   4.049   3.370  1.00  0.00    -0.167 F 
ATOM     23  F   UNL     1       6.310   1.933   3.134  1.00  0.00    -0.167 F 
ATOM     24  F   UNL     1       4.968   2.925   1.740  1.00  0.00    -0.167 F 
ENDBRANCH  18  21
ENDBRANCH   5   8
ENDBRANCH   3   4
ENDBRANCH   2   3
ENDBRANCH   1   2
BRANCH   1  25
ATOM     25  C   UNL     1       8.080   0.410   8.355  1.00  0.00     0.116 C 
BRANCH  25  26
ATOM     26  N   UNL     1       8.694   1.727   8.459  1.00  0.00    -0.352 N 
ATOM     27  C   UNL     1       9.921   2.050   8.998  1.00  0.00     0.251 C 
ATOM     28  H   UNL     1       8.169   2.478   8.100  1.00  0.00     0.163 HD
ATOM     29  O   UNL     1      10.278   3.221   9.078  1.00  0.00    -0.269 OA
BRANCH  27  30
ATOM     30  C   UNL     1      10.771   0.964   9.525  1.00  0.00     0.039 A 
ATOM     31  C   UNL     1      11.019  -0.168   8.749  1.00  0.00     0.014 A 
ATOM     32  C   UNL     1      11.242   1.041  10.839  1.00  0.00     0.014 A 
ATOM     33  C   UNL     1      11.574  -1.292   9.344  1.00  0.00     0.010 A 
ATOM     34  C   UNL     1      11.880  -0.065  11.409  1.00  0.00     0.010 A 
ATOM     35  C   UNL     1      11.999  -1.260  10.684  1.00  0.00    -0.014 A 
BRANCH  35  36
ATOM     36  C   UNL     1      12.559  -2.498  11.285  1.00  0.00     0.031 A 
ATOM     37  C   UNL     1      11.835  -3.223  12.389  1.00  0.00     0.074 A 
ATOM     38  C   UNL     1      13.677  -3.026  10.751  1.00  0.00     0.049 A 
ATOM     39  N   UNL     1      12.123  -4.378  12.934  1.00  0.00    -0.248 NA
ATOM     40  C   UNL     1      10.638  -2.579  12.955  1.00  0.00     0.031 C 
ATOM     41  C   UNL     1      14.454  -2.417   9.668  1.00  0.00     0.029 A 
ATOM     42  N   UNL     1      14.321  -4.211  10.997  1.00  0.00    -0.354 N 
ATOM     43  C   UNL     1      11.157  -4.593  13.910  1.00  0.00     0.074 A 
ATOM     44  C   UNL     1      10.287  -3.437  13.905  1.00  0.00     0.031 C 
ATOM     45  C   UNL     1      15.411  -3.272   9.282  1.00  0.00     0.029 A 
ATOM     46  C   UNL     1      15.359  -4.459  10.130  1.00  0.00     0.049 A 
ATOM     47  H   UNL     1      14.066  -4.824  11.724  1.00  0.00     0.167 HD
ATOM     48  C   UNL     1      11.003  -5.662  14.727  1.00  0.00     0.031 A 
ATOM     49  C   UNL     1      16.178  -5.523  10.017  1.00  0.00     0.031 A 
ATOM     50  C   UNL     1      11.863  -6.817  14.718  1.00  0.00     0.049 A 
ATOM     51  C   UNL     1      16.004  -6.682  10.951  1.00  0.00     0.074 A 
ATOM     52  C   UNL     1      11.773  -7.957  15.498  1.00  0.00     0.029 A 
ATOM     53  N   UNL     1      12.963  -6.985  13.891  1.00  0.00    -0.354 N 
ATOM     54  N   UNL     1      15.085  -6.862  11.870  1.00  0.00    -0.248 NA
ATOM     55  C   UNL     1      16.980  -7.774  10.846  1.00  0.00     0.031 C 
ATOM     56  C   UNL     1      12.849  -8.790  15.180  1.00  0.00     0.029 A 
ATOM     57  C   UNL     1      13.577  -8.196  14.161  1.00  0.00     0.049 A 
ATOM     58  H   UNL     1      13.263  -6.338  13.212  1.00  0.00     0.167 HD
ATOM     59  C   UNL     1      15.380  -8.082  12.464  1.00  0.00     0.074 A 
ATOM     60  C   UNL     1      16.541  -8.613  11.777  1.00  0.00     0.031 C 
ATOM     61  C   UNL     1      14.751  -8.698  13.493  1.00  0.00     0.031 A 
BRANCH  48  62
ATOM     62  C   UNL     1       9.864  -5.650  15.713  1.00  0.00    -0.014 A 
ATOM     63  C   UNL     1      10.133  -5.535  17.089  1.00  0.00     0.010 A 
ATOM     64  C   UNL     1       8.540  -5.865  15.290  1.00  0.00     0.010 A 
ATOM     65  C   UNL     1       9.105  -5.659  18.028  1.00  0.00     0.020 A 
ATOM     66  C   UNL     1       7.504  -5.966  16.225  1.00  0.00     0.020 A 
ATOM     67  C   UNL     1       7.797  -5.883  17.589  1.00  0.00     0.054 A 
BRANCH  67  68
ATOM     68  S   UNL     1       6.474  -6.054  18.819  1.00  0.00     0.124 S 
ATOM     69  O   UNL     1       6.659  -7.425  19.284  1.00  0.00    -0.237 OA
ATOM     70  O   UNL     1       6.798  -5.009  19.788  1.00  0.00    -0.237 OA
ATOM     71  O   UNL     1       5.258  -5.813  18.044  1.00  0.00    -0.744 OA
ENDBRANCH  67  68
ENDBRANCH  48  62
BRANCH  49  72
ATOM     72  C   UNL     1      17.216  -5.521   8.952  1.00  0.00    -0.014 A 
ATOM     73  C   UNL     1      18.301  -4.628   9.021  1.00  0.00     0.010 A 
ATOM     74  C   UNL     1      17.065  -6.330   7.812  1.00  0.00     0.010 A 
ATOM     75  C   UNL     1      19.178  -4.492   7.944  1.00  0.00     0.020 A 
ATOM     76  C   UNL     1      17.958  -6.217   6.742  1.00  0.00     0.020 A 
ATOM     77  C   UNL     1      18.988  -5.275   6.802  1.00  0.00     0.054 A 
BRANCH  77  78
ATOM     78  S   UNL     1      20.094  -5.037   5.384  1.00  0.00     0.124 S 
ATOM     79  O   UNL     1      19.515  -3.855   4.751  1.00  0.00    -0.237 OA
ATOM     80  O   UNL     1      21.395  -4.837   6.019  1.00  0.00    -0.237 OA
ATOM     81  O   UNL     1      19.956  -6.282   4.634  1.00  0.00    -0.744 OA
ENDBRANCH  77  78
ENDBRANCH  49  72
BRANCH  61  82
ATOM     82  C   UNL     1      15.320 -10.003  13.979  1.00  0.00    -0.014 A 
ATOM     83  C   UNL     1      14.624 -11.204  13.756  1.00  0.00     0.010 A 
ATOM     84  C   UNL     1      16.499 -10.023  14.746  1.00  0.00     0.010 A 
ATOM     85  C   UNL     1      15.083 -12.401  14.310  1.00  0.00     0.020 A 
ATOM     86  C   UNL     1      16.974 -11.223  15.282  1.00  0.00     0.020 A 
ATOM     87  C   UNL     1      16.251 -12.401  15.078  1.00  0.00     0.054 A 
BRANCH  87  88
ATOM     88  S   UNL     1      16.832 -13.961  15.797  1.00  0.00     0.124 S 
ATOM     89  O   UNL     1      15.984 -14.089  16.979  1.00  0.00    -0.237 OA
ATOM     90  O   UNL     1      16.576 -14.926  14.730  1.00  0.00    -0.237 OA
ATOM     91  O   UNL     1      18.246 -13.706  16.067  1.00  0.00    -0.744 OA
ENDBRANCH  87  88
ENDBRANCH  61  82
ENDBRANCH  35  36
ENDBRANCH  27  30
ENDBRANCH  25  26
ENDBRANCH   1  25
TORSDOF 16
