REMARK SMILES C[NH2+][C@@]1(C(=O)NCCCCNC(=O)c2ccc(-c3c4nc(c(-c5ccc(S(=O)(=O)[O-])cc5)c5ccc([nH]5)c(-c5ccc(S(=O)(=O)[O-])cc5)c5nc(c(-c6ccc(S(=O)(=O)[O-])cc6)c6ccc3[nH]6)C=C5)C=C4)cc2)CC[C@@H]([N@@H+](C)C2CCCCCC2)C1
REMARK SMILES IDX 7 1 6 2 4 3 5 4 3 6 74 7 86 8 75 9 76 10 2 11 1 12 77 15
REMARK SMILES IDX 78 16 79 18 80 19 81 20 82 21 85 23 84 24 83 25 8 27 9 28
REMARK SMILES IDX 10 29 11 30 12 31 13 33 14 34 15 35 73 36 16 37 72 38 17 39
REMARK SMILES IDX 18 40 19 41 66 42 20 43 71 44 65 45 67 46 21 47 70 48 64 49
REMARK SMILES IDX 63 50 22 52 52 53 33 54 51 55 34 56 37 57 50 58 68 59 35 60
REMARK SMILES IDX 36 61 49 63 69 64 38 65 23 66 24 67 32 68 25 69 31 70 26 71
REMARK SMILES IDX 27 72 28 73 29 74 30 75 53 76 54 77 62 78 55 79 61 80 56 81
REMARK SMILES IDX 57 82 58 83 59 84 60 85 39 86 40 87 48 88 41 89 47 90 42 91
REMARK SMILES IDX 43 92 44 93 45 94 46 95
REMARK H PARENT 6 5 2 13 2 14 77 17 11 32 67 51 37 62
REMARK Flexibility Score: 80.00
ROOT
ATOM      1  C   UNL     1      -3.812  -1.567   2.252  1.00  0.00     0.116 C 
ENDROOT
BRANCH   1   2
ATOM      2  N   UNL     1      -2.449  -1.746   2.691  1.00  0.00    -0.351 N 
ATOM      3  C   UNL     1      -1.253  -1.574   2.057  1.00  0.00     0.281 C 
ATOM      4  O   UNL     1      -0.260  -1.720   2.782  1.00  0.00    -0.268 OA
ATOM      5  H   UNL     1      -2.366  -2.050   3.624  1.00  0.00     0.163 HD
BRANCH   3   6
ATOM      6  C   UNL     1      -1.138  -1.222   0.516  1.00  0.00     0.181 C 
ATOM      7  C   UNL     1      -1.883   0.075   0.145  1.00  0.00     0.085 C 
ATOM      8  C   UNL     1      -1.770  -2.351  -0.333  1.00  0.00     0.144 C 
ATOM      9  C   UNL     1      -2.960  -0.248  -0.888  1.00  0.00     0.072 C 
ATOM     10  C   UNL     1      -2.861  -1.736  -1.224  1.00  0.00     0.191 C 
BRANCH   6  11
ATOM     11  N   UNL     1       0.308  -1.172   0.155  1.00  0.00    -0.336 N 
ATOM     12  C   UNL     1       1.050  -0.007   0.610  1.00  0.00     0.331 C 
ATOM     13  H   UNL     1       0.755  -1.998   0.551  1.00  0.00     0.346 HD
ATOM     14  H   UNL     1       0.330  -1.125  -0.864  1.00  0.00     0.346 HD
ENDBRANCH   6  11
BRANCH  10  15
ATOM     15  N   UNL     1      -2.935  -2.168  -2.634  1.00  0.00    -0.332 N 
ATOM     16  C   UNL     1      -4.323  -2.087  -3.119  1.00  0.00     0.333 C 
ATOM     17  H   UNL     1      -2.579  -3.118  -2.529  1.00  0.00     0.348 HD
BRANCH  15  18
ATOM     18  C   UNL     1      -1.974  -1.706  -3.674  1.00  0.00     0.184 C 
BRANCH  18  19
ATOM     19  C   UNL     1      -2.006  -0.215  -4.077  1.00  0.00     0.065 C 
BRANCH  19  20
ATOM     20  C   UNL     1      -0.970   0.689  -3.412  1.00  0.00     0.006 C 
BRANCH  20  21
ATOM     21  C   UNL     1       0.357   0.751  -4.155  1.00  0.00     0.000 CG0
ATOM     22  G   UNL     1       1.194  -0.516  -4.031  1.00  0.00     0.000 G0
ENDBRANCH  20  21
ENDBRANCH  19  20
ENDBRANCH  18  19
BRANCH  18  23
ATOM     23  C   UNL     1      -0.560  -2.288  -3.492  1.00  0.00     0.065 C 
BRANCH  23  24
ATOM     24  C   UNL     1       0.493  -1.796  -4.491  1.00  0.00     0.006 C 
BRANCH  24  25
ATOM     25  C   UNL     1       1.194  -0.516  -4.031  1.00  0.00     0.000 CG0
ATOM     26  G   UNL     1       0.357   0.751  -4.155  1.00  0.00     0.000 G0
ENDBRANCH  24  25
ENDBRANCH  23  24
ENDBRANCH  18  23
ENDBRANCH  15  18
ENDBRANCH  10  15
ENDBRANCH   3   6
ENDBRANCH   1   2
BRANCH   1  27
ATOM     27  C   UNL     1      -4.560  -2.886   2.075  1.00  0.00     0.023 C 
BRANCH  27  28
ATOM     28  C   UNL     1      -5.540  -3.203   3.201  1.00  0.00     0.023 C 
BRANCH  28  29
ATOM     29  C   UNL     1      -6.597  -2.137   3.466  1.00  0.00     0.116 C 
BRANCH  29  30
ATOM     30  N   UNL     1      -7.415  -1.789   2.312  1.00  0.00    -0.352 N 
ATOM     31  C   UNL     1      -8.699  -1.280   2.338  1.00  0.00     0.251 C 
ATOM     32  H   UNL     1      -7.012  -1.931   1.425  1.00  0.00     0.163 HD
ATOM     33  O   UNL     1      -9.322  -1.065   1.310  1.00  0.00    -0.269 OA
BRANCH  31  34
ATOM     34  C   UNL     1      -9.310  -1.058   3.664  1.00  0.00     0.039 A 
ATOM     35  C   UNL     1     -10.416  -1.825   4.034  1.00  0.00     0.014 A 
ATOM     36  C   UNL     1      -8.667  -0.229   4.587  1.00  0.00     0.014 A 
ATOM     37  C   UNL     1     -10.825  -1.828   5.369  1.00  0.00     0.010 A 
ATOM     38  C   UNL     1      -9.030  -0.296   5.927  1.00  0.00     0.010 A 
ATOM     39  C   UNL     1     -10.103  -1.106   6.334  1.00  0.00    -0.014 A 
BRANCH  39  40
ATOM     40  C   UNL     1     -10.437  -1.197   7.778  1.00  0.00     0.031 A 
ATOM     41  C   UNL     1     -10.880   0.032   8.523  1.00  0.00     0.074 A 
ATOM     42  C   UNL     1     -10.257  -2.360   8.437  1.00  0.00     0.049 A 
ATOM     43  N   UNL     1     -11.138   0.174   9.797  1.00  0.00    -0.248 NA
ATOM     44  C   UNL     1     -11.017   1.270   7.739  1.00  0.00     0.031 C 
ATOM     45  C   UNL     1      -9.769  -3.609   7.845  1.00  0.00     0.029 A 
ATOM     46  N   UNL     1     -10.455  -2.678   9.758  1.00  0.00    -0.354 N 
ATOM     47  C   UNL     1     -11.437   1.520   9.972  1.00  0.00     0.074 A 
ATOM     48  C   UNL     1     -11.283   2.159   8.684  1.00  0.00     0.031 C 
ATOM     49  C   UNL     1      -9.733  -4.561   8.791  1.00  0.00     0.029 A 
ATOM     50  C   UNL     1     -10.162  -3.987  10.063  1.00  0.00     0.049 A 
ATOM     51  H   UNL     1     -10.777  -2.030  10.425  1.00  0.00     0.167 HD
ATOM     52  C   UNL     1     -11.826   2.163  11.097  1.00  0.00     0.031 A 
ATOM     53  C   UNL     1     -10.231  -4.652  11.233  1.00  0.00     0.031 A 
ATOM     54  C   UNL     1     -12.013   1.520  12.369  1.00  0.00     0.049 A 
ATOM     55  C   UNL     1     -10.709  -3.927  12.461  1.00  0.00     0.074 A 
ATOM     56  C   UNL     1     -12.477   2.070  13.551  1.00  0.00     0.029 A 
ATOM     57  N   UNL     1     -11.750   0.183  12.624  1.00  0.00    -0.354 N 
ATOM     58  N   UNL     1     -11.058  -2.669  12.590  1.00  0.00    -0.248 NA
ATOM     59  C   UNL     1     -10.816  -4.714  13.698  1.00  0.00     0.031 C 
ATOM     60  C   UNL     1     -12.464   1.071  14.531  1.00  0.00     0.029 A 
ATOM     61  C   UNL     1     -12.032  -0.109  13.947  1.00  0.00     0.049 A 
ATOM     62  H   UNL     1     -11.414  -0.463  11.962  1.00  0.00     0.167 HD
ATOM     63  C   UNL     1     -11.448  -2.519  13.916  1.00  0.00     0.074 A 
ATOM     64  C   UNL     1     -11.304  -3.817  14.544  1.00  0.00     0.031 C 
ATOM     65  C   UNL     1     -11.886  -1.407  14.555  1.00  0.00     0.031 A 
BRANCH  52  66
ATOM     66  C   UNL     1     -12.081   3.642  10.993  1.00  0.00    -0.014 A 
ATOM     67  C   UNL     1     -13.201   4.136  10.299  1.00  0.00     0.010 A 
ATOM     68  C   UNL     1     -11.202   4.548  11.611  1.00  0.00     0.010 A 
ATOM     69  C   UNL     1     -13.410   5.512  10.184  1.00  0.00     0.020 A 
ATOM     70  C   UNL     1     -11.423   5.926  11.522  1.00  0.00     0.020 A 
ATOM     71  C   UNL     1     -12.515   6.399  10.791  1.00  0.00     0.054 A 
BRANCH  71  72
ATOM     72  S   UNL     1     -12.817   8.181  10.638  1.00  0.00     0.124 S 
ATOM     73  O   UNL     1     -12.386   8.440   9.266  1.00  0.00    -0.237 OA
ATOM     74  O   UNL     1     -14.254   8.286  10.874  1.00  0.00    -0.237 OA
ATOM     75  O   UNL     1     -11.973   8.765  11.677  1.00  0.00    -0.744 OA
ENDBRANCH  71  72
ENDBRANCH  52  66
BRANCH  53  76
ATOM     76  C   UNL     1      -9.867  -6.093  11.292  1.00  0.00    -0.014 A 
ATOM     77  C   UNL     1     -10.867  -7.073  11.417  1.00  0.00     0.010 A 
ATOM     78  C   UNL     1      -8.522  -6.495  11.204  1.00  0.00     0.010 A 
ATOM     79  C   UNL     1     -10.530  -8.429  11.466  1.00  0.00     0.020 A 
ATOM     80  C   UNL     1      -8.182  -7.851  11.230  1.00  0.00     0.020 A 
ATOM     81  C   UNL     1      -9.188  -8.810  11.371  1.00  0.00     0.054 A 
BRANCH  81  82
ATOM     82  S   UNL     1      -8.777 -10.578  11.374  1.00  0.00     0.124 S 
ATOM     83  O   UNL     1      -8.914 -10.919  12.786  1.00  0.00    -0.237 OA
ATOM     84  O   UNL     1      -9.789 -11.141  10.484  1.00  0.00    -0.237 OA
ATOM     85  O   UNL     1      -7.413 -10.609  10.850  1.00  0.00    -0.744 OA
ENDBRANCH  81  82
ENDBRANCH  53  76
BRANCH  65  86
ATOM     86  C   UNL     1     -12.272  -1.546  16.001  1.00  0.00    -0.014 A 
ATOM     87  C   UNL     1     -11.294  -1.665  17.005  1.00  0.00     0.010 A 
ATOM     88  C   UNL     1     -13.630  -1.491  16.365  1.00  0.00     0.010 A 
ATOM     89  C   UNL     1     -11.671  -1.751  18.347  1.00  0.00     0.020 A 
ATOM     90  C   UNL     1     -14.008  -1.555  17.707  1.00  0.00     0.020 A 
ATOM     91  C   UNL     1     -13.026  -1.697  18.690  1.00  0.00     0.054 A 
BRANCH  91  92
ATOM     92  S   UNL     1     -13.489  -1.759  20.443  1.00  0.00     0.124 S 
ATOM     93  O   UNL     1     -13.331  -3.178  20.748  1.00  0.00    -0.237 OA
ATOM     94  O   UNL     1     -12.512  -0.869  21.067  1.00  0.00    -0.237 OA
ATOM     95  O   UNL     1     -14.865  -1.268  20.454  1.00  0.00    -0.744 OA
ENDBRANCH  91  92
ENDBRANCH  65  86
ENDBRANCH  39  40
ENDBRANCH  31  34
ENDBRANCH  29  30
ENDBRANCH  28  29
ENDBRANCH  27  28
ENDBRANCH   1  27
TORSDOF 17
