REMARK SMILES Cc1cccc(S(=O)(=O)Nc2cc(C(=O)NCCCCNC(=O)c3ccc(-c4c5nc(c(-c6ccc(S(=O)(=O)[O-])cc6)c6ccc([nH]6)c(-c6ccc(S(=O)(=O)[O-])cc6)c6nc(c(-c7ccc(S(=O)(=O)[O-])cc7)c7ccc4[nH]7)C=C6)C=C5)cc3)ccc2N2CCC[C@H](C[NH+]3CCCC3)C2)c1
REMARK SMILES IDX 18 1 17 2 16 3 14 4 15 5 13 7 11 8 12 9 86 10 85 11 84 12
REMARK SMILES IDX 10 13 7 15 8 16 9 17 6 18 1 19 2 20 3 21 99 22 4 23 5 24
REMARK SMILES IDX 87 25 88 26 98 27 89 28 91 29 90 30 92 31 93 32 94 33 97 34
REMARK SMILES IDX 95 36 96 37 19 38 20 39 21 40 22 41 23 43 24 44 25 45 83 46
REMARK SMILES IDX 26 47 82 48 27 49 28 50 29 51 76 52 30 53 81 54 75 55 77 56
REMARK SMILES IDX 31 57 80 58 74 59 73 60 32 62 62 63 43 64 61 65 44 66 47 67
REMARK SMILES IDX 60 68 78 69 45 70 46 71 59 73 79 74 48 75 33 76 34 77 42 78
REMARK SMILES IDX 35 79 41 80 36 81 37 82 38 83 39 84 40 85 63 86 64 87 72 88
REMARK SMILES IDX 65 89 71 90 66 91 67 92 68 93 69 94 70 95 49 96 50 97 58 98
REMARK SMILES IDX 51 99 57 100 52 101 53 102 54 103 55 104 56 105
REMARK H PARENT 16 6 10 14 93 35 21 42 77 61 47 72
REMARK Flexibility Score: inf
ROOT
ATOM      1  C   UNL     1       0.245   1.727  -4.258  1.00  0.00     0.023 C 
ENDROOT
BRANCH   1   2
ATOM      2  C   UNL     1       0.960   0.978  -3.126  1.00  0.00     0.116 C 
BRANCH   2   3
ATOM      3  N   UNL     1       2.377   1.306  -3.060  1.00  0.00    -0.352 N 
ATOM      4  C   UNL     1       3.097   2.230  -2.349  1.00  0.00     0.251 C 
ATOM      5  O   UNL     1       4.321   2.234  -2.498  1.00  0.00    -0.269 OA
ATOM      6  H   UNL     1       2.934   0.748  -3.649  1.00  0.00     0.163 HD
BRANCH   4   7
ATOM      7  C   UNL     1       2.500   3.183  -1.369  1.00  0.00     0.042 A 
ATOM      8  C   UNL     1       0.648   4.286  -0.257  1.00  0.00     0.073 A 
ATOM      9  C   UNL     1       1.158   3.546  -1.328  1.00  0.00     0.042 A 
ATOM     10  C   UNL     1       1.497   4.839   0.721  1.00  0.00     0.061 A 
ATOM     11  C   UNL     1       2.865   4.556   0.615  1.00  0.00     0.029 A 
ATOM     12  C   UNL     1       3.355   3.717  -0.392  1.00  0.00     0.016 A 
BRANCH   8  13
ATOM     13  N   UNL     1      -0.778   4.400  -0.161  1.00  0.00    -0.277 N 
ATOM     14  H   UNL     1      -1.229   5.228  -0.445  1.00  0.00     0.180 HD
BRANCH  13  15
ATOM     15  S   UNL     1      -1.692   3.084   0.451  1.00  0.00     0.261 S 
ATOM     16  O   UNL     1      -2.799   2.937  -0.472  1.00  0.00    -0.201 OA
ATOM     17  O   UNL     1      -1.973   3.378   1.842  1.00  0.00    -0.201 OA
BRANCH  15  18
ATOM     18  C   UNL     1      -0.753   1.569   0.430  1.00  0.00     0.088 A 
ATOM     19  C   UNL     1       2.739   0.209   1.167  1.00  0.00     0.044 C 
ATOM     20  C   UNL     1       1.287   0.287   0.798  1.00  0.00    -0.050 A 
ATOM     21  C   UNL     1       0.692  -0.815   0.188  1.00  0.00     0.003 A 
ATOM     22  C   UNL     1       0.530   1.456   0.987  1.00  0.00     0.025 A 
ATOM     23  C   UNL     1      -0.612  -0.725  -0.283  1.00  0.00     0.002 A 
ATOM     24  C   UNL     1      -1.336   0.458  -0.179  1.00  0.00     0.022 A 
ENDBRANCH  15  18
ENDBRANCH  13  15
ENDBRANCH   8  13
BRANCH  10  25
ATOM     25  N   UNL     1       1.068   5.641   1.764  1.00  0.00    -0.369 N 
ATOM     26  C   UNL     1       1.286   7.078   1.658  1.00  0.00     0.116 C 
ATOM     27  C   UNL     1       0.130   5.160   2.772  1.00  0.00     0.126 C 
ATOM     28  C   UNL     1       1.687   7.626   3.025  1.00  0.00     0.022 C 
ATOM     29  C   UNL     1       0.526   5.662   4.170  1.00  0.00     0.064 C 
ATOM     30  C   UNL     1       0.702   7.189   4.110  1.00  0.00     0.013 C 
BRANCH  29  31
ATOM     31  C   UNL     1       1.746   4.843   4.669  1.00  0.00     0.267 C 
BRANCH  31  32
ATOM     32  N   UNL     1       2.143   4.905   6.078  1.00  0.00    -0.335 N 
ATOM     33  C   UNL     1       1.090   4.593   7.041  1.00  0.00     0.262 C 
ATOM     34  C   UNL     1       2.807   6.130   6.505  1.00  0.00     0.262 C 
ATOM     35  H   UNL     1       2.832   4.153   6.090  1.00  0.00     0.348 HD
ATOM     36  C   UNL     1       0.650   5.935   7.591  1.00  0.00     0.067 C 
ATOM     37  C   UNL     1       1.917   6.770   7.564  1.00  0.00     0.067 C 
ENDBRANCH  31  32
ENDBRANCH  29  31
ENDBRANCH  10  25
ENDBRANCH   4   7
ENDBRANCH   2   3
ENDBRANCH   1   2
BRANCH   1  38
ATOM     38  C   UNL     1       0.677   1.280  -5.654  1.00  0.00     0.023 C 
BRANCH  38  39
ATOM     39  C   UNL     1       0.172  -0.111  -6.003  1.00  0.00     0.116 C 
BRANCH  39  40
ATOM     40  N   UNL     1      -0.944  -0.118  -6.935  1.00  0.00    -0.352 N 
ATOM     41  C   UNL     1      -1.310  -1.234  -7.673  1.00  0.00     0.251 C 
ATOM     42  H   UNL     1      -1.466   0.709  -7.048  1.00  0.00     0.163 HD
ATOM     43  O   UNL     1      -1.666  -1.199  -8.845  1.00  0.00    -0.269 OA
BRANCH  41  44
ATOM     44  C   UNL     1      -1.371  -2.496  -6.908  1.00  0.00     0.039 A 
ATOM     45  C   UNL     1      -2.624  -2.948  -6.480  1.00  0.00     0.014 A 
ATOM     46  C   UNL     1      -0.193  -3.034  -6.397  1.00  0.00     0.014 A 
ATOM     47  C   UNL     1      -2.700  -3.835  -5.411  1.00  0.00     0.010 A 
ATOM     48  C   UNL     1      -0.271  -3.831  -5.277  1.00  0.00     0.010 A 
ATOM     49  C   UNL     1      -1.523  -4.198  -4.761  1.00  0.00    -0.014 A 
BRANCH  49  50
ATOM     50  C   UNL     1      -1.473  -4.910  -3.493  1.00  0.00     0.031 A 
ATOM     51  C   UNL     1      -1.029  -6.317  -3.462  1.00  0.00     0.074 A 
ATOM     52  C   UNL     1      -1.665  -4.227  -2.344  1.00  0.00     0.049 A 
ATOM     53  N   UNL     1      -1.160  -7.105  -2.451  1.00  0.00    -0.248 NA
ATOM     54  C   UNL     1      -0.444  -6.971  -4.627  1.00  0.00     0.031 C 
ATOM     55  C   UNL     1      -1.282  -4.640  -0.997  1.00  0.00     0.029 A 
ATOM     56  N   UNL     1      -2.459  -3.101  -2.141  1.00  0.00    -0.354 N 
ATOM     57  C   UNL     1      -0.392  -8.220  -2.699  1.00  0.00     0.074 A 
ATOM     58  C   UNL     1      -0.075  -8.143  -4.105  1.00  0.00     0.031 C 
ATOM     59  C   UNL     1      -2.065  -4.001  -0.116  1.00  0.00     0.029 A 
ATOM     60  C   UNL     1      -3.059  -3.266  -0.885  1.00  0.00     0.049 A 
ATOM     61  H   UNL     1      -2.576  -2.341  -2.756  1.00  0.00     0.167 HD
ATOM     62  C   UNL     1       0.023  -8.984  -1.648  1.00  0.00     0.031 A 
ATOM     63  C   UNL     1      -4.405  -3.304  -0.677  1.00  0.00     0.031 A 
ATOM     64  C   UNL     1      -0.657  -8.592  -0.407  1.00  0.00     0.049 A 
ATOM     65  C   UNL     1      -4.793  -4.605  -0.014  1.00  0.00     0.074 A 
ATOM     66  C   UNL     1      -0.258  -7.884   0.715  1.00  0.00     0.029 A 
ATOM     67  N   UNL     1      -2.050  -8.668  -0.344  1.00  0.00    -0.354 N 
ATOM     68  N   UNL     1      -4.059  -5.686  -0.074  1.00  0.00    -0.248 NA
ATOM     69  C   UNL     1      -5.988  -4.786   0.802  1.00  0.00     0.031 C 
ATOM     70  C   UNL     1      -1.430  -7.437   1.389  1.00  0.00     0.029 A 
ATOM     71  C   UNL     1      -2.538  -7.909   0.703  1.00  0.00     0.049 A 
ATOM     72  H   UNL     1      -2.609  -9.192  -0.962  1.00  0.00     0.167 HD
ATOM     73  C   UNL     1      -4.592  -6.646   0.738  1.00  0.00     0.074 A 
ATOM     74  C   UNL     1      -5.823  -6.050   1.235  1.00  0.00     0.031 C 
ATOM     75  C   UNL     1      -3.972  -7.839   0.978  1.00  0.00     0.031 A 
BRANCH  62  76
ATOM     76  C   UNL     1       1.261  -9.869  -1.709  1.00  0.00    -0.014 A 
ATOM     77  C   UNL     1       1.948 -10.213  -0.525  1.00  0.00     0.010 A 
ATOM     78  C   UNL     1       1.855 -10.323  -2.903  1.00  0.00     0.010 A 
ATOM     79  C   UNL     1       3.184 -10.889  -0.542  1.00  0.00     0.020 A 
ATOM     80  C   UNL     1       3.098 -10.972  -2.942  1.00  0.00     0.020 A 
ATOM     81  C   UNL     1       3.764 -11.245  -1.758  1.00  0.00     0.054 A 
BRANCH  81  82
ATOM     82  S   UNL     1       5.380 -12.065  -1.785  1.00  0.00     0.124 S 
ATOM     83  O   UNL     1       6.236 -11.096  -1.105  1.00  0.00    -0.237 OA
ATOM     84  O   UNL     1       5.117 -13.300  -1.054  1.00  0.00    -0.237 OA
ATOM     85  O   UNL     1       5.658 -12.237  -3.211  1.00  0.00    -0.744 OA
ENDBRANCH  81  82
ENDBRANCH  62  76
BRANCH  63  86
ATOM     86  C   UNL     1      -5.192  -2.501  -1.656  1.00  0.00    -0.014 A 
ATOM     87  C   UNL     1      -5.047  -1.095  -1.571  1.00  0.00     0.010 A 
ATOM     88  C   UNL     1      -5.608  -3.061  -2.876  1.00  0.00     0.010 A 
ATOM     89  C   UNL     1      -5.101  -0.298  -2.720  1.00  0.00     0.020 A 
ATOM     90  C   UNL     1      -5.678  -2.258  -4.028  1.00  0.00     0.020 A 
ATOM     91  C   UNL     1      -5.343  -0.900  -3.953  1.00  0.00     0.054 A 
BRANCH  91  92
ATOM     92  S   UNL     1      -5.030   0.070  -5.464  1.00  0.00     0.124 S 
ATOM     93  O   UNL     1      -5.893   1.232  -5.279  1.00  0.00    -0.237 OA
ATOM     94  O   UNL     1      -3.590   0.327  -5.379  1.00  0.00    -0.237 OA
ATOM     95  O   UNL     1      -5.426  -0.842  -6.532  1.00  0.00    -0.744 OA
ENDBRANCH  91  92
ENDBRANCH  63  86
BRANCH  75  96
ATOM     96  C   UNL     1      -4.639  -9.038   1.603  1.00  0.00    -0.014 A 
ATOM     97  C   UNL     1      -6.027  -9.245   1.587  1.00  0.00     0.010 A 
ATOM     98  C   UNL     1      -3.836 -10.096   2.091  1.00  0.00     0.010 A 
ATOM     99  C   UNL     1      -6.593 -10.424   2.086  1.00  0.00     0.020 A 
ATOM    100  C   UNL     1      -4.387 -11.296   2.546  1.00  0.00     0.020 A 
ATOM    101  C   UNL     1      -5.769 -11.444   2.560  1.00  0.00     0.054 A 
BRANCH 101 102
ATOM    102  S   UNL     1      -6.507 -13.002   3.108  1.00  0.00     0.124 S 
ATOM    103  O   UNL     1      -6.786 -12.723   4.514  1.00  0.00    -0.237 OA
ATOM    104  O   UNL     1      -7.683 -13.128   2.249  1.00  0.00    -0.237 OA
ATOM    105  O   UNL     1      -5.455 -13.984   2.858  1.00  0.00    -0.744 OA
ENDBRANCH 101 102
ENDBRANCH  75  96
ENDBRANCH  49  50
ENDBRANCH  41  44
ENDBRANCH  39  40
ENDBRANCH  38  39
ENDBRANCH   1  38
TORSDOF 20
