REMARK SMILES CN(C(=O)C[N@@H+](CC(=O)NCCCCNC(=O)c1ccc(-c2c3nc(c(-c4ccc(S(=O)(=O)[O-])cc4)c4ccc([nH]4)c(-c4ccc(S(=O)(=O)[O-])cc4)c4nc(c(-c5ccc(S(=O)(=O)[O-])cc5)c5ccc2[nH]5)C=C4)C=C3)cc1)C(C)(C)C)c1ccccc1
REMARK SMILES IDX 11 1 10 2 8 3 9 4 7 6 6 7 5 9 3 10 4 11 2 12 1 13 82 14
REMARK SMILES IDX 83 15 87 16 84 17 86 18 85 19 78 20 79 21 80 22 81 23 12 24
REMARK SMILES IDX 13 25 14 26 15 27 16 28 17 30 18 31 19 32 77 33 20 34 76 35
REMARK SMILES IDX 21 36 22 37 23 38 70 39 24 40 75 41 69 42 71 43 25 44 74 45
REMARK SMILES IDX 68 46 67 47 26 49 56 50 37 51 55 52 38 53 41 54 54 55 72 56
REMARK SMILES IDX 39 57 40 58 53 60 73 61 42 62 27 63 28 64 36 65 29 66 35 67
REMARK SMILES IDX 30 68 31 69 32 70 33 71 34 72 57 73 58 74 66 75 59 76 65 77
REMARK SMILES IDX 60 78 61 79 62 80 63 81 64 82 43 83 44 84 52 85 45 86 51 87
REMARK SMILES IDX 46 88 47 89 48 90 49 91 50 92
REMARK H PARENT 10 5 6 8 15 29 71 48 41 59
REMARK Flexibility Score: inf
ROOT
ATOM      1  C   UNL     1      -2.748   0.925   3.680  1.00  0.00     0.116 C 
ENDROOT
BRANCH   1   2
ATOM      2  N   UNL     1      -1.842   1.385   4.718  1.00  0.00    -0.351 N 
ATOM      3  C   UNL     1      -0.556   1.842   4.686  1.00  0.00     0.275 C 
ATOM      4  O   UNL     1      -0.111   2.288   5.752  1.00  0.00    -0.269 OA
ATOM      5  H   UNL     1      -2.232   1.362   5.622  1.00  0.00     0.163 HD
BRANCH   3   6
ATOM      6  C   UNL     1       0.316   1.893   3.416  1.00  0.00     0.364 C 
BRANCH   6   7
ATOM      7  N   UNL     1       0.943   0.617   2.917  1.00  0.00    -0.315 N 
ATOM      8  H   UNL     1       1.766   0.797   2.342  1.00  0.00     0.349 HD
BRANCH   7   9
ATOM      9  C   UNL     1      -0.034  -0.027   2.024  1.00  0.00     0.364 C 
BRANCH   9  10
ATOM     10  C   UNL     1       0.242  -1.367   1.385  1.00  0.00     0.281 C 
ATOM     11  O   UNL     1      -0.283  -2.360   1.905  1.00  0.00    -0.268 OA
BRANCH  10  12
ATOM     12  N   UNL     1       1.018  -1.410   0.225  1.00  0.00    -0.311 N 
ATOM     13  C   UNL     1       1.745  -0.250  -0.285  1.00  0.00     0.153 C 
BRANCH  12  14
ATOM     14  C   UNL     1       1.222  -2.666  -0.438  1.00  0.00     0.043 A 
ATOM     15  C   UNL     1       0.195  -3.620  -0.513  1.00  0.00     0.026 A 
ATOM     16  C   UNL     1       2.463  -2.985  -1.001  1.00  0.00     0.026 A 
ATOM     17  C   UNL     1       0.411  -4.872  -1.091  1.00  0.00     0.002 A 
ATOM     18  C   UNL     1       2.687  -4.246  -1.564  1.00  0.00     0.002 A 
ATOM     19  C   UNL     1       1.664  -5.190  -1.603  1.00  0.00     0.000 A 
ENDBRANCH  12  14
ENDBRANCH  10  12
ENDBRANCH   9  10
ENDBRANCH   7   9
BRANCH   7  20
ATOM     20  C   UNL     1       1.718  -0.180   3.919  1.00  0.00     0.090 C 
ATOM     21  C   UNL     1       0.915  -0.773   5.096  1.00  0.00     0.078 C 
ATOM     22  C   UNL     1       2.478  -1.372   3.280  1.00  0.00     0.078 C 
ATOM     23  C   UNL     1       2.839   0.720   4.505  1.00  0.00     0.078 C 
ENDBRANCH   7  20
ENDBRANCH   6   7
ENDBRANCH   3   6
ENDBRANCH   1   2
BRANCH   1  24
ATOM     24  C   UNL     1      -2.883  -0.607   3.656  1.00  0.00     0.023 C 
BRANCH  24  25
ATOM     25  C   UNL     1      -3.925  -1.220   4.568  1.00  0.00     0.023 C 
BRANCH  25  26
ATOM     26  C   UNL     1      -5.353  -0.838   4.242  1.00  0.00     0.116 C 
BRANCH  26  27
ATOM     27  N   UNL     1      -5.758  -1.138   2.874  1.00  0.00    -0.352 N 
ATOM     28  C   UNL     1      -6.975  -1.617   2.435  1.00  0.00     0.251 C 
ATOM     29  H   UNL     1      -5.081  -0.978   2.178  1.00  0.00     0.163 HD
ATOM     30  O   UNL     1      -7.161  -1.878   1.258  1.00  0.00    -0.269 OA
BRANCH  28  31
ATOM     31  C   UNL     1      -8.030  -1.857   3.443  1.00  0.00     0.039 A 
ATOM     32  C   UNL     1      -8.640  -3.110   3.501  1.00  0.00     0.014 A 
ATOM     33  C   UNL     1      -8.304  -0.884   4.406  1.00  0.00     0.014 A 
ATOM     34  C   UNL     1      -9.466  -3.416   4.584  1.00  0.00     0.010 A 
ATOM     35  C   UNL     1      -9.025  -1.232   5.537  1.00  0.00     0.010 A 
ATOM     36  C   UNL     1      -9.624  -2.496   5.634  1.00  0.00    -0.014 A 
BRANCH  36  37
ATOM     37  C   UNL     1     -10.439  -2.812   6.833  1.00  0.00     0.031 A 
ATOM     38  C   UNL     1     -11.635  -1.955   7.155  1.00  0.00     0.074 A 
ATOM     39  C   UNL     1     -10.067  -3.805   7.664  1.00  0.00     0.049 A 
ATOM     40  N   UNL     1     -12.423  -1.996   8.198  1.00  0.00    -0.248 NA
ATOM     41  C   UNL     1     -11.962  -0.882   6.199  1.00  0.00     0.031 C 
ATOM     42  C   UNL     1      -8.895  -4.669   7.492  1.00  0.00     0.029 A 
ATOM     43  N   UNL     1     -10.639  -4.256   8.827  1.00  0.00    -0.354 N 
ATOM     44  C   UNL     1     -13.313  -0.941   8.036  1.00  0.00     0.074 A 
ATOM     45  C   UNL     1     -12.929  -0.238   6.833  1.00  0.00     0.031 C 
ATOM     46  C   UNL     1      -8.860  -5.568   8.490  1.00  0.00     0.029 A 
ATOM     47  C   UNL     1      -9.981  -5.324   9.390  1.00  0.00     0.049 A 
ATOM     48  H   UNL     1     -11.446  -3.852   9.222  1.00  0.00     0.167 HD
ATOM     49  C   UNL     1     -14.377  -0.603   8.800  1.00  0.00     0.031 A 
ATOM     50  C   UNL     1     -10.256  -6.029  10.505  1.00  0.00     0.031 A 
ATOM     51  C   UNL     1     -14.782  -1.330   9.971  1.00  0.00     0.049 A 
ATOM     52  C   UNL     1     -11.464  -5.657  11.321  1.00  0.00     0.074 A 
ATOM     53  C   UNL     1     -15.878  -1.111  10.785  1.00  0.00     0.029 A 
ATOM     54  N   UNL     1     -14.110  -2.429  10.486  1.00  0.00    -0.354 N 
ATOM     55  N   UNL     1     -12.327  -4.688  11.122  1.00  0.00    -0.248 NA
ATOM     56  C   UNL     1     -11.745  -6.483  12.503  1.00  0.00     0.031 C 
ATOM     57  C   UNL     1     -15.853  -2.062  11.812  1.00  0.00     0.029 A 
ATOM     58  C   UNL     1     -14.766  -2.898  11.610  1.00  0.00     0.049 A 
ATOM     59  H   UNL     1     -13.289  -2.818  10.107  1.00  0.00     0.167 HD
ATOM     60  C   UNL     1     -13.268  -4.806  12.138  1.00  0.00     0.074 A 
ATOM     61  C   UNL     1     -12.877  -5.947  12.941  1.00  0.00     0.031 C 
ATOM     62  C   UNL     1     -14.360  -4.040  12.386  1.00  0.00     0.031 A 
BRANCH  49  63
ATOM     63  C   UNL     1     -15.180   0.596   8.373  1.00  0.00    -0.014 A 
ATOM     64  C   UNL     1     -15.967   0.560   7.207  1.00  0.00     0.010 A 
ATOM     65  C   UNL     1     -15.154   1.770   9.146  1.00  0.00     0.010 A 
ATOM     66  C   UNL     1     -16.672   1.692   6.793  1.00  0.00     0.020 A 
ATOM     67  C   UNL     1     -15.882   2.896   8.751  1.00  0.00     0.020 A 
ATOM     68  C   UNL     1     -16.620   2.856   7.565  1.00  0.00     0.054 A 
BRANCH  68  69
ATOM     69  S   UNL     1     -17.554   4.309   7.012  1.00  0.00     0.124 S 
ATOM     70  O   UNL     1     -16.724   4.797   5.913  1.00  0.00    -0.237 OA
ATOM     71  O   UNL     1     -18.839   3.736   6.620  1.00  0.00    -0.237 OA
ATOM     72  O   UNL     1     -17.592   5.167   8.193  1.00  0.00    -0.744 OA
ENDBRANCH  68  69
ENDBRANCH  49  63
BRANCH  50  73
ATOM     73  C   UNL     1      -9.398  -7.181  10.894  1.00  0.00    -0.014 A 
ATOM     74  C   UNL     1      -9.875  -8.497  10.757  1.00  0.00     0.010 A 
ATOM     75  C   UNL     1      -8.101  -6.974  11.397  1.00  0.00     0.010 A 
ATOM     76  C   UNL     1      -9.082  -9.584  11.138  1.00  0.00     0.020 A 
ATOM     77  C   UNL     1      -7.295  -8.059  11.756  1.00  0.00     0.020 A 
ATOM     78  C   UNL     1      -7.796  -9.357  11.637  1.00  0.00     0.054 A 
BRANCH  78  79
ATOM     79  S   UNL     1      -6.768 -10.783  12.087  1.00  0.00     0.124 S 
ATOM     80  O   UNL     1      -7.358 -11.194  13.356  1.00  0.00    -0.237 OA
ATOM     81  O   UNL     1      -6.980 -11.694  10.965  1.00  0.00    -0.237 OA
ATOM     82  O   UNL     1      -5.423 -10.219  12.174  1.00  0.00    -0.744 OA
ENDBRANCH  78  79
ENDBRANCH  50  73
BRANCH  62  83
ATOM     83  C   UNL     1     -15.229  -4.435  13.547  1.00  0.00    -0.014 A 
ATOM     84  C   UNL     1     -14.822  -4.202  14.872  1.00  0.00     0.010 A 
ATOM     85  C   UNL     1     -16.496  -4.994  13.303  1.00  0.00     0.010 A 
ATOM     86  C   UNL     1     -15.657  -4.551  15.936  1.00  0.00     0.020 A 
ATOM     87  C   UNL     1     -17.344  -5.321  14.363  1.00  0.00     0.020 A 
ATOM     88  C   UNL     1     -16.912  -5.110  15.674  1.00  0.00     0.054 A 
BRANCH  88  89
ATOM     89  S   UNL     1     -17.998  -5.514  17.070  1.00  0.00     0.124 S 
ATOM     90  O   UNL     1     -17.394  -6.743  17.578  1.00  0.00    -0.237 OA
ATOM     91  O   UNL     1     -17.862  -4.343  17.933  1.00  0.00    -0.237 OA
ATOM     92  O   UNL     1     -19.312  -5.673  16.451  1.00  0.00    -0.744 OA
ENDBRANCH  88  89
ENDBRANCH  62  83
ENDBRANCH  36  37
ENDBRANCH  28  31
ENDBRANCH  26  27
ENDBRANCH  25  26
ENDBRANCH  24  25
ENDBRANCH   1  24
TORSDOF 20
