REMARK SMILES O=C(NCCCCNC(=O)c1cc(S(=O)(=O)NCc2ccncc2)c(Cl)cc1Cl)c1ccc(-c2c3nc(c(-c4ccc(S(=O)(=O)[O-])cc4)c4ccc([nH]4)c(-c4ccc(S(=O)(=O)[O-])cc4)c4nc(c(-c5ccc(S(=O)(=O)[O-])cc5)c5ccc2[nH]5)C=C4)C=C3)cc1
REMARK SMILES IDX 6 1 5 2 4 3 3 4 1 5 2 6 30 8 31 9 89 10 32 11 88 12 33 13
REMARK SMILES IDX 34 14 35 15 82 16 36 17 87 18 81 19 83 20 37 21 86 22 80 23
REMARK SMILES IDX 79 24 38 26 68 27 49 28 67 29 50 30 53 31 66 32 84 33 51 34
REMARK SMILES IDX 52 35 65 37 85 38 54 39 39 40 40 41 48 42 41 43 47 44 42 45
REMARK SMILES IDX 43 46 44 47 45 48 46 49 69 50 70 51 78 52 71 53 77 54 72 55
REMARK SMILES IDX 73 56 74 57 75 58 76 59 55 60 56 61 64 62 57 63 63 64 58 65
REMARK SMILES IDX 59 66 60 67 61 68 62 69 7 70 8 71 9 72 10 74 11 75 12 76
REMARK SMILES IDX 28 77 13 78 27 79 29 80 25 81 26 82 14 83 15 84 16 85 17 86
REMARK SMILES IDX 18 88 19 89 20 90 24 91 21 92 23 93 22 94
REMARK H PARENT 3 7 83 25 53 36 8 73 17 87
REMARK Flexibility Score: inf
ROOT
ATOM      1  C   UNL     1       4.254   2.718  -2.959  1.00  0.00     0.023 C 
ENDROOT
BRANCH   1   2
ATOM      2  C   UNL     1       4.776   1.364  -2.482  1.00  0.00     0.023 C 
BRANCH   2   3
ATOM      3  C   UNL     1       4.478   1.015  -1.029  1.00  0.00     0.116 C 
BRANCH   3   4
ATOM      4  N   UNL     1       3.056   0.926  -0.741  1.00  0.00    -0.352 N 
ATOM      5  O   UNL     1       1.131  -0.045  -0.081  1.00  0.00    -0.269 OA
ATOM      6  C   UNL     1       2.357  -0.087  -0.124  1.00  0.00     0.251 C 
ATOM      7  H   UNL     1       2.517   1.698  -1.026  1.00  0.00     0.163 HD
BRANCH   6   8
ATOM      8  C   UNL     1       3.083  -1.240   0.457  1.00  0.00     0.039 A 
ATOM      9  C   UNL     1       4.230  -1.046   1.229  1.00  0.00     0.014 A 
ATOM     10  C   UNL     1       2.607  -2.535   0.225  1.00  0.00     0.014 A 
ATOM     11  C   UNL     1       4.979  -2.144   1.639  1.00  0.00     0.010 A 
ATOM     12  C   UNL     1       3.318  -3.638   0.710  1.00  0.00     0.010 A 
ATOM     13  C   UNL     1       4.528  -3.452   1.394  1.00  0.00    -0.014 A 
BRANCH  13  14
ATOM     14  C   UNL     1       5.317  -4.594   1.925  1.00  0.00     0.031 A 
ATOM     15  C   UNL     1       6.007  -5.567   1.008  1.00  0.00     0.074 A 
ATOM     16  C   UNL     1       5.455  -4.709   3.261  1.00  0.00     0.049 A 
ATOM     17  N   UNL     1       6.792  -6.569   1.318  1.00  0.00    -0.248 NA
ATOM     18  C   UNL     1       5.789  -5.404  -0.438  1.00  0.00     0.031 C 
ATOM     19  C   UNL     1       4.819  -3.836   4.252  1.00  0.00     0.029 A 
ATOM     20  N   UNL     1       6.197  -5.580   4.016  1.00  0.00    -0.354 N 
ATOM     21  C   UNL     1       7.152  -7.162   0.114  1.00  0.00     0.074 A 
ATOM     22  C   UNL     1       6.482  -6.422  -0.935  1.00  0.00     0.031 C 
ATOM     23  C   UNL     1       5.246  -4.175   5.477  1.00  0.00     0.029 A 
ATOM     24  C   UNL     1       6.140  -5.321   5.365  1.00  0.00     0.049 A 
ATOM     25  H   UNL     1       6.720  -6.319   3.630  1.00  0.00     0.167 HD
ATOM     26  C   UNL     1       7.970  -8.222  -0.098  1.00  0.00     0.031 A 
ATOM     27  C   UNL     1       6.736  -5.938   6.402  1.00  0.00     0.031 A 
ATOM     28  C   UNL     1       8.638  -8.955   0.947  1.00  0.00     0.049 A 
ATOM     29  C   UNL     1       7.638  -7.106   6.136  1.00  0.00     0.074 A 
ATOM     30  C   UNL     1       9.495 -10.036   0.828  1.00  0.00     0.029 A 
ATOM     31  N   UNL     1       8.530  -8.681   2.302  1.00  0.00    -0.354 N 
ATOM     32  N   UNL     1       7.974  -7.639   4.986  1.00  0.00    -0.248 NA
ATOM     33  C   UNL     1       8.239  -7.756   7.308  1.00  0.00     0.031 C 
ATOM     34  C   UNL     1       9.877 -10.438   2.113  1.00  0.00     0.029 A 
ATOM     35  C   UNL     1       9.292  -9.580   3.030  1.00  0.00     0.049 A 
ATOM     36  H   UNL     1       7.990  -7.954   2.689  1.00  0.00     0.167 HD
ATOM     37  C   UNL     1       8.826  -8.691   5.296  1.00  0.00     0.074 A 
ATOM     38  C   UNL     1       8.981  -8.695   6.737  1.00  0.00     0.031 C 
ATOM     39  C   UNL     1       9.419  -9.581   4.463  1.00  0.00     0.031 A 
BRANCH  26  40
ATOM     40  C   UNL     1       8.185  -8.669  -1.520  1.00  0.00    -0.014 A 
ATOM     41  C   UNL     1       9.024  -7.946  -2.386  1.00  0.00     0.010 A 
ATOM     42  C   UNL     1       7.604  -9.868  -1.972  1.00  0.00     0.010 A 
ATOM     43  C   UNL     1       9.260  -8.401  -3.687  1.00  0.00     0.020 A 
ATOM     44  C   UNL     1       7.852 -10.336  -3.266  1.00  0.00     0.020 A 
ATOM     45  C   UNL     1       8.671  -9.593  -4.120  1.00  0.00     0.054 A 
BRANCH  45  46
ATOM     46  S   UNL     1       9.027 -10.185  -5.798  1.00  0.00     0.124 S 
ATOM     47  O   UNL     1       8.211  -9.287  -6.612  1.00  0.00    -0.237 OA
ATOM     48  O   UNL     1      10.471  -9.993  -5.908  1.00  0.00    -0.237 OA
ATOM     49  O   UNL     1       8.587 -11.578  -5.776  1.00  0.00    -0.744 OA
ENDBRANCH  45  46
ENDBRANCH  26  40
BRANCH  27  50
ATOM     50  C   UNL     1       6.478  -5.467   7.788  1.00  0.00    -0.014 A 
ATOM     51  C   UNL     1       7.478  -4.807   8.521  1.00  0.00     0.010 A 
ATOM     52  C   UNL     1       5.214  -5.665   8.374  1.00  0.00     0.010 A 
ATOM     53  C   UNL     1       7.225  -4.369   9.824  1.00  0.00     0.020 A 
ATOM     54  C   UNL     1       4.949  -5.205   9.665  1.00  0.00     0.020 A 
ATOM     55  C   UNL     1       5.962  -4.572  10.388  1.00  0.00     0.054 A 
BRANCH  55  56
ATOM     56  S   UNL     1       5.630  -3.955  12.062  1.00  0.00     0.124 S 
ATOM     57  O   UNL     1       6.209  -5.007  12.891  1.00  0.00    -0.237 OA
ATOM     58  O   UNL     1       6.334  -2.675  12.078  1.00  0.00    -0.237 OA
ATOM     59  O   UNL     1       4.173  -3.854  12.101  1.00  0.00    -0.744 OA
ENDBRANCH  55  56
ENDBRANCH  27  50
BRANCH  39  60
ATOM     60  C   UNL     1      10.288 -10.627   5.102  1.00  0.00    -0.014 A 
ATOM     61  C   UNL     1       9.718 -11.706   5.802  1.00  0.00     0.010 A 
ATOM     62  C   UNL     1      11.687 -10.536   4.996  1.00  0.00     0.010 A 
ATOM     63  C   UNL     1      10.535 -12.652   6.425  1.00  0.00     0.020 A 
ATOM     64  C   UNL     1      12.507 -11.493   5.599  1.00  0.00     0.020 A 
ATOM     65  C   UNL     1      11.925 -12.534   6.327  1.00  0.00     0.054 A 
BRANCH  65  66
ATOM     66  S   UNL     1      12.970 -13.779   7.133  1.00  0.00     0.124 S 
ATOM     67  O   UNL     1      12.939 -13.342   8.526  1.00  0.00    -0.237 OA
ATOM     68  O   UNL     1      12.265 -15.027   6.850  1.00  0.00    -0.237 OA
ATOM     69  O   UNL     1      14.259 -13.633   6.461  1.00  0.00    -0.744 OA
ENDBRANCH  65  66
ENDBRANCH  39  60
ENDBRANCH  13  14
ENDBRANCH   6   8
ENDBRANCH   3   4
ENDBRANCH   2   3
ENDBRANCH   1   2
BRANCH   1  70
ATOM     70  C   UNL     1       4.630   3.912  -2.087  1.00  0.00     0.116 C 
BRANCH  70  71
ATOM     71  N   UNL     1       6.067   4.055  -1.919  1.00  0.00    -0.352 N 
ATOM     72  C   UNL     1       6.912   5.074  -2.274  1.00  0.00     0.252 C 
ATOM     73  H   UNL     1       6.506   3.293  -1.477  1.00  0.00     0.163 HD
ATOM     74  O   UNL     1       8.115   4.978  -2.058  1.00  0.00    -0.269 OA
BRANCH  72  75
ATOM     75  C   UNL     1       6.382   6.320  -2.864  1.00  0.00     0.059 A 
ATOM     76  C   UNL     1       5.380   7.017  -2.178  1.00  0.00     0.038 A 
ATOM     77  C   UNL     1       6.913   6.862  -4.036  1.00  0.00     0.055 A 
ATOM     78  C   UNL     1       4.873   8.229  -2.678  1.00  0.00     0.101 A 
ATOM     79  C   UNL     1       6.460   8.107  -4.490  1.00  0.00     0.043 A 
ATOM     80  Cl  UNL     1       8.090   6.045  -5.000  1.00  0.00    -0.083 Cl
ATOM     81  C   UNL     1       5.454   8.805  -3.805  1.00  0.00     0.062 A 
ATOM     82  Cl  UNL     1       5.048  10.367  -4.415  1.00  0.00    -0.083 Cl
BRANCH  78  83
ATOM     83  S   UNL     1       3.463   8.887  -1.832  1.00  0.00     0.242 S 
ATOM     84  O   UNL     1       2.758   7.754  -1.276  1.00  0.00    -0.207 OA
ATOM     85  O   UNL     1       3.946   9.961  -0.994  1.00  0.00    -0.207 OA
BRANCH  83  86
ATOM     86  N   UNL     1       2.457   9.580  -2.960  1.00  0.00    -0.207 NA
ATOM     87  H   UNL     1       2.963  10.387  -3.325  1.00  0.00     0.141 HD
BRANCH  86  88
ATOM     88  C   UNL     1       1.943   8.878  -4.123  1.00  0.00     0.134 C 
BRANCH  88  89
ATOM     89  C   UNL     1       0.813   7.928  -3.857  1.00  0.00    -0.030 A 
ATOM     90  C   UNL     1      -0.459   8.396  -3.516  1.00  0.00     0.025 A 
ATOM     91  C   UNL     1       1.004   6.547  -3.977  1.00  0.00     0.025 A 
ATOM     92  C   UNL     1      -1.479   7.474  -3.339  1.00  0.00     0.111 A 
ATOM     93  C   UNL     1      -0.079   5.706  -3.778  1.00  0.00     0.111 A 
ATOM     94  N   UNL     1      -1.320   6.141  -3.477  1.00  0.00    -0.265 NA
ENDBRANCH  88  89
ENDBRANCH  86  88
ENDBRANCH  83  86
ENDBRANCH  78  83
ENDBRANCH  72  75
ENDBRANCH  70  71
ENDBRANCH   1  70
TORSDOF 18
