REMARK SMILES C[C@@H](CC(=O)NCCCCNC(=O)c1ccc(-c2c3nc(c(-c4ccc(S(=O)(=O)[O-])cc4)c4ccc([nH]4)c(-c4ccc(S(=O)(=O)[O-])cc4)c4nc(c(-c5ccc(S(=O)(=O)[O-])cc5)c5ccc2[nH]5)C=C4)C=C3)cc1)CC(=O)N(C)C[C@H]1CCC[N@H+]1C
REMARK SMILES IDX 7 1 6 2 4 3 5 4 3 6 2 7 1 8 74 9 75 10 76 11 77 12 78 13
REMARK SMILES IDX 79 14 80 15 81 16 84 17 82 18 83 19 85 20 8 22 9 23 10 24
REMARK SMILES IDX 11 25 12 26 13 28 14 29 15 30 73 31 16 32 72 33 17 34 18 35
REMARK SMILES IDX 19 36 66 37 20 38 71 39 65 40 67 41 21 42 70 43 64 44 63 45
REMARK SMILES IDX 22 47 52 48 33 49 51 50 34 51 37 52 50 53 68 54 35 55 36 56
REMARK SMILES IDX 49 58 69 59 38 60 23 61 24 62 32 63 25 64 31 65 26 66 27 67
REMARK SMILES IDX 28 68 29 69 30 70 53 71 54 72 62 73 55 74 61 75 56 76 57 77
REMARK SMILES IDX 58 78 59 79 60 80 39 81 40 82 48 83 41 84 47 85 42 86 43 87
REMARK SMILES IDX 44 88 45 89 46 90
REMARK H PARENT 6 5 84 21 11 27 67 46 37 57
REMARK Flexibility Score: inf
ROOT
ATOM      1  C   UNL     1       2.038   2.264   0.126  1.00  0.00     0.116 C 
ENDROOT
BRANCH   1   2
ATOM      2  N   UNL     1       1.040   2.624   1.112  1.00  0.00    -0.356 N 
ATOM      3  C   UNL     1       0.503   1.885   2.119  1.00  0.00     0.220 C 
ATOM      4  O   UNL     1      -0.430   2.369   2.762  1.00  0.00    -0.275 OA
ATOM      5  H   UNL     1       0.699   3.545   1.042  1.00  0.00     0.163 HD
BRANCH   3   6
ATOM      6  C   UNL     1       1.038   0.502   2.450  1.00  0.00     0.103 C 
BRANCH   6   7
ATOM      7  C   UNL     1       0.435  -0.702   1.691  1.00  0.00     0.004 C 
ATOM      8  C   UNL     1       1.369  -1.204   0.586  1.00  0.00     0.009 C 
BRANCH   7   9
ATOM      9  C   UNL     1      -1.008  -0.462   1.202  1.00  0.00     0.104 C 
BRANCH   9  10
ATOM     10  C   UNL     1      -1.550  -1.633   0.392  1.00  0.00     0.222 C 
ATOM     11  O   UNL     1      -1.754  -2.712   0.958  1.00  0.00    -0.275 OA
BRANCH  10  12
ATOM     12  N   UNL     1      -1.726  -1.486  -0.982  1.00  0.00    -0.340 N 
ATOM     13  C   UNL     1      -1.764  -0.218  -1.698  1.00  0.00     0.147 C 
BRANCH  12  14
ATOM     14  C   UNL     1      -2.049  -2.689  -1.763  1.00  0.00     0.184 C 
BRANCH  14  15
ATOM     15  C   UNL     1      -0.919  -3.764  -1.828  1.00  0.00     0.203 C 
ATOM     16  C   UNL     1      -1.531  -5.157  -2.069  1.00  0.00     0.073 C 
ATOM     17  N   UNL     1       0.078  -3.680  -2.916  1.00  0.00    -0.333 N 
ATOM     18  C   UNL     1      -1.148  -5.556  -3.489  1.00  0.00     0.068 C 
ATOM     19  C   UNL     1      -0.513  -4.317  -4.087  1.00  0.00     0.262 C 
ATOM     20  C   UNL     1       0.617  -2.368  -3.208  1.00  0.00     0.333 C 
ATOM     21  H   UNL     1       0.915  -4.168  -2.599  1.00  0.00     0.348 HD
ENDBRANCH  14  15
ENDBRANCH  12  14
ENDBRANCH  10  12
ENDBRANCH   9  10
ENDBRANCH   7   9
ENDBRANCH   6   7
ENDBRANCH   3   6
ENDBRANCH   1   2
BRANCH   1  22
ATOM     22  C   UNL     1       1.377   1.875  -1.195  1.00  0.00     0.023 C 
BRANCH  22  23
ATOM     23  C   UNL     1       0.818   3.032  -2.018  1.00  0.00     0.023 C 
BRANCH  23  24
ATOM     24  C   UNL     1       1.863   3.983  -2.582  1.00  0.00     0.116 C 
BRANCH  24  25
ATOM     25  N   UNL     1       2.815   3.332  -3.471  1.00  0.00    -0.352 N 
ATOM     26  C   UNL     1       3.321   3.774  -4.674  1.00  0.00     0.251 C 
ATOM     27  H   UNL     1       3.143   2.454  -3.171  1.00  0.00     0.163 HD
ATOM     28  O   UNL     1       4.039   3.041  -5.342  1.00  0.00    -0.269 OA
BRANCH  26  29
ATOM     29  C   UNL     1       2.950   5.117  -5.171  1.00  0.00     0.039 A 
ATOM     30  C   UNL     1       2.530   5.254  -6.497  1.00  0.00     0.014 A 
ATOM     31  C   UNL     1       2.967   6.225  -4.320  1.00  0.00     0.014 A 
ATOM     32  C   UNL     1       2.036   6.483  -6.940  1.00  0.00     0.010 A 
ATOM     33  C   UNL     1       2.400   7.424  -4.739  1.00  0.00     0.010 A 
ATOM     34  C   UNL     1       1.918   7.562  -6.049  1.00  0.00    -0.014 A 
BRANCH  34  35
ATOM     35  C   UNL     1       1.266   8.834  -6.452  1.00  0.00     0.031 A 
ATOM     36  C   UNL     1       2.046  10.121  -6.443  1.00  0.00     0.074 A 
ATOM     37  C   UNL     1      -0.052   8.845  -6.737  1.00  0.00     0.049 A 
ATOM     38  N   UNL     1       1.627  11.339  -6.669  1.00  0.00    -0.248 NA
ATOM     39  C   UNL     1       3.475  10.030  -6.105  1.00  0.00     0.031 C 
ATOM     40  C   UNL     1      -0.933   7.673  -6.725  1.00  0.00     0.029 A 
ATOM     41  N   UNL     1      -0.885   9.880  -7.079  1.00  0.00    -0.354 N 
ATOM     42  C   UNL     1       2.731  12.160  -6.475  1.00  0.00     0.074 A 
ATOM     43  C   UNL     1       3.827  11.307  -6.071  1.00  0.00     0.031 C 
ATOM     44  C   UNL     1      -2.174   8.052  -7.071  1.00  0.00     0.029 A 
ATOM     45  C   UNL     1      -2.188   9.494  -7.290  1.00  0.00     0.049 A 
ATOM     46  H   UNL     1      -0.579  10.811  -7.166  1.00  0.00     0.167 HD
ATOM     47  C   UNL     1       2.830  13.501  -6.637  1.00  0.00     0.031 A 
ATOM     48  C   UNL     1      -3.276  10.219  -7.616  1.00  0.00     0.031 A 
ATOM     49  C   UNL     1       1.746  14.345  -7.064  1.00  0.00     0.049 A 
ATOM     50  C   UNL     1      -3.137  11.703  -7.808  1.00  0.00     0.074 A 
ATOM     51  C   UNL     1       1.765  15.704  -7.326  1.00  0.00     0.029 A 
ATOM     52  N   UNL     1       0.450  13.911  -7.293  1.00  0.00    -0.354 N 
ATOM     53  N   UNL     1      -2.067  12.451  -7.684  1.00  0.00    -0.248 NA
ATOM     54  C   UNL     1      -4.350  12.438  -8.192  1.00  0.00     0.031 C 
ATOM     55  C   UNL     1       0.469  16.098  -7.677  1.00  0.00     0.029 A 
ATOM     56  C   UNL     1      -0.346  14.977  -7.675  1.00  0.00     0.049 A 
ATOM     57  H   UNL     1       0.140  12.981  -7.198  1.00  0.00     0.167 HD
ATOM     58  C   UNL     1      -2.474  13.744  -7.990  1.00  0.00     0.074 A 
ATOM     59  C   UNL     1      -3.883  13.673  -8.322  1.00  0.00     0.031 C 
ATOM     60  C   UNL     1      -1.748  14.888  -7.994  1.00  0.00     0.031 A 
BRANCH  47  61
ATOM     61  C   UNL     1       4.164  14.135  -6.349  1.00  0.00    -0.014 A 
ATOM     62  C   UNL     1       5.260  13.936  -7.208  1.00  0.00     0.010 A 
ATOM     63  C   UNL     1       4.319  14.960  -5.221  1.00  0.00     0.010 A 
ATOM     64  C   UNL     1       6.500  14.510  -6.918  1.00  0.00     0.020 A 
ATOM     65  C   UNL     1       5.552  15.558  -4.941  1.00  0.00     0.020 A 
ATOM     66  C   UNL     1       6.640  15.312  -5.781  1.00  0.00     0.054 A 
BRANCH  66  67
ATOM     67  S   UNL     1       8.258  16.054  -5.432  1.00  0.00     0.124 S 
ATOM     68  O   UNL     1       9.006  14.910  -4.915  1.00  0.00    -0.237 OA
ATOM     69  O   UNL     1       8.680  16.538  -6.744  1.00  0.00    -0.237 OA
ATOM     70  O   UNL     1       7.957  17.096  -4.454  1.00  0.00    -0.744 OA
ENDBRANCH  66  67
ENDBRANCH  47  61
BRANCH  48  71
ATOM     71  C   UNL     1      -4.588   9.544  -7.799  1.00  0.00    -0.014 A 
ATOM     72  C   UNL     1      -5.122   9.368  -9.087  1.00  0.00     0.010 A 
ATOM     73  C   UNL     1      -5.300   9.053  -6.689  1.00  0.00     0.010 A 
ATOM     74  C   UNL     1      -6.349   8.723  -9.264  1.00  0.00     0.020 A 
ATOM     75  C   UNL     1      -6.517   8.387  -6.864  1.00  0.00     0.020 A 
ATOM     76  C   UNL     1      -7.038   8.235  -8.150  1.00  0.00     0.054 A 
BRANCH  76  77
ATOM     77  S   UNL     1      -8.597   7.341  -8.406  1.00  0.00     0.124 S 
ATOM     78  O   UNL     1      -9.532   8.431  -8.664  1.00  0.00    -0.237 OA
ATOM     79  O   UNL     1      -8.289   6.486  -9.549  1.00  0.00    -0.237 OA
ATOM     80  O   UNL     1      -8.792   6.631  -7.143  1.00  0.00    -0.744 OA
ENDBRANCH  76  77
ENDBRANCH  48  71
BRANCH  60  81
ATOM     81  C   UNL     1      -2.459  16.154  -8.384  1.00  0.00    -0.014 A 
ATOM     82  C   UNL     1      -3.351  16.784  -7.499  1.00  0.00     0.010 A 
ATOM     83  C   UNL     1      -2.192  16.747  -9.632  1.00  0.00     0.010 A 
ATOM     84  C   UNL     1      -3.986  17.973  -7.866  1.00  0.00     0.020 A 
ATOM     85  C   UNL     1      -2.808  17.948  -9.992  1.00  0.00     0.020 A 
ATOM     86  C   UNL     1      -3.711  18.547  -9.111  1.00  0.00     0.054 A 
BRANCH  86  87
ATOM     87  S   UNL     1      -4.512  20.115  -9.547  1.00  0.00     0.124 S 
ATOM     88  O   UNL     1      -5.863  19.680  -9.891  1.00  0.00    -0.237 OA
ATOM     89  O   UNL     1      -4.396  20.890  -8.315  1.00  0.00    -0.237 OA
ATOM     90  O   UNL     1      -3.712  20.611 -10.665  1.00  0.00    -0.744 OA
ENDBRANCH  86  87
ENDBRANCH  60  81
ENDBRANCH  34  35
ENDBRANCH  26  29
ENDBRANCH  24  25
ENDBRANCH  23  24
ENDBRANCH  22  23
ENDBRANCH   1  22
TORSDOF 20
