REMARK SMILES O=C(N/N=C/c1ccc(C(=O)NCCCCNC(=O)c2ccc(-c3c4nc(c(-c5ccc(S(=O)(=O)[O-])cc5)c5ccc([nH]5)c(-c5ccc(S(=O)(=O)[O-])cc5)c5nc(c(-c6ccc(S(=O)(=O)[O-])cc6)c6ccc3[nH]6)C=C5)C=C4)cc2)cc1)C(=O)Nc1cccc(Br)c1
REMARK SMILES IDX 14 1 13 2 12 3 10 4 11 5 9 7 6 8 7 9 81 10 8 11 80 12 5 13
REMARK SMILES IDX 4 14 3 15 1 16 2 17 82 19 83 20 84 21 85 23 86 24 91 25
REMARK SMILES IDX 87 26 89 27 88 28 90 29 15 30 16 31 17 32 18 33 19 35 20 36
REMARK SMILES IDX 21 37 79 38 22 39 78 40 23 41 24 42 25 43 72 44 26 45 77 46
REMARK SMILES IDX 71 47 73 48 27 49 76 50 70 51 69 52 28 54 58 55 39 56 57 57
REMARK SMILES IDX 40 58 43 59 56 60 74 61 41 62 42 63 55 65 75 66 44 67 29 68
REMARK SMILES IDX 30 69 38 70 31 71 37 72 32 73 33 74 34 75 35 76 36 77 59 78
REMARK SMILES IDX 60 79 68 80 61 81 67 82 62 83 63 84 64 85 65 86 66 87 45 88
REMARK SMILES IDX 46 89 54 90 47 91 53 92 48 93 49 94 50 95 51 96 52 97
REMARK H PARENT 12 6 3 18 84 22 17 34 73 53 43 64
REMARK Flexibility Score: inf
ROOT
ATOM      1  C   UNL     1      11.690  -3.472  -0.004  1.00  0.00     0.023 C 
ENDROOT
BRANCH   1   2
ATOM      2  C   UNL     1      11.466  -2.332   0.988  1.00  0.00     0.116 C 
BRANCH   2   3
ATOM      3  N   UNL     1      11.926  -1.082   0.413  1.00  0.00    -0.352 N 
ATOM      4  C   UNL     1      11.245  -0.144  -0.322  1.00  0.00     0.251 C 
ATOM      5  O   UNL     1      11.845   0.837  -0.753  1.00  0.00    -0.269 OA
ATOM      6  H   UNL     1      12.874  -0.874   0.575  1.00  0.00     0.163 HD
BRANCH   4   7
ATOM      7  C   UNL     1       9.773  -0.220  -0.466  1.00  0.00     0.039 A 
ATOM      8  C   UNL     1       6.760  -0.272   0.128  1.00  0.00    -0.005 A 
ATOM      9  C   UNL     1       7.666   0.913  -0.128  1.00  0.00     0.010 A 
ATOM     10  C   UNL     1       7.627  -1.359  -0.454  1.00  0.00     0.010 A 
ATOM     11  C   UNL     1       9.062   0.946  -0.369  1.00  0.00     0.014 A 
ATOM     12  C   UNL     1       9.031  -1.354  -0.681  1.00  0.00     0.014 A 
BRANCH   8  13
ATOM     13  C   UNL     1       4.853  -0.349   1.075  1.00  0.00     0.141 C 
ATOM     14  N   UNL     1       3.709  -1.109   0.955  1.00  0.00    -0.180 NA
BRANCH  14  15
ATOM     15  N   UNL     1       2.562  -0.441   1.200  1.00  0.00    -0.239 N 
ATOM     16  O   UNL     1       0.634   0.355   0.382  1.00  0.00    -0.262 OA
ATOM     17  C   UNL     1       1.846   0.206   0.195  1.00  0.00     0.329 C 
ATOM     18  H   UNL     1       2.220  -0.410   2.122  1.00  0.00     0.194 HD
BRANCH  17  19
ATOM     19  C   UNL     1       2.444   0.793  -1.123  1.00  0.00     0.315 C 
ATOM     20  O   UNL     1       1.643   1.278  -1.931  1.00  0.00    -0.263 OA
ATOM     21  N   UNL     1       3.785   0.953  -1.441  1.00  0.00    -0.318 N 
ATOM     22  H   UNL     1       3.977   1.488  -2.244  1.00  0.00     0.170 HD
BRANCH  21  23
ATOM     23  C   UNL     1       4.890   0.452  -0.766  1.00  0.00     0.042 A 
ATOM     24  C   UNL     1       5.479   1.498   0.605  1.00  0.00     0.026 A 
ATOM     25  C   UNL     1       5.082  -1.361  -0.709  1.00  0.00     0.041 A 
ATOM     26  C   UNL     1       6.333   0.715   2.034  1.00  0.00     0.003 A 
ATOM     27  C   UNL     1       5.783  -2.135   0.809  1.00  0.00     0.020 A 
ATOM     28  C   UNL     1       6.444  -1.093   2.137  1.00  0.00     0.016 A 
ATOM     29  Br  UNL     1       5.675  -4.013   1.060  1.00  0.00    -0.051 Br
ENDBRANCH  21  23
ENDBRANCH  17  19
ENDBRANCH  14  15
ENDBRANCH   8  13
ENDBRANCH   4   7
ENDBRANCH   2   3
ENDBRANCH   1   2
BRANCH   1  30
ATOM     30  C   UNL     1      13.152  -3.886  -0.143  1.00  0.00     0.023 C 
BRANCH  30  31
ATOM     31  C   UNL     1      13.769  -4.436   1.132  1.00  0.00     0.116 C 
BRANCH  31  32
ATOM     32  N   UNL     1      13.047  -5.585   1.664  1.00  0.00    -0.352 N 
ATOM     33  C   UNL     1      13.577  -6.711   2.246  1.00  0.00     0.251 C 
ATOM     34  H   UNL     1      12.065  -5.550   1.598  1.00  0.00     0.163 HD
ATOM     35  O   UNL     1      12.866  -7.662   2.547  1.00  0.00    -0.269 OA
BRANCH  33  36
ATOM     36  C   UNL     1      15.035  -6.753   2.456  1.00  0.00     0.039 A 
ATOM     37  C   UNL     1      15.774  -7.777   1.864  1.00  0.00     0.014 A 
ATOM     38  C   UNL     1      15.665  -5.697   3.119  1.00  0.00     0.014 A 
ATOM     39  C   UNL     1      17.166  -7.697   1.868  1.00  0.00     0.010 A 
ATOM     40  C   UNL     1      17.047  -5.581   3.051  1.00  0.00     0.010 A 
ATOM     41  C   UNL     1      17.809  -6.575   2.417  1.00  0.00    -0.014 A 
BRANCH  41  42
ATOM     42  C   UNL     1      19.278  -6.401   2.323  1.00  0.00     0.031 A 
ATOM     43  C   UNL     1      20.105  -6.352   3.577  1.00  0.00     0.074 A 
ATOM     44  C   UNL     1      19.851  -6.203   1.119  1.00  0.00     0.049 A 
ATOM     45  N   UNL     1      21.384  -6.118   3.710  1.00  0.00    -0.248 NA
ATOM     46  C   UNL     1      19.395  -6.566   4.850  1.00  0.00     0.031 C 
ATOM     47  C   UNL     1      19.145  -6.186  -0.166  1.00  0.00     0.029 A 
ATOM     48  N   UNL     1      21.159  -5.964   0.779  1.00  0.00    -0.354 N 
ATOM     49  C   UNL     1      21.629  -6.140   5.077  1.00  0.00     0.074 A 
ATOM     50  C   UNL     1      20.359  -6.357   5.734  1.00  0.00     0.031 C 
ATOM     51  C   UNL     1      20.031  -5.975  -1.152  1.00  0.00     0.029 A 
ATOM     52  C   UNL     1      21.357  -5.794  -0.572  1.00  0.00     0.049 A 
ATOM     53  H   UNL     1      21.887  -5.919   1.440  1.00  0.00     0.167 HD
ATOM     54  C   UNL     1      22.809  -6.011   5.727  1.00  0.00     0.031 A 
ATOM     55  C   UNL     1      22.478  -5.510  -1.263  1.00  0.00     0.031 A 
ATOM     56  C   UNL     1      24.069  -5.804   5.066  1.00  0.00     0.049 A 
ATOM     57  C   UNL     1      23.773  -5.343  -0.517  1.00  0.00     0.074 A 
ATOM     58  C   UNL     1      25.330  -5.722   5.629  1.00  0.00     0.029 A 
ATOM     59  N   UNL     1      24.228  -5.640   3.698  1.00  0.00    -0.354 N 
ATOM     60  N   UNL     1      23.998  -5.443   0.772  1.00  0.00    -0.248 NA
ATOM     61  C   UNL     1      24.966  -5.029  -1.316  1.00  0.00     0.031 C 
ATOM     62  C   UNL     1      26.245  -5.451   4.607  1.00  0.00     0.029 A 
ATOM     63  C   UNL     1      25.562  -5.424   3.401  1.00  0.00     0.049 A 
ATOM     64  H   UNL     1      23.500  -5.673   3.037  1.00  0.00     0.167 HD
ATOM     65  C   UNL     1      25.361  -5.223   0.936  1.00  0.00     0.074 A 
ATOM     66  C   UNL     1      25.912  -5.003  -0.386  1.00  0.00     0.031 C 
ATOM     67  C   UNL     1      26.091  -5.204   2.078  1.00  0.00     0.031 A 
BRANCH  54  68
ATOM     68  C   UNL     1      22.788  -6.084   7.230  1.00  0.00    -0.014 A 
ATOM     69  C   UNL     1      22.512  -7.293   7.894  1.00  0.00     0.010 A 
ATOM     70  C   UNL     1      23.084  -4.937   7.990  1.00  0.00     0.010 A 
ATOM     71  C   UNL     1      22.491  -7.344   9.290  1.00  0.00     0.020 A 
ATOM     72  C   UNL     1      23.093  -4.992   9.386  1.00  0.00     0.020 A 
ATOM     73  C   UNL     1      22.780  -6.192  10.027  1.00  0.00     0.054 A 
BRANCH  73  74
ATOM     74  S   UNL     1      22.767  -6.295  11.838  1.00  0.00     0.124 S 
ATOM     75  O   UNL     1      21.339  -6.406  12.122  1.00  0.00    -0.237 OA
ATOM     76  O   UNL     1      23.553  -7.499  12.095  1.00  0.00    -0.237 OA
ATOM     77  O   UNL     1      23.391  -5.045  12.262  1.00  0.00    -0.744 OA
ENDBRANCH  73  74
ENDBRANCH  54  68
BRANCH  55  78
ATOM     78  C   UNL     1      22.424  -5.367  -2.744  1.00  0.00    -0.014 A 
ATOM     79  C   UNL     1      23.014  -6.335  -3.576  1.00  0.00     0.010 A 
ATOM     80  C   UNL     1      21.767  -4.270  -3.332  1.00  0.00     0.010 A 
ATOM     81  C   UNL     1      22.963  -6.200  -4.967  1.00  0.00     0.020 A 
ATOM     82  C   UNL     1      21.690  -4.147  -4.723  1.00  0.00     0.020 A 
ATOM     83  C   UNL     1      22.299  -5.108  -5.532  1.00  0.00     0.054 A 
BRANCH  83  84
ATOM     84  S   UNL     1      22.199  -4.983  -7.339  1.00  0.00     0.124 S 
ATOM     85  O   UNL     1      23.564  -4.606  -7.693  1.00  0.00    -0.237 OA
ATOM     86  O   UNL     1      21.794  -6.332  -7.726  1.00  0.00    -0.237 OA
ATOM     87  O   UNL     1      21.187  -3.951  -7.555  1.00  0.00    -0.744 OA
ENDBRANCH  83  84
ENDBRANCH  55  78
BRANCH  67  88
ATOM     88  C   UNL     1      27.570  -4.953   1.956  1.00  0.00    -0.014 A 
ATOM     89  C   UNL     1      28.065  -3.671   1.660  1.00  0.00     0.010 A 
ATOM     90  C   UNL     1      28.476  -5.996   2.223  1.00  0.00     0.010 A 
ATOM     91  C   UNL     1      29.442  -3.440   1.620  1.00  0.00     0.020 A 
ATOM     92  C   UNL     1      29.853  -5.762   2.211  1.00  0.00     0.020 A 
ATOM     93  C   UNL     1      30.328  -4.486   1.902  1.00  0.00     0.054 A 
BRANCH  93  94
ATOM     94  S   UNL     1      32.108  -4.139   1.915  1.00  0.00     0.124 S 
ATOM     95  O   UNL     1      32.397  -3.979   0.493  1.00  0.00    -0.237 OA
ATOM     96  O   UNL     1      32.190  -2.920   2.715  1.00  0.00    -0.237 OA
ATOM     97  O   UNL     1      32.688  -5.327   2.538  1.00  0.00    -0.744 OA
ENDBRANCH  93  94
ENDBRANCH  67  88
ENDBRANCH  41  42
ENDBRANCH  33  36
ENDBRANCH  31  32
ENDBRANCH  30  31
ENDBRANCH   1  30
TORSDOF 18
