REMARK SMILES O=C(CCS(=O)(=O)N1CCN(C(=O)[C@@H]2CCCO2)CC1)NCCCCNC(=O)c1ccc(-c2c3nc(c(-c4ccc(S(=O)(=O)[O-])cc4)c4ccc([nH]4)c(-c4ccc(S(=O)(=O)[O-])cc4)c4nc(c(-c5ccc(S(=O)(=O)[O-])cc5)c5ccc2[nH]5)C=C4)C=C3)cc1
REMARK SMILES IDX 23 1 22 2 21 3 1 4 2 5 3 7 4 8 5 9 6 10 7 11 8 12 9 13 20 14
REMARK SMILES IDX 10 15 19 16 11 17 12 18 13 19 14 20 15 21 18 22 16 23 17 24
REMARK SMILES IDX 24 25 25 26 26 27 27 28 28 30 29 31 30 32 88 33 31 34 87 35
REMARK SMILES IDX 32 36 33 37 34 38 81 39 35 40 86 41 80 42 82 43 36 44 85 45
REMARK SMILES IDX 79 46 78 47 37 49 67 50 48 51 66 52 49 53 52 54 65 55 83 56
REMARK SMILES IDX 50 57 51 58 64 60 84 61 53 62 38 63 39 64 47 65 40 66 46 67
REMARK SMILES IDX 41 68 42 69 43 70 44 71 45 72 68 73 69 74 77 75 70 76 76 77
REMARK SMILES IDX 71 78 72 79 73 80 74 81 75 82 54 83 55 84 63 85 56 86 62 87
REMARK SMILES IDX 57 88 58 89 59 90 60 91 61 92
REMARK H PARENT 21 6 26 29 82 48 52 59
REMARK Flexibility Score: inf
ROOT
ATOM      1  C   UNL     1       2.784   0.619  -4.160  1.00  0.00     0.023 C 
ENDROOT
BRANCH   1   2
ATOM      2  C   UNL     1       2.204   0.510  -2.750  1.00  0.00     0.116 C 
BRANCH   2   3
ATOM      3  N   UNL     1       3.067   1.027  -1.692  1.00  0.00    -0.356 N 
ATOM      4  O   UNL     1       1.468   1.019  -0.040  1.00  0.00    -0.275 OA
ATOM      5  C   UNL     1       2.636   1.181  -0.389  1.00  0.00     0.221 C 
ATOM      6  H   UNL     1       3.992   1.276  -1.917  1.00  0.00     0.163 HD
BRANCH   5   7
ATOM      7  C   UNL     1       3.744   1.410   0.625  1.00  0.00     0.117 C 
BRANCH   7   8
ATOM      8  C   UNL     1       4.278   0.161   1.339  1.00  0.00     0.164 C 
BRANCH   8   9
ATOM      9  S   UNL     1       5.163  -1.051   0.319  1.00  0.00     0.214 S 
ATOM     10  O   UNL     1       5.436  -0.411  -0.955  1.00  0.00    -0.212 OA
ATOM     11  O   UNL     1       6.229  -1.600   1.122  1.00  0.00    -0.212 OA
BRANCH   9  12
ATOM     12  N   UNL     1       4.087  -2.284   0.024  1.00  0.00    -0.198 NA
ATOM     13  C   UNL     1       4.293  -3.741   0.261  1.00  0.00     0.123 C 
ATOM     14  C   UNL     1       2.721  -2.002  -0.336  1.00  0.00     0.123 C 
ATOM     15  C   UNL     1       3.116  -4.388   1.099  1.00  0.00     0.136 C 
ATOM     16  C   UNL     1       1.903  -2.281   0.900  1.00  0.00     0.136 C 
ATOM     17  N   UNL     1       1.794  -3.711   0.967  1.00  0.00    -0.338 N 
ATOM     18  C   UNL     1       0.587  -4.365   0.784  1.00  0.00     0.251 C 
ATOM     19  O   UNL     1       0.540  -5.591   0.659  1.00  0.00    -0.272 OA
BRANCH  18  20
ATOM     20  C   UNL     1      -0.736  -3.514   0.689  1.00  0.00     0.207 C 
ATOM     21  C   UNL     1      -0.903  -2.751  -0.623  1.00  0.00     0.044 C 
ATOM     22  O   UNL     1      -0.935  -2.563   1.751  1.00  0.00    -0.368 OA
ATOM     23  C   UNL     1      -1.762  -1.566  -0.244  1.00  0.00     0.032 C 
ATOM     24  C   UNL     1      -1.442  -1.330   1.215  1.00  0.00     0.161 C 
ENDBRANCH  18  20
ENDBRANCH   9  12
ENDBRANCH   8   9
ENDBRANCH   7   8
ENDBRANCH   5   7
ENDBRANCH   2   3
ENDBRANCH   1   2
BRANCH   1  25
ATOM     25  C   UNL     1       4.205   0.074  -4.357  1.00  0.00     0.023 C 
BRANCH  25  26
ATOM     26  C   UNL     1       4.391  -1.424  -4.116  1.00  0.00     0.116 C 
BRANCH  26  27
ATOM     27  N   UNL     1       3.860  -2.232  -5.206  1.00  0.00    -0.352 N 
ATOM     28  C   UNL     1       4.501  -2.864  -6.248  1.00  0.00     0.251 C 
ATOM     29  H   UNL     1       2.882  -2.346  -5.196  1.00  0.00     0.163 HD
ATOM     30  O   UNL     1       3.829  -3.323  -7.170  1.00  0.00    -0.269 OA
BRANCH  28  31
ATOM     31  C   UNL     1       5.980  -2.980  -6.296  1.00  0.00     0.039 A 
ATOM     32  C   UNL     1       6.635  -2.756  -7.512  1.00  0.00     0.014 A 
ATOM     33  C   UNL     1       6.724  -3.361  -5.178  1.00  0.00     0.014 A 
ATOM     34  C   UNL     1       8.031  -2.836  -7.585  1.00  0.00     0.010 A 
ATOM     35  C   UNL     1       8.121  -3.374  -5.234  1.00  0.00     0.010 A 
ATOM     36  C   UNL     1       8.793  -3.105  -6.437  1.00  0.00    -0.014 A 
BRANCH  36  37
ATOM     37  C   UNL     1      10.283  -3.079  -6.472  1.00  0.00     0.031 A 
ATOM     38  C   UNL     1      11.085  -4.321  -6.178  1.00  0.00     0.074 A 
ATOM     39  C   UNL     1      10.924  -1.916  -6.711  1.00  0.00     0.049 A 
ATOM     40  N   UNL     1      12.386  -4.468  -6.116  1.00  0.00    -0.248 NA
ATOM     41  C   UNL     1      10.330  -5.552  -5.900  1.00  0.00     0.031 C 
ATOM     42  C   UNL     1      10.273  -0.631  -6.981  1.00  0.00     0.029 A 
ATOM     43  N   UNL     1      12.265  -1.621  -6.761  1.00  0.00    -0.354 N 
ATOM     44  C   UNL     1      12.604  -5.800  -5.777  1.00  0.00     0.074 A 
ATOM     45  C   UNL     1      11.301  -6.406  -5.605  1.00  0.00     0.031 C 
ATOM     46  C   UNL     1      11.212   0.304  -7.193  1.00  0.00     0.029 A 
ATOM     47  C   UNL     1      12.532  -0.297  -7.027  1.00  0.00     0.049 A 
ATOM     48  H   UNL     1      12.970  -2.293  -6.618  1.00  0.00     0.167 HD
ATOM     49  C   UNL     1      13.779  -6.462  -5.636  1.00  0.00     0.031 A 
ATOM     50  C   UNL     1      13.702   0.366  -7.118  1.00  0.00     0.031 A 
ATOM     51  C   UNL     1      15.076  -5.858  -5.806  1.00  0.00     0.049 A 
ATOM     52  C   UNL     1      14.992  -0.384  -6.925  1.00  0.00     0.074 A 
ATOM     53  C   UNL     1      16.320  -6.461  -5.737  1.00  0.00     0.029 A 
ATOM     54  N   UNL     1      15.300  -4.515  -6.069  1.00  0.00    -0.354 N 
ATOM     55  N   UNL     1      15.176  -1.658  -6.674  1.00  0.00    -0.248 NA
ATOM     56  C   UNL     1      16.235   0.393  -7.038  1.00  0.00     0.031 C 
ATOM     57  C   UNL     1      17.297  -5.473  -5.893  1.00  0.00     0.029 A 
ATOM     58  C   UNL     1      16.662  -4.265  -6.133  1.00  0.00     0.049 A 
ATOM     59  H   UNL     1      14.595  -3.838  -6.193  1.00  0.00     0.167 HD
ATOM     60  C   UNL     1      16.554  -1.841  -6.631  1.00  0.00     0.074 A 
ATOM     61  C   UNL     1      17.156  -0.551  -6.897  1.00  0.00     0.031 C 
ATOM     62  C   UNL     1      17.256  -2.978  -6.397  1.00  0.00     0.031 A 
BRANCH  49  63
ATOM     63  C   UNL     1      13.720  -7.922  -5.261  1.00  0.00    -0.014 A 
ATOM     64  C   UNL     1      13.238  -8.889  -6.162  1.00  0.00     0.010 A 
ATOM     65  C   UNL     1      14.205  -8.342  -4.008  1.00  0.00     0.010 A 
ATOM     66  C   UNL     1      13.200 -10.239  -5.802  1.00  0.00     0.020 A 
ATOM     67  C   UNL     1      14.199  -9.695  -3.655  1.00  0.00     0.020 A 
ATOM     68  C   UNL     1      13.680 -10.633  -4.549  1.00  0.00     0.054 A 
BRANCH  68  69
ATOM     69  S   UNL     1      13.638 -12.395  -4.118  1.00  0.00     0.124 S 
ATOM     70  O   UNL     1      12.207 -12.626  -3.936  1.00  0.00    -0.237 OA
ATOM     71  O   UNL     1      14.230 -13.026  -5.294  1.00  0.00    -0.237 OA
ATOM     72  O   UNL     1      14.440 -12.475  -2.900  1.00  0.00    -0.744 OA
ENDBRANCH  68  69
ENDBRANCH  49  63
BRANCH  50  73
ATOM     73  C   UNL     1      13.709   1.827  -7.414  1.00  0.00    -0.014 A 
ATOM     74  C   UNL     1      14.194   2.305  -8.644  1.00  0.00     0.010 A 
ATOM     75  C   UNL     1      13.227   2.749  -6.467  1.00  0.00     0.010 A 
ATOM     76  C   UNL     1      14.213   3.677  -8.915  1.00  0.00     0.020 A 
ATOM     77  C   UNL     1      13.215   4.119  -6.746  1.00  0.00     0.020 A 
ATOM     78  C   UNL     1      13.720   4.575  -7.965  1.00  0.00     0.054 A 
BRANCH  78  79
ATOM     79  S   UNL     1      13.709   6.346  -8.359  1.00  0.00     0.124 S 
ATOM     80  O   UNL     1      15.127   6.682  -8.293  1.00  0.00    -0.237 OA
ATOM     81  O   UNL     1      13.113   6.368  -9.693  1.00  0.00    -0.237 OA
ATOM     82  O   UNL     1      12.878   6.926  -7.305  1.00  0.00    -0.744 OA
ENDBRANCH  78  79
ENDBRANCH  50  73
BRANCH  62  83
ATOM     83  C   UNL     1      18.760  -2.894  -6.455  1.00  0.00    -0.014 A 
ATOM     84  C   UNL     1      19.498  -2.223  -5.464  1.00  0.00     0.010 A 
ATOM     85  C   UNL     1      19.449  -3.546  -7.495  1.00  0.00     0.010 A 
ATOM     86  C   UNL     1      20.894  -2.178  -5.530  1.00  0.00     0.020 A 
ATOM     87  C   UNL     1      20.845  -3.531  -7.547  1.00  0.00     0.020 A 
ATOM     88  C   UNL     1      21.559  -2.834  -6.571  1.00  0.00     0.054 A 
BRANCH  88  89
ATOM     89  S   UNL     1      23.372  -2.798  -6.608  1.00  0.00     0.124 S 
ATOM     90  O   UNL     1      23.641  -1.414  -6.988  1.00  0.00    -0.237 OA
ATOM     91  O   UNL     1      23.727  -3.155  -5.237  1.00  0.00    -0.237 OA
ATOM     92  O   UNL     1      23.719  -3.799  -7.616  1.00  0.00    -0.744 OA
ENDBRANCH  88  89
ENDBRANCH  62  83
ENDBRANCH  36  37
ENDBRANCH  28  31
ENDBRANCH  26  27
ENDBRANCH  25  26
ENDBRANCH   1  25
TORSDOF 18
