REMARK SMILES CC1(C)S[C@H](c2ccc(-c3ccccc3)o2)[NH2+][C@H]1C(=O)NCCCCNC(=O)c1ccc(-c2c3nc(c(-c4ccc(S(=O)(=O)[O-])cc4)c4ccc([nH]4)c(-c4ccc(S(=O)(=O)[O-])cc4)c4nc(c(-c5ccc(S(=O)(=O)[O-])cc5)c5ccc2[nH]5)C=C4)C=C3)cc1
REMARK SMILES IDX 24 1 23 2 22 3 21 4 19 5 20 6 18 8 1 9 2 10 3 11 4 12 5 13
REMARK SMILES IDX 17 14 6 17 7 18 16 19 8 20 9 21 10 22 11 23 15 24 12 25
REMARK SMILES IDX 14 26 13 27 25 28 26 29 27 30 28 32 29 33 30 34 88 35 31 36
REMARK SMILES IDX 87 37 32 38 33 39 34 40 81 41 35 42 86 43 80 44 82 45 36 46
REMARK SMILES IDX 85 47 79 48 78 49 37 51 67 52 48 53 66 54 49 55 52 56 65 57
REMARK SMILES IDX 83 58 50 59 51 60 64 62 84 63 53 64 38 65 39 66 47 67 40 68
REMARK SMILES IDX 46 69 41 70 42 71 43 72 44 73 45 74 68 75 69 76 77 77 70 78
REMARK SMILES IDX 76 79 71 80 72 81 73 82 74 83 75 84 54 85 55 86 63 87 56 88
REMARK SMILES IDX 62 89 57 90 58 91 59 92 60 93 61 94
REMARK H PARENT 21 7 17 15 17 16 26 31 82 50 52 61
REMARK Flexibility Score: inf
ROOT
ATOM      1  C   UNL     1       2.133   3.192   3.868  1.00  0.00     0.023 C 
ENDROOT
BRANCH   1   2
ATOM      2  C   UNL     1       1.524   1.955   3.225  1.00  0.00     0.023 C 
BRANCH   2   3
ATOM      3  C   UNL     1       0.305   2.210   2.337  1.00  0.00     0.116 C 
BRANCH   3   4
ATOM      4  N   UNL     1       0.666   2.828   1.073  1.00  0.00    -0.351 N 
ATOM      5  C   UNL     1       0.610   2.419  -0.226  1.00  0.00     0.279 C 
ATOM      6  O   UNL     1       1.121   3.183  -1.055  1.00  0.00    -0.268 OA
ATOM      7  H   UNL     1       1.030   3.736   1.177  1.00  0.00     0.163 HD
BRANCH   5   8
ATOM      8  C   UNL     1       0.011   1.074  -0.698  1.00  0.00     0.289 C 
ATOM      9  C   UNL     1       1.769  -0.271   0.733  1.00  0.00     0.030 C 
ATOM     10  C   UNL     1       0.948  -0.144  -0.545  1.00  0.00     0.078 C 
ATOM     11  C   UNL     1       1.897  -0.257  -1.744  1.00  0.00     0.030 C 
ATOM     12  S   UNL     1      -0.190  -1.564  -0.544  1.00  0.00    -0.078 SA
ATOM     13  C   UNL     1      -1.690  -0.567  -0.335  1.00  0.00     0.311 C 
ATOM     14  N   UNL     1      -1.350   0.842  -0.168  1.00  0.00    -0.317 N 
ATOM     15  H   UNL     1      -1.377   1.085   0.823  1.00  0.00     0.348 HD
ATOM     16  H   UNL     1      -2.020   1.421  -0.673  1.00  0.00     0.348 HD
BRANCH  13  17
ATOM     17  C   UNL     1      -2.635  -0.874  -1.452  1.00  0.00     0.172 A 
ATOM     18  C   UNL     1      -3.420  -1.990  -1.679  1.00  0.00     0.054 A 
ATOM     19  O   UNL     1      -2.782   0.011  -2.487  1.00  0.00    -0.454 OA
ATOM     20  C   UNL     1      -4.090  -1.773  -2.900  1.00  0.00     0.051 A 
ATOM     21  C   UNL     1      -3.685  -0.535  -3.355  1.00  0.00     0.134 A 
BRANCH  21  22
ATOM     22  C   UNL     1      -4.042   0.244  -4.529  1.00  0.00     0.017 A 
ATOM     23  C   UNL     1      -3.074   0.926  -5.275  1.00  0.00     0.012 A 
ATOM     24  C   UNL     1      -5.376   0.276  -4.963  1.00  0.00     0.012 A 
ATOM     25  C   UNL     1      -3.431   1.606  -6.444  1.00  0.00     0.001 A 
ATOM     26  C   UNL     1      -5.735   0.966  -6.122  1.00  0.00     0.001 A 
ATOM     27  C   UNL     1      -4.760   1.624  -6.867  1.00  0.00     0.000 A 
ENDBRANCH  21  22
ENDBRANCH  13  17
ENDBRANCH   5   8
ENDBRANCH   3   4
ENDBRANCH   2   3
ENDBRANCH   1   2
BRANCH   1  28
ATOM     28  C   UNL     1       1.206   3.928   4.821  1.00  0.00     0.116 C 
BRANCH  28  29
ATOM     29  N   UNL     1       0.701   3.079   5.892  1.00  0.00    -0.352 N 
ATOM     30  C   UNL     1       0.684   3.319   7.247  1.00  0.00     0.251 C 
ATOM     31  H   UNL     1       0.319   2.217   5.608  1.00  0.00     0.163 HD
ATOM     32  O   UNL     1       0.351   2.438   8.027  1.00  0.00    -0.269 OA
BRANCH  30  33
ATOM     33  C   UNL     1       1.102   4.647   7.738  1.00  0.00     0.039 A 
ATOM     34  C   UNL     1       2.012   4.730   8.793  1.00  0.00     0.014 A 
ATOM     35  C   UNL     1       0.634   5.803   7.109  1.00  0.00     0.014 A 
ATOM     36  C   UNL     1       2.502   5.980   9.176  1.00  0.00     0.010 A 
ATOM     37  C   UNL     1       1.200   7.030   7.421  1.00  0.00     0.010 A 
ATOM     38  C   UNL     1       2.124   7.134   8.471  1.00  0.00    -0.014 A 
BRANCH  38  39
ATOM     39  C   UNL     1       2.637   8.476   8.838  1.00  0.00     0.031 A 
ATOM     40  C   UNL     1       1.667   9.537   9.287  1.00  0.00     0.074 A 
ATOM     41  C   UNL     1       3.946   8.762   8.696  1.00  0.00     0.049 A 
ATOM     42  N   UNL     1       1.888  10.797   9.556  1.00  0.00    -0.248 NA
ATOM     43  C   UNL     1       0.254   9.137   9.407  1.00  0.00     0.031 C 
ATOM     44  C   UNL     1       4.975   7.833   8.220  1.00  0.00     0.029 A 
ATOM     45  N   UNL     1       4.635   9.924   8.934  1.00  0.00    -0.354 N 
ATOM     46  C   UNL     1       0.642  11.344   9.842  1.00  0.00     0.074 A 
ATOM     47  C   UNL     1      -0.336  10.296   9.656  1.00  0.00     0.031 C 
ATOM     48  C   UNL     1       6.167   8.453   8.232  1.00  0.00     0.029 A 
ATOM     49  C   UNL     1       5.983   9.829   8.681  1.00  0.00     0.049 A 
ATOM     50  H   UNL     1       4.204  10.749   9.256  1.00  0.00     0.167 HD
ATOM     51  C   UNL     1       0.339  12.598  10.250  1.00  0.00     0.031 A 
ATOM     52  C   UNL     1       6.959  10.749   8.801  1.00  0.00     0.031 A 
ATOM     53  C   UNL     1       1.321  13.624  10.473  1.00  0.00     0.049 A 
ATOM     54  C   UNL     1       6.606  12.124   9.299  1.00  0.00     0.074 A 
ATOM     55  C   UNL     1       1.131  14.910  10.945  1.00  0.00     0.029 A 
ATOM     56  N   UNL     1       2.681  13.472  10.252  1.00  0.00    -0.354 N 
ATOM     57  N   UNL     1       5.428  12.608   9.616  1.00  0.00    -0.248 NA
ATOM     58  C   UNL     1       7.716  13.070   9.476  1.00  0.00     0.031 C 
ATOM     59  C   UNL     1       2.377  15.547  10.980  1.00  0.00     0.029 A 
ATOM     60  C   UNL     1       3.345  14.641  10.575  1.00  0.00     0.049 A 
ATOM     61  H   UNL     1       3.111  12.652   9.915  1.00  0.00     0.167 HD
ATOM     62  C   UNL     1       5.660  13.905  10.059  1.00  0.00     0.074 A 
ATOM     63  C   UNL     1       7.090  14.124   9.980  1.00  0.00     0.031 C 
ATOM     64  C   UNL     1       4.771  14.832  10.496  1.00  0.00     0.031 A 
BRANCH  51  65
ATOM     65  C   UNL     1      -1.113  12.916  10.488  1.00  0.00    -0.014 A 
ATOM     66  C   UNL     1      -1.815  12.342  11.564  1.00  0.00     0.010 A 
ATOM     67  C   UNL     1      -1.785  13.804   9.629  1.00  0.00     0.010 A 
ATOM     68  C   UNL     1      -3.174  12.609  11.747  1.00  0.00     0.020 A 
ATOM     69  C   UNL     1      -3.138  14.098   9.828  1.00  0.00     0.020 A 
ATOM     70  C   UNL     1      -3.828  13.481  10.873  1.00  0.00     0.054 A 
BRANCH  70  71
ATOM     71  S   UNL     1      -5.590  13.819  11.139  1.00  0.00     0.124 S 
ATOM     72  O   UNL     1      -6.208  12.588  10.652  1.00  0.00    -0.237 OA
ATOM     73  O   UNL     1      -5.663  14.028  12.583  1.00  0.00    -0.237 OA
ATOM     74  O   UNL     1      -5.841  15.007  10.328  1.00  0.00    -0.744 OA
ENDBRANCH  70  71
ENDBRANCH  51  65
BRANCH  52  75
ATOM     75  C   UNL     1       8.368  10.387   8.485  1.00  0.00    -0.014 A 
ATOM     76  C   UNL     1       9.308  10.227   9.518  1.00  0.00     0.010 A 
ATOM     77  C   UNL     1       8.774  10.184   7.154  1.00  0.00     0.010 A 
ATOM     78  C   UNL     1      10.634   9.893   9.226  1.00  0.00     0.020 A 
ATOM     79  C   UNL     1      10.093   9.825   6.859  1.00  0.00     0.020 A 
ATOM     80  C   UNL     1      11.018   9.693   7.897  1.00  0.00     0.054 A 
BRANCH  80  81
ATOM     81  S   UNL     1      12.731   9.210   7.545  1.00  0.00     0.124 S 
ATOM     82  O   UNL     1      13.447  10.467   7.737  1.00  0.00    -0.237 OA
ATOM     83  O   UNL     1      12.982   8.178   8.548  1.00  0.00    -0.237 OA
ATOM     84  O   UNL     1      12.671   8.726   6.167  1.00  0.00    -0.744 OA
ENDBRANCH  80  81
ENDBRANCH  52  75
BRANCH  64  85
ATOM     85  C   UNL     1       5.324  16.148  10.968  1.00  0.00    -0.014 A 
ATOM     86  C   UNL     1       5.818  17.101  10.061  1.00  0.00     0.010 A 
ATOM     87  C   UNL     1       5.300  16.451  12.342  1.00  0.00     0.010 A 
ATOM     88  C   UNL     1       6.313  18.322  10.524  1.00  0.00     0.020 A 
ATOM     89  C   UNL     1       5.769  17.682  12.805  1.00  0.00     0.020 A 
ATOM     90  C   UNL     1       6.288  18.603  11.894  1.00  0.00     0.054 A 
BRANCH  90  91
ATOM     91  S   UNL     1       6.904  20.209  12.469  1.00  0.00     0.124 S 
ATOM     92  O   UNL     1       8.350  20.028  12.380  1.00  0.00    -0.237 OA
ATOM     93  O   UNL     1       6.327  21.140  11.502  1.00  0.00    -0.237 OA
ATOM     94  O   UNL     1       6.370  20.319  13.824  1.00  0.00    -0.744 OA
ENDBRANCH  90  91
ENDBRANCH  64  85
ENDBRANCH  38  39
ENDBRANCH  30  33
ENDBRANCH  28  29
ENDBRANCH   1  28
TORSDOF 16
