REMARK SMILES O=C(NCCCCNC(=O)[C@H](CO)NC(=O)[C@H](Cc1c[nH]c2ccccc12)NC(=O)c1ccc(F)cc1)c1ccc(-c2c3nc(c(-c4ccc(S(=O)(=O)[O-])cc4)c4ccc([nH]4)c(-c4ccc(S(=O)(=O)[O-])cc4)c4nc(c(-c5ccc(S(=O)(=O)[O-])cc5)c5ccc2[nH]5)C=C4)C=C3)cc1
REMARK SMILES IDX 6 1 5 2 4 3 3 4 1 5 2 6 38 8 39 9 97 10 40 11 96 12 41 13
REMARK SMILES IDX 42 14 43 15 90 16 44 17 95 18 89 19 91 20 45 21 94 22 88 23
REMARK SMILES IDX 87 24 46 26 76 27 57 28 75 29 58 30 61 31 74 32 92 33 59 34
REMARK SMILES IDX 60 35 73 37 93 38 62 39 47 40 48 41 56 42 49 43 55 44 50 45
REMARK SMILES IDX 51 46 52 47 53 48 54 49 77 50 78 51 86 52 79 53 85 54 80 55
REMARK SMILES IDX 81 56 82 57 83 58 84 59 63 60 64 61 72 62 65 63 71 64 66 65
REMARK SMILES IDX 67 66 68 67 69 68 70 69 7 70 8 71 9 72 10 74 11 75 14 76
REMARK SMILES IDX 15 77 16 79 17 80 28 81 29 82 30 84 31 85 32 86 37 87 33 88
REMARK SMILES IDX 36 89 34 90 35 91 18 92 19 93 20 94 27 95 21 96 22 97 26 98
REMARK SMILES IDX 23 100 25 101 24 102 12 103 13 104
REMARK H PARENT 3 7 91 25 61 36 8 73 14 78 28 83 21 99 13 105
REMARK Flexibility Score: inf
ROOT
ATOM      1  C   UNL     1       6.631  10.044  -2.106  1.00  0.00     0.023 C 
ENDROOT
BRANCH   1   2
ATOM      2  C   UNL     1       6.272   9.229  -3.349  1.00  0.00     0.023 C 
BRANCH   2   3
ATOM      3  C   UNL     1       4.903   8.558  -3.317  1.00  0.00     0.116 C 
BRANCH   3   4
ATOM      4  N   UNL     1       3.811   9.514  -3.234  1.00  0.00    -0.352 N 
ATOM      5  O   UNL     1       2.044  10.703  -3.971  1.00  0.00    -0.269 OA
ATOM      6  C   UNL     1       2.776   9.729  -4.115  1.00  0.00     0.251 C 
ATOM      7  H   UNL     1       3.813  10.089  -2.435  1.00  0.00     0.163 HD
BRANCH   6   8
ATOM      8  C   UNL     1       2.561   8.797  -5.243  1.00  0.00     0.039 A 
ATOM      9  C   UNL     1       2.577   7.415  -5.035  1.00  0.00     0.014 A 
ATOM     10  C   UNL     1       2.327   9.312  -6.521  1.00  0.00     0.014 A 
ATOM     11  C   UNL     1       2.490   6.552  -6.123  1.00  0.00     0.010 A 
ATOM     12  C   UNL     1       2.167   8.441  -7.603  1.00  0.00     0.010 A 
ATOM     13  C   UNL     1       2.274   7.054  -7.417  1.00  0.00    -0.014 A 
BRANCH  13  14
ATOM     14  C   UNL     1       2.092   6.103  -8.542  1.00  0.00     0.031 A 
ATOM     15  C   UNL     1       3.094   6.010  -9.660  1.00  0.00     0.074 A 
ATOM     16  C   UNL     1       1.015   5.292  -8.529  1.00  0.00     0.049 A 
ATOM     17  N   UNL     1       3.097   5.204 -10.692  1.00  0.00    -0.248 NA
ATOM     18  C   UNL     1       4.236   6.938  -9.622  1.00  0.00     0.031 C 
ATOM     19  C   UNL     1      -0.035   5.301  -7.506  1.00  0.00     0.029 A 
ATOM     20  N   UNL     1       0.632   4.293  -9.387  1.00  0.00    -0.354 N 
ATOM     21  C   UNL     1       4.223   5.538 -11.436  1.00  0.00     0.074 A 
ATOM     22  C   UNL     1       4.875   6.630 -10.744  1.00  0.00     0.031 C 
ATOM     23  C   UNL     1      -0.917   4.326  -7.771  1.00  0.00     0.029 A 
ATOM     24  C   UNL     1      -0.527   3.659  -9.008  1.00  0.00     0.049 A 
ATOM     25  H   UNL     1       1.139   4.053 -10.196  1.00  0.00     0.167 HD
ATOM     26  C   UNL     1       4.671   4.982 -12.587  1.00  0.00     0.031 A 
ATOM     27  C   UNL     1      -1.213   2.661  -9.595  1.00  0.00     0.031 A 
ATOM     28  C   UNL     1       4.026   3.889 -13.267  1.00  0.00     0.049 A 
ATOM     29  C   UNL     1      -0.695   2.071 -10.873  1.00  0.00     0.074 A 
ATOM     30  C   UNL     1       4.432   3.232 -14.417  1.00  0.00     0.029 A 
ATOM     31  N   UNL     1       2.842   3.292 -12.864  1.00  0.00    -0.354 N 
ATOM     32  N   UNL     1       0.395   2.377 -11.535  1.00  0.00    -0.248 NA
ATOM     33  C   UNL     1      -1.499   1.004 -11.483  1.00  0.00     0.031 C 
ATOM     34  C   UNL     1       3.470   2.267 -14.733  1.00  0.00     0.029 A 
ATOM     35  C   UNL     1       2.489   2.292 -13.755  1.00  0.00     0.049 A 
ATOM     36  H   UNL     1       2.327   3.542 -12.063  1.00  0.00     0.167 HD
ATOM     37  C   UNL     1       0.410   1.534 -12.639  1.00  0.00     0.074 A 
ATOM     38  C   UNL     1      -0.764   0.690 -12.541  1.00  0.00     0.031 C 
ATOM     39  C   UNL     1       1.313   1.469 -13.648  1.00  0.00     0.031 A 
BRANCH  26  40
ATOM     40  C   UNL     1       5.917   5.555 -13.208  1.00  0.00    -0.014 A 
ATOM     41  C   UNL     1       7.188   5.266 -12.682  1.00  0.00     0.010 A 
ATOM     42  C   UNL     1       5.820   6.321 -14.384  1.00  0.00     0.010 A 
ATOM     43  C   UNL     1       8.340   5.749 -13.311  1.00  0.00     0.020 A 
ATOM     44  C   UNL     1       6.969   6.790 -15.026  1.00  0.00     0.020 A 
ATOM     45  C   UNL     1       8.223   6.510 -14.479  1.00  0.00     0.054 A 
BRANCH  45  46
ATOM     46  S   UNL     1       9.735   7.085 -15.301  1.00  0.00     0.124 S 
ATOM     47  O   UNL     1      10.154   8.178 -14.427  1.00  0.00    -0.237 OA
ATOM     48  O   UNL     1      10.587   5.899 -15.274  1.00  0.00    -0.237 OA
ATOM     49  O   UNL     1       9.276   7.489 -16.628  1.00  0.00    -0.744 OA
ENDBRANCH  45  46
ENDBRANCH  26  40
BRANCH  27  50
ATOM     50  C   UNL     1      -2.478   2.177  -8.984  1.00  0.00    -0.014 A 
ATOM     51  C   UNL     1      -2.542   0.916  -8.368  1.00  0.00     0.010 A 
ATOM     52  C   UNL     1      -3.625   2.992  -9.002  1.00  0.00     0.010 A 
ATOM     53  C   UNL     1      -3.736   0.471  -7.795  1.00  0.00     0.020 A 
ATOM     54  C   UNL     1      -4.812   2.561  -8.407  1.00  0.00     0.020 A 
ATOM     55  C   UNL     1      -4.864   1.296  -7.819  1.00  0.00     0.054 A 
BRANCH  55  56
ATOM     56  S   UNL     1      -6.393   0.727  -7.026  1.00  0.00     0.124 S 
ATOM     57  O   UNL     1      -6.952  -0.154  -8.046  1.00  0.00    -0.237 OA
ATOM     58  O   UNL     1      -5.901   0.067  -5.819  1.00  0.00    -0.237 OA
ATOM     59  O   UNL     1      -7.132   1.966  -6.790  1.00  0.00    -0.744 OA
ENDBRANCH  55  56
ENDBRANCH  27  50
BRANCH  39  60
ATOM     60  C   UNL     1       1.068   0.443 -14.717  1.00  0.00    -0.014 A 
ATOM     61  C   UNL     1       0.071   0.638 -15.689  1.00  0.00     0.010 A 
ATOM     62  C   UNL     1       1.863  -0.716 -14.767  1.00  0.00     0.010 A 
ATOM     63  C   UNL     1      -0.149  -0.326 -16.676  1.00  0.00     0.020 A 
ATOM     64  C   UNL     1       1.659  -1.672 -15.765  1.00  0.00     0.020 A 
ATOM     65  C   UNL     1       0.643  -1.478 -16.704  1.00  0.00     0.054 A 
BRANCH  65  66
ATOM     66  S   UNL     1       0.362  -2.703 -18.012  1.00  0.00     0.124 S 
ATOM     67  O   UNL     1      -0.821  -3.403 -17.521  1.00  0.00    -0.237 OA
ATOM     68  O   UNL     1       0.155  -1.872 -19.195  1.00  0.00    -0.237 OA
ATOM     69  O   UNL     1       1.595  -3.488 -18.018  1.00  0.00    -0.744 OA
ENDBRANCH  65  66
ENDBRANCH  39  60
ENDBRANCH  13  14
ENDBRANCH   6   8
ENDBRANCH   3   4
ENDBRANCH   2   3
ENDBRANCH   1   2
BRANCH   1  70
ATOM     70  C   UNL     1       6.540   9.290  -0.782  1.00  0.00     0.116 C 
BRANCH  70  71
ATOM     71  N   UNL     1       7.439   8.148  -0.732  1.00  0.00    -0.354 N 
ATOM     72  C   UNL     1       8.250   7.731   0.284  1.00  0.00     0.244 C 
ATOM     73  H   UNL     1       7.468   7.598  -1.548  1.00  0.00     0.163 HD
ATOM     74  O   UNL     1       8.866   6.672   0.138  1.00  0.00    -0.273 OA
BRANCH  72  75
ATOM     75  C   UNL     1       8.436   8.603   1.535  1.00  0.00     0.197 C 
BRANCH  75  76
ATOM     76  N   UNL     1       8.651   7.708   2.678  1.00  0.00    -0.340 N 
ATOM     77  C   UNL     1       7.934   7.401   3.786  1.00  0.00     0.243 C 
ATOM     78  H   UNL     1       9.506   7.222   2.629  1.00  0.00     0.164 HD
ATOM     79  O   UNL     1       8.435   6.544   4.527  1.00  0.00    -0.273 OA
BRANCH  77  80
ATOM     80  C   UNL     1       6.544   7.983   4.152  1.00  0.00     0.176 C 
BRANCH  80  81
ATOM     81  N   UNL     1       6.102   9.193   3.464  1.00  0.00    -0.340 N 
ATOM     82  C   UNL     1       6.037  10.505   3.840  1.00  0.00     0.251 C 
ATOM     83  H   UNL     1       5.788   9.031   2.545  1.00  0.00     0.164 HD
ATOM     84  O   UNL     1       5.655  11.337   3.023  1.00  0.00    -0.269 OA
BRANCH  82  85
ATOM     85  C   UNL     1       6.319  10.933   5.226  1.00  0.00     0.040 A 
ATOM     86  C   UNL     1       7.484  10.583   5.916  1.00  0.00     0.017 A 
ATOM     87  C   UNL     1       5.369  11.770   5.834  1.00  0.00     0.017 A 
ATOM     88  C   UNL     1       7.663  11.018   7.233  1.00  0.00     0.040 A 
ATOM     89  C   UNL     1       5.556  12.210   7.144  1.00  0.00     0.040 A 
ATOM     90  C   UNL     1       6.697  11.821   7.835  1.00  0.00     0.123 A 
ATOM     91  F   UNL     1       6.873  12.232   9.097  1.00  0.00    -0.207 F 
ENDBRANCH  82  85
ENDBRANCH  80  81
BRANCH  80  92
ATOM     92  C   UNL     1       5.494   6.842   4.133  1.00  0.00     0.072 C 
BRANCH  92  93
ATOM     93  C   UNL     1       4.571   6.800   2.947  1.00  0.00    -0.020 A 
ATOM     94  C   UNL     1       4.919   6.724   1.613  1.00  0.00     0.087 A 
ATOM     95  C   UNL     1       3.137   6.776   2.995  1.00  0.00     0.003 A 
ATOM     96  N   UNL     1       3.774   6.773   0.863  1.00  0.00    -0.361 N 
ATOM     97  C   UNL     1       2.672   6.794   1.681  1.00  0.00     0.046 A 
ATOM     98  C   UNL     1       2.188   6.730   4.039  1.00  0.00     0.010 A 
ATOM     99  H   UNL     1       3.746   6.790  -0.121  1.00  0.00     0.166 HD
ATOM    100  C   UNL     1       1.310   6.806   1.356  1.00  0.00     0.026 A 
ATOM    101  C   UNL     1       0.823   6.708   3.732  1.00  0.00     0.001 A 
ATOM    102  C   UNL     1       0.393   6.757   2.409  1.00  0.00     0.002 A 
ENDBRANCH  92  93
ENDBRANCH  80  92
ENDBRANCH  77  80
ENDBRANCH  75  76
BRANCH  75 103
ATOM    103  C   UNL     1       9.662   9.499   1.300  1.00  0.00     0.191 C 
BRANCH 103 104
ATOM    104  O   UNL     1       9.306  10.714   0.643  1.00  0.00    -0.394 OA
ATOM    105  H   UNL     1       8.921  10.512  -0.224  1.00  0.00     0.210 HD
ENDBRANCH 103 104
ENDBRANCH  75 103
ENDBRANCH  72  75
ENDBRANCH  70  71
ENDBRANCH   1  70
TORSDOF 22
