REMARK SMILES CCc1ccc(C[NH+]2CCC(Oc3ccccc3OC)(C(=O)NCCCCNC(=O)c3ccc(-c4c5nc(c(-c6ccc(S(=O)(=O)[O-])cc6)c6ccc([nH]6)c(-c6ccc(S(=O)(=O)[O-])cc6)c6nc(c(-c7ccc(S(=O)(=O)[O-])cc7)c7ccc4[nH]7)C=C6)C=C5)cc3)CC2)nc1
REMARK SMILES IDX 25 1 24 2 23 3 21 4 22 5 11 7 8 8 9 9 92 10 10 12 91 13 7 14
REMARK SMILES IDX 6 15 3 16 4 17 94 18 5 19 93 20 2 21 1 22 12 23 13 24 14 25
REMARK SMILES IDX 18 26 15 27 17 28 16 29 19 30 20 31 26 32 27 33 28 34 29 35
REMARK SMILES IDX 30 37 31 38 32 39 90 40 33 41 89 42 34 43 35 44 36 45 83 46
REMARK SMILES IDX 37 47 88 48 82 49 84 50 38 51 87 52 81 53 80 54 39 56 69 57
REMARK SMILES IDX 50 58 68 59 51 60 54 61 67 62 85 63 52 64 53 65 66 67 86 68
REMARK SMILES IDX 55 69 40 70 41 71 49 72 42 73 48 74 43 75 44 76 45 77 46 78
REMARK SMILES IDX 47 79 70 80 71 81 79 82 72 83 78 84 73 85 74 86 75 87 76 88
REMARK SMILES IDX 77 89 56 90 57 91 65 92 58 93 64 94 59 95 60 96 61 97 62 98
REMARK SMILES IDX 63 99
REMARK H PARENT 23 6 8 11 28 36 84 55 54 66
REMARK Flexibility Score: inf
ROOT
ATOM      1  C   UNL     1      -4.168  -1.088   6.622  1.00  0.00     0.023 C 
ENDROOT
BRANCH   1   2
ATOM      2  C   UNL     1      -3.953  -2.577   6.880  1.00  0.00     0.116 C 
BRANCH   2   3
ATOM      3  N   UNL     1      -2.937  -3.156   6.025  1.00  0.00    -0.353 N 
ATOM      4  C   UNL     1      -1.664  -3.573   6.301  1.00  0.00     0.264 C 
ATOM      5  O   UNL     1      -1.155  -4.287   5.428  1.00  0.00    -0.270 OA
ATOM      6  H   UNL     1      -3.210  -3.269   5.086  1.00  0.00     0.163 HD
BRANCH   4   7
ATOM      7  C   UNL     1      -0.890  -3.175   7.609  1.00  0.00     0.197 C 
ATOM      8  N   UNL     1       1.618  -1.896   6.732  1.00  0.00    -0.330 N 
ATOM      9  C   UNL     1       0.333  -1.210   6.572  1.00  0.00     0.267 C 
ATOM     10  C   UNL     1       1.461  -3.350   6.585  1.00  0.00     0.267 C 
ATOM     11  H   UNL     1       1.947  -1.717   7.681  1.00  0.00     0.348 HD
ATOM     12  C   UNL     1      -0.630  -1.666   7.654  1.00  0.00     0.120 C 
ATOM     13  C   UNL     1       0.473  -3.910   7.625  1.00  0.00     0.120 C 
BRANCH   8  14
ATOM     14  C   UNL     1       2.656  -1.352   5.821  1.00  0.00     0.319 C 
BRANCH  14  15
ATOM     15  C   UNL     1       2.253  -1.190   4.363  1.00  0.00     0.095 A 
ATOM     16  C   UNL     1       1.143  -1.017   1.839  1.00  0.00    -0.030 A 
ATOM     17  C   UNL     1       1.240   0.128   2.630  1.00  0.00     0.007 A 
ATOM     18  C   UNL     1       1.653  -2.198   2.372  1.00  0.00     0.115 A 
ATOM     19  C   UNL     1       1.804   0.046   3.900  1.00  0.00     0.030 A 
ATOM     20  N   UNL     1       2.217  -2.305   3.596  1.00  0.00    -0.255 NA
BRANCH  16  21
ATOM     21  C   UNL     1       0.444  -1.022   0.507  1.00  0.00     0.034 C 
ATOM     22  C   UNL     1       0.882   0.097  -0.427  1.00  0.00     0.009 C 
ENDBRANCH  16  21
ENDBRANCH  14  15
ENDBRANCH   8  14
BRANCH   7  23
ATOM     23  O   UNL     1      -1.801  -3.572   8.661  1.00  0.00    -0.473 OA
BRANCH  23  24
ATOM     24  C   UNL     1      -1.341  -3.778   9.925  1.00  0.00     0.162 A 
ATOM     25  C   UNL     1      -1.136  -5.111  10.296  1.00  0.00     0.050 A 
ATOM     26  C   UNL     1      -1.237  -2.771  10.892  1.00  0.00     0.160 A 
ATOM     27  C   UNL     1      -0.772  -5.434  11.604  1.00  0.00     0.004 A 
ATOM     28  C   UNL     1      -0.849  -3.097  12.194  1.00  0.00     0.050 A 
ATOM     29  C   UNL     1      -0.624  -4.426  12.553  1.00  0.00     0.004 A 
BRANCH  26  30
ATOM     30  O   UNL     1      -1.423  -1.436  10.656  1.00  0.00    -0.493 OA
ATOM     31  C   UNL     1      -2.779  -1.111  10.369  1.00  0.00     0.278 C 
ENDBRANCH  26  30
ENDBRANCH  23  24
ENDBRANCH   7  23
ENDBRANCH   4   7
ENDBRANCH   2   3
ENDBRANCH   1   2
BRANCH   1  32
ATOM     32  C   UNL     1      -5.014  -0.769   5.392  1.00  0.00     0.023 C 
BRANCH  32  33
ATOM     33  C   UNL     1      -6.433  -1.323   5.421  1.00  0.00     0.116 C 
BRANCH  33  34
ATOM     34  N   UNL     1      -7.206  -0.888   6.575  1.00  0.00    -0.352 N 
ATOM     35  C   UNL     1      -8.543  -0.562   6.634  1.00  0.00     0.251 C 
ATOM     36  H   UNL     1      -6.710  -0.818   7.422  1.00  0.00     0.163 HD
ATOM     37  O   UNL     1      -9.027  -0.113   7.662  1.00  0.00    -0.269 OA
BRANCH  35  38
ATOM     38  C   UNL     1      -9.371  -0.725   5.419  1.00  0.00     0.039 A 
ATOM     39  C   UNL     1     -10.158   0.345   4.989  1.00  0.00     0.014 A 
ATOM     40  C   UNL     1      -9.316  -1.908   4.677  1.00  0.00     0.014 A 
ATOM     41  C   UNL     1     -10.832   0.256   3.770  1.00  0.00     0.010 A 
ATOM     42  C   UNL     1      -9.923  -1.964   3.427  1.00  0.00     0.010 A 
ATOM     43  C   UNL     1     -10.686  -0.883   2.960  1.00  0.00    -0.014 A 
BRANCH  43  44
ATOM     44  C   UNL     1     -11.311  -0.962   1.616  1.00  0.00     0.031 A 
ATOM     45  C   UNL     1     -12.348  -2.013   1.327  1.00  0.00     0.074 A 
ATOM     46  C   UNL     1     -10.886  -0.143   0.632  1.00  0.00     0.049 A 
ATOM     47  N   UNL     1     -12.955  -2.284   0.201  1.00  0.00    -0.248 NA
ATOM     48  C   UNL     1     -12.729  -2.895   2.443  1.00  0.00     0.031 C 
ATOM     49  C   UNL     1      -9.844   0.878   0.770  1.00  0.00     0.029 A 
ATOM     50  N   UNL     1     -11.267  -0.051  -0.683  1.00  0.00    -0.354 N 
ATOM     51  C   UNL     1     -13.767  -3.381   0.464  1.00  0.00     0.074 A 
ATOM     52  C   UNL     1     -13.540  -3.754   1.843  1.00  0.00     0.031 C 
ATOM     53  C   UNL     1      -9.685   1.506  -0.407  1.00  0.00     0.029 A 
ATOM     54  C   UNL     1     -10.582   0.908  -1.391  1.00  0.00     0.049 A 
ATOM     55  H   UNL     1     -11.965  -0.619  -1.082  1.00  0.00     0.167 HD
ATOM     56  C   UNL     1     -14.636  -4.010  -0.361  1.00  0.00     0.031 A 
ATOM     57  C   UNL     1     -10.659   1.263  -2.688  1.00  0.00     0.031 A 
ATOM     58  C   UNL     1     -14.872  -3.624  -1.727  1.00  0.00     0.049 A 
ATOM     59  C   UNL     1     -11.646   0.565  -3.582  1.00  0.00     0.074 A 
ATOM     60  C   UNL     1     -15.788  -4.147  -2.622  1.00  0.00     0.029 A 
ATOM     61  N   UNL     1     -14.183  -2.624  -2.397  1.00  0.00    -0.354 N 
ATOM     62  N   UNL     1     -12.469  -0.414  -3.291  1.00  0.00    -0.248 NA
ATOM     63  C   UNL     1     -11.725   1.027  -4.975  1.00  0.00     0.031 C 
ATOM     64  C   UNL     1     -15.617  -3.499  -3.850  1.00  0.00     0.029 A 
ATOM     65  C   UNL     1     -14.634  -2.532  -3.702  1.00  0.00     0.049 A 
ATOM     66  H   UNL     1     -13.477  -2.062  -2.002  1.00  0.00     0.167 HD
ATOM     67  C   UNL     1     -13.180  -0.670  -4.458  1.00  0.00     0.074 A 
ATOM     68  C   UNL     1     -12.700   0.267  -5.454  1.00  0.00     0.031 C 
ATOM     69  C   UNL     1     -14.144  -1.597  -4.684  1.00  0.00     0.031 A 
BRANCH  56  70
ATOM     70  C   UNL     1     -15.389  -5.191   0.192  1.00  0.00    -0.014 A 
ATOM     71  C   UNL     1     -16.380  -5.028   1.178  1.00  0.00     0.010 A 
ATOM     72  C   UNL     1     -15.120  -6.482  -0.299  1.00  0.00     0.010 A 
ATOM     73  C   UNL     1     -17.051  -6.138   1.699  1.00  0.00     0.020 A 
ATOM     74  C   UNL     1     -15.811  -7.591   0.197  1.00  0.00     0.020 A 
ATOM     75  C   UNL     1     -16.758  -7.413   1.208  1.00  0.00     0.054 A 
BRANCH  75  76
ATOM     76  S   UNL     1     -17.651  -8.835   1.894  1.00  0.00     0.124 S 
ATOM     77  O   UNL     1     -17.031  -8.972   3.210  1.00  0.00    -0.237 OA
ATOM     78  O   UNL     1     -19.036  -8.372   1.898  1.00  0.00    -0.237 OA
ATOM     79  O   UNL     1     -17.360  -9.914   0.953  1.00  0.00    -0.744 OA
ENDBRANCH  75  76
ENDBRANCH  56  70
BRANCH  57  80
ATOM     80  C   UNL     1      -9.780   2.345  -3.211  1.00  0.00    -0.014 A 
ATOM     81  C   UNL     1     -10.312   3.606  -3.534  1.00  0.00     0.010 A 
ATOM     82  C   UNL     1      -8.397   2.129  -3.355  1.00  0.00     0.010 A 
ATOM     83  C   UNL     1      -9.479   4.627  -4.002  1.00  0.00     0.020 A 
ATOM     84  C   UNL     1      -7.558   3.156  -3.796  1.00  0.00     0.020 A 
ATOM     85  C   UNL     1      -8.106   4.397  -4.125  1.00  0.00     0.054 A 
BRANCH  85  86
ATOM     86  S   UNL     1      -7.034   5.758  -4.666  1.00  0.00     0.124 S 
ATOM     87  O   UNL     1      -7.338   5.837  -6.091  1.00  0.00    -0.237 OA
ATOM     88  O   UNL     1      -7.509   6.875  -3.853  1.00  0.00    -0.237 OA
ATOM     89  O   UNL     1      -5.691   5.286  -4.335  1.00  0.00    -0.744 OA
ENDBRANCH  85  86
ENDBRANCH  57  80
BRANCH  69  90
ATOM     90  C   UNL     1     -14.769  -1.630  -6.053  1.00  0.00    -0.014 A 
ATOM     91  C   UNL     1     -14.066  -2.127  -7.163  1.00  0.00     0.010 A 
ATOM     92  C   UNL     1     -16.103  -1.214  -6.215  1.00  0.00     0.010 A 
ATOM     93  C   UNL     1     -14.677  -2.183  -8.419  1.00  0.00     0.020 A 
ATOM     94  C   UNL     1     -16.727  -1.293  -7.462  1.00  0.00     0.020 A 
ATOM     95  C   UNL     1     -16.005  -1.766  -8.560  1.00  0.00     0.054 A 
BRANCH  95  96
ATOM     96  S   UNL     1     -16.792  -1.893 -10.189  1.00  0.00     0.124 S 
ATOM     97  O   UNL     1     -16.168  -0.791 -10.915  1.00  0.00    -0.237 OA
ATOM     98  O   UNL     1     -16.408  -3.233 -10.627  1.00  0.00    -0.237 OA
ATOM     99  O   UNL     1     -18.215  -1.723  -9.900  1.00  0.00    -0.744 OA
ENDBRANCH  95  96
ENDBRANCH  69  90
ENDBRANCH  43  44
ENDBRANCH  35  38
ENDBRANCH  33  34
ENDBRANCH  32  33
ENDBRANCH   1  32
TORSDOF 20
