REMARK SMILES Cc1ccc(C(=O)NC2CC2)cc1NC(=O)[C@@H]1[C@@H](C(=O)NCCCCNC(=O)c2ccc(-c3c4nc(c(-c5ccc(S(=O)(=O)[O-])cc5)c5ccc([nH]5)c(-c5ccc(S(=O)(=O)[O-])cc5)c5nc(c(-c6ccc(S(=O)(=O)[O-])cc6)c6ccc3[nH]6)C=C5)C=C4)cc2)[C@H]2C=C[C@@H]1C2
REMARK SMILES IDX 23 1 22 2 21 3 19 4 20 5 18 7 17 8 92 9 89 10 91 11 93 12
REMARK SMILES IDX 90 13 15 14 14 15 16 17 13 18 1 19 2 20 3 21 4 22 12 23 5 24
REMARK SMILES IDX 6 25 7 26 8 27 9 29 10 30 11 31 24 32 25 33 26 34 27 35
REMARK SMILES IDX 28 37 29 38 30 39 88 40 31 41 87 42 32 43 33 44 34 45 81 46
REMARK SMILES IDX 35 47 86 48 80 49 82 50 36 51 85 52 79 53 78 54 37 56 67 57
REMARK SMILES IDX 48 58 66 59 49 60 52 61 65 62 83 63 50 64 51 65 64 67 84 68
REMARK SMILES IDX 53 69 38 70 39 71 47 72 40 73 46 74 41 75 42 76 43 77 44 78
REMARK SMILES IDX 45 79 68 80 69 81 77 82 70 83 76 84 71 85 72 86 73 87 74 88
REMARK SMILES IDX 75 89 54 90 55 91 63 92 56 93 62 94 57 95 58 96 59 97 60 98
REMARK SMILES IDX 61 99
REMARK H PARENT 21 6 14 16 8 28 26 36 82 55 52 66
REMARK Flexibility Score: inf
ROOT
ATOM      1  C   UNL     1      -3.252   9.238   0.502  1.00  0.00     0.023 C 
ENDROOT
BRANCH   1   2
ATOM      2  C   UNL     1      -3.629   7.772   0.739  1.00  0.00     0.116 C 
BRANCH   2   3
ATOM      3  N   UNL     1      -3.121   6.892  -0.302  1.00  0.00    -0.356 N 
ATOM      4  C   UNL     1      -2.195   5.908  -0.338  1.00  0.00     0.224 C 
ATOM      5  O   UNL     1      -1.982   5.423  -1.458  1.00  0.00    -0.275 OA
ATOM      6  H   UNL     1      -3.548   7.047  -1.176  1.00  0.00     0.163 HD
BRANCH   4   7
ATOM      7  C   UNL     1      -1.348   5.452   0.849  1.00  0.00     0.098 C 
ATOM      8  C   UNL     1      -0.978   3.920   0.645  1.00  0.00     0.099 C 
ATOM      9  C   UNL     1      -1.292   3.299   2.031  1.00  0.00     0.025 C 
ATOM     10  C   UNL     1      -1.940   5.428   2.274  1.00  0.00     0.025 C 
ATOM     11  C   UNL     1      -2.794   3.294   2.208  1.00  0.00    -0.027 C 
ATOM     12  C   UNL     1      -0.972   4.459   2.970  1.00  0.00     0.017 C 
ATOM     13  C   UNL     1      -3.184   4.572   2.322  1.00  0.00    -0.027 C 
BRANCH   8  14
ATOM     14  C   UNL     1       0.456   3.649   0.218  1.00  0.00     0.228 C 
ATOM     15  N   UNL     1       0.894   2.386  -0.102  1.00  0.00    -0.326 N 
ATOM     16  H   UNL     1       1.856   2.349  -0.309  1.00  0.00     0.169 HD
ATOM     17  O   UNL     1       1.309   4.543   0.226  1.00  0.00    -0.274 OA
BRANCH  15  18
ATOM     18  C   UNL     1       0.255   1.128  -0.195  1.00  0.00     0.044 A 
ATOM     19  C   UNL     1       2.489  -0.085   0.273  1.00  0.00     0.046 C 
ATOM     20  C   UNL     1       0.999  -0.043   0.056  1.00  0.00    -0.027 A 
ATOM     21  C   UNL     1       0.331  -1.278   0.085  1.00  0.00     0.006 A 
ATOM     22  C   UNL     1      -1.044  -1.358  -0.137  1.00  0.00     0.014 A 
ATOM     23  C   UNL     1      -1.099   0.998  -0.549  1.00  0.00     0.040 A 
ATOM     24  C   UNL     1      -1.786  -0.219  -0.474  1.00  0.00     0.041 A 
BRANCH  24  25
ATOM     25  C   UNL     1      -3.251  -0.424  -0.733  1.00  0.00     0.251 C 
ATOM     26  O   UNL     1      -3.688  -1.579  -0.724  1.00  0.00    -0.269 OA
ATOM     27  N   UNL     1      -4.160   0.589  -0.951  1.00  0.00    -0.349 N 
ATOM     28  H   UNL     1      -5.087   0.281  -1.080  1.00  0.00     0.164 HD
BRANCH  27  29
ATOM     29  C   UNL     1      -3.998   1.995  -1.022  1.00  0.00     0.082 C 
ATOM     30  C   UNL     1      -3.897   2.667  -2.364  1.00  0.00     0.027 C 
ATOM     31  C   UNL     1      -5.091   2.912  -1.492  1.00  0.00     0.027 C 
ENDBRANCH  27  29
ENDBRANCH  24  25
ENDBRANCH  15  18
ENDBRANCH   8  14
ENDBRANCH   4   7
ENDBRANCH   2   3
ENDBRANCH   1   2
BRANCH   1  32
ATOM     32  C   UNL     1      -3.805   9.847  -0.788  1.00  0.00     0.023 C 
BRANCH  32  33
ATOM     33  C   UNL     1      -5.321  10.006  -0.803  1.00  0.00     0.116 C 
BRANCH  33  34
ATOM     34  N   UNL     1      -5.777  11.335  -0.433  1.00  0.00    -0.352 N 
ATOM     35  C   UNL     1      -7.043  11.875  -0.632  1.00  0.00     0.251 C 
ATOM     36  H   UNL     1      -5.116  11.918   0.006  1.00  0.00     0.163 HD
ATOM     37  O   UNL     1      -7.264  13.062  -0.644  1.00  0.00    -0.269 OA
BRANCH  35  38
ATOM     38  C   UNL     1      -8.160  10.902  -0.665  1.00  0.00     0.039 A 
ATOM     39  C   UNL     1      -9.004  10.869   0.453  1.00  0.00     0.014 A 
ATOM     40  C   UNL     1      -8.184   9.889  -1.617  1.00  0.00     0.014 A 
ATOM     41  C   UNL     1      -9.748   9.723   0.713  1.00  0.00     0.010 A 
ATOM     42  C   UNL     1      -8.845   8.718  -1.310  1.00  0.00     0.010 A 
ATOM     43  C   UNL     1      -9.587   8.620  -0.124  1.00  0.00    -0.014 A 
BRANCH  43  44
ATOM     44  C   UNL     1     -10.106   7.293   0.181  1.00  0.00     0.031 A 
ATOM     45  C   UNL     1     -11.318   6.809  -0.514  1.00  0.00     0.074 A 
ATOM     46  C   UNL     1      -9.415   6.478   1.008  1.00  0.00     0.049 A 
ATOM     47  N   UNL     1     -12.086   5.864  -0.087  1.00  0.00    -0.248 NA
ATOM     48  C   UNL     1     -11.793   7.421  -1.751  1.00  0.00     0.031 C 
ATOM     49  C   UNL     1      -9.600   5.040   1.178  1.00  0.00     0.029 A 
ATOM     50  N   UNL     1      -8.540   6.831   2.038  1.00  0.00    -0.354 N 
ATOM     51  C   UNL     1     -12.937   5.532  -1.120  1.00  0.00     0.074 A 
ATOM     52  C   UNL     1     -12.789   6.596  -2.084  1.00  0.00     0.031 C 
ATOM     53  C   UNL     1      -9.132   4.691   2.388  1.00  0.00     0.029 A 
ATOM     54  C   UNL     1      -8.779   5.920   3.080  1.00  0.00     0.049 A 
ATOM     55  H   UNL     1      -7.887   7.569   2.034  1.00  0.00     0.167 HD
ATOM     56  C   UNL     1     -13.546   4.311  -1.126  1.00  0.00     0.031 A 
ATOM     57  C   UNL     1      -9.236   6.285   4.314  1.00  0.00     0.031 A 
ATOM     58  C   UNL     1     -13.300   3.586   0.120  1.00  0.00     0.049 A 
ATOM     59  C   UNL     1     -10.550   5.619   4.670  1.00  0.00     0.074 A 
ATOM     60  C   UNL     1     -12.418   2.573   0.458  1.00  0.00     0.029 A 
ATOM     61  N   UNL     1     -13.799   4.091   1.316  1.00  0.00    -0.354 N 
ATOM     62  N   UNL     1     -11.337   5.055   3.796  1.00  0.00    -0.248 NA
ATOM     63  C   UNL     1     -11.097   5.573   6.023  1.00  0.00     0.031 C 
ATOM     64  C   UNL     1     -12.304   2.549   1.872  1.00  0.00     0.029 A 
ATOM     65  C   UNL     1     -13.144   3.519   2.390  1.00  0.00     0.049 A 
ATOM     66  H   UNL     1     -14.518   4.760   1.387  1.00  0.00     0.167 HD
ATOM     67  C   UNL     1     -12.455   4.576   4.426  1.00  0.00     0.074 A 
ATOM     68  C   UNL     1     -12.257   4.922   5.822  1.00  0.00     0.031 C 
ATOM     69  C   UNL     1     -13.453   3.935   3.751  1.00  0.00     0.031 A 
BRANCH  56  70
ATOM     70  C   UNL     1     -14.079   3.655  -2.387  1.00  0.00    -0.014 A 
ATOM     71  C   UNL     1     -14.122   2.246  -2.470  1.00  0.00     0.010 A 
ATOM     72  C   UNL     1     -14.470   4.348  -3.548  1.00  0.00     0.010 A 
ATOM     73  C   UNL     1     -14.425   1.576  -3.667  1.00  0.00     0.020 A 
ATOM     74  C   UNL     1     -14.742   3.696  -4.761  1.00  0.00     0.020 A 
ATOM     75  C   UNL     1     -14.703   2.309  -4.817  1.00  0.00     0.054 A 
BRANCH  75  76
ATOM     76  S   UNL     1     -15.004   1.437  -6.376  1.00  0.00     0.124 S 
ATOM     77  O   UNL     1     -13.782   0.655  -6.542  1.00  0.00    -0.237 OA
ATOM     78  O   UNL     1     -16.209   0.669  -6.078  1.00  0.00    -0.237 OA
ATOM     79  O   UNL     1     -15.181   2.515  -7.348  1.00  0.00    -0.744 OA
ENDBRANCH  75  76
ENDBRANCH  56  70
BRANCH  57  80
ATOM     80  C   UNL     1      -8.836   7.655   4.740  1.00  0.00    -0.014 A 
ATOM     81  C   UNL     1      -7.470   7.875   5.021  1.00  0.00     0.010 A 
ATOM     82  C   UNL     1      -9.658   8.759   4.451  1.00  0.00     0.010 A 
ATOM     83  C   UNL     1      -6.903   9.138   4.842  1.00  0.00     0.020 A 
ATOM     84  C   UNL     1      -9.089  10.030   4.278  1.00  0.00     0.020 A 
ATOM     85  C   UNL     1      -7.706  10.192   4.408  1.00  0.00     0.054 A 
BRANCH  85  86
ATOM     86  S   UNL     1      -6.882  11.707   3.828  1.00  0.00     0.124 S 
ATOM     87  O   UNL     1      -6.183  12.159   5.027  1.00  0.00    -0.237 OA
ATOM     88  O   UNL     1      -6.026  11.195   2.756  1.00  0.00    -0.237 OA
ATOM     89  O   UNL     1      -7.993  12.545   3.391  1.00  0.00    -0.744 OA
ENDBRANCH  85  86
ENDBRANCH  57  80
BRANCH  69  90
ATOM     90  C   UNL     1     -14.787   3.551   4.335  1.00  0.00    -0.014 A 
ATOM     91  C   UNL     1     -15.410   4.248   5.382  1.00  0.00     0.010 A 
ATOM     92  C   UNL     1     -15.526   2.512   3.721  1.00  0.00     0.010 A 
ATOM     93  C   UNL     1     -16.682   3.880   5.843  1.00  0.00     0.020 A 
ATOM     94  C   UNL     1     -16.811   2.164   4.145  1.00  0.00     0.020 A 
ATOM     95  C   UNL     1     -17.371   2.834   5.226  1.00  0.00     0.054 A 
BRANCH  95  96
ATOM     96  S   UNL     1     -19.031   2.396   5.799  1.00  0.00     0.124 S 
ATOM     97  O   UNL     1     -18.737   1.464   6.884  1.00  0.00    -0.237 OA
ATOM     98  O   UNL     1     -19.586   3.683   6.213  1.00  0.00    -0.237 OA
ATOM     99  O   UNL     1     -19.657   1.807   4.618  1.00  0.00    -0.744 OA
ENDBRANCH  95  96
ENDBRANCH  69  90
ENDBRANCH  43  44
ENDBRANCH  35  38
ENDBRANCH  33  34
ENDBRANCH  32  33
ENDBRANCH   1  32
TORSDOF 18
