REMARK SMILES CC(=O)Oc1ccc(Br)cc1C(=O)NCC(=O)NCCCCNC(=O)c1ccc(-c2c3nc(c(-c4ccc(S(=O)(=O)[O-])cc4)c4ccc([nH]4)c(-c4ccc(S(=O)(=O)[O-])cc4)c4nc(c(-c5ccc(S(=O)(=O)[O-])cc5)c5ccc2[nH]5)C=C4)C=C3)cc1
REMARK SMILES IDX 20 1 19 2 18 3 16 4 17 5 15 7 14 8 12 9 13 10 11 12 5 13
REMARK SMILES IDX 6 14 7 15 10 16 8 17 9 18 4 19 2 20 1 21 3 22 21 23 22 24
REMARK SMILES IDX 23 25 24 26 25 28 26 29 27 30 85 31 28 32 84 33 29 34 30 35
REMARK SMILES IDX 31 36 78 37 32 38 83 39 77 40 79 41 33 42 82 43 76 44 75 45
REMARK SMILES IDX 34 47 64 48 45 49 63 50 46 51 49 52 62 53 80 54 47 55 48 56
REMARK SMILES IDX 61 58 81 59 50 60 35 61 36 62 44 63 37 64 43 65 38 66 39 67
REMARK SMILES IDX 40 68 41 69 42 70 65 71 66 72 74 73 67 74 73 75 68 76 69 77
REMARK SMILES IDX 70 78 71 79 72 80 51 81 52 82 60 83 53 84 59 85 54 86 55 87
REMARK SMILES IDX 56 88 57 89 58 90
REMARK H PARENT 18 6 14 11 23 27 79 46 49 57
REMARK Flexibility Score: inf
ROOT
ATOM      1  C   UNL     1       3.983   0.222  -4.071  1.00  0.00     0.023 C 
ENDROOT
BRANCH   1   2
ATOM      2  C   UNL     1       2.841   0.256  -3.066  1.00  0.00     0.116 C 
BRANCH   2   3
ATOM      3  N   UNL     1       3.278   0.041  -1.701  1.00  0.00    -0.355 N 
ATOM      4  C   UNL     1       3.339   0.878  -0.632  1.00  0.00     0.239 C 
ATOM      5  O   UNL     1       3.569   0.354   0.465  1.00  0.00    -0.273 OA
ATOM      6  H   UNL     1       3.586  -0.875  -1.515  1.00  0.00     0.163 HD
BRANCH   4   7
ATOM      7  C   UNL     1       2.976   2.371  -0.682  1.00  0.00     0.216 C 
BRANCH   7   8
ATOM      8  N   UNL     1       3.220   3.119  -1.894  1.00  0.00    -0.343 N 
ATOM      9  C   UNL     1       2.485   3.667  -2.901  1.00  0.00     0.255 C 
ATOM     10  O   UNL     1       3.155   4.399  -3.641  1.00  0.00    -0.269 OA
ATOM     11  H   UNL     1       4.183   3.276  -2.028  1.00  0.00     0.164 HD
BRANCH   9  12
ATOM     12  C   UNL     1       1.033   3.457  -3.248  1.00  0.00     0.083 A 
ATOM     13  C   UNL     1       0.043   2.660  -2.646  1.00  0.00     0.143 A 
ATOM     14  C   UNL     1      -1.269   2.620  -3.168  1.00  0.00     0.049 A 
ATOM     15  C   UNL     1      -1.599   3.290  -4.342  1.00  0.00     0.019 A 
ATOM     16  C   UNL     1       0.656   4.131  -4.439  1.00  0.00     0.033 A 
ATOM     17  C   UNL     1      -0.627   4.037  -4.981  1.00  0.00     0.019 A 
ATOM     18  Br  UNL     1      -1.034   4.923  -6.600  1.00  0.00    -0.051 Br
BRANCH  13  19
ATOM     19  O   UNL     1       0.265   1.906  -1.480  1.00  0.00    -0.426 OA
BRANCH  19  20
ATOM     20  C   UNL     1      -0.114   0.558  -1.491  1.00  0.00     0.308 C 
ATOM     21  C   UNL     1       0.021  -0.029  -0.116  1.00  0.00     0.139 C 
ATOM     22  O   UNL     1      -0.463  -0.081  -2.474  1.00  0.00    -0.252 OA
ENDBRANCH  19  20
ENDBRANCH  13  19
ENDBRANCH   9  12
ENDBRANCH   7   8
ENDBRANCH   4   7
ENDBRANCH   2   3
ENDBRANCH   1   2
BRANCH   1  23
ATOM     23  C   UNL     1       4.508  -1.185  -4.356  1.00  0.00     0.023 C 
BRANCH  23  24
ATOM     24  C   UNL     1       3.480  -2.160  -4.929  1.00  0.00     0.116 C 
BRANCH  24  25
ATOM     25  N   UNL     1       2.944  -1.739  -6.215  1.00  0.00    -0.352 N 
ATOM     26  C   UNL     1       2.770  -2.485  -7.361  1.00  0.00     0.251 C 
ATOM     27  H   UNL     1       2.670  -0.796  -6.274  1.00  0.00     0.163 HD
ATOM     28  O   UNL     1       2.422  -1.947  -8.402  1.00  0.00    -0.269 OA
BRANCH  26  29
ATOM     29  C   UNL     1       3.045  -3.938  -7.325  1.00  0.00     0.039 A 
ATOM     30  C   UNL     1       3.875  -4.492  -8.302  1.00  0.00     0.014 A 
ATOM     31  C   UNL     1       2.520  -4.740  -6.307  1.00  0.00     0.014 A 
ATOM     32  C   UNL     1       4.242  -5.836  -8.213  1.00  0.00     0.010 A 
ATOM     33  C   UNL     1       2.944  -6.060  -6.181  1.00  0.00     0.010 A 
ATOM     34  C   UNL     1       3.815  -6.621  -7.128  1.00  0.00    -0.014 A 
BRANCH  34  35
ATOM     35  C   UNL     1       4.289  -8.019  -6.957  1.00  0.00     0.031 A 
ATOM     36  C   UNL     1       3.315  -9.164  -7.005  1.00  0.00     0.074 A 
ATOM     37  C   UNL     1       5.590  -8.252  -6.692  1.00  0.00     0.049 A 
ATOM     38  N   UNL     1       3.537 -10.442  -6.831  1.00  0.00    -0.248 NA
ATOM     39  C   UNL     1       1.904  -8.829  -7.257  1.00  0.00     0.031 C 
ATOM     40  C   UNL     1       6.629  -7.225  -6.571  1.00  0.00     0.029 A 
ATOM     41  N   UNL     1       6.263  -9.428  -6.470  1.00  0.00    -0.354 N 
ATOM     42  C   UNL     1       2.297 -11.060  -6.937  1.00  0.00     0.074 A 
ATOM     43  C   UNL     1       1.320 -10.013  -7.142  1.00  0.00     0.031 C 
ATOM     44  C   UNL     1       7.809  -7.818  -6.326  1.00  0.00     0.029 A 
ATOM     45  C   UNL     1       7.607  -9.260  -6.232  1.00  0.00     0.049 A 
ATOM     46  H   UNL     1       5.824 -10.309  -6.479  1.00  0.00     0.167 HD
ATOM     47  C   UNL     1       1.999 -12.381  -6.888  1.00  0.00     0.031 A 
ATOM     48  C   UNL     1       8.571 -10.163  -5.965  1.00  0.00     0.031 A 
ATOM     49  C   UNL     1       2.974 -13.422  -6.695  1.00  0.00     0.049 A 
ATOM     50  C   UNL     1       8.216 -11.624  -5.913  1.00  0.00     0.074 A 
ATOM     51  C   UNL     1       2.778 -14.792  -6.689  1.00  0.00     0.029 A 
ATOM     52  N   UNL     1       4.326 -13.211  -6.472  1.00  0.00    -0.354 N 
ATOM     53  N   UNL     1       7.047 -12.193  -6.086  1.00  0.00    -0.248 NA
ATOM     54  C   UNL     1       9.312 -12.564  -5.643  1.00  0.00     0.031 C 
ATOM     55  C   UNL     1       4.003 -15.408  -6.413  1.00  0.00     0.029 A 
ATOM     56  C   UNL     1       4.973 -14.424  -6.304  1.00  0.00     0.049 A 
ATOM     57  H   UNL     1       4.761 -12.329  -6.438  1.00  0.00     0.167 HD
ATOM     58  C   UNL     1       7.272 -13.560  -5.972  1.00  0.00     0.074 A 
ATOM     59  C   UNL     1       8.690 -13.732  -5.729  1.00  0.00     0.031 C 
ATOM     60  C   UNL     1       6.385 -14.581  -6.062  1.00  0.00     0.031 A 
BRANCH  47  61
ATOM     61  C   UNL     1       0.553 -12.774  -7.043  1.00  0.00    -0.014 A 
ATOM     62  C   UNL     1      -0.107 -12.642  -8.279  1.00  0.00     0.010 A 
ATOM     63  C   UNL     1      -0.145 -13.319  -5.950  1.00  0.00     0.010 A 
ATOM     64  C   UNL     1      -1.450 -13.006  -8.407  1.00  0.00     0.020 A 
ATOM     65  C   UNL     1      -1.480 -13.712  -6.082  1.00  0.00     0.020 A 
ATOM     66  C   UNL     1      -2.129 -13.535  -7.306  1.00  0.00     0.054 A 
BRANCH  66  67
ATOM     67  S   UNL     1      -3.866 -14.018  -7.506  1.00  0.00     0.124 S 
ATOM     68  O   UNL     1      -4.534 -12.720  -7.561  1.00  0.00    -0.237 OA
ATOM     69  O   UNL     1      -3.849 -14.768  -8.760  1.00  0.00    -0.237 OA
ATOM     70  O   UNL     1      -4.146 -14.812  -6.312  1.00  0.00    -0.744 OA
ENDBRANCH  66  67
ENDBRANCH  47  61
BRANCH  48  71
ATOM     71  C   UNL     1       9.972  -9.710  -5.744  1.00  0.00    -0.014 A 
ATOM     72  C   UNL     1      10.965  -9.967  -6.705  1.00  0.00     0.010 A 
ATOM     73  C   UNL     1      10.317  -9.005  -4.576  1.00  0.00     0.010 A 
ATOM     74  C   UNL     1      12.281  -9.544  -6.496  1.00  0.00     0.020 A 
ATOM     75  C   UNL     1      11.626  -8.556  -4.376  1.00  0.00     0.020 A 
ATOM     76  C   UNL     1      12.602  -8.839  -5.332  1.00  0.00     0.054 A 
BRANCH  76  77
ATOM     77  S   UNL     1      14.305  -8.252  -5.106  1.00  0.00     0.124 S 
ATOM     78  O   UNL     1      15.009  -9.486  -4.773  1.00  0.00    -0.237 OA
ATOM     79  O   UNL     1      14.617  -7.677  -6.412  1.00  0.00    -0.237 OA
ATOM     80  O   UNL     1      14.189  -7.282  -4.019  1.00  0.00    -0.744 OA
ENDBRANCH  76  77
ENDBRANCH  48  71
BRANCH  60  81
ATOM     81  C   UNL     1       6.922 -15.981  -5.930  1.00  0.00    -0.014 A 
ATOM     82  C   UNL     1       7.343 -16.487  -4.688  1.00  0.00     0.010 A 
ATOM     83  C   UNL     1       6.953 -16.820  -7.059  1.00  0.00     0.010 A 
ATOM     84  C   UNL     1       7.814 -17.799  -4.583  1.00  0.00     0.020 A 
ATOM     85  C   UNL     1       7.397 -18.140  -6.953  1.00  0.00     0.020 A 
ATOM     86  C   UNL     1       7.838 -18.617  -5.717  1.00  0.00     0.054 A 
BRANCH  86  87
ATOM     87  S   UNL     1       8.411 -20.330  -5.546  1.00  0.00     0.124 S 
ATOM     88  O   UNL     1       9.854 -20.156  -5.412  1.00  0.00    -0.237 OA
ATOM     89  O   UNL     1       7.718 -20.782  -4.342  1.00  0.00    -0.237 OA
ATOM     90  O   UNL     1       7.972 -20.967  -6.786  1.00  0.00    -0.744 OA
ENDBRANCH  86  87
ENDBRANCH  60  81
ENDBRANCH  34  35
ENDBRANCH  26  29
ENDBRANCH  24  25
ENDBRANCH  23  24
ENDBRANCH   1  23
TORSDOF 18
