REMARK SMILES C=C(C)C[N@@H+]1CC[C@H](C(=O)NCCCCNC(=O)c2ccc(-c3c4nc(c(-c5ccc(S(=O)(=O)[O-])cc5)c5ccc([nH]5)c(-c5ccc(S(=O)(=O)[O-])cc5)c5nc(c(-c6ccc(S(=O)(=O)[O-])cc6)c6ccc3[nH]6)C=C5)C=C4)cc2)[C@H]1C
REMARK SMILES IDX 14 1 13 2 12 3 11 4 9 5 10 6 8 8 5 9 6 10 79 11 7 13 80 14
REMARK SMILES IDX 4 15 2 16 1 17 3 18 15 19 16 20 17 21 18 23 19 24 20 25
REMARK SMILES IDX 78 26 21 27 77 28 22 29 23 30 24 31 71 32 25 33 76 34 70 35
REMARK SMILES IDX 72 36 26 37 75 38 69 39 68 40 27 42 57 43 38 44 56 45 39 46
REMARK SMILES IDX 42 47 55 48 73 49 40 50 41 51 54 53 74 54 43 55 28 56 29 57
REMARK SMILES IDX 37 58 30 59 36 60 31 61 32 62 33 63 34 64 35 65 58 66 59 67
REMARK SMILES IDX 67 68 60 69 66 70 61 71 62 72 63 73 64 74 65 75 44 76 45 77
REMARK SMILES IDX 53 78 46 79 52 80 47 81 48 82 49 83 50 84 51 85
REMARK H PARENT 11 7 5 12 16 22 72 41 42 52
REMARK Flexibility Score: inf
ROOT
ATOM      1  C   UNL     1       5.621   4.545  -1.346  1.00  0.00     0.023 C 
ENDROOT
BRANCH   1   2
ATOM      2  C   UNL     1       4.177   4.132  -1.080  1.00  0.00     0.023 C 
BRANCH   2   3
ATOM      3  C   UNL     1       3.997   3.055  -0.017  1.00  0.00     0.116 C 
BRANCH   3   4
ATOM      4  N   UNL     1       4.006   3.567   1.334  1.00  0.00    -0.356 N 
ATOM      5  C   UNL     1       3.052   3.624   2.297  1.00  0.00     0.229 C 
ATOM      6  O   UNL     1       3.438   3.996   3.414  1.00  0.00    -0.275 OA
ATOM      7  H   UNL     1       4.871   3.949   1.609  1.00  0.00     0.163 HD
BRANCH   5   8
ATOM      8  C   UNL     1       1.556   3.379   2.083  1.00  0.00     0.142 C 
ATOM      9  N   UNL     1       0.287   2.649   0.168  1.00  0.00    -0.329 N 
ATOM     10  C   UNL     1       0.591   4.074   0.007  1.00  0.00     0.263 C 
ATOM     11  C   UNL     1       1.098   2.137   1.300  1.00  0.00     0.193 C 
ATOM     12  H   UNL     1      -0.692   2.489   0.406  1.00  0.00     0.348 HD
ATOM     13  C   UNL     1       0.878   4.561   1.407  1.00  0.00     0.081 C 
ATOM     14  C   UNL     1       0.209   1.254   2.185  1.00  0.00     0.076 C 
BRANCH   9  15
ATOM     15  C   UNL     1       0.469   1.938  -1.104  1.00  0.00     0.293 C 
BRANCH  15  16
ATOM     16  C   UNL     1      -0.103   0.545  -1.106  1.00  0.00    -0.026 C 
ATOM     17  C   UNL     1       0.677  -0.548  -1.171  1.00  0.00     0.013 C 
ATOM     18  C   UNL     1      -1.601   0.450  -1.067  1.00  0.00     0.045 C 
ENDBRANCH  15  16
ENDBRANCH   9  15
ENDBRANCH   5   8
ENDBRANCH   3   4
ENDBRANCH   2   3
ENDBRANCH   1   2
BRANCH   1  19
ATOM     19  C   UNL     1       6.576   3.411  -1.699  1.00  0.00     0.116 C 
BRANCH  19  20
ATOM     20  N   UNL     1       6.133   2.582  -2.812  1.00  0.00    -0.352 N 
ATOM     21  C   UNL     1       6.905   1.963  -3.768  1.00  0.00     0.251 C 
ATOM     22  H   UNL     1       5.161   2.448  -2.889  1.00  0.00     0.163 HD
ATOM     23  O   UNL     1       6.377   1.357  -4.695  1.00  0.00    -0.269 OA
BRANCH  21  24
ATOM     24  C   UNL     1       8.377   2.078  -3.686  1.00  0.00     0.039 A 
ATOM     25  C   UNL     1       9.087   2.500  -4.811  1.00  0.00     0.014 A 
ATOM     26  C   UNL     1       9.040   1.831  -2.481  1.00  0.00     0.014 A 
ATOM     27  C   UNL     1      10.458   2.743  -4.707  1.00  0.00     0.010 A 
ATOM     28  C   UNL     1      10.387   2.152  -2.359  1.00  0.00     0.010 A 
ATOM     29  C   UNL     1      11.112   2.605  -3.471  1.00  0.00    -0.014 A 
BRANCH  29  30
ATOM     30  C   UNL     1      12.557   2.913  -3.326  1.00  0.00     0.031 A 
ATOM     31  C   UNL     1      13.522   1.822  -2.947  1.00  0.00     0.074 A 
ATOM     32  C   UNL     1      12.991   4.181  -3.473  1.00  0.00     0.049 A 
ATOM     33  N   UNL     1      14.810   1.898  -2.732  1.00  0.00    -0.248 NA
ATOM     34  C   UNL     1      12.960   0.475  -2.752  1.00  0.00     0.031 C 
ATOM     35  C   UNL     1      12.146   5.338  -3.780  1.00  0.00     0.029 A 
ATOM     36  N   UNL     1      14.254   4.710  -3.379  1.00  0.00    -0.354 N 
ATOM     37  C   UNL     1      15.206   0.620  -2.357  1.00  0.00     0.074 A 
ATOM     38  C   UNL     1      14.015  -0.199  -2.318  1.00  0.00     0.031 C 
ATOM     39  C   UNL     1      12.919   6.433  -3.881  1.00  0.00     0.029 A 
ATOM     40  C   UNL     1      14.306   6.064  -3.616  1.00  0.00     0.049 A 
ATOM     41  H   UNL     1      15.048   4.171  -3.161  1.00  0.00     0.167 HD
ATOM     42  C   UNL     1      16.452   0.160  -2.092  1.00  0.00     0.031 A 
ATOM     43  C   UNL     1      15.353   6.911  -3.626  1.00  0.00     0.031 A 
ATOM     44  C   UNL     1      17.638   0.970  -2.157  1.00  0.00     0.049 A 
ATOM     45  C   UNL     1      16.733   6.370  -3.364  1.00  0.00     0.074 A 
ATOM     46  C   UNL     1      18.954   0.587  -1.968  1.00  0.00     0.029 A 
ATOM     47  N   UNL     1      17.652   2.328  -2.438  1.00  0.00    -0.354 N 
ATOM     48  N   UNL     1      17.096   5.142  -3.079  1.00  0.00    -0.248 NA
ATOM     49  C   UNL     1      17.846   7.326  -3.447  1.00  0.00     0.031 C 
ATOM     50  C   UNL     1      19.762   1.722  -2.099  1.00  0.00     0.029 A 
ATOM     51  C   UNL     1      18.952   2.801  -2.418  1.00  0.00     0.049 A 
ATOM     52  H   UNL     1      16.855   2.874  -2.625  1.00  0.00     0.167 HD
ATOM     53  C   UNL     1      18.482   5.172  -2.977  1.00  0.00     0.074 A 
ATOM     54  C   UNL     1      18.892   6.536  -3.245  1.00  0.00     0.031 C 
ATOM     55  C   UNL     1      19.340   4.162  -2.690  1.00  0.00     0.031 A 
BRANCH  42  56
ATOM     56  C   UNL     1      16.588  -1.291  -1.713  1.00  0.00    -0.014 A 
ATOM     57  C   UNL     1      16.369  -2.311  -2.657  1.00  0.00     0.010 A 
ATOM     58  C   UNL     1      16.959  -1.641  -0.402  1.00  0.00     0.010 A 
ATOM     59  C   UNL     1      16.472  -3.654  -2.286  1.00  0.00     0.020 A 
ATOM     60  C   UNL     1      17.092  -2.983  -0.034  1.00  0.00     0.020 A 
ATOM     61  C   UNL     1      16.827  -3.982  -0.975  1.00  0.00     0.054 A 
BRANCH  61  62
ATOM     62  S   UNL     1      16.967  -5.733  -0.523  1.00  0.00     0.124 S 
ATOM     63  O   UNL     1      15.565  -6.134  -0.441  1.00  0.00    -0.237 OA
ATOM     64  O   UNL     1      17.716  -6.295  -1.644  1.00  0.00    -0.237 OA
ATOM     65  O   UNL     1      17.683  -5.706   0.750  1.00  0.00    -0.744 OA
ENDBRANCH  61  62
ENDBRANCH  42  56
BRANCH  43  66
ATOM     66  C   UNL     1      15.142   8.352  -3.932  1.00  0.00    -0.014 A 
ATOM     67  C   UNL     1      15.561   8.887  -5.163  1.00  0.00     0.010 A 
ATOM     68  C   UNL     1      14.508   9.194  -3.001  1.00  0.00     0.010 A 
ATOM     69  C   UNL     1      15.368  10.242  -5.449  1.00  0.00     0.020 A 
ATOM     70  C   UNL     1      14.290  10.543  -3.294  1.00  0.00     0.020 A 
ATOM     71  C   UNL     1      14.732  11.062  -4.513  1.00  0.00     0.054 A 
BRANCH  71  72
ATOM     72  S   UNL     1      14.443  12.805  -4.928  1.00  0.00     0.124 S 
ATOM     73  O   UNL     1      15.776  13.379  -4.773  1.00  0.00    -0.237 OA
ATOM     74  O   UNL     1      13.943  12.725  -6.298  1.00  0.00    -0.237 OA
ATOM     75  O   UNL     1      13.457  13.231  -3.938  1.00  0.00    -0.744 OA
ENDBRANCH  71  72
ENDBRANCH  43  66
BRANCH  55  76
ATOM     76  C   UNL     1      20.810   4.484  -2.691  1.00  0.00    -0.014 A 
ATOM     77  C   UNL     1      21.392   5.242  -1.660  1.00  0.00     0.010 A 
ATOM     78  C   UNL     1      21.627   3.981  -3.720  1.00  0.00     0.010 A 
ATOM     79  C   UNL     1      22.760   5.524  -1.680  1.00  0.00     0.020 A 
ATOM     80  C   UNL     1      22.999   4.238  -3.728  1.00  0.00     0.020 A 
ATOM     81  C   UNL     1      23.554   5.024  -2.716  1.00  0.00     0.054 A 
BRANCH  81  82
ATOM     82  S   UNL     1      25.333   5.378  -2.706  1.00  0.00     0.124 S 
ATOM     83  O   UNL     1      25.367   6.769  -3.145  1.00  0.00    -0.237 OA
ATOM     84  O   UNL     1      25.699   5.150  -1.310  1.00  0.00    -0.237 OA
ATOM     85  O   UNL     1      25.884   4.410  -3.652  1.00  0.00    -0.744 OA
ENDBRANCH  81  82
ENDBRANCH  55  76
ENDBRANCH  29  30
ENDBRANCH  21  24
ENDBRANCH  19  20
ENDBRANCH   1  19
TORSDOF 16
