REMARK SMILES C[C@H](NC(=O)c1ccc(C(C)(C)C)cc1)C(=O)N[C@@H](C(=O)NCCCCNC(=O)c1ccc(-c2c3nc(c(-c4ccc(S(=O)(=O)[O-])cc4)c4ccc([nH]4)c(-c4ccc(S(=O)(=O)[O-])cc4)c4nc(c(-c5ccc(S(=O)(=O)[O-])cc5)c5ccc2[nH]5)C=C4)C=C3)cc1)[C@H](C)O
REMARK SMILES IDX 23 1 22 2 20 3 21 4 19 6 18 7 16 8 17 9 2 11 1 12 3 13 4 14
REMARK SMILES IDX 5 16 6 17 7 18 15 19 8 20 14 21 9 22 10 23 11 24 12 25 13 26
REMARK SMILES IDX 90 27 91 28 92 29 24 31 25 32 26 33 27 34 28 35 29 37 30 38
REMARK SMILES IDX 31 39 89 40 32 41 88 42 33 43 34 44 35 45 82 46 36 47 87 48
REMARK SMILES IDX 81 49 83 50 37 51 86 52 80 53 79 54 38 56 68 57 49 58 67 59
REMARK SMILES IDX 50 60 53 61 66 62 84 63 51 64 52 65 65 67 85 68 54 69 39 70
REMARK SMILES IDX 40 71 48 72 41 73 47 74 42 75 43 76 44 77 45 78 46 79 69 80
REMARK SMILES IDX 70 81 78 82 71 83 77 84 72 85 73 86 74 87 75 88 76 89 55 90
REMARK SMILES IDX 56 91 64 92 57 93 63 94 58 95 59 96 60 97 61 98 62 99
REMARK H PARENT 22 5 18 10 3 15 92 30 27 36 83 55 53 66
REMARK Flexibility Score: inf
ROOT
ATOM      1  C   UNL     1       1.305  -5.204   2.813  1.00  0.00     0.116 C 
ENDROOT
BRANCH   1   2
ATOM      2  N   UNL     1       0.905  -4.430   3.973  1.00  0.00    -0.354 N 
ATOM      3  C   UNL     1       0.095  -3.348   4.136  1.00  0.00     0.245 C 
ATOM      4  O   UNL     1      -0.099  -2.987   5.305  1.00  0.00    -0.273 OA
ATOM      5  H   UNL     1       1.301  -4.754   4.815  1.00  0.00     0.163 HD
BRANCH   3   6
ATOM      6  C   UNL     1      -0.703  -2.681   2.983  1.00  0.00     0.200 C 
BRANCH   6   7
ATOM      7  N   UNL     1      -0.023  -2.675   1.690  1.00  0.00    -0.340 N 
ATOM      8  C   UNL     1      -0.393  -3.198   0.487  1.00  0.00     0.243 C 
ATOM      9  O   UNL     1       0.256  -2.846  -0.503  1.00  0.00    -0.273 OA
ATOM     10  H   UNL     1       0.848  -2.217   1.688  1.00  0.00     0.164 HD
BRANCH   8  11
ATOM     11  C   UNL     1      -1.624  -4.126   0.318  1.00  0.00     0.168 C 
ATOM     12  C   UNL     1      -2.924  -3.333   0.332  1.00  0.00     0.041 C 
BRANCH  11  13
ATOM     13  N   UNL     1      -1.647  -5.240   1.273  1.00  0.00    -0.341 N 
ATOM     14  C   UNL     1      -2.275  -6.456   1.218  1.00  0.00     0.251 C 
ATOM     15  H   UNL     1      -1.121  -5.088   2.091  1.00  0.00     0.164 HD
ATOM     16  O   UNL     1      -2.168  -7.234   2.157  1.00  0.00    -0.269 OA
BRANCH  14  17
ATOM     17  C   UNL     1      -3.160  -6.774   0.086  1.00  0.00     0.039 A 
ATOM     18  C   UNL     1      -4.498  -7.037   0.370  1.00  0.00     0.014 A 
ATOM     19  C   UNL     1      -2.707  -6.778  -1.230  1.00  0.00     0.014 A 
ATOM     20  C   UNL     1      -5.406  -7.188  -0.676  1.00  0.00     0.005 A 
ATOM     21  C   UNL     1      -3.625  -6.914  -2.275  1.00  0.00     0.005 A 
ATOM     22  C   UNL     1      -4.999  -7.071  -2.021  1.00  0.00    -0.043 A 
BRANCH  22  23
ATOM     23  C   UNL     1      -6.049  -7.106  -3.144  1.00  0.00    -0.013 C 
ATOM     24  C   UNL     1      -6.639  -8.524  -3.247  1.00  0.00     0.016 C 
ATOM     25  C   UNL     1      -7.182  -6.099  -2.833  1.00  0.00     0.016 C 
ATOM     26  C   UNL     1      -5.485  -6.720  -4.529  1.00  0.00     0.016 C 
ENDBRANCH  22  23
ENDBRANCH  14  17
ENDBRANCH  11  13
ENDBRANCH   8  11
ENDBRANCH   6   7
BRANCH   6  27
ATOM     27  C   UNL     1      -1.095  -1.232   3.413  1.00  0.00     0.143 C 
ATOM     28  C   UNL     1      -1.614  -0.361   2.272  1.00  0.00     0.041 C 
BRANCH  27  29
ATOM     29  O   UNL     1       0.027  -0.530   3.965  1.00  0.00    -0.391 OA
ATOM     30  H   UNL     1       0.707  -0.419   3.282  1.00  0.00     0.211 HD
ENDBRANCH  27  29
ENDBRANCH   6  27
ENDBRANCH   3   6
ENDBRANCH   1   2
BRANCH   1  31
ATOM     31  C   UNL     1       2.799  -5.138   2.527  1.00  0.00     0.023 C 
BRANCH  31  32
ATOM     32  C   UNL     1       3.682  -5.879   3.527  1.00  0.00     0.023 C 
BRANCH  32  33
ATOM     33  C   UNL     1       3.276  -7.318   3.834  1.00  0.00     0.116 C 
BRANCH  33  34
ATOM     34  N   UNL     1       3.104  -8.150   2.652  1.00  0.00    -0.352 N 
ATOM     35  C   UNL     1       3.497  -9.452   2.446  1.00  0.00     0.251 C 
ATOM     36  H   UNL     1       2.643  -7.721   1.895  1.00  0.00     0.163 HD
ATOM     37  O   UNL     1       3.329  -9.982   1.353  1.00  0.00    -0.269 OA
BRANCH  35  38
ATOM     38  C   UNL     1       4.173 -10.187   3.536  1.00  0.00     0.039 A 
ATOM     39  C   UNL     1       5.388 -10.819   3.263  1.00  0.00     0.014 A 
ATOM     40  C   UNL     1       3.646 -10.197   4.830  1.00  0.00     0.014 A 
ATOM     41  C   UNL     1       6.121 -11.383   4.308  1.00  0.00     0.010 A 
ATOM     42  C   UNL     1       4.410 -10.697   5.881  1.00  0.00     0.010 A 
ATOM     43  C   UNL     1       5.660 -11.282   5.632  1.00  0.00    -0.014 A 
BRANCH  43  44
ATOM     44  C   UNL     1       6.495 -11.750   6.767  1.00  0.00     0.031 A 
ATOM     45  C   UNL     1       6.035 -12.890   7.631  1.00  0.00     0.074 A 
ATOM     46  C   UNL     1       7.637 -11.097   7.061  1.00  0.00     0.049 A 
ATOM     47  N   UNL     1       6.616 -13.411   8.681  1.00  0.00    -0.248 NA
ATOM     48  C   UNL     1       4.745 -13.509   7.287  1.00  0.00     0.031 C 
ATOM     49  C   UNL     1       8.161  -9.933   6.339  1.00  0.00     0.029 A 
ATOM     50  N   UNL     1       8.564 -11.318   8.048  1.00  0.00    -0.354 N 
ATOM     51  C   UNL     1       5.754 -14.402   9.136  1.00  0.00     0.074 A 
ATOM     52  C   UNL     1       4.593 -14.382   8.273  1.00  0.00     0.031 C 
ATOM     53  C   UNL     1       9.328  -9.563   6.889  1.00  0.00     0.029 A 
ATOM     54  C   UNL     1       9.624 -10.442   8.016  1.00  0.00     0.049 A 
ATOM     55  H   UNL     1       8.479 -12.035   8.717  1.00  0.00     0.167 HD
ATOM     56  C   UNL     1       5.921 -15.264  10.168  1.00  0.00     0.031 A 
ATOM     57  C   UNL     1      10.715 -10.359   8.800  1.00  0.00     0.031 A 
ATOM     58  C   UNL     1       7.085 -15.300  11.012  1.00  0.00     0.049 A 
ATOM     59  C   UNL     1      10.899 -11.352   9.912  1.00  0.00     0.074 A 
ATOM     60  C   UNL     1       7.376 -16.179  12.040  1.00  0.00     0.029 A 
ATOM     61  N   UNL     1       8.153 -14.420  10.923  1.00  0.00    -0.354 N 
ATOM     62  N   UNL     1      10.105 -12.328  10.281  1.00  0.00    -0.248 NA
ATOM     63  C   UNL     1      12.133 -11.242  10.702  1.00  0.00     0.031 C 
ATOM     64  C   UNL     1       8.609 -15.812  12.593  1.00  0.00     0.029 A 
ATOM     65  C   UNL     1       9.100 -14.727  11.884  1.00  0.00     0.049 A 
ATOM     66  H   UNL     1       8.226 -13.685  10.272  1.00  0.00     0.167 HD
ATOM     67  C   UNL     1      10.752 -12.961  11.335  1.00  0.00     0.074 A 
ATOM     68  C   UNL     1      12.008 -12.267  11.535  1.00  0.00     0.031 C 
ATOM     69  C   UNL     1      10.343 -14.024  12.071  1.00  0.00     0.031 A 
BRANCH  56  70
ATOM     70  C   UNL     1       4.810 -16.242  10.432  1.00  0.00    -0.014 A 
ATOM     71  C   UNL     1       4.584 -17.328   9.567  1.00  0.00     0.010 A 
ATOM     72  C   UNL     1       3.993 -16.086  11.566  1.00  0.00     0.010 A 
ATOM     73  C   UNL     1       3.530 -18.214   9.805  1.00  0.00     0.020 A 
ATOM     74  C   UNL     1       2.952 -16.984  11.820  1.00  0.00     0.020 A 
ATOM     75  C   UNL     1       2.715 -18.030  10.926  1.00  0.00     0.054 A 
BRANCH  75  76
ATOM     76  S   UNL     1       1.358 -19.197  11.219  1.00  0.00     0.124 S 
ATOM     77  O   UNL     1       0.350 -18.729  10.271  1.00  0.00    -0.237 OA
ATOM     78  O   UNL     1       1.965 -20.488  10.903  1.00  0.00    -0.237 OA
ATOM     79  O   UNL     1       1.029 -18.997  12.629  1.00  0.00    -0.744 OA
ENDBRANCH  75  76
ENDBRANCH  56  70
BRANCH  57  80
ATOM     80  C   UNL     1      11.739  -9.314   8.534  1.00  0.00    -0.014 A 
ATOM     81  C   UNL     1      12.957  -9.657   7.921  1.00  0.00     0.010 A 
ATOM     82  C   UNL     1      11.491  -7.971   8.866  1.00  0.00     0.010 A 
ATOM     83  C   UNL     1      13.916  -8.676   7.657  1.00  0.00     0.020 A 
ATOM     84  C   UNL     1      12.440  -6.984   8.585  1.00  0.00     0.020 A 
ATOM     85  C   UNL     1      13.651  -7.344   7.990  1.00  0.00     0.054 A 
BRANCH  85  86
ATOM     86  S   UNL     1      14.881  -6.074   7.580  1.00  0.00     0.124 S 
ATOM     87  O   UNL     1      15.852  -6.233   8.658  1.00  0.00    -0.237 OA
ATOM     88  O   UNL     1      15.335  -6.484   6.253  1.00  0.00    -0.237 OA
ATOM     89  O   UNL     1      14.108  -4.834   7.607  1.00  0.00    -0.744 OA
ENDBRANCH  85  86
ENDBRANCH  57  80
BRANCH  69  90
ATOM     90  C   UNL     1      11.272 -14.512  13.146  1.00  0.00    -0.014 A 
ATOM     91  C   UNL     1      11.407 -13.813  14.358  1.00  0.00     0.010 A 
ATOM     92  C   UNL     1      11.985 -15.710  12.958  1.00  0.00     0.010 A 
ATOM     93  C   UNL     1      12.263 -14.288  15.355  1.00  0.00     0.020 A 
ATOM     94  C   UNL     1      12.826 -16.199  13.960  1.00  0.00     0.020 A 
ATOM     95  C   UNL     1      12.971 -15.477  15.147  1.00  0.00     0.054 A 
BRANCH  95  96
ATOM     96  S   UNL     1      14.046 -16.099  16.469  1.00  0.00     0.124 S 
ATOM     97  O   UNL     1      15.234 -15.265  16.311  1.00  0.00    -0.237 OA
ATOM     98  O   UNL     1      13.259 -15.850  17.674  1.00  0.00    -0.237 OA
ATOM     99  O   UNL     1      14.225 -17.510  16.131  1.00  0.00    -0.744 OA
ENDBRANCH  95  96
ENDBRANCH  69  90
ENDBRANCH  43  44
ENDBRANCH  35  38
ENDBRANCH  33  34
ENDBRANCH  32  33
ENDBRANCH  31  32
ENDBRANCH   1  31
TORSDOF 21
