REMARK SMILES Cc1ccc(NC(=O)C[C@H]([NH2+]Cc2cccnc2)C(=O)NCCCCNC(=O)c2ccc(-c3c4nc(c(-c5ccc(S(=O)(=O)[O-])cc5)c5ccc([nH]5)c(-c5ccc(S(=O)(=O)[O-])cc5)c5nc(c(-c6ccc(S(=O)(=O)[O-])cc6)c6ccc3[nH]6)C=C5)C=C4)cc2)cc1Cl
REMARK SMILES IDX 23 1 22 2 21 3 19 4 20 5 10 7 9 8 7 9 6 10 8 12 5 13 1 14
REMARK SMILES IDX 2 15 3 16 90 17 4 18 89 19 91 20 11 21 12 24 13 25 14 26
REMARK SMILES IDX 18 27 15 28 17 29 16 30 24 31 25 32 26 33 27 34 28 36 29 37
REMARK SMILES IDX 30 38 88 39 31 40 87 41 32 42 33 43 34 44 81 45 35 46 86 47
REMARK SMILES IDX 80 48 82 49 36 50 85 51 79 52 78 53 37 55 67 56 48 57 66 58
REMARK SMILES IDX 49 59 52 60 65 61 83 62 50 63 51 64 64 66 84 67 53 68 38 69
REMARK SMILES IDX 39 70 47 71 40 72 46 73 41 74 42 75 43 76 44 77 45 78 68 79
REMARK SMILES IDX 69 80 77 81 70 82 76 83 71 84 72 85 73 86 74 87 75 88 54 89
REMARK SMILES IDX 55 90 63 91 56 92 62 93 57 94 58 95 59 96 60 97 61 98
REMARK H PARENT 21 6 6 11 11 22 11 23 26 35 82 54 52 65
REMARK Flexibility Score: inf
ROOT
ATOM      1  C   UNL     1       2.814  -2.996   1.399  1.00  0.00     0.023 C 
ENDROOT
BRANCH   1   2
ATOM      2  C   UNL     1       2.585  -2.246   0.085  1.00  0.00     0.116 C 
BRANCH   2   3
ATOM      3  N   UNL     1       2.121  -3.138  -0.978  1.00  0.00    -0.351 N 
ATOM      4  C   UNL     1       0.952  -3.422  -1.604  1.00  0.00     0.278 C 
ATOM      5  O   UNL     1       1.021  -4.323  -2.458  1.00  0.00    -0.268 OA
ATOM      6  H   UNL     1       2.861  -3.679  -1.339  1.00  0.00     0.163 HD
BRANCH   4   7
ATOM      7  C   UNL     1      -0.455  -2.800  -1.324  1.00  0.00     0.282 C 
BRANCH   7   8
ATOM      8  C   UNL     1      -0.481  -1.417  -0.713  1.00  0.00     0.175 C 
BRANCH   8   9
ATOM      9  C   UNL     1      -0.752  -0.976   0.717  1.00  0.00     0.230 C 
ATOM     10  N   UNL     1      -0.701  -1.594   1.909  1.00  0.00    -0.326 N 
ATOM     11  H   UNL     1      -0.902  -0.946   2.621  1.00  0.00     0.169 HD
ATOM     12  O   UNL     1      -1.056   0.232   0.830  1.00  0.00    -0.274 OA
BRANCH  10  13
ATOM     13  C   UNL     1      -0.456  -2.852   2.482  1.00  0.00     0.042 A 
ATOM     14  C   UNL     1       0.202  -6.605   4.575  1.00  0.00     0.046 C 
ATOM     15  C   UNL     1      -0.014  -5.311   3.850  1.00  0.00    -0.032 A 
ATOM     16  C   UNL     1      -0.393  -4.160   4.546  1.00  0.00     0.007 A 
ATOM     17  C   UNL     1       0.146  -5.213   2.470  1.00  0.00     0.046 A 
ATOM     18  C   UNL     1      -0.615  -2.951   3.869  1.00  0.00     0.026 A 
ATOM     19  C   UNL     1      -0.049  -3.992   1.817  1.00  0.00     0.047 A 
ATOM     20  Cl  UNL     1       0.613  -6.572   1.506  1.00  0.00    -0.084 Cl
ENDBRANCH  10  13
ENDBRANCH   8   9
ENDBRANCH   7   8
BRANCH   7  21
ATOM     21  N   UNL     1      -1.348  -3.851  -0.812  1.00  0.00    -0.332 N 
ATOM     22  H   UNL     1      -0.976  -4.147   0.090  1.00  0.00     0.347 HD
ATOM     23  H   UNL     1      -1.354  -4.551  -1.554  1.00  0.00     0.347 HD
BRANCH  21  24
ATOM     24  C   UNL     1      -2.755  -3.542  -0.612  1.00  0.00     0.299 C 
BRANCH  24  25
ATOM     25  C   UNL     1      -3.250  -4.196   0.657  1.00  0.00     0.024 A 
ATOM     26  C   UNL     1      -3.171  -5.579   0.862  1.00  0.00     0.013 A 
ATOM     27  C   UNL     1      -3.737  -3.432   1.716  1.00  0.00     0.120 A 
ATOM     28  C   UNL     1      -3.525  -6.121   2.096  1.00  0.00     0.021 A 
ATOM     29  N   UNL     1      -4.110  -3.932   2.919  1.00  0.00    -0.264 NA
ATOM     30  C   UNL     1      -3.974  -5.264   3.086  1.00  0.00     0.111 A 
ENDBRANCH  24  25
ENDBRANCH  21  24
ENDBRANCH   7  21
ENDBRANCH   4   7
ENDBRANCH   2   3
ENDBRANCH   1   2
BRANCH   1  31
ATOM     31  C   UNL     1       4.189  -2.876   2.033  1.00  0.00     0.023 C 
BRANCH  31  32
ATOM     32  C   UNL     1       4.581  -1.472   2.462  1.00  0.00     0.116 C 
BRANCH  32  33
ATOM     33  N   UNL     1       3.749  -0.891   3.511  1.00  0.00    -0.352 N 
ATOM     34  C   UNL     1       4.143  -0.146   4.606  1.00  0.00     0.251 C 
ATOM     35  H   UNL     1       2.781  -1.051   3.428  1.00  0.00     0.163 HD
ATOM     36  O   UNL     1       3.316   0.247   5.423  1.00  0.00    -0.269 OA
BRANCH  34  37
ATOM     37  C   UNL     1       5.587   0.112   4.817  1.00  0.00     0.039 A 
ATOM     38  C   UNL     1       6.158  -0.182   6.058  1.00  0.00     0.014 A 
ATOM     39  C   UNL     1       6.394   0.514   3.752  1.00  0.00     0.014 A 
ATOM     40  C   UNL     1       7.550  -0.203   6.188  1.00  0.00     0.010 A 
ATOM     41  C   UNL     1       7.772   0.377   3.852  1.00  0.00     0.010 A 
ATOM     42  C   UNL     1       8.370   0.003   5.066  1.00  0.00    -0.014 A 
BRANCH  42  43
ATOM     43  C   UNL     1       9.845  -0.188   5.117  1.00  0.00     0.031 A 
ATOM     44  C   UNL     1      10.762   0.942   4.722  1.00  0.00     0.074 A 
ATOM     45  C   UNL     1      10.361  -1.402   5.402  1.00  0.00     0.049 A 
ATOM     46  N   UNL     1      12.061   0.935   4.567  1.00  0.00    -0.248 NA
ATOM     47  C   UNL     1      10.130   2.237   4.418  1.00  0.00     0.031 C 
ATOM     48  C   UNL     1       9.589  -2.604   5.734  1.00  0.00     0.029 A 
ATOM     49  N   UNL     1      11.666  -1.832   5.449  1.00  0.00    -0.354 N 
ATOM     50  C   UNL     1      12.391   2.202   4.100  1.00  0.00     0.074 A 
ATOM     51  C   UNL     1      11.154   2.937   3.955  1.00  0.00     0.031 C 
ATOM     52  C   UNL     1      10.433  -3.619   5.986  1.00  0.00     0.029 A 
ATOM     53  C   UNL     1      11.803  -3.158   5.792  1.00  0.00     0.049 A 
ATOM     54  H   UNL     1      12.432  -1.245   5.255  1.00  0.00     0.167 HD
ATOM     55  C   UNL     1      13.614   2.720   3.838  1.00  0.00     0.031 A 
ATOM     56  C   UNL     1      12.907  -3.918   5.934  1.00  0.00     0.031 A 
ATOM     57  C   UNL     1      14.848   2.013   4.044  1.00  0.00     0.049 A 
ATOM     58  C   UNL     1      14.259  -3.303   5.693  1.00  0.00     0.074 A 
ATOM     59  C   UNL     1      16.142   2.484   3.905  1.00  0.00     0.029 A 
ATOM     60  N   UNL     1      14.943   0.690   4.447  1.00  0.00    -0.354 N 
ATOM     61  N   UNL     1      14.552  -2.079   5.325  1.00  0.00    -0.248 NA
ATOM     62  C   UNL     1      15.428  -4.170   5.894  1.00  0.00     0.031 C 
ATOM     63  C   UNL     1      17.021   1.434   4.193  1.00  0.00     0.029 A 
ATOM     64  C   UNL     1      16.273   0.324   4.550  1.00  0.00     0.049 A 
ATOM     65  H   UNL     1      14.177   0.100   4.632  1.00  0.00     0.167 HD
ATOM     66  C   UNL     1      15.940  -2.021   5.282  1.00  0.00     0.074 A 
ATOM     67  C   UNL     1      16.428  -3.328   5.669  1.00  0.00     0.031 C 
ATOM     68  C   UNL     1      16.740  -0.978   4.951  1.00  0.00     0.031 A 
BRANCH  55  69
ATOM     69  C   UNL     1      13.676   4.127   3.308  1.00  0.00    -0.014 A 
ATOM     70  C   UNL     1      13.369   5.226   4.130  1.00  0.00     0.010 A 
ATOM     71  C   UNL     1      14.077   4.355   1.980  1.00  0.00     0.010 A 
ATOM     72  C   UNL     1      13.417   6.526   3.620  1.00  0.00     0.020 A 
ATOM     73  C   UNL     1      14.153   5.656   1.473  1.00  0.00     0.020 A 
ATOM     74  C   UNL     1      13.805   6.732   2.293  1.00  0.00     0.054 A 
BRANCH  74  75
ATOM     75  S   UNL     1      13.881   8.430   1.661  1.00  0.00     0.124 S 
ATOM     76  O   UNL     1      12.467   8.738   1.461  1.00  0.00    -0.237 OA
ATOM     77  O   UNL     1      14.531   9.151   2.753  1.00  0.00    -0.237 OA
ATOM     78  O   UNL     1      14.672   8.310   0.440  1.00  0.00    -0.744 OA
ENDBRANCH  74  75
ENDBRANCH  55  69
BRANCH  56  79
ATOM     79  C   UNL     1      12.791  -5.341   6.357  1.00  0.00    -0.014 A 
ATOM     80  C   UNL     1      13.182  -5.727   7.652  1.00  0.00     0.010 A 
ATOM     81  C   UNL     1      12.305  -6.319   5.471  1.00  0.00     0.010 A 
ATOM     82  C   UNL     1      13.116  -7.067   8.044  1.00  0.00     0.020 A 
ATOM     83  C   UNL     1      12.214  -7.657   5.868  1.00  0.00     0.020 A 
ATOM     84  C   UNL     1      12.635  -8.024   7.148  1.00  0.00     0.054 A 
BRANCH  84  85
ATOM     85  S   UNL     1      12.525  -9.754   7.688  1.00  0.00     0.124 S 
ATOM     86  O   UNL     1      13.916 -10.186   7.604  1.00  0.00    -0.237 OA
ATOM     87  O   UNL     1      11.980  -9.632   9.038  1.00  0.00    -0.237 OA
ATOM     88  O   UNL     1      11.619 -10.357   6.712  1.00  0.00    -0.744 OA
ENDBRANCH  84  85
ENDBRANCH  56  79
BRANCH  68  89
ATOM     89  C   UNL     1      18.226  -1.190   5.035  1.00  0.00    -0.014 A 
ATOM     90  C   UNL     1      18.909  -1.941   4.063  1.00  0.00     0.010 A 
ATOM     91  C   UNL     1      18.954  -0.574   6.069  1.00  0.00     0.010 A 
ATOM     92  C   UNL     1      20.295  -2.094   4.138  1.00  0.00     0.020 A 
ATOM     93  C   UNL     1      20.343  -0.705   6.133  1.00  0.00     0.020 A 
ATOM     94  C   UNL     1      21.004  -1.476   5.174  1.00  0.00     0.054 A 
BRANCH  94  95
ATOM     95  S   UNL     1      22.809  -1.643   5.222  1.00  0.00     0.124 S 
ATOM     96  O   UNL     1      22.974  -2.997   5.743  1.00  0.00    -0.237 OA
ATOM     97  O   UNL     1      23.188  -1.458   3.823  1.00  0.00    -0.237 OA
ATOM     98  O   UNL     1      23.231  -0.573   6.122  1.00  0.00    -0.744 OA
ENDBRANCH  94  95
ENDBRANCH  68  89
ENDBRANCH  42  43
ENDBRANCH  34  37
ENDBRANCH  32  33
ENDBRANCH  31  32
ENDBRANCH   1  31
TORSDOF 20
