REMARK SMILES CC1(C)CCC[C@H]1NS(=O)(=O)c1ccc(O)c(C(=O)NCCCCNC(=O)c2ccc(-c3c4nc(c(-c5ccc(S(=O)(=O)[O-])cc5)c5ccc([nH]5)c(-c5ccc(S(=O)(=O)[O-])cc5)c5nc(c(-c6ccc(S(=O)(=O)[O-])cc6)c6ccc3[nH]6)C=C5)C=C4)cc2)c1
REMARK SMILES IDX 22 1 21 2 20 3 18 4 19 5 17 7 12 8 13 9 88 10 14 11 15 12
REMARK SMILES IDX 9 13 10 14 11 15 8 16 7 18 1 19 2 20 3 21 4 22 5 23 6 24
REMARK SMILES IDX 16 25 23 27 24 28 25 29 26 30 27 32 28 33 29 34 87 35 30 36
REMARK SMILES IDX 86 37 31 38 32 39 33 40 80 41 34 42 85 43 79 44 81 45 35 46
REMARK SMILES IDX 84 47 78 48 77 49 36 51 66 52 47 53 65 54 48 55 51 56 64 57
REMARK SMILES IDX 82 58 49 59 50 60 63 62 83 63 52 64 37 65 38 66 46 67 39 68
REMARK SMILES IDX 45 69 40 70 41 71 42 72 43 73 44 74 67 75 68 76 76 77 69 78
REMARK SMILES IDX 75 79 70 80 71 81 72 82 73 83 74 84 53 85 54 86 62 87 55 88
REMARK SMILES IDX 61 89 56 90 57 91 58 92 59 93 60 94
REMARK H PARENT 20 6 8 17 16 26 25 31 81 50 51 61
REMARK Flexibility Score: inf
ROOT
ATOM      1  C   UNL     1      -1.358   9.759  -2.002  1.00  0.00     0.023 C 
ENDROOT
BRANCH   1   2
ATOM      2  C   UNL     1      -0.453   9.615  -0.773  1.00  0.00     0.116 C 
BRANCH   2   3
ATOM      3  N   UNL     1      -1.229   9.140   0.350  1.00  0.00    -0.352 N 
ATOM      4  C   UNL     1      -1.559   7.882   0.775  1.00  0.00     0.255 C 
ATOM      5  O   UNL     1      -2.365   7.827   1.710  1.00  0.00    -0.269 OA
ATOM      6  H   UNL     1      -1.589   9.860   0.917  1.00  0.00     0.163 HD
BRANCH   4   7
ATOM      7  C   UNL     1      -0.965   6.598   0.276  1.00  0.00     0.082 A 
ATOM      8  C   UNL     1      -0.540   4.263   0.897  1.00  0.00     0.083 A 
ATOM      9  C   UNL     1       0.181   4.058  -0.271  1.00  0.00     0.025 A 
ATOM     10  C   UNL     1      -1.051   5.533   1.195  1.00  0.00     0.039 A 
ATOM     11  C   UNL     1       0.216   5.070  -1.222  1.00  0.00     0.048 A 
ATOM     12  C   UNL     1      -0.411   6.300  -0.976  1.00  0.00     0.128 A 
BRANCH   8  13
ATOM     13  S   UNL     1      -1.009   2.939   1.971  1.00  0.00     0.240 S 
ATOM     14  O   UNL     1      -2.416   2.684   1.743  1.00  0.00    -0.207 OA
ATOM     15  O   UNL     1      -0.492   3.250   3.281  1.00  0.00    -0.207 OA
BRANCH  13  16
ATOM     16  N   UNL     1      -0.146   1.584   1.487  1.00  0.00    -0.208 NA
ATOM     17  H   UNL     1       0.811   1.903   1.332  1.00  0.00     0.141 HD
BRANCH  16  18
ATOM     18  C   UNL     1      -0.499   0.779   0.307  1.00  0.00     0.075 C 
ATOM     19  C   UNL     1       1.904  -0.173   0.795  1.00  0.00     0.013 C 
ATOM     20  C   UNL     1       0.563  -0.344   0.062  1.00  0.00    -0.019 C 
ATOM     21  C   UNL     1       0.878  -0.442  -1.446  1.00  0.00     0.013 C 
ATOM     22  C   UNL     1      -0.152  -1.617   0.547  1.00  0.00     0.008 C 
ATOM     23  C   UNL     1      -1.599  -1.404   0.142  1.00  0.00     0.002 C 
ATOM     24  C   UNL     1      -1.847   0.059   0.472  1.00  0.00     0.020 C 
ENDBRANCH  16  18
ENDBRANCH  13  16
ENDBRANCH   8  13
BRANCH  12  25
ATOM     25  O   UNL     1      -0.518   7.135  -2.046  1.00  0.00    -0.507 OA
ATOM     26  H   UNL     1      -0.132   6.898  -2.866  1.00  0.00     0.293 HD
ENDBRANCH  12  25
ENDBRANCH   4   7
ENDBRANCH   2   3
ENDBRANCH   1   2
BRANCH   1  27
ATOM     27  C   UNL     1      -2.027  11.125  -2.142  1.00  0.00     0.023 C 
BRANCH  27  28
ATOM     28  C   UNL     1      -1.061  12.261  -2.453  1.00  0.00     0.116 C 
BRANCH  28  29
ATOM     29  N   UNL     1      -0.275  12.037  -3.657  1.00  0.00    -0.352 N 
ATOM     30  C   UNL     1       0.334  12.967  -4.462  1.00  0.00     0.251 C 
ATOM     31  H   UNL     1      -0.165  11.097  -3.930  1.00  0.00     0.163 HD
ATOM     32  O   UNL     1       0.896  12.620  -5.495  1.00  0.00    -0.269 OA
BRANCH  30  33
ATOM     33  C   UNL     1       0.248  14.394  -4.095  1.00  0.00     0.039 A 
ATOM     34  C   UNL     1      -0.200  15.303  -5.055  1.00  0.00     0.014 A 
ATOM     35  C   UNL     1       0.550  14.820  -2.798  1.00  0.00     0.014 A 
ATOM     36  C   UNL     1      -0.410  16.633  -4.694  1.00  0.00     0.010 A 
ATOM     37  C   UNL     1       0.273  16.129  -2.422  1.00  0.00     0.010 A 
ATOM     38  C   UNL     1      -0.209  17.046  -3.366  1.00  0.00    -0.014 A 
BRANCH  38  39
ATOM     39  C   UNL     1      -0.506  18.437  -2.952  1.00  0.00     0.031 A 
ATOM     40  C   UNL     1       0.606  19.348  -2.514  1.00  0.00     0.074 A 
ATOM     41  C   UNL     1      -1.786  18.858  -2.920  1.00  0.00     0.049 A 
ATOM     42  N   UNL     1       0.540  20.591  -2.114  1.00  0.00    -0.248 NA
ATOM     43  C   UNL     1       1.964  18.780  -2.499  1.00  0.00     0.031 C 
ATOM     44  C   UNL     1      -2.956  18.044  -3.259  1.00  0.00     0.029 A 
ATOM     45  N   UNL     1      -2.315  20.078  -2.586  1.00  0.00    -0.354 N 
ATOM     46  C   UNL     1       1.841  20.949  -1.783  1.00  0.00     0.074 A 
ATOM     47  C   UNL     1       2.668  19.779  -1.985  1.00  0.00     0.031 C 
ATOM     48  C   UNL     1      -4.063  18.798  -3.146  1.00  0.00     0.029 A 
ATOM     49  C   UNL     1      -3.683  20.136  -2.707  1.00  0.00     0.049 A 
ATOM     50  H   UNL     1      -1.768  20.840  -2.286  1.00  0.00     0.167 HD
ATOM     51  C   UNL     1       2.310  22.149  -1.369  1.00  0.00     0.031 A 
ATOM     52  C   UNL     1      -4.534  21.159  -2.501  1.00  0.00     0.031 A 
ATOM     53  C   UNL     1       1.490  23.316  -1.190  1.00  0.00     0.049 A 
ATOM     54  C   UNL     1      -3.985  22.495  -2.088  1.00  0.00     0.074 A 
ATOM     55  C   UNL     1       1.876  24.596  -0.832  1.00  0.00     0.029 A 
ATOM     56  N   UNL     1       0.114  23.345  -1.362  1.00  0.00    -0.354 N 
ATOM     57  N   UNL     1      -2.741  22.835  -1.850  1.00  0.00    -0.248 NA
ATOM     58  C   UNL     1      -4.952  23.590  -1.937  1.00  0.00     0.031 C 
ATOM     59  C   UNL     1       0.728  25.393  -0.761  1.00  0.00     0.029 A 
ATOM     60  C   UNL     1      -0.366  24.619  -1.111  1.00  0.00     0.049 A 
ATOM     61  H   UNL     1      -0.439  22.574  -1.624  1.00  0.00     0.167 HD
ATOM     62  C   UNL     1      -2.772  24.189  -1.541  1.00  0.00     0.074 A 
ATOM     63  C   UNL     1      -4.157  24.608  -1.636  1.00  0.00     0.031 C 
ATOM     64  C   UNL     1      -1.748  25.013  -1.210  1.00  0.00     0.031 A 
BRANCH  51  65
ATOM     65  C   UNL     1       3.784  22.251  -1.089  1.00  0.00    -0.014 A 
ATOM     66  C   UNL     1       4.720  22.242  -2.139  1.00  0.00     0.010 A 
ATOM     67  C   UNL     1       4.241  22.366   0.236  1.00  0.00     0.010 A 
ATOM     68  C   UNL     1       6.089  22.298  -1.868  1.00  0.00     0.020 A 
ATOM     69  C   UNL     1       5.610  22.446   0.510  1.00  0.00     0.020 A 
ATOM     70  C   UNL     1       6.526  22.391  -0.543  1.00  0.00     0.054 A 
BRANCH  70  71
ATOM     71  S   UNL     1       8.308  22.468  -0.214  1.00  0.00     0.124 S 
ATOM     72  O   UNL     1       8.701  21.069  -0.369  1.00  0.00    -0.237 OA
ATOM     73  O   UNL     1       8.791  23.374  -1.253  1.00  0.00    -0.237 OA
ATOM     74  O   UNL     1       8.385  22.991   1.148  1.00  0.00    -0.744 OA
ENDBRANCH  70  71
ENDBRANCH  51  65
BRANCH  52  75
ATOM     75  C   UNL     1      -5.990  20.967  -2.730  1.00  0.00    -0.014 A 
ATOM     76  C   UNL     1      -6.601  21.497  -3.880  1.00  0.00     0.010 A 
ATOM     77  C   UNL     1      -6.766  20.233  -1.816  1.00  0.00     0.010 A 
ATOM     78  C   UNL     1      -7.967  21.309  -4.106  1.00  0.00     0.020 A 
ATOM     79  C   UNL     1      -8.129  20.026  -2.049  1.00  0.00     0.020 A 
ATOM     80  C   UNL     1      -8.723  20.575  -3.188  1.00  0.00     0.054 A 
BRANCH  80  81
ATOM     81  S   UNL     1     -10.483  20.290  -3.528  1.00  0.00     0.124 S 
ATOM     82  O   UNL     1     -11.078  21.562  -3.135  1.00  0.00    -0.237 OA
ATOM     83  O   UNL     1     -10.489  20.004  -4.961  1.00  0.00    -0.237 OA
ATOM     84  O   UNL     1     -10.813  19.151  -2.674  1.00  0.00    -0.744 OA
ENDBRANCH  80  81
ENDBRANCH  52  75
BRANCH  64  85
ATOM     85  C   UNL     1      -2.085  26.454  -0.952  1.00  0.00    -0.014 A 
ATOM     86  C   UNL     1      -2.709  26.849   0.244  1.00  0.00     0.010 A 
ATOM     87  C   UNL     1      -1.737  27.429  -1.904  1.00  0.00     0.010 A 
ATOM     88  C   UNL     1      -3.008  28.195   0.471  1.00  0.00     0.020 A 
ATOM     89  C   UNL     1      -2.016  28.778  -1.671  1.00  0.00     0.020 A 
ATOM     90  C   UNL     1      -2.664  29.150  -0.491  1.00  0.00     0.054 A 
BRANCH  90  91
ATOM     91  S   UNL     1      -3.029  30.896  -0.164  1.00  0.00     0.124 S 
ATOM     92  O   UNL     1      -4.452  30.973  -0.479  1.00  0.00    -0.237 OA
ATOM     93  O   UNL     1      -2.690  31.040   1.250  1.00  0.00    -0.237 OA
ATOM     94  O   UNL     1      -2.146  31.610  -1.083  1.00  0.00    -0.744 OA
ENDBRANCH  90  91
ENDBRANCH  64  85
ENDBRANCH  38  39
ENDBRANCH  30  33
ENDBRANCH  28  29
ENDBRANCH  27  28
ENDBRANCH   1  27
TORSDOF 18
