REMARK SMILES O=C(NCCCCNC(=O)[C@]1(CCCCO)CCc2ccccc2C1)c1ccc(-c2c3nc(c(-c4ccc(S(=O)(=O)[O-])cc4)c4ccc([nH]4)c(-c4ccc(S(=O)(=O)[O-])cc4)c4nc(c(-c5ccc(S(=O)(=O)[O-])cc5)c5ccc2[nH]5)C=C4)C=C3)cc1
REMARK SMILES IDX 6 1 5 2 4 3 3 4 1 5 2 6 26 8 27 9 85 10 28 11 84 12 29 13
REMARK SMILES IDX 30 14 31 15 78 16 32 17 83 18 77 19 79 20 33 21 82 22 76 23
REMARK SMILES IDX 75 24 34 26 64 27 45 28 63 29 46 30 49 31 62 32 80 33 47 34
REMARK SMILES IDX 48 35 61 37 81 38 50 39 35 40 36 41 44 42 37 43 43 44 38 45
REMARK SMILES IDX 39 46 40 47 41 48 42 49 65 50 66 51 74 52 67 53 73 54 68 55
REMARK SMILES IDX 69 56 70 57 71 58 72 59 51 60 52 61 60 62 53 63 59 64 54 65
REMARK SMILES IDX 55 66 56 67 57 68 58 69 7 70 8 71 9 72 10 74 11 75 17 76
REMARK SMILES IDX 25 77 18 78 24 79 19 80 23 81 20 82 22 83 21 84 12 85 13 86
REMARK SMILES IDX 14 87 15 88 16 89
REMARK H PARENT 3 7 79 25 49 36 8 73 16 90
REMARK Flexibility Score: inf
ROOT
ATOM      1  C   UNL     1       3.255  -1.055   3.791  1.00  0.00     0.023 C 
ENDROOT
BRANCH   1   2
ATOM      2  C   UNL     1       3.583   0.181   2.923  1.00  0.00     0.023 C 
BRANCH   2   3
ATOM      3  C   UNL     1       3.572   0.018   1.404  1.00  0.00     0.116 C 
BRANCH   3   4
ATOM      4  N   UNL     1       2.250  -0.250   0.884  1.00  0.00    -0.352 N 
ATOM      5  O   UNL     1       0.580  -0.183  -0.617  1.00  0.00    -0.269 OA
ATOM      6  C   UNL     1       1.763  -0.012  -0.383  1.00  0.00     0.251 C 
ATOM      7  H   UNL     1       1.615  -0.655   1.518  1.00  0.00     0.163 HD
BRANCH   6   8
ATOM      8  C   UNL     1       2.671   0.484  -1.446  1.00  0.00     0.039 A 
ATOM      9  C   UNL     1       3.878  -0.158  -1.737  1.00  0.00     0.014 A 
ATOM     10  C   UNL     1       2.254   1.574  -2.218  1.00  0.00     0.014 A 
ATOM     11  C   UNL     1       4.689   0.318  -2.770  1.00  0.00     0.010 A 
ATOM     12  C   UNL     1       3.046   2.021  -3.279  1.00  0.00     0.010 A 
ATOM     13  C   UNL     1       4.268   1.394  -3.568  1.00  0.00    -0.014 A 
BRANCH  13  14
ATOM     14  C   UNL     1       5.033   1.788  -4.781  1.00  0.00     0.031 A 
ATOM     15  C   UNL     1       5.685   3.137  -4.886  1.00  0.00     0.074 A 
ATOM     16  C   UNL     1       5.063   0.939  -5.827  1.00  0.00     0.049 A 
ATOM     17  N   UNL     1       6.296   3.680  -5.908  1.00  0.00    -0.248 NA
ATOM     18  C   UNL     1       5.632   3.993  -3.692  1.00  0.00     0.031 C 
ATOM     19  C   UNL     1       4.444  -0.389  -5.850  1.00  0.00     0.029 A 
ATOM     20  N   UNL     1       5.612   1.069  -7.078  1.00  0.00    -0.354 N 
ATOM     21  C   UNL     1       6.680   4.950  -5.493  1.00  0.00     0.074 A 
ATOM     22  C   UNL     1       6.215   5.102  -4.130  1.00  0.00     0.031 C 
ATOM     23  C   UNL     1       4.647  -0.949  -7.050  1.00  0.00     0.029 A 
ATOM     24  C   UNL     1       5.356  -0.001  -7.902  1.00  0.00     0.049 A 
ATOM     25  H   UNL     1       6.139   1.853  -7.358  1.00  0.00     0.167 HD
ATOM     26  C   UNL     1       7.353   5.901  -6.188  1.00  0.00     0.031 A 
ATOM     27  C   UNL     1       5.621  -0.191  -9.209  1.00  0.00     0.031 A 
ATOM     28  C   UNL     1       7.790   5.742  -7.553  1.00  0.00     0.049 A 
ATOM     29  C   UNL     1       6.341   0.884  -9.969  1.00  0.00     0.074 A 
ATOM     30  C   UNL     1       8.517   6.624  -8.333  1.00  0.00     0.029 A 
ATOM     31  N   UNL     1       7.524   4.635  -8.348  1.00  0.00    -0.354 N 
ATOM     32  N   UNL     1       6.748   2.056  -9.543  1.00  0.00    -0.248 NA
ATOM     33  C   UNL     1       6.643   0.614 -11.380  1.00  0.00     0.031 C 
ATOM     34  C   UNL     1       8.636   6.078  -9.616  1.00  0.00     0.029 A 
ATOM     35  C   UNL     1       8.043   4.825  -9.618  1.00  0.00     0.049 A 
ATOM     36  H   UNL     1       7.037   3.831  -8.052  1.00  0.00     0.167 HD
ATOM     37  C   UNL     1       7.373   2.657 -10.628  1.00  0.00     0.074 A 
ATOM     38  C   UNL     1       7.300   1.713 -11.726  1.00  0.00     0.031 C 
ATOM     39  C   UNL     1       7.956   3.879 -10.704  1.00  0.00     0.031 A 
BRANCH  26  40
ATOM     40  C   UNL     1       7.616   7.216  -5.496  1.00  0.00    -0.014 A 
ATOM     41  C   UNL     1       8.511   7.312  -4.415  1.00  0.00     0.010 A 
ATOM     42  C   UNL     1       6.969   8.382  -5.948  1.00  0.00     0.010 A 
ATOM     43  C   UNL     1       8.703   8.533  -3.759  1.00  0.00     0.020 A 
ATOM     44  C   UNL     1       7.181   9.611  -5.315  1.00  0.00     0.020 A 
ATOM     45  C   UNL     1       8.027   9.672  -4.207  1.00  0.00     0.054 A 
BRANCH  45  46
ATOM     46  S   UNL     1       8.275  11.237  -3.322  1.00  0.00     0.124 S 
ATOM     47  O   UNL     1       7.535  11.002  -2.085  1.00  0.00    -0.237 OA
ATOM     48  O   UNL     1       9.728  11.300  -3.181  1.00  0.00    -0.237 OA
ATOM     49  O   UNL     1       7.695  12.238  -4.214  1.00  0.00    -0.744 OA
ENDBRANCH  45  46
ENDBRANCH  26  40
BRANCH  27  50
ATOM     50  C   UNL     1       5.169  -1.448  -9.865  1.00  0.00    -0.014 A 
ATOM     51  C   UNL     1       6.092  -2.446 -10.219  1.00  0.00     0.010 A 
ATOM     52  C   UNL     1       3.795  -1.685 -10.061  1.00  0.00     0.010 A 
ATOM     53  C   UNL     1       5.648  -3.660 -10.752  1.00  0.00     0.020 A 
ATOM     54  C   UNL     1       3.346  -2.908 -10.566  1.00  0.00     0.020 A 
ATOM     55  C   UNL     1       4.278  -3.888 -10.912  1.00  0.00     0.054 A 
BRANCH  55  56
ATOM     56  S   UNL     1       3.724  -5.507 -11.516  1.00  0.00     0.124 S 
ATOM     57  O   UNL     1       4.095  -5.449 -12.926  1.00  0.00    -0.237 OA
ATOM     58  O   UNL     1       4.500  -6.432 -10.694  1.00  0.00    -0.237 OA
ATOM     59  O   UNL     1       2.288  -5.501 -11.245  1.00  0.00    -0.744 OA
ENDBRANCH  55  56
ENDBRANCH  27  50
BRANCH  39  60
ATOM     60  C   UNL     1       8.592   4.262 -12.014  1.00  0.00    -0.014 A 
ATOM     61  C   UNL     1       7.813   4.604 -13.133  1.00  0.00     0.010 A 
ATOM     62  C   UNL     1       9.994   4.352 -12.100  1.00  0.00     0.010 A 
ATOM     63  C   UNL     1       8.426   5.014 -14.320  1.00  0.00     0.020 A 
ATOM     64  C   UNL     1      10.609   4.788 -13.276  1.00  0.00     0.020 A 
ATOM     65  C   UNL     1       9.820   5.109 -14.382  1.00  0.00     0.054 A 
BRANCH  65  66
ATOM     66  S   UNL     1      10.587   5.713 -15.911  1.00  0.00     0.124 S 
ATOM     67  O   UNL     1      10.404   4.578 -16.812  1.00  0.00    -0.237 OA
ATOM     68  O   UNL     1       9.790   6.897 -16.222  1.00  0.00    -0.237 OA
ATOM     69  O   UNL     1      11.969   5.983 -15.523  1.00  0.00    -0.744 OA
ENDBRANCH  65  66
ENDBRANCH  39  60
ENDBRANCH  13  14
ENDBRANCH   6   8
ENDBRANCH   3   4
ENDBRANCH   2   3
ENDBRANCH   1   2
BRANCH   1  70
ATOM     70  C   UNL     1       4.108  -2.371   3.882  1.00  0.00     0.116 C 
BRANCH  70  71
ATOM     71  N   UNL     1       5.579  -2.396   4.076  1.00  0.00    -0.356 N 
ATOM     72  C   UNL     1       6.540  -2.408   5.069  1.00  0.00     0.226 C 
ATOM     73  H   UNL     1       6.021  -2.407   3.197  1.00  0.00     0.163 HD
ATOM     74  O   UNL     1       7.713  -2.600   4.735  1.00  0.00    -0.274 OA
BRANCH  72  75
ATOM     75  C   UNL     1       6.209  -2.251   6.550  1.00  0.00     0.054 C 
ATOM     76  C   UNL     1       7.329  -1.771   7.525  1.00  0.00     0.022 C 
ATOM     77  C   UNL     1       5.932  -3.735   6.942  1.00  0.00     0.052 C 
ATOM     78  C   UNL     1       6.870  -1.854   9.010  1.00  0.00     0.037 C 
ATOM     79  C   UNL     1       6.059  -4.147   8.390  1.00  0.00    -0.044 A 
ATOM     80  C   UNL     1       6.395  -3.231   9.387  1.00  0.00    -0.045 A 
ATOM     81  C   UNL     1       5.915  -5.503   8.731  1.00  0.00     0.004 A 
ATOM     82  C   UNL     1       6.332  -3.629  10.733  1.00  0.00     0.004 A 
ATOM     83  C   UNL     1       5.950  -5.913  10.063  1.00  0.00     0.000 A 
ATOM     84  C   UNL     1       6.098  -4.965  11.069  1.00  0.00     0.000 A 
BRANCH  75  85
ATOM     85  C   UNL     1       5.139  -1.161   6.574  1.00  0.00     0.017 C 
BRANCH  85  86
ATOM     86  C   UNL     1       5.517   0.202   5.857  1.00  0.00     0.003 C 
BRANCH  86  87
ATOM     87  C   UNL     1       6.763   0.553   4.962  1.00  0.00     0.028 C 
BRANCH  87  88
ATOM     88  C   UNL     1       7.258   0.210   3.514  1.00  0.00     0.156 C 
BRANCH  88  89
ATOM     89  O   UNL     1       6.683  -0.771   2.684  1.00  0.00    -0.396 OA
ATOM     90  H   UNL     1       6.867  -1.651   3.049  1.00  0.00     0.210 HD
ENDBRANCH  88  89
ENDBRANCH  87  88
ENDBRANCH  86  87
ENDBRANCH  85  86
ENDBRANCH  75  85
ENDBRANCH  72  75
ENDBRANCH  70  71
ENDBRANCH   1  70
TORSDOF 19
