REMARK SMILES CC(C)c1nc(C(=O)NCCCCNC(=O)c2ccc(-c3c4nc(c(-c5ccc(S(=O)(=O)[O-])cc5)c5ccc([nH]5)c(-c5ccc(S(=O)(=O)[O-])cc5)c5nc(c(-c6ccc(S(=O)(=O)[O-])cc6)c6ccc3[nH]6)C=C5)C=C4)cc2)nn1-c1ccccc1F
REMARK SMILES IDX 12 1 11 2 10 3 9 4 7 5 8 6 6 8 4 9 5 10 78 11 77 12 2 13
REMARK SMILES IDX 1 14 3 15 79 16 80 17 84 18 81 19 83 20 85 21 82 22 13 23
REMARK SMILES IDX 14 24 15 25 16 27 17 28 18 29 76 30 19 31 75 32 20 33 21 34
REMARK SMILES IDX 22 35 69 36 23 37 74 38 68 39 70 40 24 41 73 42 67 43 66 44
REMARK SMILES IDX 25 46 55 47 36 48 54 49 37 50 40 51 53 52 71 53 38 54 39 55
REMARK SMILES IDX 52 57 72 58 41 59 26 60 27 61 35 62 28 63 34 64 29 65 30 66
REMARK SMILES IDX 31 67 32 68 33 69 56 70 57 71 65 72 58 73 64 74 59 75 60 76
REMARK SMILES IDX 61 77 62 78 63 79 42 80 43 81 51 82 44 83 50 84 45 85 46 86
REMARK SMILES IDX 47 87 48 88 49 89
REMARK H PARENT 9 7 14 26 70 45 40 56
REMARK Flexibility Score: inf
ROOT
ATOM      1  C   UNL     1      -7.925   2.812  -1.043  1.00  0.00     0.023 C 
ENDROOT
BRANCH   1   2
ATOM      2  C   UNL     1      -6.439   3.110  -0.804  1.00  0.00     0.023 C 
BRANCH   2   3
ATOM      3  C   UNL     1      -5.851   2.564   0.501  1.00  0.00     0.116 C 
BRANCH   3   4
ATOM      4  N   UNL     1      -5.645   1.124   0.464  1.00  0.00    -0.349 N 
ATOM      5  C   UNL     1      -4.477   0.374   0.436  1.00  0.00     0.290 C 
ATOM      6  O   UNL     1      -4.603  -0.844   0.285  1.00  0.00    -0.266 OA
ATOM      7  H   UNL     1      -6.473   0.592   0.459  1.00  0.00     0.163 HD
BRANCH   5   8
ATOM      8  C   UNL     1      -3.148   1.022   0.544  1.00  0.00     0.239 A 
ATOM      9  C   UNL     1      -1.036   1.350   0.337  1.00  0.00     0.136 A 
ATOM     10  N   UNL     1      -1.970   0.440   0.105  1.00  0.00    -0.207 NA
ATOM     11  N   UNL     1      -1.681   2.509   0.740  1.00  0.00    -0.214 N 
ATOM     12  N   UNL     1      -2.936   2.211   1.130  1.00  0.00    -0.140 NA
BRANCH   9  13
ATOM     13  C   UNL     1       0.441   1.056   0.508  1.00  0.00     0.051 C 
ATOM     14  C   UNL     1       0.785  -0.350  -0.001  1.00  0.00     0.016 C 
ATOM     15  C   UNL     1       1.412   2.045  -0.126  1.00  0.00     0.016 C 
ENDBRANCH   9  13
BRANCH  11  16
ATOM     16  C   UNL     1      -1.313   3.863   0.683  1.00  0.00     0.102 A 
ATOM     17  C   UNL     1      -1.690   4.724   1.721  1.00  0.00     0.031 A 
ATOM     18  C   UNL     1      -0.714   4.382  -0.462  1.00  0.00     0.148 A 
ATOM     19  C   UNL     1      -1.364   6.079   1.646  1.00  0.00     0.002 A 
ATOM     20  C   UNL     1      -0.394   5.734  -0.541  1.00  0.00     0.041 A 
ATOM     21  F   UNL     1      -0.506   3.617  -1.542  1.00  0.00    -0.205 F 
ATOM     22  C   UNL     1      -0.704   6.581   0.522  1.00  0.00     0.003 A 
ENDBRANCH  11  16
ENDBRANCH   5   8
ENDBRANCH   3   4
ENDBRANCH   2   3
ENDBRANCH   1   2
BRANCH   1  23
ATOM     23  C   UNL     1      -8.874   3.405  -0.004  1.00  0.00     0.116 C 
BRANCH  23  24
ATOM     24  N   UNL     1      -8.850   4.864   0.028  1.00  0.00    -0.352 N 
ATOM     25  C   UNL     1      -9.555   5.710   0.864  1.00  0.00     0.251 C 
ATOM     26  H   UNL     1      -8.259   5.300  -0.628  1.00  0.00     0.163 HD
ATOM     27  O   UNL     1      -9.740   6.877   0.553  1.00  0.00    -0.269 OA
BRANCH  25  28
ATOM     28  C   UNL     1     -10.088   5.184   2.138  1.00  0.00     0.039 A 
ATOM     29  C   UNL     1     -11.381   5.514   2.557  1.00  0.00     0.014 A 
ATOM     30  C   UNL     1      -9.286   4.346   2.910  1.00  0.00     0.014 A 
ATOM     31  C   UNL     1     -11.898   4.916   3.706  1.00  0.00     0.010 A 
ATOM     32  C   UNL     1      -9.827   3.685   3.993  1.00  0.00     0.010 A 
ATOM     33  C   UNL     1     -11.128   3.975   4.407  1.00  0.00    -0.014 A 
BRANCH  33  34
ATOM     34  C   UNL     1     -11.751   3.135   5.437  1.00  0.00     0.031 A 
ATOM     35  C   UNL     1     -12.933   2.359   4.953  1.00  0.00     0.074 A 
ATOM     36  C   UNL     1     -11.163   2.853   6.622  1.00  0.00     0.049 A 
ATOM     37  N   UNL     1     -14.156   2.420   5.365  1.00  0.00    -0.248 NA
ATOM     38  C   UNL     1     -12.752   1.506   3.762  1.00  0.00     0.031 C 
ATOM     39  C   UNL     1      -9.842   3.302   7.078  1.00  0.00     0.029 A 
ATOM     40  N   UNL     1     -11.539   1.986   7.609  1.00  0.00    -0.354 N 
ATOM     41  C   UNL     1     -14.845   1.438   4.654  1.00  0.00     0.074 A 
ATOM     42  C   UNL     1     -13.994   1.071   3.552  1.00  0.00     0.031 C 
ATOM     43  C   UNL     1      -9.422   2.516   8.092  1.00  0.00     0.029 A 
ATOM     44  C   UNL     1     -10.499   1.616   8.463  1.00  0.00     0.049 A 
ATOM     45  H   UNL     1     -12.460   1.652   7.708  1.00  0.00     0.167 HD
ATOM     46  C   UNL     1     -15.918   0.788   5.189  1.00  0.00     0.031 A 
ATOM     47  C   UNL     1     -10.493   0.611   9.377  1.00  0.00     0.031 A 
ATOM     48  C   UNL     1     -16.438   1.486   6.337  1.00  0.00     0.049 A 
ATOM     49  C   UNL     1     -11.902   0.257   9.652  1.00  0.00     0.074 A 
ATOM     50  C   UNL     1     -16.936   2.750   6.578  1.00  0.00     0.029 A 
ATOM     51  N   UNL     1     -16.125   0.952   7.564  1.00  0.00    -0.354 N 
ATOM     52  N   UNL     1     -12.740   1.048  10.258  1.00  0.00    -0.248 NA
ATOM     53  C   UNL     1     -12.504  -0.831   8.899  1.00  0.00     0.031 C 
ATOM     54  C   UNL     1     -16.490   3.079   7.891  1.00  0.00     0.029 A 
ATOM     55  C   UNL     1     -15.811   1.976   8.413  1.00  0.00     0.049 A 
ATOM     56  H   UNL     1     -16.128  -0.005   7.792  1.00  0.00     0.167 HD
ATOM     57  C   UNL     1     -13.947   0.843   9.608  1.00  0.00     0.074 A 
ATOM     58  C   UNL     1     -13.770  -0.410   8.877  1.00  0.00     0.031 C 
ATOM     59  C   UNL     1     -14.860   1.853   9.498  1.00  0.00     0.031 A 
BRANCH  46  60
ATOM     60  C   UNL     1     -16.186  -0.692   4.978  1.00  0.00    -0.014 A 
ATOM     61  C   UNL     1     -17.294  -1.279   5.629  1.00  0.00     0.010 A 
ATOM     62  C   UNL     1     -15.237  -1.579   4.429  1.00  0.00     0.010 A 
ATOM     63  C   UNL     1     -17.388  -2.667   5.807  1.00  0.00     0.020 A 
ATOM     64  C   UNL     1     -15.346  -2.965   4.557  1.00  0.00     0.020 A 
ATOM     65  C   UNL     1     -16.402  -3.499   5.280  1.00  0.00     0.054 A 
BRANCH  65  66
ATOM     66  S   UNL     1     -16.473  -5.278   5.598  1.00  0.00     0.124 S 
ATOM     67  O   UNL     1     -16.235  -5.334   7.036  1.00  0.00    -0.237 OA
ATOM     68  O   UNL     1     -17.826  -5.614   5.163  1.00  0.00    -0.237 OA
ATOM     69  O   UNL     1     -15.403  -5.816   4.761  1.00  0.00    -0.744 OA
ENDBRANCH  65  66
ENDBRANCH  46  60
BRANCH  47  70
ATOM     70  C   UNL     1      -9.363  -0.236   9.843  1.00  0.00    -0.014 A 
ATOM     71  C   UNL     1      -9.504  -1.073  10.968  1.00  0.00     0.010 A 
ATOM     72  C   UNL     1      -8.241  -0.444   9.015  1.00  0.00     0.010 A 
ATOM     73  C   UNL     1      -8.602  -2.124  11.212  1.00  0.00     0.020 A 
ATOM     74  C   UNL     1      -7.331  -1.482   9.258  1.00  0.00     0.020 A 
ATOM     75  C   UNL     1      -7.533  -2.336  10.339  1.00  0.00     0.054 A 
BRANCH  75  76
ATOM     76  S   UNL     1      -6.488  -3.811  10.544  1.00  0.00     0.124 S 
ATOM     77  O   UNL     1      -5.738  -3.496  11.756  1.00  0.00    -0.237 OA
ATOM     78  O   UNL     1      -7.471  -4.883  10.669  1.00  0.00    -0.237 OA
ATOM     79  O   UNL     1      -5.695  -3.843   9.316  1.00  0.00    -0.744 OA
ENDBRANCH  75  76
ENDBRANCH  47  70
BRANCH  59  80
ATOM     80  C   UNL     1     -14.758   3.025  10.444  1.00  0.00    -0.014 A 
ATOM     81  C   UNL     1     -13.628   3.854  10.580  1.00  0.00     0.010 A 
ATOM     82  C   UNL     1     -15.921   3.356  11.163  1.00  0.00     0.010 A 
ATOM     83  C   UNL     1     -13.651   4.954  11.451  1.00  0.00     0.020 A 
ATOM     84  C   UNL     1     -15.959   4.461  12.011  1.00  0.00     0.020 A 
ATOM     85  C   UNL     1     -14.817   5.246  12.166  1.00  0.00     0.054 A 
BRANCH  85  86
ATOM     86  S   UNL     1     -14.848   6.668  13.292  1.00  0.00     0.124 S 
ATOM     87  O   UNL     1     -13.924   6.258  14.346  1.00  0.00    -0.237 OA
ATOM     88  O   UNL     1     -14.388   7.764  12.443  1.00  0.00    -0.237 OA
ATOM     89  O   UNL     1     -16.249   6.759  13.701  1.00  0.00    -0.744 OA
ENDBRANCH  85  86
ENDBRANCH  59  80
ENDBRANCH  33  34
ENDBRANCH  25  28
ENDBRANCH  23  24
ENDBRANCH   1  23
TORSDOF 16
