REMARK SMILES Cc1nc(-c2ccc3c(c2)CCN3S(=O)(=O)c2ccc(F)c(C(=O)NCCCCNC(=O)c3ccc(-c4c5nc(c(-c6ccc(S(=O)(=O)[O-])cc6)c6ccc([nH]6)c(-c6ccc(S(=O)(=O)[O-])cc6)c6nc(c(-c7ccc(S(=O)(=O)[O-])cc7)c7ccc4[nH]7)C=C6)C=C5)cc3)c2)cs1
REMARK SMILES IDX 27 1 26 2 25 3 23 4 24 5 22 7 17 8 18 9 93 10 19 11 20 12
REMARK SMILES IDX 21 13 14 14 15 15 16 16 13 17 5 18 6 19 10 20 7 21 9 22 8 23
REMARK SMILES IDX 11 24 12 25 4 26 1 27 2 28 3 29 95 30 94 31 28 32 29 33
REMARK SMILES IDX 30 34 31 35 32 37 33 38 34 39 92 40 35 41 91 42 36 43 37 44
REMARK SMILES IDX 38 45 85 46 39 47 90 48 84 49 86 50 40 51 89 52 83 53 82 54
REMARK SMILES IDX 41 56 71 57 52 58 70 59 53 60 56 61 69 62 87 63 54 64 55 65
REMARK SMILES IDX 68 67 88 68 57 69 42 70 43 71 51 72 44 73 50 74 45 75 46 76
REMARK SMILES IDX 47 77 48 78 49 79 72 80 73 81 81 82 74 83 80 84 75 85 76 86
REMARK SMILES IDX 77 87 78 88 79 89 58 90 59 91 67 92 60 93 66 94 61 95 62 96
REMARK SMILES IDX 63 97 64 98 65 99
REMARK H PARENT 25 6 30 36 86 55 56 66
REMARK Flexibility Score: inf
ROOT
ATOM      1  C   UNL     1       0.068  -8.726  -7.275  1.00  0.00     0.023 C 
ENDROOT
BRANCH   1   2
ATOM      2  C   UNL     1       0.033  -7.952  -5.967  1.00  0.00     0.116 C 
BRANCH   2   3
ATOM      3  N   UNL     1       0.153  -8.753  -4.762  1.00  0.00    -0.352 N 
ATOM      4  C   UNL     1       0.918  -8.585  -3.627  1.00  0.00     0.254 C 
ATOM      5  O   UNL     1       0.766  -9.392  -2.708  1.00  0.00    -0.269 OA
ATOM      6  H   UNL     1      -0.412  -9.559  -4.753  1.00  0.00     0.163 HD
BRANCH   4   7
ATOM      7  C   UNL     1       1.971  -7.541  -3.478  1.00  0.00     0.076 A 
ATOM      8  C   UNL     1       4.028  -6.821  -2.410  1.00  0.00     0.089 A 
ATOM      9  C   UNL     1       4.131  -5.742  -3.295  1.00  0.00     0.025 A 
ATOM     10  C   UNL     1       3.013  -7.777  -2.557  1.00  0.00     0.039 A 
ATOM     11  C   UNL     1       3.065  -5.465  -4.135  1.00  0.00     0.041 A 
ATOM     12  C   UNL     1       1.956  -6.308  -4.134  1.00  0.00     0.136 A 
ATOM     13  F   UNL     1       0.836  -5.814  -4.679  1.00  0.00    -0.206 F 
BRANCH   8  14
ATOM     14  S   UNL     1       5.145  -6.845  -1.033  1.00  0.00     0.264 S 
ATOM     15  O   UNL     1       6.345  -6.160  -1.474  1.00  0.00    -0.201 OA
ATOM     16  O   UNL     1       5.236  -8.209  -0.549  1.00  0.00    -0.201 OA
BRANCH  14  17
ATOM     17  N   UNL     1       4.425  -5.912   0.220  1.00  0.00    -0.266 N 
ATOM     18  C   UNL     1       2.086  -2.387   0.075  1.00  0.00     0.001 A 
ATOM     19  C   UNL     1       1.759  -3.431  -0.802  1.00  0.00     0.012 A 
ATOM     20  C   UNL     1       3.154  -2.558   0.967  1.00  0.00     0.016 A 
ATOM     21  C   UNL     1       2.493  -4.621  -0.810  1.00  0.00     0.028 A 
ATOM     22  C   UNL     1       3.887  -3.747   0.918  1.00  0.00    -0.021 A 
ATOM     23  C   UNL     1       3.616  -4.746  -0.015  1.00  0.00     0.055 A 
ATOM     24  C   UNL     1       4.885  -4.225   1.925  1.00  0.00     0.060 C 
ATOM     25  C   UNL     1       5.438  -5.496   1.262  1.00  0.00     0.140 C 
BRANCH  18  26
ATOM     26  C   UNL     1       1.223  -1.216   0.107  1.00  0.00     0.081 A 
ATOM     27  C   UNL     1      -2.209   0.026  -0.009  1.00  0.00     0.079 C 
ATOM     28  C   UNL     1      -0.736  -0.181   0.048  1.00  0.00     0.090 A 
ATOM     29  N   UNL     1      -0.152  -1.358   0.008  1.00  0.00    -0.242 NA
ATOM     30  S   UNL     1       0.330   1.163   0.168  1.00  0.00    -0.127 S 
ATOM     31  C   UNL     1       1.669   0.086   0.190  1.00  0.00     0.095 A 
ENDBRANCH  18  26
ENDBRANCH  14  17
ENDBRANCH   8  14
ENDBRANCH   4   7
ENDBRANCH   2   3
ENDBRANCH   1   2
BRANCH   1  32
ATOM     32  C   UNL     1      -1.119  -9.626  -7.572  1.00  0.00     0.023 C 
BRANCH  32  33
ATOM     33  C   UNL     1      -2.494  -8.984  -7.439  1.00  0.00     0.116 C 
BRANCH  33  34
ATOM     34  N   UNL     1      -2.670  -7.782  -8.246  1.00  0.00    -0.352 N 
ATOM     35  C   UNL     1      -3.660  -7.478  -9.153  1.00  0.00     0.251 C 
ATOM     36  H   UNL     1      -1.982  -7.089  -8.125  1.00  0.00     0.163 HD
ATOM     37  O   UNL     1      -3.599  -6.443  -9.811  1.00  0.00    -0.269 OA
BRANCH  35  38
ATOM     38  C   UNL     1      -4.775  -8.427  -9.358  1.00  0.00     0.039 A 
ATOM     39  C   UNL     1      -5.117  -8.804 -10.659  1.00  0.00     0.014 A 
ATOM     40  C   UNL     1      -5.436  -8.990  -8.265  1.00  0.00     0.014 A 
ATOM     41  C   UNL     1      -6.058  -9.818 -10.857  1.00  0.00     0.010 A 
ATOM     42  C   UNL     1      -6.296 -10.064  -8.461  1.00  0.00     0.010 A 
ATOM     43  C   UNL     1      -6.617 -10.492  -9.758  1.00  0.00    -0.014 A 
BRANCH  43  44
ATOM     44  C   UNL     1      -7.534 -11.647  -9.940  1.00  0.00     0.031 A 
ATOM     45  C   UNL     1      -8.945 -11.576  -9.419  1.00  0.00     0.074 A 
ATOM     46  C   UNL     1      -7.081 -12.782 -10.510  1.00  0.00     0.049 A 
ATOM     47  N   UNL     1      -9.876 -12.496  -9.431  1.00  0.00    -0.248 NA
ATOM     48  C   UNL     1      -9.355 -10.316  -8.777  1.00  0.00     0.031 C 
ATOM     49  C   UNL     1      -5.724 -12.993 -11.020  1.00  0.00     0.029 A 
ATOM     50  N   UNL     1      -7.714 -13.975 -10.756  1.00  0.00    -0.354 N 
ATOM     51  C   UNL     1     -10.972 -11.931  -8.789  1.00  0.00     0.074 A 
ATOM     52  C   UNL     1     -10.569 -10.617  -8.342  1.00  0.00     0.031 C 
ATOM     53  C   UNL     1      -5.640 -14.223 -11.553  1.00  0.00     0.029 A 
ATOM     54  C   UNL     1      -6.918 -14.906 -11.381  1.00  0.00     0.049 A 
ATOM     55  H   UNL     1      -8.651 -14.148 -10.508  1.00  0.00     0.167 HD
ATOM     56  C   UNL     1     -12.211 -12.447  -8.609  1.00  0.00     0.031 A 
ATOM     57  C   UNL     1      -7.183 -16.169 -11.768  1.00  0.00     0.031 A 
ATOM     58  C   UNL     1     -12.609 -13.756  -9.054  1.00  0.00     0.049 A 
ATOM     59  C   UNL     1      -8.556 -16.736 -11.527  1.00  0.00     0.074 A 
ATOM     60  C   UNL     1     -13.851 -14.357  -8.960  1.00  0.00     0.029 A 
ATOM     61  N   UNL     1     -11.769 -14.671  -9.674  1.00  0.00    -0.354 N 
ATOM     62  N   UNL     1      -9.599 -16.163 -10.975  1.00  0.00    -0.248 NA
ATOM     63  C   UNL     1      -8.791 -18.116 -11.971  1.00  0.00     0.031 C 
ATOM     64  C   UNL     1     -13.748 -15.656  -9.467  1.00  0.00     0.029 A 
ATOM     65  C   UNL     1     -12.459 -15.841  -9.943  1.00  0.00     0.049 A 
ATOM     66  H   UNL     1     -10.822 -14.511  -9.890  1.00  0.00     0.167 HD
ATOM     67  C   UNL     1     -10.623 -17.102 -11.035  1.00  0.00     0.074 A 
ATOM     68  C   UNL     1     -10.077 -18.273 -11.689  1.00  0.00     0.031 C 
ATOM     69  C   UNL     1     -11.902 -17.001 -10.593  1.00  0.00     0.031 A 
BRANCH  56  70
ATOM     70  C   UNL     1     -13.221 -11.588  -7.892  1.00  0.00    -0.014 A 
ATOM     71  C   UNL     1     -13.711 -10.402  -8.472  1.00  0.00     0.010 A 
ATOM     72  C   UNL     1     -13.701 -11.976  -6.628  1.00  0.00     0.010 A 
ATOM     73  C   UNL     1     -14.616  -9.594  -7.779  1.00  0.00     0.020 A 
ATOM     74  C   UNL     1     -14.634 -11.189  -5.946  1.00  0.00     0.020 A 
ATOM     75  C   UNL     1     -15.068  -9.991  -6.518  1.00  0.00     0.054 A 
BRANCH  75  76
ATOM     76  S   UNL     1     -16.246  -8.924  -5.644  1.00  0.00     0.124 S 
ATOM     77  O   UNL     1     -15.405  -7.791  -5.269  1.00  0.00    -0.237 OA
ATOM     78  O   UNL     1     -17.249  -8.648  -6.670  1.00  0.00    -0.237 OA
ATOM     79  O   UNL     1     -16.708  -9.752  -4.533  1.00  0.00    -0.744 OA
ENDBRANCH  75  76
ENDBRANCH  56  70
BRANCH  57  80
ATOM     80  C   UNL     1      -6.132 -16.976 -12.452  1.00  0.00    -0.014 A 
ATOM     81  C   UNL     1      -6.259 -17.300 -13.815  1.00  0.00     0.010 A 
ATOM     82  C   UNL     1      -4.993 -17.411 -11.751  1.00  0.00     0.010 A 
ATOM     83  C   UNL     1      -5.275 -18.056 -14.459  1.00  0.00     0.020 A 
ATOM     84  C   UNL     1      -3.992 -18.141 -12.399  1.00  0.00     0.020 A 
ATOM     85  C   UNL     1      -4.144 -18.467 -13.748  1.00  0.00     0.054 A 
BRANCH  85  86
ATOM     86  S   UNL     1      -2.854 -19.398 -14.621  1.00  0.00     0.124 S 
ATOM     87  O   UNL     1      -3.502 -20.687 -14.837  1.00  0.00    -0.237 OA
ATOM     88  O   UNL     1      -2.640 -18.588 -15.818  1.00  0.00    -0.237 OA
ATOM     89  O   UNL     1      -1.739 -19.406 -13.677  1.00  0.00    -0.744 OA
ENDBRANCH  85  86
ENDBRANCH  57  80
BRANCH  69  90
ATOM     90  C   UNL     1     -12.816 -18.174 -10.834  1.00  0.00    -0.014 A 
ATOM     91  C   UNL     1     -12.660 -19.383 -10.132  1.00  0.00     0.010 A 
ATOM     92  C   UNL     1     -13.885 -18.042 -11.740  1.00  0.00     0.010 A 
ATOM     93  C   UNL     1     -13.538 -20.447 -10.356  1.00  0.00     0.020 A 
ATOM     94  C   UNL     1     -14.784 -19.092 -11.942  1.00  0.00     0.020 A 
ATOM     95  C   UNL     1     -14.596 -20.294 -11.258  1.00  0.00     0.054 A 
BRANCH  95  96
ATOM     96  S   UNL     1     -15.748 -21.674 -11.494  1.00  0.00     0.124 S 
ATOM     97  O   UNL     1     -14.931 -22.628 -12.239  1.00  0.00    -0.237 OA
ATOM     98  O   UNL     1     -16.070 -22.060 -10.122  1.00  0.00    -0.237 OA
ATOM     99  O   UNL     1     -16.853 -21.081 -12.243  1.00  0.00    -0.744 OA
ENDBRANCH  95  96
ENDBRANCH  69  90
ENDBRANCH  43  44
ENDBRANCH  35  38
ENDBRANCH  33  34
ENDBRANCH  32  33
ENDBRANCH   1  32
TORSDOF 17
