REMARK SMILES O=C(CCNc1cc(N2CCC3(CC2)OCCO3)c2noc3c2c1C(=O)c1ccccc1-3)NCCCCNC(=O)c1ccc(-c2c3nc(c(-c4ccc(S(=O)(=O)[O-])cc4)c4ccc([nH]4)c(-c4ccc(S(=O)(=O)[O-])cc4)c4nc(c(-c5ccc(S(=O)(=O)[O-])cc5)c5ccc2[nH]5)C=C4)C=C3)cc1
REMARK SMILES IDX 35 1 34 2 33 3 1 4 2 5 3 7 4 8 5 9 6 11 7 12 24 13 8 14
REMARK SMILES IDX 23 15 25 16 19 17 22 18 26 19 27 20 20 21 21 22 32 23 28 24
REMARK SMILES IDX 31 25 29 26 30 27 9 28 10 29 14 30 11 31 13 32 12 33 15 34
REMARK SMILES IDX 18 35 16 36 17 37 36 38 37 39 38 40 39 41 40 43 41 44 42 45
REMARK SMILES IDX 100 46 43 47 99 48 44 49 45 50 46 51 93 52 47 53 98 54 92 55
REMARK SMILES IDX 94 56 48 57 97 58 91 59 90 60 49 62 79 63 60 64 78 65 61 66
REMARK SMILES IDX 64 67 77 68 95 69 62 70 63 71 76 73 96 74 65 75 50 76 51 77
REMARK SMILES IDX 59 78 52 79 58 80 53 81 54 82 55 83 56 84 57 85 80 86 81 87
REMARK SMILES IDX 89 88 82 89 88 90 83 91 84 92 85 93 86 94 87 95 66 96 67 97
REMARK SMILES IDX 75 98 68 99 74 100 69 101 70 102 71 103 72 104 73 105
REMARK H PARENT 33 6 5 10 38 42 94 61 64 72
REMARK Flexibility Score: inf
ROOT
ATOM      1  C   UNL     1       2.593  -1.774  -3.214  1.00  0.00     0.023 C 
ENDROOT
BRANCH   1   2
ATOM      2  C   UNL     1       2.135  -1.788  -1.754  1.00  0.00     0.116 C 
BRANCH   2   3
ATOM      3  N   UNL     1       2.818  -0.798  -0.948  1.00  0.00    -0.356 N 
ATOM      4  O   UNL     1       0.966  -0.029   0.178  1.00  0.00    -0.275 OA
ATOM      5  C   UNL     1       2.172   0.011  -0.042  1.00  0.00     0.221 C 
ATOM      6  H   UNL     1       3.792  -0.699  -1.053  1.00  0.00     0.163 HD
BRANCH   5   7
ATOM      7  C   UNL     1       3.092   0.974   0.672  1.00  0.00     0.121 C 
BRANCH   7   8
ATOM      8  C   UNL     1       3.910   0.277   1.751  1.00  0.00     0.123 C 
BRANCH   8   9
ATOM      9  N   UNL     1       4.957  -0.567   1.163  1.00  0.00    -0.384 N 
ATOM     10  H   UNL     1       4.717  -1.275   0.523  1.00  0.00     0.160 HD
BRANCH   9  11
ATOM     11  C   UNL     1       6.301  -0.361   1.514  1.00  0.00     0.048 A 
ATOM     12  C   UNL     1       7.226  -0.333   0.395  1.00  0.00     0.054 A 
ATOM     13  C   UNL     1       6.787  -0.307   2.839  1.00  0.00     0.059 A 
ATOM     14  C   UNL     1       8.653  -0.201   0.458  1.00  0.00     0.069 A 
ATOM     15  C   UNL     1       8.162  -0.170   2.847  1.00  0.00     0.065 A 
ATOM     16  C   UNL     1       6.095  -0.394   4.159  1.00  0.00     0.196 C 
ATOM     17  C   UNL     1       9.103  -0.120   1.792  1.00  0.00     0.138 A 
ATOM     18  C   UNL     1       8.846  -0.009   4.001  1.00  0.00     0.176 A 
ATOM     19  O   UNL     1       4.912  -0.696   4.256  1.00  0.00    -0.288 OA
ATOM     20  C   UNL     1       6.901  -0.123   5.409  1.00  0.00     0.034 A 
ATOM     21  N   UNL     1      10.334   0.018   2.338  1.00  0.00    -0.077 NA
ATOM     22  O   UNL     1      10.162   0.107   3.722  1.00  0.00    -0.355 OA
ATOM     23  C   UNL     1       8.299   0.067   5.322  1.00  0.00     0.032 A 
ATOM     24  C   UNL     1       6.267  -0.053   6.649  1.00  0.00     0.013 A 
ATOM     25  C   UNL     1       9.050   0.334   6.464  1.00  0.00     0.013 A 
ATOM     26  C   UNL     1       7.024   0.214   7.792  1.00  0.00     0.001 A 
ATOM     27  C   UNL     1       8.406   0.408   7.699  1.00  0.00     0.001 A 
BRANCH  14  28
ATOM     28  N   UNL     1       9.463  -0.095  -0.639  1.00  0.00    -0.369 N 
ATOM     29  C   UNL     1      10.230  -1.220  -1.125  1.00  0.00     0.122 C 
ATOM     30  C   UNL     1       9.270   0.971  -1.588  1.00  0.00     0.122 C 
ATOM     31  C   UNL     1       9.468  -1.887  -2.291  1.00  0.00     0.087 C 
ATOM     32  C   UNL     1       8.530   0.396  -2.763  1.00  0.00     0.087 C 
ATOM     33  C   UNL     1       9.223  -0.881  -3.453  1.00  0.00     0.171 C 
ATOM     34  O   UNL     1      11.024  -0.790  -4.157  1.00  0.00    -0.347 OA
ATOM     35  O   UNL     1       8.041  -1.146  -4.994  1.00  0.00    -0.347 OA
ATOM     36  C   UNL     1      11.030  -0.701  -6.102  1.00  0.00     0.192 C 
ATOM     37  C   UNL     1       9.080  -1.002  -6.688  1.00  0.00     0.192 C 
ENDBRANCH  14  28
ENDBRANCH   9  11
ENDBRANCH   8   9
ENDBRANCH   7   8
ENDBRANCH   5   7
ENDBRANCH   2   3
ENDBRANCH   1   2
BRANCH   1  38
ATOM     38  C   UNL     1       4.091  -2.014  -3.434  1.00  0.00     0.023 C 
BRANCH  38  39
ATOM     39  C   UNL     1       4.628  -3.315  -2.841  1.00  0.00     0.116 C 
BRANCH  39  40
ATOM     40  N   UNL     1       4.219  -4.509  -3.573  1.00  0.00    -0.352 N 
ATOM     41  C   UNL     1       4.963  -5.303  -4.420  1.00  0.00     0.251 C 
ATOM     42  H   UNL     1       3.283  -4.785  -3.445  1.00  0.00     0.163 HD
ATOM     43  O   UNL     1       4.462  -6.263  -4.995  1.00  0.00    -0.269 OA
BRANCH  41  44
ATOM     44  C   UNL     1       6.354  -4.914  -4.689  1.00  0.00     0.039 A 
ATOM     45  C   UNL     1       7.313  -4.862  -3.687  1.00  0.00     0.014 A 
ATOM     46  C   UNL     1       6.667  -4.464  -5.955  1.00  0.00     0.014 A 
ATOM     47  C   UNL     1       8.465  -4.092  -3.885  1.00  0.00     0.010 A 
ATOM     48  C   UNL     1       7.805  -3.681  -6.120  1.00  0.00     0.010 A 
ATOM     49  C   UNL     1       8.611  -3.282  -5.024  1.00  0.00    -0.014 A 
BRANCH  49  50
ATOM     50  C   UNL     1       9.745  -1.904  -5.093  1.00  0.00     0.031 A 
ATOM     51  C   UNL     1      10.790  -2.962  -5.980  1.00  0.00     0.074 A 
ATOM     52  C   UNL     1       9.523  -0.029  -5.124  1.00  0.00     0.049 A 
ATOM     53  N   UNL     1      10.632  -2.987  -7.279  1.00  0.00    -0.248 NA
ATOM     54  C   UNL     1      11.826  -3.894  -5.539  1.00  0.00     0.031 C 
ATOM     55  C   UNL     1       8.279   1.005  -5.611  1.00  0.00     0.029 A 
ATOM     56  N   UNL     1      10.382   1.145  -4.756  1.00  0.00    -0.354 N 
ATOM     57  C   UNL     1      11.610  -3.731  -7.850  1.00  0.00     0.074 A 
ATOM     58  C   UNL     1      12.287  -4.356  -6.729  1.00  0.00     0.031 C 
ATOM     59  C   UNL     1       8.764   2.233  -5.872  1.00  0.00     0.029 A 
ATOM     60  C   UNL     1      10.117   2.342  -5.395  1.00  0.00     0.049 A 
ATOM     61  H   UNL     1      11.101   1.067  -4.088  1.00  0.00     0.167 HD
ATOM     62  C   UNL     1      11.799  -3.629  -9.193  1.00  0.00     0.031 A 
ATOM     63  C   UNL     1      11.088   3.207  -5.798  1.00  0.00     0.031 A 
ATOM     64  C   UNL     1      10.983  -2.637  -9.892  1.00  0.00     0.049 A 
ATOM     65  C   UNL     1      11.378   2.733  -7.222  1.00  0.00     0.074 A 
ATOM     66  C   UNL     1      10.102  -2.643 -10.952  1.00  0.00     0.029 A 
ATOM     67  N   UNL     1      11.039  -1.325  -9.456  1.00  0.00    -0.354 N 
ATOM     68  N   UNL     1      10.482   2.673  -8.182  1.00  0.00    -0.248 NA
ATOM     69  C   UNL     1      12.605   1.992  -7.567  1.00  0.00     0.031 C 
ATOM     70  C   UNL     1       9.614  -1.310 -11.116  1.00  0.00     0.029 A 
ATOM     71  C   UNL     1      10.213  -0.483 -10.173  1.00  0.00     0.049 A 
ATOM     72  H   UNL     1      11.609  -1.023  -8.712  1.00  0.00     0.167 HD
ATOM     73  C   UNL     1      10.864   1.614  -9.003  1.00  0.00     0.074 A 
ATOM     74  C   UNL     1      12.227   1.312  -8.651  1.00  0.00     0.031 C 
ATOM     75  C   UNL     1       9.994   0.906  -9.778  1.00  0.00     0.031 A 
BRANCH  62  76
ATOM     76  C   UNL     1      12.920  -4.286  -9.906  1.00  0.00    -0.014 A 
ATOM     77  C   UNL     1      13.005  -5.673 -10.088  1.00  0.00     0.010 A 
ATOM     78  C   UNL     1      13.890  -3.457 -10.503  1.00  0.00     0.010 A 
ATOM     79  C   UNL     1      14.064  -6.220 -10.827  1.00  0.00     0.020 A 
ATOM     80  C   UNL     1      14.946  -3.995 -11.236  1.00  0.00     0.020 A 
ATOM     81  C   UNL     1      15.034  -5.377 -11.384  1.00  0.00     0.054 A 
BRANCH  81  82
ATOM     82  S   UNL     1      16.425  -6.107 -12.290  1.00  0.00     0.124 S 
ATOM     83  O   UNL     1      17.070  -6.915 -11.257  1.00  0.00    -0.237 OA
ATOM     84  O   UNL     1      15.754  -6.857 -13.348  1.00  0.00    -0.237 OA
ATOM     85  O   UNL     1      17.195  -4.949 -12.740  1.00  0.00    -0.744 OA
ENDBRANCH  81  82
ENDBRANCH  62  76
BRANCH  63  86
ATOM     86  C   UNL     1      12.063   3.471  -4.679  1.00  0.00    -0.014 A 
ATOM     87  C   UNL     1      13.446   3.276  -4.703  1.00  0.00     0.010 A 
ATOM     88  C   UNL     1      11.489   3.823  -3.425  1.00  0.00     0.010 A 
ATOM     89  C   UNL     1      14.178   3.186  -3.508  1.00  0.00     0.020 A 
ATOM     90  C   UNL     1      12.209   3.748  -2.230  1.00  0.00     0.020 A 
ATOM     91  C   UNL     1      13.541   3.364  -2.278  1.00  0.00     0.054 A 
BRANCH  91  92
ATOM     92  S   UNL     1      14.460   3.021  -0.755  1.00  0.00     0.124 S 
ATOM     93  O   UNL     1      14.701   1.585  -0.870  1.00  0.00    -0.237 OA
ATOM     94  O   UNL     1      15.637   3.873  -0.903  1.00  0.00    -0.237 OA
ATOM     95  O   UNL     1      13.535   3.420   0.303  1.00  0.00    -0.744 OA
ENDBRANCH  91  92
ENDBRANCH  63  86
BRANCH  75  96
ATOM     96  C   UNL     1       8.755   1.649 -10.213  1.00  0.00    -0.014 A 
ATOM     97  C   UNL     1       7.471   1.079 -10.175  1.00  0.00     0.010 A 
ATOM     98  C   UNL     1       8.906   2.912 -10.822  1.00  0.00     0.010 A 
ATOM     99  C   UNL     1       6.387   1.724 -10.790  1.00  0.00     0.020 A 
ATOM    100  C   UNL     1       7.831   3.566 -11.422  1.00  0.00     0.020 A 
ATOM    101  C   UNL     1       6.583   2.950 -11.435  1.00  0.00     0.054 A 
BRANCH 101 102
ATOM    102  S   UNL     1       5.216   3.691 -12.369  1.00  0.00     0.124 S 
ATOM    103  O   UNL     1       4.965   2.686 -13.398  1.00  0.00    -0.237 OA
ATOM    104  O   UNL     1       4.173   3.828 -11.355  1.00  0.00    -0.237 OA
ATOM    105  O   UNL     1       5.769   4.952 -12.861  1.00  0.00    -0.744 OA
ENDBRANCH 101 102
ENDBRANCH  75  96
ENDBRANCH  49  50
ENDBRANCH  41  44
ENDBRANCH  39  40
ENDBRANCH  38  39
ENDBRANCH   1  38
TORSDOF 18
