REMARK SMILES C[C@H]1C[C@@H]([NH+]2CC(CC(=O)NCCCCNC(=O)c3ccc(-c4c5nc(c(-c6ccc(S(=O)(=O)[O-])cc6)c6ccc([nH]6)c(-c6ccc(S(=O)(=O)[O-])cc6)c6nc(c(-c7ccc(S(=O)(=O)[O-])cc7)c7ccc4[nH]7)C=C6)C=C5)cc3)C2)CS1
REMARK SMILES IDX 14 1 13 2 12 3 11 4 9 5 10 6 8 8 7 9 5 10 6 11 79 12 4 14
REMARK SMILES IDX 1 15 2 16 3 17 81 18 80 19 15 20 16 21 17 22 18 24 19 25
REMARK SMILES IDX 20 26 78 27 21 28 77 29 22 30 23 31 24 32 71 33 25 34 76 35
REMARK SMILES IDX 70 36 72 37 26 38 75 39 69 40 68 41 27 43 57 44 38 45 56 46
REMARK SMILES IDX 39 47 42 48 55 49 73 50 40 51 41 52 54 54 74 55 43 56 28 57
REMARK SMILES IDX 29 58 37 59 30 60 36 61 31 62 32 63 33 64 34 65 35 66 58 67
REMARK SMILES IDX 59 68 67 69 60 70 66 71 61 72 62 73 63 74 64 75 65 76 44 77
REMARK SMILES IDX 45 78 53 79 46 80 52 81 47 82 48 83 49 84 50 85 51 86
REMARK H PARENT 11 7 5 13 16 23 72 42 42 53
REMARK Flexibility Score: inf
ROOT
ATOM      1  C   UNL     1       3.627   6.725  -0.620  1.00  0.00     0.023 C 
ENDROOT
BRANCH   1   2
ATOM      2  C   UNL     1       2.914   6.035  -1.775  1.00  0.00     0.023 C 
BRANCH   2   3
ATOM      3  C   UNL     1       3.686   5.974  -3.092  1.00  0.00     0.116 C 
BRANCH   3   4
ATOM      4  N   UNL     1       4.575   4.832  -3.125  1.00  0.00    -0.356 N 
ATOM      5  C   UNL     1       4.388   3.616  -3.708  1.00  0.00     0.220 C 
ATOM      6  O   UNL     1       5.232   2.737  -3.530  1.00  0.00    -0.275 OA
ATOM      7  H   UNL     1       5.435   4.952  -2.660  1.00  0.00     0.163 HD
BRANCH   5   8
ATOM      8  C   UNL     1       3.146   3.343  -4.534  1.00  0.00     0.115 C 
BRANCH   8   9
ATOM      9  C   UNL     1       1.972   2.874  -3.688  1.00  0.00     0.108 C 
ATOM     10  N   UNL     1      -0.155   2.950  -3.550  1.00  0.00    -0.331 N 
ATOM     11  C   UNL     1       0.781   2.193  -4.396  1.00  0.00     0.272 C 
ATOM     12  C   UNL     1       0.910   3.914  -3.236  1.00  0.00     0.272 C 
ATOM     13  H   UNL     1      -1.049   3.225  -3.956  1.00  0.00     0.348 HD
BRANCH  10  14
ATOM     14  C   UNL     1      -0.674   2.280  -2.335  1.00  0.00     0.195 C 
ATOM     15  C   UNL     1       1.061  -0.538  -2.032  1.00  0.00     0.019 C 
ATOM     16  C   UNL     1       0.158   0.232  -1.081  1.00  0.00     0.049 C 
ATOM     17  C   UNL     1       0.241   1.747  -1.203  1.00  0.00     0.080 C 
ATOM     18  S   UNL     1      -1.589  -0.099  -1.425  1.00  0.00    -0.152 SA
ATOM     19  C   UNL     1      -1.729   1.210  -2.674  1.00  0.00     0.134 C 
ENDBRANCH  10  14
ENDBRANCH   8   9
ENDBRANCH   5   8
ENDBRANCH   3   4
ENDBRANCH   2   3
ENDBRANCH   1   2
BRANCH   1  20
ATOM     20  C   UNL     1       4.036   8.166  -0.875  1.00  0.00     0.116 C 
BRANCH  20  21
ATOM     21  N   UNL     1       2.942   9.029  -1.299  1.00  0.00    -0.352 N 
ATOM     22  C   UNL     1       2.729  10.350  -0.975  1.00  0.00     0.251 C 
ATOM     23  H   UNL     1       2.272   8.617  -1.891  1.00  0.00     0.163 HD
ATOM     24  O   UNL     1       1.716  10.928  -1.355  1.00  0.00    -0.269 OA
BRANCH  22  25
ATOM     25  C   UNL     1       3.715  11.041  -0.118  1.00  0.00     0.039 A 
ATOM     26  C   UNL     1       3.269  11.708   1.024  1.00  0.00     0.014 A 
ATOM     27  C   UNL     1       5.080  10.947  -0.397  1.00  0.00     0.014 A 
ATOM     28  C   UNL     1       4.202  12.205   1.936  1.00  0.00     0.010 A 
ATOM     29  C   UNL     1       6.004  11.362   0.553  1.00  0.00     0.010 A 
ATOM     30  C   UNL     1       5.575  11.993   1.731  1.00  0.00    -0.014 A 
BRANCH  30  31
ATOM     31  C   UNL     1       6.585  12.417   2.733  1.00  0.00     0.031 A 
ATOM     32  C   UNL     1       7.628  13.435   2.360  1.00  0.00     0.074 A 
ATOM     33  C   UNL     1       6.616  11.828   3.945  1.00  0.00     0.049 A 
ATOM     34  N   UNL     1       8.644  13.869   3.059  1.00  0.00    -0.248 NA
ATOM     35  C   UNL     1       7.537  14.015   1.009  1.00  0.00     0.031 C 
ATOM     36  C   UNL     1       5.697  10.785   4.409  1.00  0.00     0.029 A 
ATOM     37  N   UNL     1       7.464  12.016   5.008  1.00  0.00    -0.354 N 
ATOM     38  C   UNL     1       9.326  14.748   2.227  1.00  0.00     0.074 A 
ATOM     39  C   UNL     1       8.638  14.748   0.955  1.00  0.00     0.031 C 
ATOM     40  C   UNL     1       6.011  10.450   5.671  1.00  0.00     0.029 A 
ATOM     41  C   UNL     1       7.174  11.223   6.094  1.00  0.00     0.049 A 
ATOM     42  H   UNL     1       8.210  12.659   4.994  1.00  0.00     0.167 HD
ATOM     43  C   UNL     1      10.413  15.507   2.502  1.00  0.00     0.031 A 
ATOM     44  C   UNL     1       7.779  11.128   7.294  1.00  0.00     0.031 A 
ATOM     45  C   UNL     1      11.076  15.530   3.777  1.00  0.00     0.049 A 
ATOM     46  C   UNL     1       8.969  11.999   7.586  1.00  0.00     0.074 A 
ATOM     47  C   UNL     1      12.142  16.315   4.179  1.00  0.00     0.029 A 
ATOM     48  N   UNL     1      10.732  14.735   4.860  1.00  0.00    -0.354 N 
ATOM     49  N   UNL     1       9.560  12.873   6.807  1.00  0.00    -0.248 NA
ATOM     50  C   UNL     1       9.568  11.877   8.923  1.00  0.00     0.031 C 
ATOM     51  C   UNL     1      12.466  15.969   5.495  1.00  0.00     0.029 A 
ATOM     52  C   UNL     1      11.574  15.000   5.926  1.00  0.00     0.049 A 
ATOM     53  H   UNL     1       9.997  14.080   4.869  1.00  0.00     0.167 HD
ATOM     54  C   UNL     1      10.588  13.420   7.565  1.00  0.00     0.074 A 
ATOM     55  C   UNL     1      10.528  12.790   8.869  1.00  0.00     0.031 C 
ATOM     56  C   UNL     1      11.499  14.360   7.215  1.00  0.00     0.031 A 
BRANCH  43  57
ATOM     57  C   UNL     1      10.944  16.376   1.395  1.00  0.00    -0.014 A 
ATOM     58  C   UNL     1      10.233  17.510   0.960  1.00  0.00     0.010 A 
ATOM     59  C   UNL     1      12.176  16.067   0.791  1.00  0.00     0.010 A 
ATOM     60  C   UNL     1      10.718  18.288  -0.093  1.00  0.00     0.020 A 
ATOM     61  C   UNL     1      12.678  16.860  -0.245  1.00  0.00     0.020 A 
ATOM     62  C   UNL     1      11.935  17.954  -0.694  1.00  0.00     0.054 A 
BRANCH  62  63
ATOM     63  S   UNL     1      12.546  18.985  -2.055  1.00  0.00     0.124 S 
ATOM     64  O   UNL     1      11.699  18.551  -3.163  1.00  0.00    -0.237 OA
ATOM     65  O   UNL     1      12.298  20.340  -1.569  1.00  0.00    -0.237 OA
ATOM     66  O   UNL     1      13.955  18.614  -2.164  1.00  0.00    -0.744 OA
ENDBRANCH  62  63
ENDBRANCH  43  57
BRANCH  44  67
ATOM     67  C   UNL     1       7.250  10.189   8.319  1.00  0.00    -0.014 A 
ATOM     68  C   UNL     1       6.556  10.680   9.439  1.00  0.00     0.010 A 
ATOM     69  C   UNL     1       7.421   8.801   8.175  1.00  0.00     0.010 A 
ATOM     70  C   UNL     1       6.055   9.802  10.404  1.00  0.00     0.020 A 
ATOM     71  C   UNL     1       6.902   7.917   9.126  1.00  0.00     0.020 A 
ATOM     72  C   UNL     1       6.231   8.425  10.241  1.00  0.00     0.054 A 
BRANCH  72  73
ATOM     73  S   UNL     1       5.522   7.298  11.475  1.00  0.00     0.124 S 
ATOM     74  O   UNL     1       6.466   7.426  12.580  1.00  0.00    -0.237 OA
ATOM     75  O   UNL     1       4.197   7.870  11.703  1.00  0.00    -0.237 OA
ATOM     76  O   UNL     1       5.523   6.005  10.794  1.00  0.00    -0.744 OA
ENDBRANCH  72  73
ENDBRANCH  44  67
BRANCH  56  77
ATOM     77  C   UNL     1      12.493  14.782   8.261  1.00  0.00    -0.014 A 
ATOM     78  C   UNL     1      13.568  13.948   8.615  1.00  0.00     0.010 A 
ATOM     79  C   UNL     1      12.381  16.052   8.854  1.00  0.00     0.010 A 
ATOM     80  C   UNL     1      14.502  14.369   9.565  1.00  0.00     0.020 A 
ATOM     81  C   UNL     1      13.326  16.485   9.787  1.00  0.00     0.020 A 
ATOM     82  C   UNL     1      14.374  15.635  10.146  1.00  0.00     0.054 A 
BRANCH  82  83
ATOM     83  S   UNL     1      15.625  16.180  11.341  1.00  0.00     0.124 S 
ATOM     84  O   UNL     1      15.244  15.439  12.539  1.00  0.00    -0.237 OA
ATOM     85  O   UNL     1      16.876  15.760  10.712  1.00  0.00    -0.237 OA
ATOM     86  O   UNL     1      15.428  17.626  11.412  1.00  0.00    -0.744 OA
ENDBRANCH  82  83
ENDBRANCH  56  77
ENDBRANCH  30  31
ENDBRANCH  22  25
ENDBRANCH  20  21
ENDBRANCH   1  20
TORSDOF 16
