REMARK SMILES Cc1ccc(C)c(/C=C2\SC(=S)N(CC(=O)NCCCCNC(=O)c3ccc(-c4c5nc(c(-c6ccc(S(=O)(=O)[O-])cc6)c6ccc([nH]6)c(-c6ccc(S(=O)(=O)[O-])cc6)c6nc(c(-c7ccc(S(=O)(=O)[O-])cc7)c7ccc4[nH]7)C=C6)C=C5)cc3)C2=O)c1
REMARK SMILES IDX 20 1 19 2 18 3 17 4 15 5 16 6 14 8 13 9 8 10 9 11 10 12
REMARK SMILES IDX 85 13 11 14 86 15 12 16 7 17 1 18 2 19 3 20 87 21 4 22 5 23
REMARK SMILES IDX 6 24 21 25 22 26 23 27 24 29 25 30 26 31 84 32 27 33 83 34
REMARK SMILES IDX 28 35 29 36 30 37 77 38 31 39 82 40 76 41 78 42 32 43 81 44
REMARK SMILES IDX 75 45 74 46 33 48 63 49 44 50 62 51 45 52 48 53 61 54 79 55
REMARK SMILES IDX 46 56 47 57 60 59 80 60 49 61 34 62 35 63 43 64 36 65 42 66
REMARK SMILES IDX 37 67 38 68 39 69 40 70 41 71 64 72 65 73 73 74 66 75 72 76
REMARK SMILES IDX 67 77 68 78 69 79 70 80 71 81 50 82 51 83 59 84 52 85 58 86
REMARK SMILES IDX 53 87 54 88 55 89 56 90 57 91
REMARK H PARENT 17 7 22 28 78 47 48 58
REMARK Flexibility Score: inf
ROOT
ATOM      1  C   UNL     1      -4.986   2.669  -4.106  1.00  0.00     0.023 C 
ENDROOT
BRANCH   1   2
ATOM      2  C   UNL     1      -3.629   3.390  -4.112  1.00  0.00     0.023 C 
BRANCH   2   3
ATOM      3  C   UNL     1      -3.616   4.899  -4.364  1.00  0.00     0.116 C 
BRANCH   3   4
ATOM      4  N   UNL     1      -4.273   5.679  -3.342  1.00  0.00    -0.355 N 
ATOM      5  C   UNL     1      -3.751   6.584  -2.464  1.00  0.00     0.240 C 
ATOM      6  O   UNL     1      -4.546   7.361  -1.930  1.00  0.00    -0.273 OA
ATOM      7  H   UNL     1      -5.244   5.536  -3.267  1.00  0.00     0.163 HD
BRANCH   5   8
ATOM      8  C   UNL     1      -2.239   6.746  -2.258  1.00  0.00     0.227 C 
BRANCH   8   9
ATOM      9  N   UNL     1      -1.536   5.478  -2.074  1.00  0.00    -0.283 N 
ATOM     10  C   UNL     1      -1.300   2.516  -0.020  1.00  0.00     0.029 C 
ATOM     11  C   UNL     1      -1.097   3.452  -0.958  1.00  0.00     0.081 C 
ATOM     12  S   UNL     1      -0.035   3.404  -2.306  1.00  0.00    -0.054 SA
ATOM     13  C   UNL     1      -1.866   4.723  -0.961  1.00  0.00     0.266 C 
ATOM     14  C   UNL     1      -0.485   5.019  -2.837  1.00  0.00     0.148 C 
ATOM     15  O   UNL     1      -2.669   5.023  -0.094  1.00  0.00    -0.268 OA
ATOM     16  S   UNL     1       0.321   5.784  -4.079  1.00  0.00    -0.052 S 
BRANCH  10  17
ATOM     17  C   UNL     1      -0.645   1.201   0.035  1.00  0.00    -0.021 A 
ATOM     18  C   UNL     1       2.941  -0.108   0.080  1.00  0.00     0.044 C 
ATOM     19  C   UNL     1       1.442  -0.073   0.087  1.00  0.00    -0.051 A 
ATOM     20  C   UNL     1       0.706  -1.258   0.058  1.00  0.00     0.004 A 
ATOM     21  C   UNL     1       0.759   1.147   0.100  1.00  0.00     0.011 A 
ATOM     22  C   UNL     1      -0.690  -1.220   0.037  1.00  0.00     0.004 A 
ATOM     23  C   UNL     1      -1.383   0.003   0.023  1.00  0.00    -0.044 A 
ATOM     24  C   UNL     1      -2.887  -0.051  -0.025  1.00  0.00     0.045 C 
ENDBRANCH  10  17
ENDBRANCH   8   9
ENDBRANCH   5   8
ENDBRANCH   3   4
ENDBRANCH   2   3
ENDBRANCH   1   2
BRANCH   1  25
ATOM     25  C   UNL     1      -5.774   2.625  -5.417  1.00  0.00     0.116 C 
BRANCH  25  26
ATOM     26  N   UNL     1      -5.041   2.022  -6.545  1.00  0.00    -0.352 N 
ATOM     27  C   UNL     1      -5.068   2.246  -7.924  1.00  0.00     0.251 C 
ATOM     28  H   UNL     1      -4.404   1.323  -6.271  1.00  0.00     0.163 HD
ATOM     29  O   UNL     1      -4.662   1.378  -8.677  1.00  0.00    -0.269 OA
BRANCH  27  30
ATOM     30  C   UNL     1      -5.556   3.534  -8.479  1.00  0.00     0.039 A 
ATOM     31  C   UNL     1      -5.813   3.800  -9.823  1.00  0.00     0.014 A 
ATOM     32  C   UNL     1      -5.679   4.579  -7.599  1.00  0.00     0.014 A 
ATOM     33  C   UNL     1      -6.086   5.129 -10.192  1.00  0.00     0.010 A 
ATOM     34  C   UNL     1      -6.411   5.679  -7.888  1.00  0.00     0.010 A 
ATOM     35  C   UNL     1      -6.317   6.080  -9.189  1.00  0.00    -0.014 A 
BRANCH  35  36
ATOM     36  C   UNL     1      -6.529   7.500  -9.397  1.00  0.00     0.031 A 
ATOM     37  C   UNL     1      -7.849   7.801  -9.966  1.00  0.00     0.074 A 
ATOM     38  C   UNL     1      -5.789   8.482  -8.829  1.00  0.00     0.049 A 
ATOM     39  N   UNL     1      -8.113   8.065 -11.198  1.00  0.00    -0.248 NA
ATOM     40  C   UNL     1      -9.030   7.589  -9.116  1.00  0.00     0.031 C 
ATOM     41  C   UNL     1      -4.681   8.382  -7.867  1.00  0.00     0.029 A 
ATOM     42  N   UNL     1      -5.969   9.829  -8.928  1.00  0.00    -0.354 N 
ATOM     43  C   UNL     1      -9.478   8.293 -11.230  1.00  0.00     0.074 A 
ATOM     44  C   UNL     1     -10.008   7.737 -10.010  1.00  0.00     0.031 C 
ATOM     45  C   UNL     1      -4.430   9.603  -7.334  1.00  0.00     0.029 A 
ATOM     46  C   UNL     1      -5.250  10.591  -8.015  1.00  0.00     0.049 A 
ATOM     47  H   UNL     1      -6.565  10.233  -9.600  1.00  0.00     0.167 HD
ATOM     48  C   UNL     1     -10.027   9.172 -12.111  1.00  0.00     0.031 A 
ATOM     49  C   UNL     1      -5.363  11.931  -7.820  1.00  0.00     0.031 A 
ATOM     50  C   UNL     1      -9.058   9.632 -13.078  1.00  0.00     0.049 A 
ATOM     51  C   UNL     1      -5.990  12.495  -9.046  1.00  0.00     0.074 A 
ATOM     52  C   UNL     1      -8.239   9.011 -14.002  1.00  0.00     0.029 A 
ATOM     53  N   UNL     1      -8.511  10.879 -12.864  1.00  0.00    -0.354 N 
ATOM     54  N   UNL     1      -5.412  12.490 -10.215  1.00  0.00    -0.248 NA
ATOM     55  C   UNL     1      -7.436  12.653  -9.073  1.00  0.00     0.031 C 
ATOM     56  C   UNL     1      -7.002   9.719 -13.934  1.00  0.00     0.029 A 
ATOM     57  C   UNL     1      -7.152  10.773 -13.029  1.00  0.00     0.049 A 
ATOM     58  H   UNL     1      -9.006  11.698 -12.634  1.00  0.00     0.167 HD
ATOM     59  C   UNL     1      -6.428  12.203 -11.117  1.00  0.00     0.074 A 
ATOM     60  C   UNL     1      -7.665  12.423 -10.371  1.00  0.00     0.031 C 
ATOM     61  C   UNL     1      -6.171  11.545 -12.288  1.00  0.00     0.031 A 
BRANCH  48  62
ATOM     62  C   UNL     1     -11.309   9.916 -11.854  1.00  0.00    -0.014 A 
ATOM     63  C   UNL     1     -11.865  10.675 -12.899  1.00  0.00     0.010 A 
ATOM     64  C   UNL     1     -11.857  10.093 -10.566  1.00  0.00     0.010 A 
ATOM     65  C   UNL     1     -12.880  11.607 -12.655  1.00  0.00     0.020 A 
ATOM     66  C   UNL     1     -12.902  10.981 -10.320  1.00  0.00     0.020 A 
ATOM     67  C   UNL     1     -13.383  11.760 -11.362  1.00  0.00     0.054 A 
BRANCH  67  68
ATOM     68  S   UNL     1     -14.617  13.039 -11.036  1.00  0.00     0.124 S 
ATOM     69  O   UNL     1     -13.846  14.258 -11.253  1.00  0.00    -0.237 OA
ATOM     70  O   UNL     1     -15.638  12.745 -12.038  1.00  0.00    -0.237 OA
ATOM     71  O   UNL     1     -15.017  12.784  -9.654  1.00  0.00    -0.744 OA
ENDBRANCH  67  68
ENDBRANCH  48  62
BRANCH  49  72
ATOM     72  C   UNL     1      -5.240  12.703  -6.556  1.00  0.00    -0.014 A 
ATOM     73  C   UNL     1      -5.155  14.109  -6.565  1.00  0.00     0.010 A 
ATOM     74  C   UNL     1      -5.497  12.074  -5.320  1.00  0.00     0.010 A 
ATOM     75  C   UNL     1      -5.391  14.859  -5.398  1.00  0.00     0.020 A 
ATOM     76  C   UNL     1      -5.727  12.814  -4.152  1.00  0.00     0.020 A 
ATOM     77  C   UNL     1      -5.699  14.205  -4.202  1.00  0.00     0.054 A 
BRANCH  77  78
ATOM     78  S   UNL     1      -6.195  15.183  -2.750  1.00  0.00     0.124 S 
ATOM     79  O   UNL     1      -4.936  15.800  -2.345  1.00  0.00    -0.237 OA
ATOM     80  O   UNL     1      -7.194  16.092  -3.305  1.00  0.00    -0.237 OA
ATOM     81  O   UNL     1      -6.722  14.182  -1.825  1.00  0.00    -0.744 OA
ENDBRANCH  77  78
ENDBRANCH  49  72
BRANCH  61  82
ATOM     82  C   UNL     1      -4.729  11.397 -12.728  1.00  0.00    -0.014 A 
ATOM     83  C   UNL     1      -3.745  10.722 -11.978  1.00  0.00     0.010 A 
ATOM     84  C   UNL     1      -4.396  11.831 -14.024  1.00  0.00     0.010 A 
ATOM     85  C   UNL     1      -2.459  10.512 -12.501  1.00  0.00     0.020 A 
ATOM     86  C   UNL     1      -3.124  11.608 -14.559  1.00  0.00     0.020 A 
ATOM     87  C   UNL     1      -2.158  10.957 -13.791  1.00  0.00     0.054 A 
BRANCH  87  88
ATOM     88  S   UNL     1      -0.510  10.640 -14.484  1.00  0.00     0.124 S 
ATOM     89  O   UNL     1       0.345  11.511 -13.683  1.00  0.00    -0.237 OA
ATOM     90  O   UNL     1      -0.333   9.207 -14.260  1.00  0.00    -0.237 OA
ATOM     91  O   UNL     1      -0.642  11.026 -15.889  1.00  0.00    -0.744 OA
ENDBRANCH  87  88
ENDBRANCH  61  82
ENDBRANCH  35  36
ENDBRANCH  27  30
ENDBRANCH  25  26
ENDBRANCH   1  25
TORSDOF 16
