REMARK SMILES CC1(C)S[C@@H]2c3ccccc3C(=O)N2[C@H]1C(=O)N[C@H](Cc1c[nH]c2ccccc12)C(=O)NCCCCNC(=O)c1ccc(-c2c3nc(c(-c4ccc(S(=O)(=O)[O-])cc4)c4ccc([nH]4)c(-c4ccc(S(=O)(=O)[O-])cc4)c4nc(c(-c5ccc(S(=O)(=O)[O-])cc5)c5ccc2[nH]5)C=C4)C=C3)cc1
REMARK SMILES IDX 35 1 34 2 33 3 32 4 30 5 31 6 19 8 18 9 16 10 17 11 15 13
REMARK SMILES IDX 1 14 2 15 3 16 4 17 5 18 14 19 6 20 12 21 7 22 11 23 13 24
REMARK SMILES IDX 8 25 10 26 9 27 20 28 21 29 22 30 29 31 23 32 24 33 28 34
REMARK SMILES IDX 25 36 27 37 26 38 36 39 37 40 38 41 39 43 40 44 41 45 99 46
REMARK SMILES IDX 42 47 98 48 43 49 44 50 45 51 92 52 46 53 97 54 91 55 93 56
REMARK SMILES IDX 47 57 96 58 90 59 89 60 48 62 78 63 59 64 77 65 60 66 63 67
REMARK SMILES IDX 76 68 94 69 61 70 62 71 75 73 95 74 64 75 49 76 50 77 58 78
REMARK SMILES IDX 51 79 57 80 52 81 53 82 54 83 55 84 56 85 79 86 80 87 88 88
REMARK SMILES IDX 81 89 87 90 82 91 83 92 84 93 85 94 86 95 65 96 66 97 74 98
REMARK SMILES IDX 67 99 73 100 68 101 69 102 70 103 71 104 72 105
REMARK H PARENT 32 7 18 12 23 35 37 42 93 61 63 72
REMARK Flexibility Score: inf
ROOT
ATOM      1  C   UNL     1       8.124  -2.374   0.982  1.00  0.00     0.023 C 
ENDROOT
BRANCH   1   2
ATOM      2  C   UNL     1       7.200  -1.142   1.090  1.00  0.00     0.023 C 
BRANCH   2   3
ATOM      3  C   UNL     1       5.787  -1.129   0.463  1.00  0.00     0.116 C 
BRANCH   3   4
ATOM      4  N   UNL     1       4.883  -2.161   0.934  1.00  0.00    -0.354 N 
ATOM      5  C   UNL     1       3.660  -2.582   0.501  1.00  0.00     0.242 C 
ATOM      6  O   UNL     1       3.109  -3.429   1.221  1.00  0.00    -0.273 OA
ATOM      7  H   UNL     1       5.218  -2.653   1.718  1.00  0.00     0.163 HD
BRANCH   5   8
ATOM      8  C   UNL     1       2.870  -2.022  -0.730  1.00  0.00     0.175 C 
BRANCH   8   9
ATOM      9  N   UNL     1       3.525  -1.796  -2.073  1.00  0.00    -0.342 N 
ATOM     10  C   UNL     1       3.758  -2.505  -3.217  1.00  0.00     0.244 C 
ATOM     11  O   UNL     1       3.437  -1.881  -4.243  1.00  0.00    -0.273 OA
ATOM     12  H   UNL     1       3.884  -0.882  -2.143  1.00  0.00     0.164 HD
BRANCH  10  13
ATOM     13  C   UNL     1       4.621  -3.789  -3.386  1.00  0.00     0.191 C 
ATOM     14  C   UNL     1       6.583  -2.192  -2.840  1.00  0.00     0.026 C 
ATOM     15  C   UNL     1       6.053  -3.635  -2.813  1.00  0.00     0.042 C 
ATOM     16  C   UNL     1       7.090  -4.488  -3.565  1.00  0.00     0.026 C 
ATOM     17  S   UNL     1       5.907  -4.412  -1.122  1.00  0.00    -0.123 SA
ATOM     18  C   UNL     1       4.238  -5.069  -1.374  1.00  0.00     0.176 C 
ATOM     19  N   UNL     1       4.069  -4.982  -2.784  1.00  0.00    -0.309 N 
ATOM     20  C   UNL     1       3.990  -6.496  -1.074  1.00  0.00    -0.002 A 
ATOM     21  C   UNL     1       4.013  -6.237  -3.369  1.00  0.00     0.256 C 
ATOM     22  C   UNL     1       3.713  -7.096   0.142  1.00  0.00     0.007 A 
ATOM     23  C   UNL     1       3.877  -7.206  -2.267  1.00  0.00     0.046 A 
ATOM     24  O   UNL     1       4.098  -6.518  -4.551  1.00  0.00    -0.269 OA
ATOM     25  C   UNL     1       3.372  -8.449   0.137  1.00  0.00     0.000 A 
ATOM     26  C   UNL     1       3.593  -8.556  -2.293  1.00  0.00     0.014 A 
ATOM     27  C   UNL     1       3.336  -9.179  -1.067  1.00  0.00     0.001 A 
ENDBRANCH  10  13
ENDBRANCH   8   9
BRANCH   8  28
ATOM     28  C   UNL     1       2.269  -0.669  -0.316  1.00  0.00     0.072 C 
BRANCH  28  29
ATOM     29  C   UNL     1       1.154  -0.533   0.676  1.00  0.00    -0.020 A 
ATOM     30  C   UNL     1       1.253  -0.412   2.050  1.00  0.00     0.087 A 
ATOM     31  C   UNL     1      -0.173  -0.071   0.402  1.00  0.00     0.003 A 
ATOM     32  N   UNL     1       0.601   0.777   2.290  1.00  0.00    -0.361 N 
ATOM     33  C   UNL     1      -0.449   0.858   1.409  1.00  0.00     0.046 A 
ATOM     34  C   UNL     1      -1.110  -0.231  -0.635  1.00  0.00     0.010 A 
ATOM     35  H   UNL     1       0.844   1.447   2.970  1.00  0.00     0.166 HD
ATOM     36  C   UNL     1      -1.579   1.675   1.417  1.00  0.00     0.026 A 
ATOM     37  C   UNL     1      -2.302   0.507  -0.588  1.00  0.00     0.001 A 
ATOM     38  C   UNL     1      -2.520   1.458   0.410  1.00  0.00     0.002 A 
ENDBRANCH  28  29
ENDBRANCH   8  28
ENDBRANCH   5   8
ENDBRANCH   3   4
ENDBRANCH   2   3
ENDBRANCH   1   2
BRANCH   1  39
ATOM     39  C   UNL     1       9.117  -2.567  -0.185  1.00  0.00     0.116 C 
BRANCH  39  40
ATOM     40  N   UNL     1       9.645  -1.376  -0.833  1.00  0.00    -0.352 N 
ATOM     41  C   UNL     1      10.768  -1.269  -1.633  1.00  0.00     0.251 C 
ATOM     42  H   UNL     1       9.140  -0.544  -0.683  1.00  0.00     0.163 HD
ATOM     43  O   UNL     1      11.073  -0.187  -2.126  1.00  0.00    -0.269 OA
BRANCH  41  44
ATOM     44  C   UNL     1      11.632  -2.453  -1.860  1.00  0.00     0.039 A 
ATOM     45  C   UNL     1      11.123  -3.611  -2.450  1.00  0.00     0.014 A 
ATOM     46  C   UNL     1      12.969  -2.410  -1.456  1.00  0.00     0.014 A 
ATOM     47  C   UNL     1      11.899  -4.774  -2.486  1.00  0.00     0.010 A 
ATOM     48  C   UNL     1      13.761  -3.564  -1.536  1.00  0.00     0.010 A 
ATOM     49  C   UNL     1      13.214  -4.777  -1.990  1.00  0.00    -0.014 A 
BRANCH  49  50
ATOM     50  C   UNL     1      13.974  -6.057  -1.873  1.00  0.00     0.031 A 
ATOM     51  C   UNL     1      14.303  -6.620  -0.509  1.00  0.00     0.074 A 
ATOM     52  C   UNL     1      14.325  -6.756  -2.971  1.00  0.00     0.049 A 
ATOM     53  N   UNL     1      14.932  -7.728  -0.202  1.00  0.00    -0.248 NA
ATOM     54  C   UNL     1      13.869  -5.840   0.662  1.00  0.00     0.031 C 
ATOM     55  C   UNL     1      14.044  -6.354  -4.348  1.00  0.00     0.029 A 
ATOM     56  N   UNL     1      14.977  -7.961  -3.101  1.00  0.00    -0.354 N 
ATOM     57  C   UNL     1      14.972  -7.774   1.188  1.00  0.00     0.074 A 
ATOM     58  C   UNL     1      14.344  -6.563   1.667  1.00  0.00     0.031 C 
ATOM     59  C   UNL     1      14.484  -7.310  -5.181  1.00  0.00     0.029 A 
ATOM     60  C   UNL     1      15.127  -8.371  -4.406  1.00  0.00     0.049 A 
ATOM     61  H   UNL     1      15.306  -8.481  -2.333  1.00  0.00     0.167 HD
ATOM     62  C   UNL     1      15.467  -8.744   1.995  1.00  0.00     0.031 A 
ATOM     63  C   UNL     1      15.717  -9.466  -4.931  1.00  0.00     0.031 A 
ATOM     64  C   UNL     1      16.083  -9.958   1.524  1.00  0.00     0.049 A 
ATOM     65  C   UNL     1      16.322 -10.500  -4.019  1.00  0.00     0.074 A 
ATOM     66  C   UNL     1      16.593 -11.002   2.277  1.00  0.00     0.029 A 
ATOM     67  N   UNL     1      16.273 -10.296   0.194  1.00  0.00    -0.354 N 
ATOM     68  N   UNL     1      16.337 -10.530  -2.708  1.00  0.00    -0.248 NA
ATOM     69  C   UNL     1      16.987 -11.649  -4.652  1.00  0.00     0.031 C 
ATOM     70  C   UNL     1      17.155 -11.937   1.406  1.00  0.00     0.029 A 
ATOM     71  C   UNL     1      16.923 -11.517   0.106  1.00  0.00     0.049 A 
ATOM     72  H   UNL     1      15.988  -9.751  -0.575  1.00  0.00     0.167 HD
ATOM     73  C   UNL     1      16.996 -11.705  -2.360  1.00  0.00     0.074 A 
ATOM     74  C   UNL     1      17.350 -12.369  -3.597  1.00  0.00     0.031 C 
ATOM     75  C   UNL     1      17.281 -12.182  -1.124  1.00  0.00     0.031 A 
BRANCH  62  76
ATOM     76  C   UNL     1      15.365  -8.554   3.489  1.00  0.00    -0.014 A 
ATOM     77  C   UNL     1      16.536  -8.409   4.257  1.00  0.00     0.010 A 
ATOM     78  C   UNL     1      14.125  -8.647   4.147  1.00  0.00     0.010 A 
ATOM     79  C   UNL     1      16.474  -8.393   5.654  1.00  0.00     0.020 A 
ATOM     80  C   UNL     1      14.056  -8.599   5.543  1.00  0.00     0.020 A 
ATOM     81  C   UNL     1      15.234  -8.497   6.288  1.00  0.00     0.054 A 
BRANCH  81  82
ATOM     82  S   UNL     1      15.174  -8.496   8.101  1.00  0.00     0.124 S 
ATOM     83  O   UNL     1      15.656  -9.834   8.427  1.00  0.00    -0.237 OA
ATOM     84  O   UNL     1      16.072  -7.397   8.450  1.00  0.00    -0.237 OA
ATOM     85  O   UNL     1      13.764  -8.249   8.396  1.00  0.00    -0.744 OA
ENDBRANCH  81  82
ENDBRANCH  62  76
BRANCH  63  86
ATOM     86  C   UNL     1      15.733  -9.637  -6.412  1.00  0.00    -0.014 A 
ATOM     87  C   UNL     1      16.468  -8.749  -7.221  1.00  0.00     0.010 A 
ATOM     88  C   UNL     1      14.942 -10.623  -7.026  1.00  0.00     0.010 A 
ATOM     89  C   UNL     1      16.352  -8.795  -8.613  1.00  0.00     0.020 A 
ATOM     90  C   UNL     1      14.850 -10.693  -8.421  1.00  0.00     0.020 A 
ATOM     91  C   UNL     1      15.527  -9.755  -9.203  1.00  0.00     0.054 A 
BRANCH  91  92
ATOM     92  S   UNL     1      15.328  -9.739 -11.006  1.00  0.00     0.124 S 
ATOM     93  O   UNL     1      14.459  -8.581 -11.199  1.00  0.00    -0.237 OA
ATOM     94  O   UNL     1      16.701  -9.581 -11.478  1.00  0.00    -0.237 OA
ATOM     95  O   UNL     1      14.718 -11.034 -11.295  1.00  0.00    -0.744 OA
ENDBRANCH  91  92
ENDBRANCH  63  86
BRANCH  75  96
ATOM     96  C   UNL     1      18.021 -13.492  -1.006  1.00  0.00    -0.014 A 
ATOM     97  C   UNL     1      17.383 -14.606  -0.428  1.00  0.00     0.010 A 
ATOM     98  C   UNL     1      19.389 -13.579  -1.322  1.00  0.00     0.010 A 
ATOM     99  C   UNL     1      18.105 -15.764  -0.127  1.00  0.00     0.020 A 
ATOM    100  C   UNL     1      20.108 -14.748  -1.050  1.00  0.00     0.020 A 
ATOM    101  C   UNL     1      19.468 -15.822  -0.427  1.00  0.00     0.054 A 
BRANCH 101 102
ATOM    102  S   UNL     1      20.400 -17.313   0.021  1.00  0.00     0.124 S 
ATOM    103  O   UNL     1      20.530 -17.172   1.468  1.00  0.00    -0.237 OA
ATOM    104  O   UNL     1      19.520 -18.389  -0.430  1.00  0.00    -0.237 OA
ATOM    105  O   UNL     1      21.645 -17.180  -0.733  1.00  0.00    -0.744 OA
ENDBRANCH 101 102
ENDBRANCH  75  96
ENDBRANCH  49  50
ENDBRANCH  41  44
ENDBRANCH  39  40
ENDBRANCH   1  39
TORSDOF 18
