REMARK SMILES COc1ccccc1[C@@H]1C[N@@H+](Cc2cn3cc(C)ccc3n2)C[C@H]1C(=O)NCCCCNC(=O)c1ccc(-c2c3nc(c(-c4ccc(S(=O)(=O)[O-])cc4)c4ccc([nH]4)c(-c4ccc(S(=O)(=O)[O-])cc4)c4nc(c(-c5ccc(S(=O)(=O)[O-])cc5)c5ccc2[nH]5)C=C4)C=C3)cc1
REMARK SMILES IDX 30 1 29 2 28 3 27 4 25 5 26 6 24 8 9 9 10 10 11 11 23 12
REMARK SMILES IDX 8 14 3 15 4 16 5 17 7 18 6 19 2 20 1 21 12 22 13 23 14 24
REMARK SMILES IDX 22 25 15 26 21 27 16 28 20 29 17 30 19 31 18 32 31 33 32 34
REMARK SMILES IDX 33 35 34 37 35 38 36 39 94 40 37 41 93 42 38 43 39 44 40 45
REMARK SMILES IDX 87 46 41 47 92 48 86 49 88 50 42 51 91 52 85 53 84 54 43 56
REMARK SMILES IDX 73 57 54 58 72 59 55 60 58 61 71 62 89 63 56 64 57 65 70 67
REMARK SMILES IDX 90 68 59 69 44 70 45 71 53 72 46 73 52 74 47 75 48 76 49 77
REMARK SMILES IDX 50 78 51 79 74 80 75 81 83 82 76 83 82 84 77 85 78 86 79 87
REMARK SMILES IDX 80 88 81 89 60 90 61 91 69 92 62 93 68 94 63 95 64 96 65 97
REMARK SMILES IDX 66 98 67 99
REMARK H PARENT 27 7 11 13 32 36 88 55 58 66
REMARK Flexibility Score: inf
ROOT
ATOM      1  C   UNL     1       6.953  -0.063   4.552  1.00  0.00     0.023 C 
ENDROOT
BRANCH   1   2
ATOM      2  C   UNL     1       6.740  -0.814   3.228  1.00  0.00     0.023 C 
BRANCH   2   3
ATOM      3  C   UNL     1       5.386  -1.544   3.002  1.00  0.00     0.116 C 
BRANCH   3   4
ATOM      4  N   UNL     1       4.152  -0.881   3.413  1.00  0.00    -0.356 N 
ATOM      5  C   UNL     1       3.036  -0.341   2.854  1.00  0.00     0.229 C 
ATOM      6  O   UNL     1       2.219   0.066   3.702  1.00  0.00    -0.275 OA
ATOM      7  H   UNL     1       4.117  -0.800   4.394  1.00  0.00     0.163 HD
BRANCH   5   8
ATOM      8  C   UNL     1       2.637  -0.182   1.369  1.00  0.00     0.146 C 
ATOM      9  C   UNL     1       2.377   1.298   0.947  1.00  0.00     0.096 C 
ATOM     10  C   UNL     1       2.849   1.388  -0.509  1.00  0.00     0.272 C 
ATOM     11  N   UNL     1       3.955   0.426  -0.612  1.00  0.00    -0.329 N 
ATOM     12  C   UNL     1       3.544  -0.698   0.250  1.00  0.00     0.276 C 
ATOM     13  H   UNL     1       4.087   0.132  -1.580  1.00  0.00     0.348 HD
BRANCH   9  14
ATOM     14  C   UNL     1       1.160   2.124   1.322  1.00  0.00     0.004 A 
ATOM     15  C   UNL     1      -0.074   2.151   0.668  1.00  0.00     0.122 A 
ATOM     16  C   UNL     1      -1.026   3.135   0.992  1.00  0.00     0.047 A 
ATOM     17  C   UNL     1      -0.769   4.102   1.967  1.00  0.00     0.004 A 
ATOM     18  C   UNL     1       1.373   3.102   2.330  1.00  0.00     0.008 A 
ATOM     19  C   UNL     1       0.440   4.087   2.639  1.00  0.00     0.001 A 
BRANCH  15  20
ATOM     20  O   UNL     1      -0.389   1.365  -0.405  1.00  0.00    -0.496 OA
ATOM     21  C   UNL     1      -0.560  -0.005  -0.052  1.00  0.00     0.278 C 
ENDBRANCH  15  20
ENDBRANCH   9  14
BRANCH  11  22
ATOM     22  C   UNL     1       5.322   0.959  -0.364  1.00  0.00     0.321 C 
BRANCH  22  23
ATOM     23  C   UNL     1       5.550   1.790   0.877  1.00  0.00     0.114 A 
ATOM     24  C   UNL     1       6.278   2.950   1.097  1.00  0.00     0.122 A 
ATOM     25  N   UNL     1       5.021   1.386   2.069  1.00  0.00    -0.228 NA
ATOM     26  N   UNL     1       6.107   3.268   2.434  1.00  0.00    -0.306 N 
ATOM     27  C   UNL     1       5.200   2.355   2.929  1.00  0.00     0.137 A 
ATOM     28  C   UNL     1       6.703   4.234   3.246  1.00  0.00     0.096 A 
ATOM     29  C   UNL     1       4.709   2.529   4.251  1.00  0.00     0.048 A 
ATOM     30  C   UNL     1       6.340   4.323   4.546  1.00  0.00    -0.034 A 
ATOM     31  C   UNL     1       5.255   3.472   5.034  1.00  0.00     0.009 A 
ATOM     32  C   UNL     1       7.002   5.200   5.559  1.00  0.00     0.046 C 
ENDBRANCH  22  23
ENDBRANCH  11  22
ENDBRANCH   5   8
ENDBRANCH   3   4
ENDBRANCH   2   3
ENDBRANCH   1   2
BRANCH   1  33
ATOM     33  C   UNL     1       8.350  -0.104   5.195  1.00  0.00     0.116 C 
BRANCH  33  34
ATOM     34  N   UNL     1       9.440   0.551   4.459  1.00  0.00    -0.352 N 
ATOM     35  C   UNL     1      10.734   0.062   4.263  1.00  0.00     0.251 C 
ATOM     36  H   UNL     1       9.236   1.428   4.061  1.00  0.00     0.163 HD
ATOM     37  O   UNL     1      11.670   0.776   3.987  1.00  0.00    -0.269 OA
BRANCH  35  38
ATOM     38  C   UNL     1      10.881  -1.405   4.362  1.00  0.00     0.039 A 
ATOM     39  C   UNL     1      11.530  -2.010   5.437  1.00  0.00     0.014 A 
ATOM     40  C   UNL     1      10.022  -2.119   3.546  1.00  0.00     0.014 A 
ATOM     41  C   UNL     1      11.153  -3.309   5.800  1.00  0.00     0.010 A 
ATOM     42  C   UNL     1       9.535  -3.318   4.018  1.00  0.00     0.010 A 
ATOM     43  C   UNL     1      10.077  -3.939   5.149  1.00  0.00    -0.014 A 
BRANCH  43  44
ATOM     44  C   UNL     1       9.429  -5.133   5.733  1.00  0.00     0.031 A 
ATOM     45  C   UNL     1       9.345  -5.233   7.231  1.00  0.00     0.074 A 
ATOM     46  C   UNL     1       8.690  -6.036   5.046  1.00  0.00     0.049 A 
ATOM     47  N   UNL     1       9.932  -6.094   8.001  1.00  0.00    -0.248 NA
ATOM     48  C   UNL     1       8.526  -4.255   7.964  1.00  0.00     0.031 C 
ATOM     49  C   UNL     1       8.331  -6.061   3.622  1.00  0.00     0.029 A 
ATOM     50  N   UNL     1       7.983  -7.093   5.542  1.00  0.00    -0.354 N 
ATOM     51  C   UNL     1       9.438  -5.888   9.290  1.00  0.00     0.074 A 
ATOM     52  C   UNL     1       8.664  -4.672   9.227  1.00  0.00     0.031 C 
ATOM     53  C   UNL     1       7.273  -6.875   3.431  1.00  0.00     0.029 A 
ATOM     54  C   UNL     1       7.053  -7.611   4.658  1.00  0.00     0.049 A 
ATOM     55  H   UNL     1       8.123  -7.455   6.447  1.00  0.00     0.167 HD
ATOM     56  C   UNL     1       9.555  -6.819  10.284  1.00  0.00     0.031 A 
ATOM     57  C   UNL     1       6.179  -8.618   4.868  1.00  0.00     0.031 A 
ATOM     58  C   UNL     1      10.433  -7.900   9.917  1.00  0.00     0.049 A 
ATOM     59  C   UNL     1       6.741  -9.463   5.942  1.00  0.00     0.074 A 
ATOM     60  C   UNL     1      11.761  -8.021   9.568  1.00  0.00     0.029 A 
ATOM     61  N   UNL     1       9.839  -9.080   9.536  1.00  0.00    -0.354 N 
ATOM     62  N   UNL     1       7.869 -10.109   5.822  1.00  0.00    -0.248 NA
ATOM     63  C   UNL     1       6.254  -9.315   7.302  1.00  0.00     0.031 C 
ATOM     64  C   UNL     1      11.784  -9.037   8.564  1.00  0.00     0.029 A 
ATOM     65  C   UNL     1      10.475  -9.495   8.394  1.00  0.00     0.049 A 
ATOM     66  H   UNL     1       9.098  -9.539   9.995  1.00  0.00     0.167 HD
ATOM     67  C   UNL     1       8.438 -10.074   7.083  1.00  0.00     0.074 A 
ATOM     68  C   UNL     1       7.340  -9.712   7.974  1.00  0.00     0.031 C 
ATOM     69  C   UNL     1       9.796 -10.073   7.249  1.00  0.00     0.031 A 
BRANCH  56  70
ATOM     70  C   UNL     1       8.626  -6.955  11.470  1.00  0.00    -0.014 A 
ATOM     71  C   UNL     1       8.965  -7.846  12.515  1.00  0.00     0.010 A 
ATOM     72  C   UNL     1       7.310  -6.453  11.465  1.00  0.00     0.010 A 
ATOM     73  C   UNL     1       8.017  -8.263  13.461  1.00  0.00     0.020 A 
ATOM     74  C   UNL     1       6.368  -6.830  12.430  1.00  0.00     0.020 A 
ATOM     75  C   UNL     1       6.716  -7.764  13.398  1.00  0.00     0.054 A 
BRANCH  75  76
ATOM     76  S   UNL     1       5.461  -8.408  14.537  1.00  0.00     0.124 S 
ATOM     77  O   UNL     1       5.280  -9.770  14.043  1.00  0.00    -0.237 OA
ATOM     78  O   UNL     1       6.122  -8.289  15.835  1.00  0.00    -0.237 OA
ATOM     79  O   UNL     1       4.326  -7.511  14.337  1.00  0.00    -0.744 OA
ENDBRANCH  75  76
ENDBRANCH  56  70
BRANCH  57  80
ATOM     80  C   UNL     1       4.808  -8.717   4.332  1.00  0.00    -0.014 A 
ATOM     81  C   UNL     1       4.124  -9.940   4.280  1.00  0.00     0.010 A 
ATOM     82  C   UNL     1       4.074  -7.534   4.092  1.00  0.00     0.010 A 
ATOM     83  C   UNL     1       2.740  -9.976   4.050  1.00  0.00     0.020 A 
ATOM     84  C   UNL     1       2.696  -7.561   3.858  1.00  0.00     0.020 A 
ATOM     85  C   UNL     1       2.031  -8.784   3.862  1.00  0.00     0.054 A 
BRANCH  85  86
ATOM     86  S   UNL     1       0.219  -8.832   3.752  1.00  0.00     0.124 S 
ATOM     87  O   UNL     1       0.004  -9.432   2.439  1.00  0.00    -0.237 OA
ATOM     88  O   UNL     1      -0.144  -9.665   4.896  1.00  0.00    -0.237 OA
ATOM     89  O   UNL     1      -0.170  -7.427   3.864  1.00  0.00    -0.744 OA
ENDBRANCH  85  86
ENDBRANCH  57  80
BRANCH  69  90
ATOM     90  C   UNL     1      10.668 -10.408   6.056  1.00  0.00    -0.014 A 
ATOM     91  C   UNL     1      10.701  -9.624   4.886  1.00  0.00     0.010 A 
ATOM     92  C   UNL     1      11.607 -11.447   6.186  1.00  0.00     0.010 A 
ATOM     93  C   UNL     1      11.630  -9.882   3.867  1.00  0.00     0.020 A 
ATOM     94  C   UNL     1      12.548 -11.700   5.181  1.00  0.00     0.020 A 
ATOM     95  C   UNL     1      12.551 -10.919   4.023  1.00  0.00     0.054 A 
BRANCH  95  96
ATOM     96  S   UNL     1      13.796 -11.201   2.731  1.00  0.00     0.124 S 
ATOM     97  O   UNL     1      12.998 -11.739   1.633  1.00  0.00    -0.237 OA
ATOM     98  O   UNL     1      14.347  -9.865   2.512  1.00  0.00    -0.237 OA
ATOM     99  O   UNL     1      14.725 -12.150   3.344  1.00  0.00    -0.744 OA
ENDBRANCH  95  96
ENDBRANCH  69  90
ENDBRANCH  43  44
ENDBRANCH  35  38
ENDBRANCH  33  34
ENDBRANCH   1  33
TORSDOF 18
