REMARK SMILES Cc1c(Br)c(C)c2c(c1Br)O[C@H](C(F)(F)F)C(C(=O)NCCCCNC(=O)c1ccc(-c3c4nc(c(-c5ccc(S(=O)(=O)[O-])cc5)c5ccc([nH]5)c(-c5ccc(S(=O)(=O)[O-])cc5)c5nc(c(-c6ccc(S(=O)(=O)[O-])cc6)c6ccc3[nH]6)C=C5)C=C4)cc1)=C2
REMARK SMILES IDX 23 1 22 2 21 3 20 4 18 5 19 6 17 8 1 9 2 10 3 11 9 12 4 13
REMARK SMILES IDX 5 14 8 15 10 16 6 17 7 18 11 19 88 20 12 21 13 22 14 23
REMARK SMILES IDX 15 24 16 25 24 26 25 27 26 28 27 30 28 31 29 32 87 33 30 34
REMARK SMILES IDX 86 35 31 36 32 37 33 38 80 39 34 40 85 41 79 42 81 43 35 44
REMARK SMILES IDX 84 45 78 46 77 47 36 49 66 50 47 51 65 52 48 53 51 54 64 55
REMARK SMILES IDX 82 56 49 57 50 58 63 60 83 61 52 62 37 63 38 64 46 65 39 66
REMARK SMILES IDX 45 67 40 68 41 69 42 70 43 71 44 72 67 73 68 74 76 75 69 76
REMARK SMILES IDX 75 77 70 78 71 79 72 80 73 81 74 82 53 83 54 84 62 85 55 86
REMARK SMILES IDX 61 87 56 88 57 89 58 90 59 91 60 92
REMARK H PARENT 20 7 25 29 81 48 51 59
REMARK Flexibility Score: inf
ROOT
ATOM      1  C   UNL     1       0.144  -5.776   9.338  1.00  0.00     0.023 C 
ENDROOT
BRANCH   1   2
ATOM      2  C   UNL     1       0.202  -5.266   7.896  1.00  0.00     0.023 C 
BRANCH   2   3
ATOM      3  C   UNL     1      -1.123  -4.718   7.373  1.00  0.00     0.116 C 
BRANCH   3   4
ATOM      4  N   UNL     1      -1.310  -3.322   7.728  1.00  0.00    -0.352 N 
ATOM      5  C   UNL     1      -1.183  -2.123   7.114  1.00  0.00     0.251 C 
ATOM      6  O   UNL     1      -1.442  -1.141   7.817  1.00  0.00    -0.270 OA
ATOM      7  H   UNL     1      -1.607  -3.222   8.661  1.00  0.00     0.163 HD
BRANCH   5   8
ATOM      8  C   UNL     1      -0.770  -1.918   5.694  1.00  0.00     0.067 C 
ATOM      9  C   UNL     1       1.040   0.391  -0.177  1.00  0.00     0.047 C 
ATOM     10  C   UNL     1       0.587   0.162   1.246  1.00  0.00    -0.019 A 
ATOM     11  C   UNL     1       0.207   1.232   2.095  1.00  0.00     0.025 A 
ATOM     12  C   UNL     1       0.597  -1.139   1.786  1.00  0.00     0.064 A 
ATOM     13  Br  UNL     1       0.348   3.034   1.444  1.00  0.00    -0.050 Br
ATOM     14  C   UNL     1      -0.230   1.004   3.428  1.00  0.00    -0.026 A 
ATOM     15  C   UNL     1       0.187  -1.374   3.108  1.00  0.00     0.142 A 
ATOM     16  Br  UNL     1       1.193  -2.637   0.748  1.00  0.00    -0.046 Br
ATOM     17  C   UNL     1      -0.675   2.130   4.337  1.00  0.00     0.046 C 
ATOM     18  C   UNL     1      -0.220  -0.318   3.932  1.00  0.00     0.022 A 
ATOM     19  O   UNL     1       0.259  -2.660   3.577  1.00  0.00    -0.474 OA
ATOM     20  C   UNL     1      -0.571  -0.639   5.323  1.00  0.00     0.026 C 
ATOM     21  C   UNL     1      -0.610  -3.010   4.684  1.00  0.00     0.314 C 
BRANCH  21  22
ATOM     22  C   UNL     1      -1.954  -3.536   4.149  1.00  0.00     0.429 C 
ATOM     23  F   UNL     1      -1.775  -4.699   3.474  1.00  0.00    -0.167 F 
ATOM     24  F   UNL     1      -2.838  -3.798   5.139  1.00  0.00    -0.167 F 
ATOM     25  F   UNL     1      -2.553  -2.666   3.304  1.00  0.00    -0.167 F 
ENDBRANCH  21  22
ENDBRANCH   5   8
ENDBRANCH   3   4
ENDBRANCH   2   3
ENDBRANCH   1   2
BRANCH   1  26
ATOM     26  C   UNL     1      -0.920  -6.836   9.620  1.00  0.00     0.116 C 
BRANCH  26  27
ATOM     27  N   UNL     1      -0.896  -7.955   8.689  1.00  0.00    -0.352 N 
ATOM     28  C   UNL     1      -1.251  -9.261   8.930  1.00  0.00     0.251 C 
ATOM     29  H   UNL     1      -0.588  -7.752   7.776  1.00  0.00     0.163 HD
ATOM     30  O   UNL     1      -1.112 -10.118   8.063  1.00  0.00    -0.269 OA
BRANCH  28  31
ATOM     31  C   UNL     1      -1.758  -9.618  10.268  1.00  0.00     0.039 A 
ATOM     32  C   UNL     1      -1.086 -10.599  11.000  1.00  0.00     0.014 A 
ATOM     33  C   UNL     1      -2.837  -8.923  10.821  1.00  0.00     0.014 A 
ATOM     34  C   UNL     1      -1.453 -10.832  12.325  1.00  0.00     0.010 A 
ATOM     35  C   UNL     1      -3.164  -9.119  12.158  1.00  0.00     0.010 A 
ATOM     36  C   UNL     1      -2.468 -10.068  12.923  1.00  0.00    -0.014 A 
BRANCH  36  37
ATOM     37  C   UNL     1      -2.809 -10.244  14.354  1.00  0.00     0.031 A 
ATOM     38  C   UNL     1      -4.142 -10.816  14.743  1.00  0.00     0.074 A 
ATOM     39  C   UNL     1      -1.936  -9.847  15.301  1.00  0.00     0.049 A 
ATOM     40  N   UNL     1      -4.634 -11.015  15.938  1.00  0.00    -0.248 NA
ATOM     41  C   UNL     1      -5.048 -11.194  13.646  1.00  0.00     0.031 C 
ATOM     42  C   UNL     1      -0.623  -9.248  15.046  1.00  0.00     0.029 A 
ATOM     43  N   UNL     1      -2.019  -9.893  16.669  1.00  0.00    -0.354 N 
ATOM     44  C   UNL     1      -5.906 -11.535  15.738  1.00  0.00     0.074 A 
ATOM     45  C   UNL     1      -6.130 -11.573  14.309  1.00  0.00     0.031 C 
ATOM     46  C   UNL     1      -0.010  -9.018  16.220  1.00  0.00     0.029 A 
ATOM     47  C   UNL     1      -0.896  -9.424  17.307  1.00  0.00     0.049 A 
ATOM     48  H   UNL     1      -2.810 -10.231  17.149  1.00  0.00     0.167 HD
ATOM     49  C   UNL     1      -6.799 -11.966  16.659  1.00  0.00     0.031 A 
ATOM     50  C   UNL     1      -0.608  -9.336  18.620  1.00  0.00     0.031 A 
ATOM     51  C   UNL     1      -6.570 -11.939  18.077  1.00  0.00     0.049 A 
ATOM     52  C   UNL     1      -1.621  -9.806  19.626  1.00  0.00     0.074 A 
ATOM     53  C   UNL     1      -7.399 -12.386  19.091  1.00  0.00     0.029 A 
ATOM     54  N   UNL     1      -5.426 -11.442  18.682  1.00  0.00    -0.354 N 
ATOM     55  N   UNL     1      -2.805 -10.329  19.415  1.00  0.00    -0.248 NA
ATOM     56  C   UNL     1      -1.260  -9.676  21.044  1.00  0.00     0.031 C 
ATOM     57  C   UNL     1      -6.767 -12.131  20.313  1.00  0.00     0.029 A 
ATOM     58  C   UNL     1      -5.530 -11.559  20.057  1.00  0.00     0.049 A 
ATOM     59  H   UNL     1      -4.654 -11.062  18.204  1.00  0.00     0.167 HD
ATOM     60  C   UNL     1      -3.324 -10.605  20.674  1.00  0.00     0.074 A 
ATOM     61  C   UNL     1      -2.322 -10.201  21.640  1.00  0.00     0.031 C 
ATOM     62  C   UNL     1      -4.524 -11.146  21.000  1.00  0.00     0.031 A 
BRANCH  49  63
ATOM     63  C   UNL     1      -8.103 -12.511  16.148  1.00  0.00    -0.014 A 
ATOM     64  C   UNL     1      -8.156 -13.769  15.520  1.00  0.00     0.010 A 
ATOM     65  C   UNL     1      -9.287 -11.771  16.306  1.00  0.00     0.010 A 
ATOM     66  C   UNL     1      -9.364 -14.258  15.019  1.00  0.00     0.020 A 
ATOM     67  C   UNL     1     -10.503 -12.268  15.826  1.00  0.00     0.020 A 
ATOM     68  C   UNL     1     -10.529 -13.500  15.168  1.00  0.00     0.054 A 
BRANCH  68  69
ATOM     69  S   UNL     1     -12.085 -14.161  14.513  1.00  0.00     0.124 S 
ATOM     70  O   UNL     1     -11.921 -13.947  13.078  1.00  0.00    -0.237 OA
ATOM     71  O   UNL     1     -12.052 -15.556  14.948  1.00  0.00    -0.237 OA
ATOM     72  O   UNL     1     -13.108 -13.337  15.153  1.00  0.00    -0.744 OA
ENDBRANCH  68  69
ENDBRANCH  49  63
BRANCH  50  73
ATOM     73  C   UNL     1       0.715  -8.816  19.053  1.00  0.00    -0.014 A 
ATOM     74  C   UNL     1       1.701  -9.703  19.518  1.00  0.00     0.010 A 
ATOM     75  C   UNL     1       1.008  -7.444  18.972  1.00  0.00     0.010 A 
ATOM     76  C   UNL     1       2.959  -9.227  19.898  1.00  0.00     0.020 A 
ATOM     77  C   UNL     1       2.272  -6.965  19.334  1.00  0.00     0.020 A 
ATOM     78  C   UNL     1       3.237  -7.860  19.801  1.00  0.00     0.054 A 
BRANCH  78  79
ATOM     79  S   UNL     1       4.899  -7.274  20.233  1.00  0.00     0.124 S 
ATOM     80  O   UNL     1       4.873  -7.335  21.691  1.00  0.00    -0.237 OA
ATOM     81  O   UNL     1       5.761  -8.252  19.573  1.00  0.00    -0.237 OA
ATOM     82  O   UNL     1       4.946  -5.930  19.661  1.00  0.00    -0.744 OA
ENDBRANCH  78  79
ENDBRANCH  50  73
BRANCH  62  83
ATOM     83  C   UNL     1      -4.823 -11.342  22.459  1.00  0.00    -0.014 A 
ATOM     84  C   UNL     1      -5.215 -10.258  23.263  1.00  0.00     0.010 A 
ATOM     85  C   UNL     1      -4.799 -12.637  23.008  1.00  0.00     0.010 A 
ATOM     86  C   UNL     1      -5.574 -10.466  24.597  1.00  0.00     0.020 A 
ATOM     87  C   UNL     1      -5.175 -12.850  24.336  1.00  0.00     0.020 A 
ATOM     88  C   UNL     1      -5.555 -11.761  25.124  1.00  0.00     0.054 A 
BRANCH  88  89
ATOM     89  S   UNL     1      -6.100 -12.014  26.836  1.00  0.00     0.124 S 
ATOM     90  O   UNL     1      -4.958 -11.514  27.595  1.00  0.00    -0.237 OA
ATOM     91  O   UNL     1      -7.311 -11.200  26.912  1.00  0.00    -0.237 OA
ATOM     92  O   UNL     1      -6.321 -13.456  26.919  1.00  0.00    -0.744 OA
ENDBRANCH  88  89
ENDBRANCH  62  83
ENDBRANCH  36  37
ENDBRANCH  28  31
ENDBRANCH  26  27
ENDBRANCH   1  26
TORSDOF 15
