REMARK SMILES Cc1cc(NC[C@H](C)[NH+](C)C)cc(C(=O)NCCCCNC(=O)c2ccc(-c3c4nc(c(-c5ccc(S(=O)(=O)[O-])cc5)c5ccc([nH]5)c(-c5ccc(S(=O)(=O)[O-])cc5)c5nc(c(-c6ccc(S(=O)(=O)[O-])cc6)c6ccc3[nH]6)C=C5)C=C4)cc2)c1N
REMARK SMILES IDX 18 1 17 2 16 3 14 4 15 5 13 7 1 8 2 9 3 10 84 11 4 12 12 13
REMARK SMILES IDX 85 14 5 17 6 19 7 20 8 21 9 22 10 23 11 24 19 26 20 27 21 28
REMARK SMILES IDX 22 29 23 31 24 32 25 33 83 34 26 35 82 36 27 37 28 38 29 39
REMARK SMILES IDX 76 40 30 41 81 42 75 43 77 44 31 45 80 46 74 47 73 48 32 50
REMARK SMILES IDX 62 51 43 52 61 53 44 54 47 55 60 56 78 57 45 58 46 59 59 61
REMARK SMILES IDX 79 62 48 63 33 64 34 65 42 66 35 67 41 68 36 69 37 70 38 71
REMARK SMILES IDX 39 72 40 73 63 74 64 75 72 76 65 77 71 78 66 79 67 80 68 81
REMARK SMILES IDX 69 82 70 83 49 84 50 85 58 86 51 87 57 88 52 89 53 90 54 91
REMARK SMILES IDX 55 92 56 93
REMARK H PARENT 16 6 85 15 85 16 5 18 9 25 21 30 77 49 47 60
REMARK Flexibility Score: inf
ROOT
ATOM      1  C   UNL     1      -5.958   5.359  -1.442  1.00  0.00     0.023 C 
ENDROOT
BRANCH   1   2
ATOM      2  C   UNL     1      -4.844   6.131  -0.724  1.00  0.00     0.116 C 
BRANCH   2   3
ATOM      3  N   UNL     1      -5.353   7.365  -0.152  1.00  0.00    -0.352 N 
ATOM      4  C   UNL     1      -5.817   7.702   1.100  1.00  0.00     0.253 C 
ATOM      5  O   UNL     1      -6.156   8.879   1.257  1.00  0.00    -0.269 OA
ATOM      6  H   UNL     1      -5.369   8.114  -0.790  1.00  0.00     0.163 HD
BRANCH   4   7
ATOM      7  C   UNL     1      -5.899   6.746   2.258  1.00  0.00     0.065 A 
ATOM      8  C   UNL     1      -5.997   6.779   6.086  1.00  0.00     0.046 C 
ATOM      9  C   UNL     1      -5.969   6.314   4.655  1.00  0.00    -0.025 A 
ATOM     10  C   UNL     1      -5.993   4.930   4.391  1.00  0.00     0.031 A 
ATOM     11  C   UNL     1      -5.918   7.237   3.586  1.00  0.00     0.047 A 
ATOM     12  C   UNL     1      -5.986   4.435   3.090  1.00  0.00     0.035 A 
ATOM     13  C   UNL     1      -6.024   5.368   2.054  1.00  0.00     0.041 A 
BRANCH  11  14
ATOM     14  N   UNL     1      -5.738   8.599   3.858  1.00  0.00    -0.398 N 
ATOM     15  H   UNL     1      -5.755   8.921   4.789  1.00  0.00     0.156 HD
ATOM     16  H   UNL     1      -5.595   9.234   3.120  1.00  0.00     0.156 HD
ENDBRANCH  11  14
BRANCH  12  17
ATOM     17  N   UNL     1      -5.952   3.067   2.855  1.00  0.00    -0.379 N 
ATOM     18  H   UNL     1      -6.199   2.446   3.577  1.00  0.00     0.160 HD
BRANCH  17  19
ATOM     19  C   UNL     1      -5.554   2.530   1.550  1.00  0.00     0.177 C 
BRANCH  19  20
ATOM     20  C   UNL     1      -5.388   0.983   1.544  1.00  0.00     0.199 C 
ATOM     21  C   UNL     1      -4.468   0.590   0.372  1.00  0.00     0.077 C 
BRANCH  20  22
ATOM     22  N   UNL     1      -6.624   0.160   1.522  1.00  0.00    -0.336 N 
ATOM     23  C   UNL     1      -7.436   0.332   2.725  1.00  0.00     0.332 C 
ATOM     24  C   UNL     1      -7.457   0.344   0.332  1.00  0.00     0.332 C 
ATOM     25  H   UNL     1      -6.273  -0.797   1.493  1.00  0.00     0.347 HD
ENDBRANCH  20  22
ENDBRANCH  19  20
ENDBRANCH  17  19
ENDBRANCH  12  17
ENDBRANCH   4   7
ENDBRANCH   2   3
ENDBRANCH   1   2
BRANCH   1  26
ATOM     26  C   UNL     1      -6.278   5.870  -2.848  1.00  0.00     0.023 C 
BRANCH  26  27
ATOM     27  C   UNL     1      -5.161   5.678  -3.866  1.00  0.00     0.116 C 
BRANCH  27  28
ATOM     28  N   UNL     1      -4.779   4.285  -4.048  1.00  0.00    -0.352 N 
ATOM     29  C   UNL     1      -4.290   3.681  -5.184  1.00  0.00     0.251 C 
ATOM     30  H   UNL     1      -4.883   3.703  -3.260  1.00  0.00     0.163 HD
ATOM     31  O   UNL     1      -4.098   2.473  -5.211  1.00  0.00    -0.269 OA
BRANCH  29  32
ATOM     32  C   UNL     1      -4.053   4.512  -6.382  1.00  0.00     0.039 A 
ATOM     33  C   UNL     1      -4.657   4.143  -7.586  1.00  0.00     0.014 A 
ATOM     34  C   UNL     1      -3.301   5.687  -6.293  1.00  0.00     0.014 A 
ATOM     35  C   UNL     1      -4.575   5.000  -8.684  1.00  0.00     0.010 A 
ATOM     36  C   UNL     1      -3.273   6.567  -7.369  1.00  0.00     0.010 A 
ATOM     37  C   UNL     1      -3.921   6.237  -8.570  1.00  0.00    -0.014 A 
BRANCH  37  38
ATOM     38  C   UNL     1      -3.933   7.220  -9.681  1.00  0.00     0.031 A 
ATOM     39  C   UNL     1      -2.654   7.597 -10.373  1.00  0.00     0.074 A 
ATOM     40  C   UNL     1      -5.088   7.832 -10.009  1.00  0.00     0.049 A 
ATOM     41  N   UNL     1      -2.459   8.483 -11.315  1.00  0.00    -0.248 NA
ATOM     42  C   UNL     1      -1.432   6.908  -9.930  1.00  0.00     0.031 C 
ATOM     43  C   UNL     1      -6.387   7.590  -9.376  1.00  0.00     0.029 A 
ATOM     44  N   UNL     1      -5.353   8.794 -10.951  1.00  0.00    -0.354 N 
ATOM     45  C   UNL     1      -1.093   8.473 -11.564  1.00  0.00     0.074 A 
ATOM     46  C   UNL     1      -0.502   7.523 -10.647  1.00  0.00     0.031 C 
ATOM     47  C   UNL     1      -7.313   8.367  -9.961  1.00  0.00     0.029 A 
ATOM     48  C   UNL     1      -6.671   9.184 -10.986  1.00  0.00     0.049 A 
ATOM     49  H   UNL     1      -4.664   9.170 -11.546  1.00  0.00     0.167 HD
ATOM     50  C   UNL     1      -0.394   9.180 -12.485  1.00  0.00     0.031 A 
ATOM     51  C   UNL     1      -7.294  10.098 -11.754  1.00  0.00     0.031 A 
ATOM     52  C   UNL     1      -0.984  10.115 -13.404  1.00  0.00     0.049 A 
ATOM     53  C   UNL     1      -6.502  10.858 -12.780  1.00  0.00     0.074 A 
ATOM     54  C   UNL     1      -0.369  10.837 -14.412  1.00  0.00     0.029 A 
ATOM     55  N   UNL     1      -2.328  10.459 -13.428  1.00  0.00    -0.354 N 
ATOM     56  N   UNL     1      -5.219  10.787 -13.045  1.00  0.00    -0.248 NA
ATOM     57  C   UNL     1      -7.242  11.811 -13.617  1.00  0.00     0.031 C 
ATOM     58  C   UNL     1      -1.335  11.644 -15.023  1.00  0.00     0.029 A 
ATOM     59  C   UNL     1      -2.559  11.393 -14.423  1.00  0.00     0.049 A 
ATOM     60  H   UNL     1      -3.015  10.092 -12.826  1.00  0.00     0.167 HD
ATOM     61  C   UNL     1      -5.003  11.669 -14.098  1.00  0.00     0.074 A 
ATOM     62  C   UNL     1      -6.287  12.254 -14.426  1.00  0.00     0.031 C 
ATOM     63  C   UNL     1      -3.844  11.965 -14.736  1.00  0.00     0.031 A 
BRANCH  50  64
ATOM     64  C   UNL     1       1.095   8.964 -12.532  1.00  0.00    -0.014 A 
ATOM     65  C   UNL     1       1.636   7.763 -13.026  1.00  0.00     0.010 A 
ATOM     66  C   UNL     1       1.964   9.979 -12.093  1.00  0.00     0.010 A 
ATOM     67  C   UNL     1       3.018   7.561 -13.033  1.00  0.00     0.020 A 
ATOM     68  C   UNL     1       3.348   9.790 -12.122  1.00  0.00     0.020 A 
ATOM     69  C   UNL     1       3.865   8.573 -12.572  1.00  0.00     0.054 A 
BRANCH  69  70
ATOM     70  S   UNL     1       5.657   8.287 -12.591  1.00  0.00     0.124 S 
ATOM     71  O   UNL     1       5.833   7.414 -11.434  1.00  0.00    -0.237 OA
ATOM     72  O   UNL     1       5.869   7.656 -13.892  1.00  0.00    -0.237 OA
ATOM     73  O   UNL     1       6.222   9.627 -12.454  1.00  0.00    -0.744 OA
ENDBRANCH  69  70
ENDBRANCH  50  64
BRANCH  51  74
ATOM     74  C   UNL     1      -8.756  10.321 -11.596  1.00  0.00    -0.014 A 
ATOM     75  C   UNL     1      -9.655   9.829 -12.558  1.00  0.00     0.010 A 
ATOM     76  C   UNL     1      -9.258  10.998 -10.470  1.00  0.00     0.010 A 
ATOM     77  C   UNL     1     -11.031  10.017 -12.403  1.00  0.00     0.020 A 
ATOM     78  C   UNL     1     -10.635  11.169 -10.301  1.00  0.00     0.020 A 
ATOM     79  C   UNL     1     -11.512  10.684 -11.273  1.00  0.00     0.054 A 
BRANCH  79  80
ATOM     80  S   UNL     1     -13.306  10.859 -11.056  1.00  0.00     0.124 S 
ATOM     81  O   UNL     1     -13.620  11.940 -11.985  1.00  0.00    -0.237 OA
ATOM     82  O   UNL     1     -13.801   9.537 -11.433  1.00  0.00    -0.237 OA
ATOM     83  O   UNL     1     -13.446  11.186  -9.639  1.00  0.00    -0.744 OA
ENDBRANCH  79  80
ENDBRANCH  51  74
BRANCH  63  84
ATOM     84  C   UNL     1      -3.915  12.944 -15.875  1.00  0.00    -0.014 A 
ATOM     85  C   UNL     1      -4.065  14.322 -15.640  1.00  0.00     0.010 A 
ATOM     86  C   UNL     1      -3.773  12.482 -17.196  1.00  0.00     0.010 A 
ATOM     87  C   UNL     1      -4.096  15.219 -16.710  1.00  0.00     0.020 A 
ATOM     88  C   UNL     1      -3.782  13.379 -18.267  1.00  0.00     0.020 A 
ATOM     89  C   UNL     1      -3.956  14.742 -18.017  1.00  0.00     0.054 A 
BRANCH  89  90
ATOM     90  S   UNL     1      -3.950  15.929 -19.389  1.00  0.00     0.124 S 
ATOM     91  O   UNL     1      -5.370  16.244 -19.523  1.00  0.00    -0.237 OA
ATOM     92  O   UNL     1      -3.112  17.011 -18.876  1.00  0.00    -0.237 OA
ATOM     93  O   UNL     1      -3.371  15.173 -20.497  1.00  0.00    -0.744 OA
ENDBRANCH  89  90
ENDBRANCH  63  84
ENDBRANCH  37  38
ENDBRANCH  29  32
ENDBRANCH  27  28
ENDBRANCH  26  27
ENDBRANCH   1  26
TORSDOF 19
