REMARK SMILES O=C(NCCCCNC(=O)c1cc(-c2ccc(Cl)cc2)nc2c3c(C4CC4)cc(C(F)(F)F)nc3nn12)c1ccc(-c2c3nc(c(-c4ccc(S(=O)(=O)[O-])cc4)c4ccc([nH]4)c(-c4ccc(S(=O)(=O)[O-])cc4)c4nc(c(-c5ccc(S(=O)(=O)[O-])cc5)c5ccc2[nH]5)C=C4)C=C3)cc1
REMARK SMILES IDX 4 1 3 2 1 3 2 4 38 6 39 7 97 8 40 9 96 10 41 11 42 12 43 13
REMARK SMILES IDX 90 14 44 15 95 16 89 17 91 18 45 19 94 20 88 21 87 22 46 24
REMARK SMILES IDX 76 25 57 26 75 27 58 28 61 29 74 30 92 31 59 32 60 33 73 35
REMARK SMILES IDX 93 36 62 37 47 38 48 39 56 40 49 41 55 42 50 43 51 44 52 45
REMARK SMILES IDX 53 46 54 47 77 48 78 49 86 50 79 51 85 52 80 53 81 54 82 55
REMARK SMILES IDX 83 56 84 57 63 58 64 59 72 60 65 61 71 62 66 63 67 64 68 65
REMARK SMILES IDX 69 66 70 67 5 68 6 69 7 70 8 71 9 72 10 74 11 75 12 76 37 77
REMARK SMILES IDX 13 78 22 79 36 80 21 81 23 82 35 83 24 84 34 85 28 86 29 87
REMARK SMILES IDX 14 88 15 89 20 90 16 91 19 92 17 93 18 94 25 95 26 96 27 97
REMARK SMILES IDX 30 98 31 99 32 100 33 101
REMARK H PARENT 3 5 91 23 61 34 8 73
REMARK Flexibility Score: inf
ROOT
ATOM      1  C   UNL     1       4.845  -1.301  -0.606  1.00  0.00     0.116 C 
ENDROOT
BRANCH   1   2
ATOM      2  N   UNL     1       3.513  -0.725  -0.563  1.00  0.00    -0.352 N 
ATOM      3  O   UNL     1       1.949   0.750   0.162  1.00  0.00    -0.269 OA
ATOM      4  C   UNL     1       3.120   0.414   0.103  1.00  0.00     0.251 C 
ATOM      5  H   UNL     1       2.814  -1.201  -1.067  1.00  0.00     0.163 HD
BRANCH   4   6
ATOM      6  C   UNL     1       4.171   1.209   0.763  1.00  0.00     0.039 A 
ATOM      7  C   UNL     1       5.137   1.857  -0.015  1.00  0.00     0.014 A 
ATOM      8  C   UNL     1       4.235   1.219   2.155  1.00  0.00     0.014 A 
ATOM      9  C   UNL     1       6.214   2.476   0.608  1.00  0.00     0.010 A 
ATOM     10  C   UNL     1       5.306   1.857   2.776  1.00  0.00     0.010 A 
ATOM     11  C   UNL     1       6.300   2.485   2.007  1.00  0.00    -0.014 A 
BRANCH  11  12
ATOM     12  C   UNL     1       7.373   3.276   2.630  1.00  0.00     0.031 A 
ATOM     13  C   UNL     1       6.915   4.266   3.642  1.00  0.00     0.074 A 
ATOM     14  C   UNL     1       8.654   2.862   2.704  1.00  0.00     0.049 A 
ATOM     15  N   UNL     1       6.677   3.927   4.874  1.00  0.00    -0.248 NA
ATOM     16  C   UNL     1       6.444   5.601   3.283  1.00  0.00     0.031 C 
ATOM     17  C   UNL     1       9.078   1.459   2.659  1.00  0.00     0.029 A 
ATOM     18  N   UNL     1       9.788   3.550   3.060  1.00  0.00    -0.354 N 
ATOM     19  C   UNL     1       5.956   4.957   5.439  1.00  0.00     0.074 A 
ATOM     20  C   UNL     1       5.864   5.989   4.428  1.00  0.00     0.031 C 
ATOM     21  C   UNL     1      10.325   1.373   3.171  1.00  0.00     0.029 A 
ATOM     22  C   UNL     1      10.844   2.715   3.407  1.00  0.00     0.049 A 
ATOM     23  H   UNL     1       9.847   4.532   3.069  1.00  0.00     0.167 HD
ATOM     24  C   UNL     1       5.428   4.893   6.688  1.00  0.00     0.031 A 
ATOM     25  C   UNL     1      11.840   3.025   4.279  1.00  0.00     0.031 A 
ATOM     26  C   UNL     1       5.676   3.683   7.411  1.00  0.00     0.049 A 
ATOM     27  C   UNL     1      11.083   3.141   5.579  1.00  0.00     0.074 A 
ATOM     28  C   UNL     1       5.033   2.478   7.607  1.00  0.00     0.029 A 
ATOM     29  N   UNL     1       6.896   3.533   8.026  1.00  0.00    -0.354 N 
ATOM     30  N   UNL     1      10.691   2.153   6.338  1.00  0.00    -0.248 NA
ATOM     31  C   UNL     1      10.461   4.430   5.892  1.00  0.00     0.031 C 
ATOM     32  C   UNL     1       6.062   1.541   7.937  1.00  0.00     0.029 A 
ATOM     33  C   UNL     1       7.275   2.223   7.864  1.00  0.00     0.049 A 
ATOM     34  H   UNL     1       7.404   4.234   8.495  1.00  0.00     0.167 HD
ATOM     35  C   UNL     1       9.564   2.625   7.013  1.00  0.00     0.074 A 
ATOM     36  C   UNL     1       9.500   4.044   6.722  1.00  0.00     0.031 C 
ATOM     37  C   UNL     1       8.641   1.813   7.604  1.00  0.00     0.031 A 
BRANCH  24  38
ATOM     38  C   UNL     1       4.725   6.027   7.312  1.00  0.00    -0.014 A 
ATOM     39  C   UNL     1       5.475   6.954   8.053  1.00  0.00     0.010 A 
ATOM     40  C   UNL     1       3.326   6.126   7.283  1.00  0.00     0.010 A 
ATOM     41  C   UNL     1       4.835   7.948   8.790  1.00  0.00     0.020 A 
ATOM     42  C   UNL     1       2.680   7.127   8.016  1.00  0.00     0.020 A 
ATOM     43  C   UNL     1       3.440   8.022   8.775  1.00  0.00     0.054 A 
BRANCH  43  44
ATOM     44  S   UNL     1       2.643   9.272   9.819  1.00  0.00     0.124 S 
ATOM     45  O   UNL     1       3.207   8.986  11.135  1.00  0.00    -0.237 OA
ATOM     46  O   UNL     1       3.089  10.516   9.199  1.00  0.00    -0.237 OA
ATOM     47  O   UNL     1       1.217   8.983   9.678  1.00  0.00    -0.744 OA
ENDBRANCH  43  44
ENDBRANCH  24  38
BRANCH  25  48
ATOM     48  C   UNL     1      12.789   4.093   3.809  1.00  0.00    -0.014 A 
ATOM     49  C   UNL     1      13.270   4.025   2.481  1.00  0.00     0.010 A 
ATOM     50  C   UNL     1      13.249   5.155   4.607  1.00  0.00     0.010 A 
ATOM     51  C   UNL     1      14.063   5.038   1.935  1.00  0.00     0.020 A 
ATOM     52  C   UNL     1      14.025   6.190   4.061  1.00  0.00     0.020 A 
ATOM     53  C   UNL     1      14.405   6.136   2.720  1.00  0.00     0.054 A 
BRANCH  53  54
ATOM     54  S   UNL     1      15.322   7.495   1.948  1.00  0.00     0.124 S 
ATOM     55  O   UNL     1      16.530   6.827   1.470  1.00  0.00    -0.237 OA
ATOM     56  O   UNL     1      14.395   7.938   0.910  1.00  0.00    -0.237 OA
ATOM     57  O   UNL     1      15.525   8.441   3.043  1.00  0.00    -0.744 OA
ENDBRANCH  53  54
ENDBRANCH  25  48
BRANCH  37  58
ATOM     58  C   UNL     1       9.001   0.365   7.732  1.00  0.00    -0.014 A 
ATOM     59  C   UNL     1       9.890  -0.047   8.736  1.00  0.00     0.010 A 
ATOM     60  C   UNL     1       8.386  -0.606   6.920  1.00  0.00     0.010 A 
ATOM     61  C   UNL     1      10.118  -1.407   8.964  1.00  0.00     0.020 A 
ATOM     62  C   UNL     1       8.601  -1.968   7.151  1.00  0.00     0.020 A 
ATOM     63  C   UNL     1       9.452  -2.360   8.187  1.00  0.00     0.054 A 
BRANCH  63  64
ATOM     64  S   UNL     1       9.684  -4.115   8.578  1.00  0.00     0.124 S 
ATOM     65  O   UNL     1      11.132  -4.278   8.482  1.00  0.00    -0.237 OA
ATOM     66  O   UNL     1       9.130  -4.210   9.927  1.00  0.00    -0.237 OA
ATOM     67  O   UNL     1       8.914  -4.810   7.547  1.00  0.00    -0.744 OA
ENDBRANCH  63  64
ENDBRANCH  37  58
ENDBRANCH  11  12
ENDBRANCH   4   6
ENDBRANCH   1   2
BRANCH   1  68
ATOM     68  C   UNL     1       5.019  -2.422   0.414  1.00  0.00     0.023 C 
BRANCH  68  69
ATOM     69  C   UNL     1       4.424  -3.761  -0.020  1.00  0.00     0.023 C 
BRANCH  69  70
ATOM     70  C   UNL     1       4.851  -4.240  -1.405  1.00  0.00     0.116 C 
BRANCH  70  71
ATOM     71  N   UNL     1       6.292  -4.197  -1.612  1.00  0.00    -0.351 N 
ATOM     72  C   UNL     1       7.081  -5.039  -2.334  1.00  0.00     0.270 C 
ATOM     73  H   UNL     1       6.760  -3.454  -1.168  1.00  0.00     0.163 HD
ATOM     74  O   UNL     1       8.288  -4.832  -2.434  1.00  0.00    -0.268 OA
BRANCH  72  75
ATOM     75  C   UNL     1       6.485  -6.261  -2.893  1.00  0.00     0.134 A 
ATOM     76  C   UNL     1       6.976  -7.408  -2.403  1.00  0.00     0.063 A 
ATOM     77  N   UNL     1       5.466  -6.260  -3.837  1.00  0.00    -0.207 N 
ATOM     78  C   UNL     1       6.357  -8.644  -2.951  1.00  0.00     0.075 A 
ATOM     79  C   UNL     1       4.900  -7.478  -4.266  1.00  0.00     0.166 A 
ATOM     80  N   UNL     1       4.868  -5.186  -4.411  1.00  0.00    -0.145 NA
ATOM     81  N   UNL     1       5.401  -8.684  -3.835  1.00  0.00    -0.228 NA
ATOM     82  C   UNL     1       3.822  -7.116  -5.051  1.00  0.00     0.069 A 
ATOM     83  C   UNL     1       3.848  -5.692  -5.087  1.00  0.00     0.184 A 
ATOM     84  C   UNL     1       2.870  -7.948  -5.661  1.00  0.00    -0.028 A 
ATOM     85  N   UNL     1       2.914  -4.958  -5.735  1.00  0.00    -0.222 NA
ATOM     86  C   UNL     1       1.907  -7.146  -6.314  1.00  0.00     0.038 A 
ATOM     87  C   UNL     1       1.949  -5.720  -6.335  1.00  0.00     0.147 A 
BRANCH  78  88
ATOM     88  C   UNL     1       6.941  -9.895  -2.423  1.00  0.00     0.000 A 
ATOM     89  C   UNL     1       7.570 -10.774  -3.308  1.00  0.00     0.012 A 
ATOM     90  C   UNL     1       6.914 -10.162  -1.048  1.00  0.00     0.012 A 
ATOM     91  C   UNL     1       8.202 -11.915  -2.809  1.00  0.00     0.021 A 
ATOM     92  C   UNL     1       7.539 -11.309  -0.556  1.00  0.00     0.021 A 
ATOM     93  C   UNL     1       8.186 -12.176  -1.437  1.00  0.00     0.041 A 
ATOM     94  Cl  UNL     1       8.975 -13.579  -0.829  1.00  0.00    -0.084 Cl
ENDBRANCH  78  88
BRANCH  84  95
ATOM     95  C   UNL     1       2.926  -9.443  -5.619  1.00  0.00     0.020 C 
ATOM     96  C   UNL     1       1.804 -10.318  -6.122  1.00  0.00     0.009 C 
ATOM     97  C   UNL     1       3.062 -10.190  -6.927  1.00  0.00     0.009 C 
ENDBRANCH  84  95
BRANCH  87  98
ATOM     98  C   UNL     1       0.840  -4.970  -7.070  1.00  0.00     0.433 C 
ATOM     99  F   UNL     1       0.075  -4.204  -6.241  1.00  0.00    -0.165 F 
ATOM    100  F   UNL     1       1.309  -4.133  -8.039  1.00  0.00    -0.165 F 
ATOM    101  F   UNL     1      -0.041  -5.799  -7.708  1.00  0.00    -0.165 F 
ENDBRANCH  87  98
ENDBRANCH  72  75
ENDBRANCH  70  71
ENDBRANCH  69  70
ENDBRANCH  68  69
ENDBRANCH   1  68
TORSDOF 17
