REMARK SMILES O=C(NCCCCNC(=O)c1ccc(-c2c3nc(c(-c4ccc(S(=O)(=O)[O-])cc4)c4ccc([nH]4)c(-c4ccc(S(=O)(=O)[O-])cc4)c4nc(c(-c5ccc(S(=O)(=O)[O-])cc5)c5ccc2[nH]5)C=C4)C=C3)cc1)C1=Cc2cc(S(F)(F)(F)(F)F)ccc2O[C@@H]1C(F)(F)F
REMARK SMILES IDX 6 1 5 2 4 3 3 4 1 5 2 6 71 8 72 9 86 10 73 11 85 12 74 13
REMARK SMILES IDX 84 14 75 15 83 16 82 17 87 18 88 19 89 20 90 21 76 22 77 23
REMARK SMILES IDX 78 24 79 25 80 26 81 27 7 28 8 29 9 30 10 32 11 33 12 34
REMARK SMILES IDX 70 35 13 36 69 37 14 38 15 39 16 40 63 41 17 42 68 43 62 44
REMARK SMILES IDX 64 45 18 46 67 47 61 48 60 49 19 51 49 52 30 53 48 54 31 55
REMARK SMILES IDX 34 56 47 57 65 58 32 59 33 60 46 62 66 63 35 64 20 65 21 66
REMARK SMILES IDX 29 67 22 68 28 69 23 70 24 71 25 72 26 73 27 74 50 75 51 76
REMARK SMILES IDX 59 77 52 78 58 79 53 80 54 81 55 82 56 83 57 84 36 85 37 86
REMARK SMILES IDX 45 87 38 88 44 89 39 90 40 91 41 92 42 93 43 94
REMARK H PARENT 3 7 8 31 64 50 34 61
REMARK Flexibility Score: inf
ROOT
ATOM      1  C   UNL     1       4.540  -1.265  -3.333  1.00  0.00     0.023 C 
ENDROOT
BRANCH   1   2
ATOM      2  C   UNL     1       5.047  -1.238  -1.901  1.00  0.00     0.023 C 
BRANCH   2   3
ATOM      3  C   UNL     1       4.540   0.016  -1.207  1.00  0.00     0.116 C 
BRANCH   3   4
ATOM      4  N   UNL     1       3.070   0.016  -1.207  1.00  0.00    -0.352 N 
ATOM      5  O   UNL     1       1.064   0.040   0.066  1.00  0.00    -0.270 OA
ATOM      6  C   UNL     1       2.335   0.040   0.066  1.00  0.00     0.251 C 
ATOM      7  H   UNL     1       2.578   0.000  -2.060  1.00  0.00     0.163 HD
BRANCH   6   8
ATOM      8  C   UNL     1       3.095   0.064   1.382  1.00  0.00     0.067 C 
ATOM      9  C   UNL     1       4.455   0.064   1.382  1.00  0.00     0.025 C 
ATOM     10  C   UNL     1       2.335   0.088   2.698  1.00  0.00     0.314 C 
ATOM     11  C   UNL     1       5.215   0.040   0.066  1.00  0.00     0.019 A 
ATOM     12  O   UNL     1       3.630   1.585  -0.798  1.00  0.00    -0.475 OA
ATOM     13  C   UNL     1       6.294  -0.817  -0.080  1.00  0.00     0.036 A 
ATOM     14  C   UNL     1       4.832   0.840  -0.922  1.00  0.00     0.128 A 
ATOM     15  C   UNL     1       7.091  -0.547  -1.218  1.00  0.00     0.107 A 
ATOM     16  C   UNL     1       5.589   0.953  -2.064  1.00  0.00     0.048 A 
ATOM     17  C   UNL     1       6.701   0.179  -2.250  1.00  0.00     0.028 A 
BRANCH  10  18
ATOM     18  C   UNL     1       2.702   1.344   3.472  1.00  0.00     0.429 C 
ATOM     19  F   UNL     1       2.381   2.417   2.755  1.00  0.00    -0.167 F 
ATOM     20  F   UNL     1       2.037   1.365   4.623  1.00  0.00    -0.167 F 
ATOM     21  F   UNL     1       4.010   1.349   3.715  1.00  0.00    -0.167 F 
ENDBRANCH  10  18
BRANCH  15  22
ATOM     22  S   UNL     1       8.760  -1.245  -1.262  1.00  0.00     0.310 S 
ATOM     23  F   UNL     1       8.867  -1.250   0.320  1.00  0.00    -0.094 F 
ATOM     24  F   UNL     1       9.342   0.218  -1.228  1.00  0.00    -0.094 F 
ATOM     25  F   UNL     1      10.194  -1.845  -1.300  1.00  0.00    -0.094 F 
ATOM     26  F   UNL     1       8.162  -2.703  -1.154  1.00  0.00    -0.094 F 
ATOM     27  F   UNL     1       7.303  -0.652  -1.110  1.00  0.00    -0.094 F 
ENDBRANCH  15  22
ENDBRANCH   6   8
ENDBRANCH   3   4
ENDBRANCH   2   3
ENDBRANCH   1   2
BRANCH   1  28
ATOM     28  C   UNL     1       5.047  -0.037  -4.073  1.00  0.00     0.116 C 
BRANCH  28  29
ATOM     29  N   UNL     1       6.517  -0.037  -4.073  1.00  0.00    -0.352 N 
ATOM     30  C   UNL     1       7.252  -0.061  -5.346  1.00  0.00     0.251 C 
ATOM     31  H   UNL     1       7.009  -0.021  -3.220  1.00  0.00     0.163 HD
ATOM     32  O   UNL     1       8.523  -0.061  -5.346  1.00  0.00    -0.269 OA
BRANCH  30  33
ATOM     33  C   UNL     1       6.492  -0.085  -6.662  1.00  0.00     0.039 A 
ATOM     34  C   UNL     1       6.891  -0.957  -7.661  1.00  0.00     0.014 A 
ATOM     35  C   UNL     1       5.457   0.730  -6.832  1.00  0.00     0.014 A 
ATOM     36  C   UNL     1       6.308  -0.690  -8.922  1.00  0.00     0.010 A 
ATOM     37  C   UNL     1       4.849   0.841  -8.059  1.00  0.00     0.010 A 
ATOM     38  C   UNL     1       5.232   0.052  -9.108  1.00  0.00    -0.014 A 
BRANCH  38  39
ATOM     39  C   UNL     1       4.460   0.030 -10.417  1.00  0.00     0.031 A 
ATOM     40  C   UNL     1       4.340   1.225 -11.127  1.00  0.00     0.074 A 
ATOM     41  C   UNL     1       3.918  -1.175 -10.831  1.00  0.00     0.049 A 
ATOM     42  N   UNL     1       3.738   1.416 -12.303  1.00  0.00    -0.248 NA
ATOM     43  C   UNL     1       4.885   2.513 -10.672  1.00  0.00     0.031 C 
ATOM     44  C   UNL     1       4.042  -2.387 -10.124  1.00  0.00     0.029 A 
ATOM     45  N   UNL     1       3.180  -1.423 -11.967  1.00  0.00    -0.354 N 
ATOM     46  C   UNL     1       3.847   2.694 -12.674  1.00  0.00     0.074 A 
ATOM     47  C   UNL     1       4.580   3.419 -11.627  1.00  0.00     0.031 C 
ATOM     48  C   UNL     1       3.379  -3.349 -10.818  1.00  0.00     0.029 A 
ATOM     49  C   UNL     1       2.830  -2.755 -11.970  1.00  0.00     0.049 A 
ATOM     50  H   UNL     1       2.944  -0.763 -12.658  1.00  0.00     0.167 HD
ATOM     51  C   UNL     1       3.364   3.282 -13.844  1.00  0.00     0.031 A 
ATOM     52  C   UNL     1       2.074  -3.432 -12.914  1.00  0.00     0.031 A 
ATOM     53  C   UNL     1       2.645   2.595 -14.809  1.00  0.00     0.049 A 
ATOM     54  C   UNL     1       1.541  -2.830 -14.057  1.00  0.00     0.074 A 
ATOM     55  C   UNL     1       2.158   3.171 -15.998  1.00  0.00     0.029 A 
ATOM     56  N   UNL     1       2.274   1.269 -14.800  1.00  0.00    -0.354 N 
ATOM     57  N   UNL     1       1.683  -1.563 -14.447  1.00  0.00    -0.248 NA
ATOM     58  C   UNL     1       0.712  -3.530 -15.047  1.00  0.00     0.031 C 
ATOM     59  C   UNL     1       1.495   2.208 -16.692  1.00  0.00     0.029 A 
ATOM     60  C   UNL     1       1.556   1.015 -15.947  1.00  0.00     0.049 A 
ATOM     61  H   UNL     1       2.486   0.615 -14.095  1.00  0.00     0.167 HD
ATOM     62  C   UNL     1       1.046  -1.363 -15.602  1.00  0.00     0.074 A 
ATOM     63  C   UNL     1       0.405  -2.623 -16.001  1.00  0.00     0.031 C 
ATOM     64  C   UNL     1       0.976  -0.181 -16.341  1.00  0.00     0.031 A 
BRANCH  51  65
ATOM     65  C   UNL     1       3.643   4.759 -14.073  1.00  0.00    -0.014 A 
ATOM     66  C   UNL     1       4.947   5.222 -14.148  1.00  0.00     0.010 A 
ATOM     67  C   UNL     1       2.611   5.583 -14.202  1.00  0.00     0.010 A 
ATOM     68  C   UNL     1       5.059   6.630 -14.074  1.00  0.00     0.020 A 
ATOM     69  C   UNL     1       2.804   6.942 -14.260  1.00  0.00     0.020 A 
ATOM     70  C   UNL     1       4.064   7.473 -14.278  1.00  0.00     0.054 A 
BRANCH  70  71
ATOM     71  S   UNL     1       4.351   9.237 -14.568  1.00  0.00     0.124 S 
ATOM     72  O   UNL     1       5.071   9.841 -13.361  1.00  0.00    -0.237 OA
ATOM     73  O   UNL     1       5.215   9.414 -15.819  1.00  0.00    -0.237 OA
ATOM     74  O   UNL     1       2.852  10.029 -14.794  1.00  0.00    -0.744 OA
ENDBRANCH  70  71
ENDBRANCH  51  65
BRANCH  52  75
ATOM     75  C   UNL     1       1.809  -4.912 -12.694  1.00  0.00    -0.014 A 
ATOM     76  C   UNL     1       2.223  -5.832 -13.643  1.00  0.00     0.010 A 
ATOM     77  C   UNL     1       1.165  -5.296 -11.598  1.00  0.00     0.010 A 
ATOM     78  C   UNL     1       1.651  -7.117 -13.484  1.00  0.00     0.020 A 
ATOM     79  C   UNL     1       0.754  -6.599 -11.447  1.00  0.00     0.020 A 
ATOM     80  C   UNL     1       1.077  -7.549 -12.376  1.00  0.00     0.054 A 
BRANCH  80  81
ATOM     81  S   UNL     1       0.736  -9.305 -12.101  1.00  0.00     0.124 S 
ATOM     82  O   UNL     1      -0.199  -9.821 -13.197  1.00  0.00    -0.237 OA
ATOM     83  O   UNL     1       2.048 -10.092 -12.138  1.00  0.00    -0.237 OA
ATOM     84  O   UNL     1      -0.008  -9.509 -10.575  1.00  0.00    -0.744 OA
ENDBRANCH  80  81
ENDBRANCH  52  75
BRANCH  64  85
ATOM     85  C   UNL     1       0.218  -0.207 -17.659  1.00  0.00    -0.014 A 
ATOM     86  C   UNL     1      -1.126  -0.541 -17.663  1.00  0.00     0.010 A 
ATOM     87  C   UNL     1       0.857   0.092 -18.784  1.00  0.00     0.010 A 
ATOM     88  C   UNL     1      -1.645  -0.815 -18.950  1.00  0.00     0.020 A 
ATOM     89  C   UNL     1       0.242  -0.071 -20.002  1.00  0.00     0.020 A 
ATOM     90  C   UNL     1      -1.068  -0.457 -20.082  1.00  0.00     0.054 A 
BRANCH  90  91
ATOM     91  S   UNL     1      -1.961  -0.474 -21.656  1.00  0.00     0.124 S 
ATOM     92  O   UNL     1      -2.446  -1.895 -21.952  1.00  0.00    -0.237 OA
ATOM     93  O   UNL     1      -3.165   0.468 -21.570  1.00  0.00    -0.237 OA
ATOM     94  O   UNL     1      -0.920   0.045 -22.909  1.00  0.00    -0.744 OA
ENDBRANCH  90  91
ENDBRANCH  64  85
ENDBRANCH  38  39
ENDBRANCH  30  33
ENDBRANCH  28  29
ENDBRANCH   1  28
TORSDOF 16
