REMARK SMILES O=C(/C=C\N1[C@@H]2CC[C@H]1C[C@H](O)C2)NCCCCNC(=O)c1ccc(-c2c3nc(c(-c4ccc(S(=O)(=O)[O-])cc4)c4ccc([nH]4)c(-c4ccc(S(=O)(=O)[O-])cc4)c4nc(c(-c5ccc(S(=O)(=O)[O-])cc5)c5ccc2[nH]5)C=C4)C=C3)cc1
REMARK SMILES IDX 17 1 16 2 15 3 14 4 1 5 2 6 3 8 4 9 5 10 6 11 9 12 7 13
REMARK SMILES IDX 13 14 8 15 10 16 11 17 12 18 18 20 19 21 20 22 21 24 22 25
REMARK SMILES IDX 23 26 81 27 24 28 80 29 25 30 26 31 27 32 74 33 28 34 79 35
REMARK SMILES IDX 73 36 75 37 29 38 78 39 72 40 71 41 30 43 60 44 41 45 59 46
REMARK SMILES IDX 42 47 45 48 58 49 76 50 43 51 44 52 57 54 77 55 46 56 31 57
REMARK SMILES IDX 32 58 40 59 33 60 39 61 34 62 35 63 36 64 37 65 38 66 61 67
REMARK SMILES IDX 62 68 70 69 63 70 69 71 64 72 65 73 66 74 67 75 68 76 47 77
REMARK SMILES IDX 48 78 56 79 49 80 55 81 50 82 51 83 52 84 53 85 54 86
REMARK H PARENT 14 7 12 19 19 23 75 42 45 53
REMARK Flexibility Score: inf
ROOT
ATOM      1  C   UNL     1       3.195  -0.116   4.433  1.00  0.00     0.023 C 
ENDROOT
BRANCH   1   2
ATOM      2  C   UNL     1       1.819  -0.141   3.745  1.00  0.00     0.023 C 
BRANCH   2   3
ATOM      3  C   UNL     1       1.577   0.726   2.497  1.00  0.00     0.116 C 
BRANCH   3   4
ATOM      4  N   UNL     1       2.407   0.445   1.339  1.00  0.00    -0.353 N 
ATOM      5  O   UNL     1       1.022  -1.021   0.248  1.00  0.00    -0.270 OA
ATOM      6  C   UNL     1       2.067  -0.386   0.307  1.00  0.00     0.245 C 
ATOM      7  H   UNL     1       3.285   0.888   1.293  1.00  0.00     0.163 HD
BRANCH   6   8
ATOM      8  C   UNL     1       2.985  -0.366  -0.875  1.00  0.00     0.088 C 
ATOM      9  C   UNL     1       4.287  -0.077  -1.027  1.00  0.00     0.087 C 
BRANCH   9  10
ATOM     10  N   UNL     1       5.322   0.241  -0.176  1.00  0.00    -0.371 N 
ATOM     11  C   UNL     1       6.587   0.900  -0.544  1.00  0.00     0.084 C 
ATOM     12  C   UNL     1       5.463  -0.065   1.241  1.00  0.00     0.084 C 
ATOM     13  C   UNL     1       7.651   0.199   0.341  1.00  0.00     0.027 C 
ATOM     14  C   UNL     1       6.432   2.377  -0.134  1.00  0.00     0.056 C 
ATOM     15  C   UNL     1       6.850  -0.702   1.275  1.00  0.00     0.027 C 
ATOM     16  C   UNL     1       5.486   1.275   2.004  1.00  0.00     0.056 C 
ATOM     17  C   UNL     1       5.547   2.525   1.117  1.00  0.00     0.118 C 
BRANCH  17  18
ATOM     18  O   UNL     1       4.198   2.838   0.719  1.00  0.00    -0.393 OA
ATOM     19  H   UNL     1       3.834   2.102   0.202  1.00  0.00     0.210 HD
ENDBRANCH  17  18
ENDBRANCH   9  10
ENDBRANCH   6   8
ENDBRANCH   3   4
ENDBRANCH   2   3
ENDBRANCH   1   2
BRANCH   1  20
ATOM     20  C   UNL     1       3.809   1.239   4.806  1.00  0.00     0.116 C 
BRANCH  20  21
ATOM     21  N   UNL     1       3.501   1.747   6.121  1.00  0.00    -0.352 N 
ATOM     22  C   UNL     1       4.337   2.339   7.046  1.00  0.00     0.251 C 
ATOM     23  H   UNL     1       2.561   1.659   6.397  1.00  0.00     0.163 HD
ATOM     24  O   UNL     1       3.843   2.776   8.085  1.00  0.00    -0.269 OA
BRANCH  22  25
ATOM     25  C   UNL     1       5.820   2.413   6.870  1.00  0.00     0.039 A 
ATOM     26  C   UNL     1       6.609   2.071   7.976  1.00  0.00     0.014 A 
ATOM     27  C   UNL     1       6.457   2.861   5.707  1.00  0.00     0.014 A 
ATOM     28  C   UNL     1       8.008   2.127   7.906  1.00  0.00     0.010 A 
ATOM     29  C   UNL     1       7.865   2.870   5.622  1.00  0.00     0.010 A 
ATOM     30  C   UNL     1       8.661   2.499   6.720  1.00  0.00    -0.014 A 
BRANCH  30  31
ATOM     31  C   UNL     1      10.157   2.471   6.648  1.00  0.00     0.031 A 
ATOM     32  C   UNL     1      10.965   3.737   6.490  1.00  0.00     0.074 A 
ATOM     33  C   UNL     1      10.812   1.293   6.743  1.00  0.00     0.049 A 
ATOM     34  N   UNL     1      12.268   3.887   6.458  1.00  0.00    -0.248 NA
ATOM     35  C   UNL     1      10.217   4.993   6.342  1.00  0.00     0.031 C 
ATOM     36  C   UNL     1      10.175  -0.017   6.889  1.00  0.00     0.029 A 
ATOM     37  N   UNL     1      12.159   1.004   6.744  1.00  0.00    -0.354 N 
ATOM     38  C   UNL     1      12.497   5.249   6.286  1.00  0.00     0.074 A 
ATOM     39  C   UNL     1      11.195   5.874   6.174  1.00  0.00     0.031 C 
ATOM     40  C   UNL     1      11.124  -0.960   6.997  1.00  0.00     0.029 A 
ATOM     41  C   UNL     1      12.440  -0.336   6.886  1.00  0.00     0.049 A 
ATOM     42  H   UNL     1      12.856   1.693   6.650  1.00  0.00     0.167 HD
ATOM     43  C   UNL     1      13.675   5.922   6.240  1.00  0.00     0.031 A 
ATOM     44  C   UNL     1      13.615  -1.000   6.920  1.00  0.00     0.031 A 
ATOM     45  C   UNL     1      14.976   5.309   6.345  1.00  0.00     0.049 A 
ATOM     46  C   UNL     1      14.909  -0.235   6.820  1.00  0.00     0.074 A 
ATOM     47  C   UNL     1      16.218   5.925   6.348  1.00  0.00     0.029 A 
ATOM     48  N   UNL     1      15.212   3.947   6.454  1.00  0.00    -0.354 N 
ATOM     49  N   UNL     1      15.096   1.058   6.718  1.00  0.00    -0.248 NA
ATOM     50  C   UNL     1      16.151  -1.022   6.853  1.00  0.00     0.031 C 
ATOM     51  C   UNL     1      17.203   4.933   6.390  1.00  0.00     0.029 A 
ATOM     52  C   UNL     1      16.577   3.702   6.489  1.00  0.00     0.049 A 
ATOM     53  H   UNL     1      14.513   3.256   6.499  1.00  0.00     0.167 HD
ATOM     54  C   UNL     1      16.476   1.241   6.704  1.00  0.00     0.074 A 
ATOM     55  C   UNL     1      17.075  -0.071   6.824  1.00  0.00     0.031 C 
ATOM     56  C   UNL     1      17.178   2.397   6.604  1.00  0.00     0.031 A 
BRANCH  43  57
ATOM     57  C   UNL     1      13.620   7.419   6.049  1.00  0.00    -0.014 A 
ATOM     58  C   UNL     1      13.143   8.268   7.064  1.00  0.00     0.010 A 
ATOM     59  C   UNL     1      14.112   7.991   4.860  1.00  0.00     0.010 A 
ATOM     60  C   UNL     1      13.116   9.654   6.876  1.00  0.00     0.020 A 
ATOM     61  C   UNL     1      14.117   9.378   4.680  1.00  0.00     0.020 A 
ATOM     62  C   UNL     1      13.601  10.200   5.684  1.00  0.00     0.054 A 
BRANCH  62  63
ATOM     63  S   UNL     1      13.566  12.001   5.474  1.00  0.00     0.124 S 
ATOM     64  O   UNL     1      12.136  12.259   5.323  1.00  0.00    -0.237 OA
ATOM     65  O   UNL     1      14.162  12.479   6.719  1.00  0.00    -0.237 OA
ATOM     66  O   UNL     1      14.368  12.228   4.274  1.00  0.00    -0.744 OA
ENDBRANCH  62  63
ENDBRANCH  43  57
BRANCH  44  67
ATOM     67  C   UNL     1      13.625  -2.485   7.051  1.00  0.00    -0.014 A 
ATOM     68  C   UNL     1      14.111  -3.104   8.217  1.00  0.00     0.010 A 
ATOM     69  C   UNL     1      13.150  -3.291   6.000  1.00  0.00     0.010 A 
ATOM     70  C   UNL     1      14.135  -4.499   8.322  1.00  0.00     0.020 A 
ATOM     71  C   UNL     1      13.142  -4.684   6.114  1.00  0.00     0.020 A 
ATOM     72  C   UNL     1      13.646  -5.280   7.271  1.00  0.00     0.054 A 
BRANCH  72  73
ATOM     73  S   UNL     1      13.638  -7.085   7.451  1.00  0.00     0.124 S 
ATOM     74  O   UNL     1      15.057  -7.408   7.344  1.00  0.00    -0.237 OA
ATOM     75  O   UNL     1      13.043  -7.267   8.772  1.00  0.00    -0.237 OA
ATOM     76  O   UNL     1      12.807  -7.535   6.335  1.00  0.00    -0.744 OA
ENDBRANCH  72  73
ENDBRANCH  44  67
BRANCH  56  77
ATOM     77  C   UNL     1      18.684   2.310   6.653  1.00  0.00    -0.014 A 
ATOM     78  C   UNL     1      19.424   1.752   5.595  1.00  0.00     0.010 A 
ATOM     79  C   UNL     1      19.374   2.842   7.759  1.00  0.00     0.010 A 
ATOM     80  C   UNL     1      20.821   1.700   5.655  1.00  0.00     0.020 A 
ATOM     81  C   UNL     1      20.771   2.821   7.809  1.00  0.00     0.020 A 
ATOM     82  C   UNL     1      21.486   2.237   6.762  1.00  0.00     0.054 A 
BRANCH  82  83
ATOM     83  S   UNL     1      23.300   2.196   6.795  1.00  0.00     0.124 S 
ATOM     84  O   UNL     1      23.569   0.777   7.014  1.00  0.00    -0.237 OA
ATOM     85  O   UNL     1      23.655   2.707   5.474  1.00  0.00    -0.237 OA
ATOM     86  O   UNL     1      23.647   3.074   7.910  1.00  0.00    -0.744 OA
ENDBRANCH  82  83
ENDBRANCH  56  77
ENDBRANCH  30  31
ENDBRANCH  22  25
ENDBRANCH  20  21
ENDBRANCH   1  20
TORSDOF 16
