REMARK SMILES C[C@H]1CCC[C@H](C)N1C(=O)C[N@@H+](CC(=O)NCCCCNC(=O)c1ccc(-c2c3nc(c(-c4ccc(S(=O)(=O)[O-])cc4)c4ccc([nH]4)c(-c4ccc(S(=O)(=O)[O-])cc4)c4nc(c(-c5ccc(S(=O)(=O)[O-])cc5)c5ccc2[nH]5)C=C4)C=C3)cc1)C(C)(C)C
REMARK SMILES IDX 18 1 17 2 16 3 14 4 15 5 13 7 12 8 11 10 9 11 1 12 2 13 3 14
REMARK SMILES IDX 8 15 4 16 6 17 5 18 7 19 10 20 84 21 85 22 86 23 87 24 19 25
REMARK SMILES IDX 20 26 21 27 22 28 23 30 24 31 25 32 83 33 26 34 82 35 27 36
REMARK SMILES IDX 28 37 29 38 76 39 30 40 81 41 75 42 77 43 31 44 80 45 74 46
REMARK SMILES IDX 73 47 32 49 62 50 43 51 61 52 44 53 47 54 60 55 78 56 45 57
REMARK SMILES IDX 46 58 59 60 79 61 48 62 33 63 34 64 42 65 35 66 41 67 36 68
REMARK SMILES IDX 37 69 38 70 39 71 40 72 63 73 64 74 72 75 65 76 71 77 66 78
REMARK SMILES IDX 67 79 68 80 69 81 70 82 49 83 50 84 58 85 51 86 57 87 52 88
REMARK SMILES IDX 53 89 54 90 55 91 56 92
REMARK H PARENT 16 6 12 9 21 29 77 48 47 59
REMARK Flexibility Score: inf
ROOT
ATOM      1  C   UNL     1       4.559   2.600   4.714  1.00  0.00     0.023 C 
ENDROOT
BRANCH   1   2
ATOM      2  C   UNL     1       4.274   1.219   5.317  1.00  0.00     0.116 C 
BRANCH   2   3
ATOM      3  N   UNL     1       3.352   1.283   6.436  1.00  0.00    -0.351 N 
ATOM      4  C   UNL     1       2.043   0.920   6.562  1.00  0.00     0.275 C 
ATOM      5  O   UNL     1       1.577   0.942   7.709  1.00  0.00    -0.269 OA
ATOM      6  H   UNL     1       3.745   1.659   7.257  1.00  0.00     0.163 HD
BRANCH   4   7
ATOM      7  C   UNL     1       1.171   0.431   5.391  1.00  0.00     0.364 C 
BRANCH   7   8
ATOM      8  N   UNL     1       0.625   1.444   4.421  1.00  0.00    -0.315 N 
ATOM      9  H   UNL     1      -0.147   1.033   3.896  1.00  0.00     0.349 HD
BRANCH   8  10
ATOM     10  C   UNL     1       1.681   1.760   3.447  1.00  0.00     0.364 C 
BRANCH  10  11
ATOM     11  C   UNL     1       1.377   2.457   2.141  1.00  0.00     0.278 C 
ATOM     12  C   UNL     1       0.575  -0.643   1.919  1.00  0.00     0.031 C 
ATOM     13  C   UNL     1       0.221   0.466   0.938  1.00  0.00     0.082 C 
ATOM     14  C   UNL     1      -1.296   0.686   0.861  1.00  0.00     0.025 C 
ATOM     15  N   UNL     1       0.885   1.787   1.027  1.00  0.00    -0.332 N 
ATOM     16  C   UNL     1      -1.654   1.595  -0.321  1.00  0.00     0.004 C 
ATOM     17  C   UNL     1       0.672   2.639  -0.164  1.00  0.00     0.082 C 
ATOM     18  C   UNL     1      -0.834   2.886  -0.331  1.00  0.00     0.025 C 
ATOM     19  C   UNL     1       1.354   2.092  -1.421  1.00  0.00     0.031 C 
ATOM     20  O   UNL     1       1.738   3.642   2.053  1.00  0.00    -0.268 OA
ENDBRANCH  10  11
ENDBRANCH   8  10
BRANCH   8  21
ATOM     21  C   UNL     1      -0.158   2.574   5.015  1.00  0.00     0.090 C 
ATOM     22  C   UNL     1       0.606   3.499   5.990  1.00  0.00     0.078 C 
ATOM     23  C   UNL     1      -0.755   3.507   3.933  1.00  0.00     0.078 C 
ATOM     24  C   UNL     1      -1.380   1.987   5.763  1.00  0.00     0.078 C 
ENDBRANCH   8  21
ENDBRANCH   7   8
ENDBRANCH   4   7
ENDBRANCH   2   3
ENDBRANCH   1   2
BRANCH   1  25
ATOM     25  C   UNL     1       5.680   3.406   5.334  1.00  0.00     0.023 C 
BRANCH  25  26
ATOM     26  C   UNL     1       7.047   2.773   5.244  1.00  0.00     0.116 C 
BRANCH  26  27
ATOM     27  N   UNL     1       7.487   2.476   3.885  1.00  0.00    -0.352 N 
ATOM     28  C   UNL     1       8.747   2.641   3.354  1.00  0.00     0.251 C 
ATOM     29  H   UNL     1       6.802   2.116   3.276  1.00  0.00     0.163 HD
ATOM     30  O   UNL     1       8.969   2.407   2.175  1.00  0.00    -0.269 OA
BRANCH  28  31
ATOM     31  C   UNL     1       9.812   3.159   4.239  1.00  0.00     0.039 A 
ATOM     32  C   UNL     1      10.559   4.266   3.833  1.00  0.00     0.014 A 
ATOM     33  C   UNL     1       9.970   2.625   5.520  1.00  0.00     0.014 A 
ATOM     34  C   UNL     1      11.413   4.884   4.748  1.00  0.00     0.010 A 
ATOM     35  C   UNL     1      10.714   3.319   6.460  1.00  0.00     0.010 A 
ATOM     36  C   UNL     1      11.466   4.440   6.079  1.00  0.00    -0.014 A 
BRANCH  36  37
ATOM     37  C   UNL     1      12.348   5.082   7.085  1.00  0.00     0.031 A 
ATOM     38  C   UNL     1      13.419   4.256   7.750  1.00  0.00     0.074 A 
ATOM     39  C   UNL     1      12.146   6.363   7.451  1.00  0.00     0.049 A 
ATOM     40  N   UNL     1      14.237   4.586   8.715  1.00  0.00    -0.248 NA
ATOM     41  C   UNL     1      13.555   2.857   7.305  1.00  0.00     0.031 C 
ATOM     42  C   UNL     1      11.099   7.246   6.930  1.00  0.00     0.029 A 
ATOM     43  N   UNL     1      12.817   7.146   8.355  1.00  0.00    -0.354 N 
ATOM     44  C   UNL     1      14.949   3.430   9.014  1.00  0.00     0.074 A 
ATOM     45  C   UNL     1      14.421   2.375   8.181  1.00  0.00     0.031 C 
ATOM     46  C   UNL     1      11.226   8.460   7.492  1.00  0.00     0.029 A 
ATOM     47  C   UNL     1      12.339   8.433   8.435  1.00  0.00     0.049 A 
ATOM     48  H   UNL     1      13.571   6.818   8.897  1.00  0.00     0.167 HD
ATOM     49  C   UNL     1      15.977   3.265   9.878  1.00  0.00     0.031 A 
ATOM     50  C   UNL     1      12.761   9.475   9.178  1.00  0.00     0.031 A 
ATOM     51  C   UNL     1      16.537   4.330  10.659  1.00  0.00     0.049 A 
ATOM     52  C   UNL     1      13.949   9.288  10.082  1.00  0.00     0.074 A 
ATOM     53  C   UNL     1      17.625   4.295  11.512  1.00  0.00     0.029 A 
ATOM     54  N   UNL     1      16.061   5.633  10.665  1.00  0.00    -0.354 N 
ATOM     55  N   UNL     1      14.649   8.201  10.308  1.00  0.00    -0.248 NA
ATOM     56  C   UNL     1      14.417  10.471  10.816  1.00  0.00     0.031 C 
ATOM     57  C   UNL     1      17.792   5.573  12.055  1.00  0.00     0.029 A 
ATOM     58  C   UNL     1      16.833   6.412  11.507  1.00  0.00     0.049 A 
ATOM     59  H   UNL     1      15.289   5.955  10.147  1.00  0.00     0.167 HD
ATOM     60  C   UNL     1      15.659   8.577  11.186  1.00  0.00     0.074 A 
ATOM     61  C   UNL     1      15.485   9.993  11.440  1.00  0.00     0.031 C 
ATOM     62  C   UNL     1      16.643   7.822  11.733  1.00  0.00     0.031 A 
BRANCH  49  63
ATOM     63  C   UNL     1      16.562   1.883   9.998  1.00  0.00    -0.014 A 
ATOM     64  C   UNL     1      17.290   1.309   8.939  1.00  0.00     0.010 A 
ATOM     65  C   UNL     1      16.384   1.148  11.183  1.00  0.00     0.010 A 
ATOM     66  C   UNL     1      17.780   0.005   9.040  1.00  0.00     0.020 A 
ATOM     67  C   UNL     1      16.901  -0.146  11.301  1.00  0.00     0.020 A 
ATOM     68  C   UNL     1      17.577  -0.717  10.220  1.00  0.00     0.054 A 
BRANCH  68  69
ATOM     69  S   UNL     1      18.233  -2.404  10.331  1.00  0.00     0.124 S 
ATOM     70  O   UNL     1      17.274  -3.152   9.520  1.00  0.00    -0.237 OA
ATOM     71  O   UNL     1      19.569  -2.269   9.757  1.00  0.00    -0.237 OA
ATOM     72  O   UNL     1      18.199  -2.694  11.762  1.00  0.00    -0.744 OA
ENDBRANCH  68  69
ENDBRANCH  49  63
BRANCH  50  73
ATOM     73  C   UNL     1      12.091  10.798   9.057  1.00  0.00    -0.014 A 
ATOM     74  C   UNL     1      12.732  11.860   8.393  1.00  0.00     0.010 A 
ATOM     75  C   UNL     1      10.806  11.003   9.591  1.00  0.00     0.010 A 
ATOM     76  C   UNL     1      12.110  13.108   8.284  1.00  0.00     0.020 A 
ATOM     77  C   UNL     1      10.171  12.243   9.463  1.00  0.00     0.020 A 
ATOM     78  C   UNL     1      10.833  13.291   8.820  1.00  0.00     0.054 A 
BRANCH  78  79
ATOM     79  S   UNL     1      10.024  14.905   8.623  1.00  0.00     0.124 S 
ATOM     80  O   UNL     1      10.726  15.718   9.611  1.00  0.00    -0.237 OA
ATOM     81  O   UNL     1      10.299  15.229   7.225  1.00  0.00    -0.237 OA
ATOM     82  O   UNL     1       8.623  14.622   8.925  1.00  0.00    -0.744 OA
ENDBRANCH  78  79
ENDBRANCH  50  73
BRANCH  62  83
ATOM     83  C   UNL     1      17.633   8.519  12.624  1.00  0.00    -0.014 A 
ATOM     84  C   UNL     1      17.283   8.923  13.924  1.00  0.00     0.010 A 
ATOM     85  C   UNL     1      18.948   8.720  12.168  1.00  0.00     0.010 A 
ATOM     86  C   UNL     1      18.226   9.548  14.742  1.00  0.00     0.020 A 
ATOM     87  C   UNL     1      19.900   9.322  12.993  1.00  0.00     0.020 A 
ATOM     88  C   UNL     1      19.528   9.746  14.270  1.00  0.00     0.054 A 
BRANCH  88  89
ATOM     89  S   UNL     1      20.747  10.524  15.365  1.00  0.00     0.124 S 
ATOM     90  O   UNL     1      20.361  11.931  15.296  1.00  0.00    -0.237 OA
ATOM     91  O   UNL     1      20.497   9.866  16.645  1.00  0.00    -0.237 OA
ATOM     92  O   UNL     1      22.028  10.196  14.743  1.00  0.00    -0.744 OA
ENDBRANCH  88  89
ENDBRANCH  62  83
ENDBRANCH  36  37
ENDBRANCH  28  31
ENDBRANCH  26  27
ENDBRANCH  25  26
ENDBRANCH   1  25
TORSDOF 18
