REMARK SMILES COCc1cccc(C(=O)N2C[C@@H](O)C[C@@H]2C(=O)NCCCCNC(=O)c2ccc(-c3c4nc(c(-c5ccc(S(=O)(=O)[O-])cc5)c5ccc([nH]5)c(-c5ccc(S(=O)(=O)[O-])cc5)c5nc(c(-c6ccc(S(=O)(=O)[O-])cc6)c6ccc3[nH]6)C=C5)C=C4)cc2)c1
REMARK SMILES IDX 21 1 20 2 19 3 17 4 18 5 16 7 11 8 12 9 13 10 15 11 9 12
REMARK SMILES IDX 10 13 8 14 4 15 5 16 87 17 6 18 7 19 3 20 2 21 1 22 14 23
REMARK SMILES IDX 22 25 23 26 24 27 25 28 26 30 27 31 28 32 86 33 29 34 85 35
REMARK SMILES IDX 30 36 31 37 32 38 79 39 33 40 84 41 78 42 80 43 34 44 83 45
REMARK SMILES IDX 77 46 76 47 35 49 65 50 46 51 64 52 47 53 50 54 63 55 81 56
REMARK SMILES IDX 48 57 49 58 62 60 82 61 51 62 36 63 37 64 45 65 38 66 44 67
REMARK SMILES IDX 39 68 40 69 41 70 42 71 43 72 66 73 67 74 75 75 68 76 74 77
REMARK SMILES IDX 69 78 70 79 71 80 72 81 73 82 52 83 53 84 61 85 54 86 60 87
REMARK SMILES IDX 55 88 56 89 57 90 58 91 59 92
REMARK H PARENT 19 6 14 24 24 29 80 48 50 59
REMARK Flexibility Score: inf
ROOT
ATOM      1  C   UNL     1       1.652  -4.282  -3.586  1.00  0.00     0.023 C 
ENDROOT
BRANCH   1   2
ATOM      2  C   UNL     1       0.799  -3.447  -4.526  1.00  0.00     0.116 C 
BRANCH   2   3
ATOM      3  N   UNL     1       0.807  -3.896  -5.896  1.00  0.00    -0.354 N 
ATOM      4  C   UNL     1      -0.214  -3.927  -6.802  1.00  0.00     0.242 C 
ATOM      5  O   UNL     1       0.075  -4.302  -7.946  1.00  0.00    -0.273 OA
ATOM      6  H   UNL     1       1.673  -4.227  -6.225  1.00  0.00     0.163 HD
BRANCH   4   7
ATOM      7  C   UNL     1      -1.703  -3.765  -6.406  1.00  0.00     0.177 C 
ATOM      8  N   UNL     1      -2.061  -2.879  -5.288  1.00  0.00    -0.324 N 
ATOM      9  C   UNL     1      -3.030  -3.547  -4.437  1.00  0.00     0.152 C 
ATOM     10  C   UNL     1      -2.600  -5.006  -4.522  1.00  0.00     0.136 C 
ATOM     11  C   UNL     1      -2.265  -5.146  -6.006  1.00  0.00     0.069 C 
BRANCH   8  12
ATOM     12  C   UNL     1      -1.917  -1.507  -5.417  1.00  0.00     0.254 C 
ATOM     13  O   UNL     1      -2.045  -0.954  -6.507  1.00  0.00    -0.269 OA
BRANCH  12  14
ATOM     14  C   UNL     1      -1.311  -0.742  -4.267  1.00  0.00     0.040 A 
ATOM     15  C   UNL     1      -0.393  -0.605  -1.990  1.00  0.00    -0.022 A 
ATOM     16  C   UNL     1       0.300   0.553  -2.354  1.00  0.00     0.006 A 
ATOM     17  C   UNL     1      -1.187  -1.240  -2.961  1.00  0.00     0.020 A 
ATOM     18  C   UNL     1       0.153   1.094  -3.632  1.00  0.00     0.001 A 
ATOM     19  C   UNL     1      -0.653   0.456  -4.578  1.00  0.00     0.014 A 
BRANCH  15  20
ATOM     20  C   UNL     1      -0.240  -1.236  -0.621  1.00  0.00     0.195 C 
BRANCH  20  21
ATOM     21  O   UNL     1      -0.776  -0.444   0.433  1.00  0.00    -0.380 OA
ATOM     22  C   UNL     1       0.149   0.501   0.956  1.00  0.00     0.195 C 
ENDBRANCH  20  21
ENDBRANCH  15  20
ENDBRANCH  12  14
ENDBRANCH   8  12
BRANCH  10  23
ATOM     23  O   UNL     1      -3.595  -5.913  -4.093  1.00  0.00    -0.391 OA
ATOM     24  H   UNL     1      -4.398  -5.787  -4.623  1.00  0.00     0.211 HD
ENDBRANCH  10  23
ENDBRANCH   4   7
ENDBRANCH   2   3
ENDBRANCH   1   2
BRANCH   1  25
ATOM     25  C   UNL     1       3.153  -4.042  -3.679  1.00  0.00     0.023 C 
BRANCH  25  26
ATOM     26  C   UNL     1       3.596  -2.587  -3.559  1.00  0.00     0.116 C 
BRANCH  26  27
ATOM     27  N   UNL     1       3.042  -1.911  -2.391  1.00  0.00    -0.352 N 
ATOM     28  C   UNL     1       3.680  -1.227  -1.380  1.00  0.00     0.251 C 
ATOM     29  H   UNL     1       2.061  -1.949  -2.314  1.00  0.00     0.163 HD
ATOM     30  O   UNL     1       3.072  -0.834  -0.400  1.00  0.00    -0.269 OA
BRANCH  28  31
ATOM     31  C   UNL     1       5.125  -0.981  -1.484  1.00  0.00     0.039 A 
ATOM     32  C   UNL     1       5.943  -1.279  -0.392  1.00  0.00     0.014 A 
ATOM     33  C   UNL     1       5.658  -0.501  -2.679  1.00  0.00     0.014 A 
ATOM     34  C   UNL     1       7.324  -1.206  -0.543  1.00  0.00     0.010 A 
ATOM     35  C   UNL     1       7.029  -0.519  -2.856  1.00  0.00     0.010 A 
ATOM     36  C   UNL     1       7.870  -0.892  -1.797  1.00  0.00    -0.014 A 
BRANCH  36  37
ATOM     37  C   UNL     1       9.319  -1.007  -2.062  1.00  0.00     0.031 A 
ATOM     38  C   UNL     1      10.092   0.209  -2.475  1.00  0.00     0.074 A 
ATOM     39  C   UNL     1       9.881  -2.231  -2.055  1.00  0.00     0.049 A 
ATOM     40  N   UNL     1      11.325   0.294  -2.896  1.00  0.00    -0.248 NA
ATOM     41  C   UNL     1       9.371   1.494  -2.453  1.00  0.00     0.031 C 
ATOM     42  C   UNL     1       9.187  -3.482  -1.726  1.00  0.00     0.029 A 
ATOM     43  N   UNL     1      11.156  -2.633  -2.353  1.00  0.00    -0.354 N 
ATOM     44  C   UNL     1      11.518   1.633  -3.216  1.00  0.00     0.074 A 
ATOM     45  C   UNL     1      10.264   2.313  -2.986  1.00  0.00     0.031 C 
ATOM     46  C   UNL     1      10.051  -4.505  -1.817  1.00  0.00     0.029 A 
ATOM     47  C   UNL     1      11.342  -3.992  -2.258  1.00  0.00     0.049 A 
ATOM     48  H   UNL     1      11.871  -2.008  -2.611  1.00  0.00     0.167 HD
ATOM     49  C   UNL     1      12.650   2.236  -3.646  1.00  0.00     0.031 A 
ATOM     50  C   UNL     1      12.430  -4.741  -2.514  1.00  0.00     0.031 A 
ATOM     51  C   UNL     1      13.888   1.535  -3.856  1.00  0.00     0.049 A 
ATOM     52  C   UNL     1      13.679  -4.044  -2.975  1.00  0.00     0.074 A 
ATOM     53  C   UNL     1      15.116   2.047  -4.229  1.00  0.00     0.029 A 
ATOM     54  N   UNL     1      14.050   0.164  -3.706  1.00  0.00    -0.354 N 
ATOM     55  N   UNL     1      13.868  -2.765  -3.203  1.00  0.00    -0.248 NA
ATOM     56  C   UNL     1      14.861  -4.883  -3.205  1.00  0.00     0.031 C 
ATOM     57  C   UNL     1      16.011   0.979  -4.351  1.00  0.00     0.029 A 
ATOM     58  C   UNL     1      15.354  -0.192  -3.999  1.00  0.00     0.049 A 
ATOM     59  H   UNL     1      13.342  -0.462  -3.431  1.00  0.00     0.167 HD
ATOM     60  C   UNL     1      15.198  -2.642  -3.583  1.00  0.00     0.074 A 
ATOM     61  C   UNL     1      15.769  -3.974  -3.536  1.00  0.00     0.031 C 
ATOM     62  C   UNL     1      15.887  -1.530  -3.940  1.00  0.00     0.031 A 
BRANCH  49  63
ATOM     63  C   UNL     1      12.590   3.716  -3.920  1.00  0.00    -0.014 A 
ATOM     64  C   UNL     1      12.422   4.642  -2.873  1.00  0.00     0.010 A 
ATOM     65  C   UNL     1      12.722   4.192  -5.237  1.00  0.00     0.010 A 
ATOM     66  C   UNL     1      12.339   6.011  -3.143  1.00  0.00     0.020 A 
ATOM     67  C   UNL     1      12.670   5.563  -5.508  1.00  0.00     0.020 A 
ATOM     68  C   UNL     1      12.460   6.462  -4.460  1.00  0.00     0.054 A 
BRANCH  68  69
ATOM     69  S   UNL     1      12.367   8.246  -4.778  1.00  0.00     0.124 S 
ATOM     70  O   UNL     1      10.945   8.512  -4.575  1.00  0.00    -0.237 OA
ATOM     71  O   UNL     1      13.259   8.799  -3.762  1.00  0.00    -0.237 OA
ATOM     72  O   UNL     1      12.835   8.379  -6.155  1.00  0.00    -0.744 OA
ENDBRANCH  68  69
ENDBRANCH  49  63
BRANCH  50  73
ATOM     73  C   UNL     1      12.384  -6.217  -2.321  1.00  0.00    -0.014 A 
ATOM     74  C   UNL     1      13.081  -6.816  -1.257  1.00  0.00     0.010 A 
ATOM     75  C   UNL     1      11.617  -7.028  -3.177  1.00  0.00     0.010 A 
ATOM     76  C   UNL     1      13.025  -8.200  -1.062  1.00  0.00     0.020 A 
ATOM     77  C   UNL     1      11.536  -8.409  -2.969  1.00  0.00     0.020 A 
ATOM     78  C   UNL     1      12.251  -8.988  -1.919  1.00  0.00     0.054 A 
BRANCH  78  79
ATOM     79  S   UNL     1      12.153 -10.774  -1.614  1.00  0.00     0.124 S 
ATOM     80  O   UNL     1      13.471 -11.229  -2.045  1.00  0.00    -0.237 OA
ATOM     81  O   UNL     1      11.900 -10.835  -0.177  1.00  0.00    -0.237 OA
ATOM     82  O   UNL     1      11.036 -11.203  -2.454  1.00  0.00    -0.744 OA
ENDBRANCH  78  79
ENDBRANCH  50  73
BRANCH  62  83
ATOM     83  C   UNL     1      17.340  -1.706  -4.280  1.00  0.00    -0.014 A 
ATOM     84  C   UNL     1      17.733  -2.298  -5.493  1.00  0.00     0.010 A 
ATOM     85  C   UNL     1      18.320  -1.206  -3.405  1.00  0.00     0.010 A 
ATOM     86  C   UNL     1      19.087  -2.405  -5.815  1.00  0.00     0.020 A 
ATOM     87  C   UNL     1      19.673  -1.285  -3.736  1.00  0.00     0.020 A 
ATOM     88  C   UNL     1      20.048  -1.894  -4.936  1.00  0.00     0.054 A 
BRANCH  88  89
ATOM     89  S   UNL     1      21.796  -1.988  -5.408  1.00  0.00     0.124 S 
ATOM     90  O   UNL     1      22.085  -3.406  -5.219  1.00  0.00    -0.237 OA
ATOM     91  O   UNL     1      21.778  -1.528  -6.794  1.00  0.00    -0.237 OA
ATOM     92  O   UNL     1      22.457  -1.086  -4.467  1.00  0.00    -0.744 OA
ENDBRANCH  88  89
ENDBRANCH  62  83
ENDBRANCH  36  37
ENDBRANCH  28  31
ENDBRANCH  26  27
ENDBRANCH  25  26
ENDBRANCH   1  25
TORSDOF 19
