REMARK SMILES O=C(NCCCCNC(=O)c1ccc(-c2c3nc(c(-c4ccc(S(=O)(=O)[O-])cc4)c4ccc([nH]4)c(-c4ccc(S(=O)(=O)[O-])cc4)c4nc(c(-c5ccc(S(=O)(=O)[O-])cc5)c5ccc2[nH]5)C=C4)C=C3)cc1)C1=Cc2cc(Cl)cc(-c3ccc(Cl)cc3)c2O[C@@H]1C(F)(F)F
REMARK SMILES IDX 6 1 5 2 4 3 3 4 1 5 2 6 71 8 72 9 88 10 73 11 87 12 74 13
REMARK SMILES IDX 86 14 75 15 78 16 76 17 77 18 89 19 90 20 91 21 92 22 79 23
REMARK SMILES IDX 80 24 85 25 81 26 84 27 82 28 83 29 7 30 8 31 9 32 10 34
REMARK SMILES IDX 11 35 12 36 70 37 13 38 69 39 14 40 15 41 16 42 63 43 17 44
REMARK SMILES IDX 68 45 62 46 64 47 18 48 67 49 61 50 60 51 19 53 49 54 30 55
REMARK SMILES IDX 48 56 31 57 34 58 47 59 65 60 32 61 33 62 46 64 66 65 35 66
REMARK SMILES IDX 20 67 21 68 29 69 22 70 28 71 23 72 24 73 25 74 26 75 27 76
REMARK SMILES IDX 50 77 51 78 59 79 52 80 58 81 53 82 54 83 55 84 56 85 57 86
REMARK SMILES IDX 36 87 37 88 45 89 38 90 44 91 39 92 40 93 41 94 42 95 43 96
REMARK H PARENT 3 7 8 33 64 52 34 63
REMARK Flexibility Score: inf
ROOT
ATOM      1  C   UNL     1       4.042   4.150  -1.789  1.00  0.00     0.023 C 
ENDROOT
BRANCH   1   2
ATOM      2  C   UNL     1       4.209   2.630  -1.893  1.00  0.00     0.023 C 
BRANCH   2   3
ATOM      3  C   UNL     1       3.618   1.827  -0.731  1.00  0.00     0.116 C 
BRANCH   3   4
ATOM      4  N   UNL     1       2.517   0.944  -1.127  1.00  0.00    -0.352 N 
ATOM      5  O   UNL     1       1.160  -0.870  -1.037  1.00  0.00    -0.270 OA
ATOM      6  C   UNL     1       2.250  -0.364  -0.797  1.00  0.00     0.251 C 
ATOM      7  H   UNL     1       1.858   1.357  -1.732  1.00  0.00     0.163 HD
BRANCH   6   8
ATOM      8  C   UNL     1       3.262  -1.112  -0.028  1.00  0.00     0.067 C 
ATOM      9  C   UNL     1       4.476  -1.358  -0.538  1.00  0.00     0.025 C 
ATOM     10  C   UNL     1       3.010  -1.286   1.435  1.00  0.00     0.314 C 
ATOM     11  C   UNL     1       5.545  -0.892   0.375  1.00  0.00     0.019 A 
ATOM     12  O   UNL     1       3.953  -0.507   2.200  1.00  0.00    -0.475 OA
ATOM     13  C   UNL     1       6.783  -0.600  -0.203  1.00  0.00     0.032 A 
ATOM     14  C   UNL     1       5.197  -0.318   1.629  1.00  0.00     0.135 A 
ATOM     15  C   UNL     1       7.634   0.304   0.422  1.00  0.00     0.042 A 
ATOM     16  C   UNL     1       6.033   0.646   2.237  1.00  0.00     0.026 A 
ATOM     17  Cl  UNL     1       9.091   0.773  -0.364  1.00  0.00    -0.084 Cl
ATOM     18  C   UNL     1       7.264   0.926   1.615  1.00  0.00     0.033 A 
BRANCH  10  19
ATOM     19  C   UNL     1       3.025  -2.776   1.834  1.00  0.00     0.429 C 
ATOM     20  F   UNL     1       2.676  -2.945   3.132  1.00  0.00    -0.167 F 
ATOM     21  F   UNL     1       2.149  -3.502   1.097  1.00  0.00    -0.167 F 
ATOM     22  F   UNL     1       4.242  -3.351   1.676  1.00  0.00    -0.167 F 
ENDBRANCH  10  19
BRANCH  16  23
ATOM     23  C   UNL     1       5.593   1.486   3.377  1.00  0.00    -0.015 A 
ATOM     24  C   UNL     1       5.651   2.892   3.284  1.00  0.00     0.010 A 
ATOM     25  C   UNL     1       5.103   0.935   4.570  1.00  0.00     0.010 A 
ATOM     26  C   UNL     1       5.267   3.713   4.349  1.00  0.00     0.021 A 
ATOM     27  C   UNL     1       4.709   1.754   5.636  1.00  0.00     0.021 A 
ATOM     28  C   UNL     1       4.801   3.139   5.523  1.00  0.00     0.041 A 
ATOM     29  Cl  UNL     1       4.343   4.143   6.841  1.00  0.00    -0.084 Cl
ENDBRANCH  16  23
ENDBRANCH   6   8
ENDBRANCH   3   4
ENDBRANCH   2   3
ENDBRANCH   1   2
BRANCH   1  30
ATOM     30  C   UNL     1       4.580   4.821  -0.525  1.00  0.00     0.116 C 
BRANCH  30  31
ATOM     31  N   UNL     1       5.993   4.598  -0.262  1.00  0.00    -0.352 N 
ATOM     32  C   UNL     1       6.865   5.401   0.453  1.00  0.00     0.251 C 
ATOM     33  H   UNL     1       6.376   3.774  -0.639  1.00  0.00     0.163 HD
ATOM     34  O   UNL     1       8.033   5.080   0.577  1.00  0.00    -0.269 OA
BRANCH  32  35
ATOM     35  C   UNL     1       6.372   6.675   1.035  1.00  0.00     0.039 A 
ATOM     36  C   UNL     1       7.069   7.855   0.756  1.00  0.00     0.014 A 
ATOM     37  C   UNL     1       5.201   6.715   1.796  1.00  0.00     0.014 A 
ATOM     38  C   UNL     1       6.525   9.085   1.138  1.00  0.00     0.010 A 
ATOM     39  C   UNL     1       4.639   7.941   2.140  1.00  0.00     0.010 A 
ATOM     40  C   UNL     1       5.278   9.136   1.781  1.00  0.00    -0.014 A 
BRANCH  40  41
ATOM     41  C   UNL     1       4.558  10.418   1.970  1.00  0.00     0.031 A 
ATOM     42  C   UNL     1       4.337  10.985   3.340  1.00  0.00     0.074 A 
ATOM     43  C   UNL     1       3.998  11.002   0.891  1.00  0.00     0.049 A 
ATOM     44  N   UNL     1       3.693  12.070   3.685  1.00  0.00    -0.248 NA
ATOM     45  C   UNL     1       4.892  10.226   4.471  1.00  0.00     0.031 C 
ATOM     46  C   UNL     1       4.085  10.497  -0.483  1.00  0.00     0.029 A 
ATOM     47  N   UNL     1       3.228  12.131   0.779  1.00  0.00    -0.354 N 
ATOM     48  C   UNL     1       3.765  12.129   5.071  1.00  0.00     0.074 A 
ATOM     49  C   UNL     1       4.476  10.944   5.506  1.00  0.00     0.031 C 
ATOM     50  C   UNL     1       3.401  11.316  -1.298  1.00  0.00     0.029 A 
ATOM     51  C   UNL     1       2.809  12.388  -0.505  1.00  0.00     0.049 A 
ATOM     52  H   UNL     1       2.997  12.704   1.546  1.00  0.00     0.167 HD
ATOM     53  C   UNL     1       3.293  13.090   5.901  1.00  0.00     0.031 A 
ATOM     54  C   UNL     1       2.034  13.375  -0.993  1.00  0.00     0.031 A 
ATOM     55  C   UNL     1       2.569  14.253   5.457  1.00  0.00     0.049 A 
ATOM     56  C   UNL     1       1.522  14.430  -0.053  1.00  0.00     0.074 A 
ATOM     57  C   UNL     1       2.103  15.318   6.209  1.00  0.00     0.029 A 
ATOM     58  N   UNL     1       2.192  14.497   4.144  1.00  0.00    -0.354 N 
ATOM     59  N   UNL     1       1.690  14.524   1.245  1.00  0.00    -0.248 NA
ATOM     60  C   UNL     1       0.737  15.520  -0.644  1.00  0.00     0.031 C 
ATOM     61  C   UNL     1       1.401  16.180   5.359  1.00  0.00     0.029 A 
ATOM     62  C   UNL     1       1.478  15.682   4.068  1.00  0.00     0.049 A 
ATOM     63  H   UNL     1       2.401  13.915   3.379  1.00  0.00     0.167 HD
ATOM     64  C   UNL     1       1.054  15.700   1.623  1.00  0.00     0.074 A 
ATOM     65  C   UNL     1       0.510  16.287   0.414  1.00  0.00     0.031 C 
ATOM     66  C   UNL     1       0.936  16.247   2.858  1.00  0.00     0.031 A 
BRANCH  53  67
ATOM     67  C   UNL     1       3.549  12.923   7.377  1.00  0.00    -0.014 A 
ATOM     68  C   UNL     1       4.847  13.053   7.904  1.00  0.00     0.010 A 
ATOM     69  C   UNL     1       2.478  12.677   8.255  1.00  0.00     0.010 A 
ATOM     70  C   UNL     1       5.075  12.901   9.274  1.00  0.00     0.020 A 
ATOM     71  C   UNL     1       2.698  12.550   9.630  1.00  0.00     0.020 A 
ATOM     72  C   UNL     1       3.998  12.646  10.129  1.00  0.00     0.054 A 
BRANCH  72  73
ATOM     73  S   UNL     1       4.322  12.475  11.906  1.00  0.00     0.124 S 
ATOM     74  O   UNL     1       4.959  11.162  11.971  1.00  0.00    -0.237 OA
ATOM     75  O   UNL     1       5.197  13.611  12.184  1.00  0.00    -0.237 OA
ATOM     76  O   UNL     1       2.994  12.553  12.509  1.00  0.00    -0.744 OA
ENDBRANCH  72  73
ENDBRANCH  53  67
BRANCH  54  77
ATOM     77  C   UNL     1       1.730  13.426  -2.448  1.00  0.00    -0.014 A 
ATOM     78  C   UNL     1       2.342  14.389  -3.268  1.00  0.00     0.010 A 
ATOM     79  C   UNL     1       0.854  12.490  -3.028  1.00  0.00     0.010 A 
ATOM     80  C   UNL     1       2.075  14.425  -4.640  1.00  0.00     0.020 A 
ATOM     81  C   UNL     1       0.604  12.507  -4.403  1.00  0.00     0.020 A 
ATOM     82  C   UNL     1       1.209  13.481  -5.199  1.00  0.00     0.054 A 
BRANCH  82  83
ATOM     83  S   UNL     1       0.928  13.506  -6.992  1.00  0.00     0.124 S 
ATOM     84  O   UNL     1       0.052  14.662  -7.145  1.00  0.00    -0.237 OA
ATOM     85  O   UNL     1       2.281  13.660  -7.522  1.00  0.00    -0.237 OA
ATOM     86  O   UNL     1       0.309  12.209  -7.257  1.00  0.00    -0.744 OA
ENDBRANCH  82  83
ENDBRANCH  54  77
BRANCH  66  87
ATOM     87  C   UNL     1       0.211  17.562   2.960  1.00  0.00    -0.014 A 
ATOM     88  C   UNL     1      -1.185  17.637   2.817  1.00  0.00     0.010 A 
ATOM     89  C   UNL     1       0.937  18.733   3.247  1.00  0.00     0.010 A 
ATOM     90  C   UNL     1      -1.840  18.866   2.928  1.00  0.00     0.020 A 
ATOM     91  C   UNL     1       0.282  19.959   3.385  1.00  0.00     0.020 A 
ATOM     92  C   UNL     1      -1.102  20.020   3.210  1.00  0.00     0.054 A 
BRANCH  92  93
ATOM     93  S   UNL     1      -1.979  21.597   3.389  1.00  0.00     0.124 S 
ATOM     94  O   UNL     1      -2.291  21.930   2.002  1.00  0.00    -0.237 OA
ATOM     95  O   UNL     1      -3.124  21.235   4.222  1.00  0.00    -0.237 OA
ATOM     96  O   UNL     1      -0.998  22.467   4.034  1.00  0.00    -0.744 OA
ENDBRANCH  92  93
ENDBRANCH  66  87
ENDBRANCH  40  41
ENDBRANCH  32  35
ENDBRANCH  30  31
ENDBRANCH   1  30
TORSDOF 16
