REMARK SMILES O=C(NCCCCNC(=O)[C@@H]1CS[C@@H](c2cc(Br)ccc2O)[NH2+]1)c1ccc(-c2c3nc(c(-c4ccc(S(=O)(=O)[O-])cc4)c4ccc([nH]4)c(-c4ccc(S(=O)(=O)[O-])cc4)c4nc(c(-c5ccc(S(=O)(=O)[O-])cc5)c5ccc2[nH]5)C=C4)C=C3)cc1
REMARK SMILES IDX 5 1 4 2 3 3 1 4 2 5 24 7 25 8 83 9 26 10 82 11 27 12 28 13
REMARK SMILES IDX 29 14 76 15 30 16 81 17 75 18 77 19 31 20 80 21 74 22 73 23
REMARK SMILES IDX 32 25 62 26 43 27 61 28 44 29 47 30 60 31 78 32 45 33 46 34
REMARK SMILES IDX 59 36 79 37 48 38 33 39 34 40 42 41 35 42 41 43 36 44 37 45
REMARK SMILES IDX 38 46 39 47 40 48 63 49 64 50 72 51 65 52 71 53 66 54 67 55
REMARK SMILES IDX 68 56 69 57 70 58 49 59 50 60 58 61 51 62 57 63 52 64 53 65
REMARK SMILES IDX 54 66 55 67 56 68 6 69 7 70 8 71 9 72 10 74 11 75 12 76
REMARK SMILES IDX 23 77 13 78 14 79 15 82 16 83 21 84 17 85 20 86 18 87 19 88
REMARK SMILES IDX 22 89
REMARK H PARENT 3 6 77 24 47 35 8 73 23 80 23 81 22 90
REMARK Flexibility Score: inf
ROOT
ATOM      1  C   UNL     1       3.082   5.516   1.691  1.00  0.00     0.023 C 
ENDROOT
BRANCH   1   2
ATOM      2  C   UNL     1       2.349   6.678   2.350  1.00  0.00     0.116 C 
BRANCH   2   3
ATOM      3  N   UNL     1       2.769   7.974   1.843  1.00  0.00    -0.352 N 
ATOM      4  O   UNL     1       2.572   9.951   0.778  1.00  0.00    -0.269 OA
ATOM      5  C   UNL     1       2.017   8.966   1.259  1.00  0.00     0.251 C 
ATOM      6  H   UNL     1       3.730   8.171   1.930  1.00  0.00     0.163 HD
BRANCH   5   7
ATOM      7  C   UNL     1       0.545   8.833   1.193  1.00  0.00     0.039 A 
ATOM      8  C   UNL     1      -0.186   8.465   2.325  1.00  0.00     0.014 A 
ATOM      9  C   UNL     1      -0.112   9.095  -0.013  1.00  0.00     0.014 A 
ATOM     10  C   UNL     1      -1.556   8.244   2.223  1.00  0.00     0.010 A 
ATOM     11  C   UNL     1      -1.499   8.944  -0.095  1.00  0.00     0.010 A 
ATOM     12  C   UNL     1      -2.230   8.502   1.019  1.00  0.00    -0.014 A 
BRANCH  12  13
ATOM     13  C   UNL     1      -3.712   8.420   0.980  1.00  0.00     0.031 A 
ATOM     14  C   UNL     1      -4.421   7.389   0.148  1.00  0.00     0.074 A 
ATOM     15  C   UNL     1      -4.414   9.311   1.708  1.00  0.00     0.049 A 
ATOM     16  N   UNL     1      -5.708   7.206  -0.002  1.00  0.00    -0.248 NA
ATOM     17  C   UNL     1      -3.589   6.446  -0.616  1.00  0.00     0.031 C 
ATOM     18  C   UNL     1      -3.828  10.370   2.538  1.00  0.00     0.029 A 
ATOM     19  N   UNL     1      -5.765   9.474   1.873  1.00  0.00    -0.354 N 
ATOM     20  C   UNL     1      -5.844   6.148  -0.893  1.00  0.00     0.074 A 
ATOM     21  C   UNL     1      -4.507   5.731  -1.257  1.00  0.00     0.031 C 
ATOM     22  C   UNL     1      -4.811  11.057   3.136  1.00  0.00     0.029 A 
ATOM     23  C   UNL     1      -6.095  10.531   2.688  1.00  0.00     0.049 A 
ATOM     24  H   UNL     1      -6.435   8.891   1.448  1.00  0.00     0.167 HD
ATOM     25  C   UNL     1      -6.982   5.584  -1.363  1.00  0.00     0.031 A 
ATOM     26  C   UNL     1      -7.293  11.050   3.013  1.00  0.00     0.031 A 
ATOM     27  C   UNL     1      -8.308   6.000  -0.982  1.00  0.00     0.049 A 
ATOM     28  C   UNL     1      -8.533  10.422   2.448  1.00  0.00     0.074 A 
ATOM     29  C   UNL     1      -9.520   5.434  -1.340  1.00  0.00     0.029 A 
ATOM     30  N   UNL     1      -8.599   7.089  -0.176  1.00  0.00    -0.354 N 
ATOM     31  N   UNL     1      -8.639   9.371   1.671  1.00  0.00    -0.248 NA
ATOM     32  C   UNL     1      -9.813  11.054   2.793  1.00  0.00     0.031 C 
ATOM     33  C   UNL     1     -10.545   6.218  -0.801  1.00  0.00     0.029 A 
ATOM     34  C   UNL     1      -9.971   7.243  -0.066  1.00  0.00     0.049 A 
ATOM     35  H   UNL     1      -7.929   7.668   0.254  1.00  0.00     0.167 HD
ATOM     36  C   UNL     1      -9.998   9.217   1.433  1.00  0.00     0.074 A 
ATOM     37  C   UNL     1     -10.677  10.262   2.172  1.00  0.00     0.031 C 
ATOM     38  C   UNL     1     -10.627   8.297   0.662  1.00  0.00     0.031 A 
BRANCH  25  39
ATOM     39  C   UNL     1      -6.868   4.467  -2.366  1.00  0.00    -0.014 A 
ATOM     40  C   UNL     1      -6.512   3.166  -1.972  1.00  0.00     0.010 A 
ATOM     41  C   UNL     1      -7.235   4.701  -3.705  1.00  0.00     0.010 A 
ATOM     42  C   UNL     1      -6.515   2.121  -2.902  1.00  0.00     0.020 A 
ATOM     43  C   UNL     1      -7.257   3.656  -4.633  1.00  0.00     0.020 A 
ATOM     44  C   UNL     1      -6.890   2.372  -4.226  1.00  0.00     0.054 A 
BRANCH  44  45
ATOM     45  S   UNL     1      -6.947   0.985  -5.395  1.00  0.00     0.124 S 
ATOM     46  O   UNL     1      -5.528   0.727  -5.625  1.00  0.00    -0.237 OA
ATOM     47  O   UNL     1      -7.657  -0.044  -4.638  1.00  0.00    -0.237 OA
ATOM     48  O   UNL     1      -7.675   1.524  -6.541  1.00  0.00    -0.744 OA
ENDBRANCH  44  45
ENDBRANCH  25  39
BRANCH  26  49
ATOM     49  C   UNL     1      -7.366  12.266   3.864  1.00  0.00    -0.014 A 
ATOM     50  C   UNL     1      -7.870  12.203   5.173  1.00  0.00     0.010 A 
ATOM     51  C   UNL     1      -6.914  13.501   3.361  1.00  0.00     0.010 A 
ATOM     52  C   UNL     1      -7.941  13.358   5.957  1.00  0.00     0.020 A 
ATOM     53  C   UNL     1      -6.957  14.651   4.151  1.00  0.00     0.020 A 
ATOM     54  C   UNL     1      -7.486  14.575   5.440  1.00  0.00     0.054 A 
BRANCH  54  55
ATOM     55  S   UNL     1      -7.551  16.057   6.484  1.00  0.00     0.124 S 
ATOM     56  O   UNL     1      -8.959  16.429   6.391  1.00  0.00    -0.237 OA
ATOM     57  O   UNL     1      -7.113  15.552   7.783  1.00  0.00    -0.237 OA
ATOM     58  O   UNL     1      -6.615  16.971   5.833  1.00  0.00    -0.744 OA
ENDBRANCH  54  55
ENDBRANCH  26  49
BRANCH  38  59
ATOM     59  C   UNL     1     -12.125   8.385   0.576  1.00  0.00    -0.014 A 
ATOM     60  C   UNL     1     -12.739   9.384  -0.200  1.00  0.00     0.010 A 
ATOM     61  C   UNL     1     -12.923   7.431   1.230  1.00  0.00     0.010 A 
ATOM     62  C   UNL     1     -14.130   9.438  -0.305  1.00  0.00     0.020 A 
ATOM     63  C   UNL     1     -14.314   7.468   1.108  1.00  0.00     0.020 A 
ATOM     64  C   UNL     1     -14.909   8.478   0.349  1.00  0.00     0.054 A 
BRANCH  64  65
ATOM     65  S   UNL     1     -16.711   8.535   0.152  1.00  0.00     0.124 S 
ATOM     66  O   UNL     1     -17.075   9.658   1.011  1.00  0.00    -0.237 OA
ATOM     67  O   UNL     1     -16.871   8.762  -1.282  1.00  0.00    -0.237 OA
ATOM     68  O   UNL     1     -17.152   7.223   0.621  1.00  0.00    -0.744 OA
ENDBRANCH  64  65
ENDBRANCH  38  59
ENDBRANCH  12  13
ENDBRANCH   5   7
ENDBRANCH   2   3
ENDBRANCH   1   2
BRANCH   1  69
ATOM     69  C   UNL     1       4.598   5.502   1.869  1.00  0.00     0.023 C 
BRANCH  69  70
ATOM     70  C   UNL     1       5.108   5.617   3.301  1.00  0.00     0.116 C 
BRANCH  70  71
ATOM     71  N   UNL     1       4.616   4.576   4.184  1.00  0.00    -0.351 N 
ATOM     72  C   UNL     1       5.221   3.986   5.257  1.00  0.00     0.279 C 
ATOM     73  H   UNL     1       3.711   4.245   3.979  1.00  0.00     0.163 HD
ATOM     74  O   UNL     1       4.518   3.241   5.948  1.00  0.00    -0.268 OA
BRANCH  72  75
ATOM     75  C   UNL     1       6.742   4.117   5.517  1.00  0.00     0.283 C 
ATOM     76  C   UNL     1       7.123   3.722   6.949  1.00  0.00     0.151 C 
ATOM     77  N   UNL     1       7.287   5.473   5.282  1.00  0.00    -0.320 N 
ATOM     78  S   UNL     1       7.226   5.287   7.878  1.00  0.00    -0.087 SA
ATOM     79  C   UNL     1       6.876   6.304   6.418  1.00  0.00     0.278 C 
ATOM     80  H   UNL     1       6.911   5.856   4.414  1.00  0.00     0.348 HD
ATOM     81  H   UNL     1       8.303   5.448   5.199  1.00  0.00     0.348 HD
BRANCH  79  82
ATOM     82  C   UNL     1       7.556   7.658   6.345  1.00  0.00     0.063 A 
ATOM     83  C   UNL     1       8.842   7.891   6.871  1.00  0.00     0.030 A 
ATOM     84  C   UNL     1       6.943   8.712   5.643  1.00  0.00     0.125 A 
ATOM     85  C   UNL     1       9.465   9.131   6.710  1.00  0.00     0.018 A 
ATOM     86  C   UNL     1       7.572   9.947   5.470  1.00  0.00     0.048 A 
ATOM     87  Br  UNL     1      11.185   9.419   7.441  1.00  0.00    -0.051 Br
ATOM     88  C   UNL     1       8.838  10.157   6.008  1.00  0.00     0.019 A 
BRANCH  84  89
ATOM     89  O   UNL     1       5.700   8.523   5.103  1.00  0.00    -0.507 OA
ATOM     90  H   UNL     1       5.263   7.701   5.210  1.00  0.00     0.293 HD
ENDBRANCH  84  89
ENDBRANCH  79  82
ENDBRANCH  72  75
ENDBRANCH  70  71
ENDBRANCH  69  70
ENDBRANCH   1  69
TORSDOF 16
