REMARK SMILES O=C1NC(=O)/C(=C/c2ccc(OCc3cn(-c4ccc(C(=O)NCCCCNC(=O)c5ccc(-c6c7nc(c(-c8ccc(S(=O)(=O)[O-])cc8)c8ccc([nH]8)c(-c8ccc(S(=O)(=O)[O-])cc8)c8nc(c(-c9ccc(S(=O)(=O)[O-])cc9)c9ccc6[nH]9)C=C8)C=C7)cc5)cc4)nn3)cc2)S1
REMARK SMILES IDX 24 1 23 2 21 3 22 4 20 6 17 7 18 8 92 9 19 10 91 11 16 12
REMARK SMILES IDX 14 13 15 14 94 15 93 16 13 17 12 18 11 19 8 20 9 21 96 22
REMARK SMILES IDX 10 23 95 24 7 25 1 26 2 27 3 28 97 29 4 30 6 32 5 33 25 34
REMARK SMILES IDX 26 35 27 36 28 37 29 38 30 40 31 41 32 42 90 43 33 44 89 45
REMARK SMILES IDX 34 46 35 47 36 48 83 49 37 50 88 51 82 52 84 53 38 54 87 55
REMARK SMILES IDX 81 56 80 57 39 59 69 60 50 61 68 62 51 63 54 64 67 65 85 66
REMARK SMILES IDX 52 67 53 68 66 70 86 71 55 72 40 73 41 74 49 75 42 76 48 77
REMARK SMILES IDX 43 78 44 79 45 80 46 81 47 82 70 83 71 84 79 85 72 86 78 87
REMARK SMILES IDX 73 88 74 89 75 90 76 91 77 92 56 93 57 94 65 95 58 96 64 97
REMARK SMILES IDX 59 98 60 99 61 100 62 101 63 102
REMARK H PARENT 23 5 3 31 28 39 84 58 54 69
REMARK Flexibility Score: inf
ROOT
ATOM      1  C   UNL     1      -7.754  10.431  -1.234  1.00  0.00     0.116 C 
ENDROOT
BRANCH   1   2
ATOM      2  N   UNL     1      -8.357   9.560  -0.246  1.00  0.00    -0.352 N 
ATOM      3  C   UNL     1      -7.858   8.571   0.563  1.00  0.00     0.251 C 
ATOM      4  O   UNL     1      -8.665   7.966   1.270  1.00  0.00    -0.269 OA
ATOM      5  H   UNL     1      -9.323   9.709  -0.131  1.00  0.00     0.163 HD
BRANCH   3   6
ATOM      6  C   UNL     1      -6.409   8.227   0.667  1.00  0.00     0.039 A 
ATOM      7  C   UNL     1      -3.699   7.630   1.112  1.00  0.00     0.066 A 
ATOM      8  C   UNL     1      -4.661   7.220   2.040  1.00  0.00     0.029 A 
ATOM      9  C   UNL     1      -4.087   8.278  -0.060  1.00  0.00     0.029 A 
ATOM     10  C   UNL     1      -6.003   7.550   1.830  1.00  0.00     0.016 A 
ATOM     11  C   UNL     1      -5.442   8.518  -0.299  1.00  0.00     0.016 A 
BRANCH   7  12
ATOM     12  N   UNL     1      -2.338   7.367   1.354  1.00  0.00    -0.220 N 
ATOM     13  C   UNL     1      -0.157   7.366   1.394  1.00  0.00     0.120 A 
ATOM     14  C   UNL     1      -1.239   8.078   0.924  1.00  0.00     0.144 A 
ATOM     15  N   UNL     1      -0.623   6.289   2.103  1.00  0.00    -0.131 NA
ATOM     16  N   UNL     1      -1.943   6.317   2.102  1.00  0.00    -0.062 NA
BRANCH  13  17
ATOM     17  C   UNL     1       1.307   7.659   1.336  1.00  0.00     0.289 C 
BRANCH  17  18
ATOM     18  O   UNL     1       2.038   6.986   0.295  1.00  0.00    -0.487 OA
BRANCH  18  19
ATOM     19  C   UNL     1       2.168   5.625   0.360  1.00  0.00     0.119 A 
ATOM     20  C   UNL     1       2.215   2.824   0.130  1.00  0.00    -0.024 A 
ATOM     21  C   UNL     1       2.677   3.622  -0.919  1.00  0.00     0.012 A 
ATOM     22  C   UNL     1       1.825   3.433   1.325  1.00  0.00     0.012 A 
ATOM     23  C   UNL     1       2.646   5.017  -0.803  1.00  0.00     0.047 A 
ATOM     24  C   UNL     1       1.836   4.823   1.448  1.00  0.00     0.047 A 
BRANCH  20  25
ATOM     25  C   UNL     1       2.148   1.367  -0.004  1.00  0.00     0.029 C 
ATOM     26  O   UNL     1      -2.440  -0.722   0.007  1.00  0.00    -0.261 OA
ATOM     27  C   UNL     1      -1.251  -0.437  -0.006  1.00  0.00     0.290 C 
ATOM     28  N   UNL     1      -0.230  -1.327  -0.047  1.00  0.00    -0.282 N 
ATOM     29  S   UNL     1      -0.616   1.193   0.016  1.00  0.00    -0.022 SA
ATOM     30  C   UNL     1       1.044  -0.843  -0.077  1.00  0.00     0.265 C 
ATOM     31  H   UNL     1      -0.403  -2.296  -0.056  1.00  0.00     0.174 HD
ATOM     32  C   UNL     1       1.020   0.642  -0.026  1.00  0.00     0.083 C 
ATOM     33  O   UNL     1       2.049  -1.534  -0.126  1.00  0.00    -0.268 OA
ENDBRANCH  20  25
ENDBRANCH  18  19
ENDBRANCH  17  18
ENDBRANCH  13  17
ENDBRANCH   7  12
ENDBRANCH   3   6
ENDBRANCH   1   2
BRANCH   1  34
ATOM     34  C   UNL     1      -7.854   9.818  -2.636  1.00  0.00     0.023 C 
BRANCH  34  35
ATOM     35  C   UNL     1      -9.253   9.890  -3.269  1.00  0.00     0.023 C 
BRANCH  35  36
ATOM     36  C   UNL     1      -9.724  11.301  -3.605  1.00  0.00     0.116 C 
BRANCH  36  37
ATOM     37  N   UNL     1      -8.854  11.970  -4.574  1.00  0.00    -0.352 N 
ATOM     38  C   UNL     1      -8.810  13.314  -4.894  1.00  0.00     0.251 C 
ATOM     39  H   UNL     1      -8.222  11.390  -5.058  1.00  0.00     0.163 HD
ATOM     40  O   UNL     1      -8.349  13.689  -5.965  1.00  0.00    -0.269 OA
BRANCH  38  41
ATOM     41  C   UNL     1      -9.310  14.285  -3.908  1.00  0.00     0.039 A 
ATOM     42  C   UNL     1     -10.114  15.366  -4.278  1.00  0.00     0.014 A 
ATOM     43  C   UNL     1      -8.985  14.059  -2.574  1.00  0.00     0.014 A 
ATOM     44  C   UNL     1     -10.659  16.166  -3.276  1.00  0.00     0.010 A 
ATOM     45  C   UNL     1      -9.648  14.743  -1.589  1.00  0.00     0.010 A 
ATOM     46  C   UNL     1     -10.438  15.834  -1.929  1.00  0.00    -0.014 A 
BRANCH  46  47
ATOM     47  C   UNL     1     -11.109  16.558  -0.856  1.00  0.00     0.031 A 
ATOM     48  C   UNL     1     -12.593  16.610  -0.961  1.00  0.00     0.074 A 
ATOM     49  C   UNL     1     -10.475  16.954   0.269  1.00  0.00     0.049 A 
ATOM     50  N   UNL     1     -13.327  17.646  -1.191  1.00  0.00    -0.248 NA
ATOM     51  C   UNL     1     -13.343  15.343  -0.933  1.00  0.00     0.031 C 
ATOM     52  C   UNL     1      -9.089  16.695   0.681  1.00  0.00     0.029 A 
ATOM     53  N   UNL     1     -10.994  17.573   1.360  1.00  0.00    -0.354 N 
ATOM     54  C   UNL     1     -14.645  17.208  -1.130  1.00  0.00     0.074 A 
ATOM     55  C   UNL     1     -14.590  15.767  -1.150  1.00  0.00     0.031 C 
ATOM     56  C   UNL     1      -8.965  16.916   2.009  1.00  0.00     0.029 A 
ATOM     57  C   UNL     1     -10.199  17.500   2.498  1.00  0.00     0.049 A 
ATOM     58  H   UNL     1     -11.863  18.036   1.347  1.00  0.00     0.167 HD
ATOM     59  C   UNL     1     -15.672  18.056  -0.836  1.00  0.00     0.031 A 
ATOM     60  C   UNL     1     -10.551  17.860   3.759  1.00  0.00     0.031 A 
ATOM     61  C   UNL     1     -15.264  19.436  -0.913  1.00  0.00     0.049 A 
ATOM     62  C   UNL     1     -11.697  18.796   3.631  1.00  0.00     0.074 A 
ATOM     63  C   UNL     1     -14.721  20.223  -1.910  1.00  0.00     0.029 A 
ATOM     64  N   UNL     1     -14.976  20.078   0.271  1.00  0.00    -0.354 N 
ATOM     65  N   UNL     1     -11.597  19.969   3.067  1.00  0.00    -0.248 NA
ATOM     66  C   UNL     1     -13.041  18.241   3.677  1.00  0.00     0.031 C 
ATOM     67  C   UNL     1     -13.707  20.984  -1.257  1.00  0.00     0.029 A 
ATOM     68  C   UNL     1     -13.757  20.690   0.108  1.00  0.00     0.049 A 
ATOM     69  H   UNL     1     -15.536  20.095   1.080  1.00  0.00     0.167 HD
ATOM     70  C   UNL     1     -12.751  20.098   2.305  1.00  0.00     0.074 A 
ATOM     71  C   UNL     1     -13.643  19.044   2.793  1.00  0.00     0.031 C 
ATOM     72  C   UNL     1     -12.776  20.850   1.164  1.00  0.00     0.031 A 
BRANCH  59  73
ATOM     73  C   UNL     1     -16.932  17.630  -0.129  1.00  0.00    -0.014 A 
ATOM     74  C   UNL     1     -17.998  18.543  -0.005  1.00  0.00     0.010 A 
ATOM     75  C   UNL     1     -17.008  16.448   0.636  1.00  0.00     0.010 A 
ATOM     76  C   UNL     1     -19.066  18.299   0.871  1.00  0.00     0.020 A 
ATOM     77  C   UNL     1     -18.087  16.174   1.478  1.00  0.00     0.020 A 
ATOM     78  C   UNL     1     -19.097  17.116   1.612  1.00  0.00     0.054 A 
BRANCH  78  79
ATOM     79  S   UNL     1     -20.439  16.842   2.795  1.00  0.00     0.124 S 
ATOM     80  O   UNL     1     -20.180  17.878   3.789  1.00  0.00    -0.237 OA
ATOM     81  O   UNL     1     -21.626  17.040   1.967  1.00  0.00    -0.237 OA
ATOM     82  O   UNL     1     -20.223  15.470   3.247  1.00  0.00    -0.744 OA
ENDBRANCH  78  79
ENDBRANCH  59  73
BRANCH  60  83
ATOM     83  C   UNL     1     -10.177  17.189   5.031  1.00  0.00    -0.014 A 
ATOM     84  C   UNL     1     -10.454  17.780   6.278  1.00  0.00     0.010 A 
ATOM     85  C   UNL     1      -9.793  15.831   5.027  1.00  0.00     0.010 A 
ATOM     86  C   UNL     1     -10.417  17.023   7.465  1.00  0.00     0.020 A 
ATOM     87  C   UNL     1      -9.746  15.073   6.204  1.00  0.00     0.020 A 
ATOM     88  C   UNL     1     -10.084  15.667   7.416  1.00  0.00     0.054 A 
BRANCH  88  89
ATOM     89  S   UNL     1     -10.225  14.650   8.918  1.00  0.00     0.124 S 
ATOM     90  O   UNL     1      -9.111  15.134   9.727  1.00  0.00    -0.237 OA
ATOM     91  O   UNL     1     -11.558  14.991   9.408  1.00  0.00    -0.237 OA
ATOM     92  O   UNL     1     -10.083  13.282   8.421  1.00  0.00    -0.744 OA
ENDBRANCH  88  89
ENDBRANCH  60  83
BRANCH  72  93
ATOM     93  C   UNL     1     -11.592  21.743   0.847  1.00  0.00    -0.014 A 
ATOM     94  C   UNL     1     -10.273  21.274   0.679  1.00  0.00     0.010 A 
ATOM     95  C   UNL     1     -11.860  23.089   0.541  1.00  0.00     0.010 A 
ATOM     96  C   UNL     1      -9.250  22.136   0.246  1.00  0.00     0.020 A 
ATOM     97  C   UNL     1     -10.853  23.947   0.090  1.00  0.00     0.020 A 
ATOM     98  C   UNL     1      -9.549  23.470  -0.045  1.00  0.00     0.054 A 
BRANCH  98  99
ATOM     99  S   UNL     1      -8.237  24.575  -0.640  1.00  0.00     0.124 S 
ATOM    100  O   UNL     1      -7.380  24.711   0.534  1.00  0.00    -0.237 OA
ATOM    101  O   UNL     1      -7.661  23.826  -1.755  1.00  0.00    -0.237 OA
ATOM    102  O   UNL     1      -8.953  25.790  -1.027  1.00  0.00    -0.744 OA
ENDBRANCH  98  99
ENDBRANCH  72  93
ENDBRANCH  46  47
ENDBRANCH  38  41
ENDBRANCH  36  37
ENDBRANCH  35  36
ENDBRANCH  34  35
ENDBRANCH   1  34
TORSDOF 19
