REMARK SMILES CC(C)[C@H]([NH2+][C@H]1CCCS[C@H]1C)C(=O)NCCCCNC(=O)c1ccc(-c2c3nc(c(-c4ccc(S(=O)(=O)[O-])cc4)c4ccc([nH]4)c(-c4ccc(S(=O)(=O)[O-])cc4)c4nc(c(-c5ccc(S(=O)(=O)[O-])cc5)c5ccc2[nH]5)C=C4)C=C3)cc1
REMARK SMILES IDX 18 1 17 2 16 3 15 4 13 5 14 6 4 8 2 9 1 10 3 11 5 12 6 15
REMARK SMILES IDX 7 16 11 17 8 18 10 19 12 20 9 21 19 22 20 23 21 24 22 26
REMARK SMILES IDX 23 27 24 28 82 29 25 30 81 31 26 32 27 33 28 34 75 35 29 36
REMARK SMILES IDX 80 37 74 38 76 39 30 40 79 41 73 42 72 43 31 45 61 46 42 47
REMARK SMILES IDX 60 48 43 49 46 50 59 51 77 52 44 53 45 54 58 56 78 57 47 58
REMARK SMILES IDX 32 59 33 60 41 61 34 62 40 63 35 64 36 65 37 66 38 67 39 68
REMARK SMILES IDX 62 69 63 70 71 71 64 72 70 73 65 74 66 75 67 76 68 77 69 78
REMARK SMILES IDX 48 79 49 80 57 81 50 82 56 83 51 84 52 85 53 86 54 87 55 88
REMARK H PARENT 15 7 5 13 5 14 20 25 76 44 46 55
REMARK Flexibility Score: inf
ROOT
ATOM      1  C   UNL     1       2.236   1.696   6.898  1.00  0.00     0.023 C 
ENDROOT
BRANCH   1   2
ATOM      2  C   UNL     1       1.114   1.454   5.890  1.00  0.00     0.023 C 
BRANCH   2   3
ATOM      3  C   UNL     1       0.414   2.706   5.379  1.00  0.00     0.116 C 
BRANCH   3   4
ATOM      4  N   UNL     1       1.300   3.643   4.715  1.00  0.00    -0.351 N 
ATOM      5  C   UNL     1       1.228   4.156   3.449  1.00  0.00     0.278 C 
ATOM      6  O   UNL     1       2.015   5.055   3.139  1.00  0.00    -0.268 OA
ATOM      7  H   UNL     1       2.065   3.953   5.252  1.00  0.00     0.163 HD
BRANCH   5   8
ATOM      8  C   UNL     1       0.171   3.663   2.444  1.00  0.00     0.275 C 
BRANCH   8   9
ATOM      9  C   UNL     1      -1.218   4.380   2.668  1.00  0.00     0.051 C 
ATOM     10  C   UNL     1      -2.437   3.553   2.241  1.00  0.00     0.014 C 
ATOM     11  C   UNL     1      -1.501   4.980   4.052  1.00  0.00     0.014 C 
ENDBRANCH   8   9
BRANCH   8  12
ATOM     12  N   UNL     1       0.168   2.176   2.364  1.00  0.00    -0.332 N 
ATOM     13  H   UNL     1      -0.764   1.894   2.060  1.00  0.00     0.347 HD
ATOM     14  H   UNL     1       0.448   1.877   3.298  1.00  0.00     0.347 HD
BRANCH  12  15
ATOM     15  C   UNL     1       1.147   1.505   1.460  1.00  0.00     0.195 C 
ATOM     16  C   UNL     1       1.235   2.131   0.050  1.00  0.00     0.067 C 
ATOM     17  C   UNL     1       2.536   1.126   2.064  1.00  0.00     0.101 C 
ATOM     18  C   UNL     1       1.957   1.249  -0.972  1.00  0.00     0.017 C 
ATOM     19  S   UNL     1       3.388  -0.079   0.954  1.00  0.00    -0.153 SA
ATOM     20  C   UNL     1       3.510   2.264   2.356  1.00  0.00     0.026 C 
ATOM     21  C   UNL     1       3.381   0.895  -0.573  1.00  0.00     0.070 C 
ENDBRANCH  12  15
ENDBRANCH   8  12
ENDBRANCH   5   8
ENDBRANCH   3   4
ENDBRANCH   2   3
ENDBRANCH   1   2
BRANCH   1  22
ATOM     22  C   UNL     1       1.910   2.658   8.034  1.00  0.00     0.116 C 
BRANCH  22  23
ATOM     23  N   UNL     1       0.715   2.294   8.781  1.00  0.00    -0.352 N 
ATOM     24  C   UNL     1       0.514   2.276  10.141  1.00  0.00     0.251 C 
ATOM     25  H   UNL     1      -0.058   2.023   8.236  1.00  0.00     0.163 HD
ATOM     26  O   UNL     1      -0.546   1.871  10.601  1.00  0.00    -0.269 OA
BRANCH  24  27
ATOM     27  C   UNL     1       1.605   2.704  11.043  1.00  0.00     0.039 A 
ATOM     28  C   UNL     1       1.966   1.864  12.100  1.00  0.00     0.014 A 
ATOM     29  C   UNL     1       2.299   3.896  10.819  1.00  0.00     0.014 A 
ATOM     30  C   UNL     1       3.078   2.181  12.882  1.00  0.00     0.010 A 
ATOM     31  C   UNL     1       3.449   4.170  11.552  1.00  0.00     0.010 A 
ATOM     32  C   UNL     1       3.855   3.312  12.586  1.00  0.00    -0.014 A 
BRANCH  32  33
ATOM     33  C   UNL     1       5.106   3.605  13.332  1.00  0.00     0.031 A 
ATOM     34  C   UNL     1       5.221   4.860  14.153  1.00  0.00     0.074 A 
ATOM     35  C   UNL     1       6.165   2.779  13.208  1.00  0.00     0.049 A 
ATOM     36  N   UNL     1       6.252   5.321  14.813  1.00  0.00    -0.248 NA
ATOM     37  C   UNL     1       4.030   5.724  14.218  1.00  0.00     0.031 C 
ATOM     38  C   UNL     1       6.198   1.556  12.401  1.00  0.00     0.029 A 
ATOM     39  N   UNL     1       7.423   2.849  13.753  1.00  0.00    -0.354 N 
ATOM     40  C   UNL     1       5.844   6.535  15.351  1.00  0.00     0.074 A 
ATOM     41  C   UNL     1       4.487   6.761  14.905  1.00  0.00     0.031 C 
ATOM     42  C   UNL     1       7.406   0.981  12.523  1.00  0.00     0.029 A 
ATOM     43  C   UNL     1       8.244   1.810  13.383  1.00  0.00     0.049 A 
ATOM     44  H   UNL     1       7.710   3.575  14.353  1.00  0.00     0.167 HD
ATOM     45  C   UNL     1       6.531   7.379  16.158  1.00  0.00     0.031 A 
ATOM     46  C   UNL     1       9.530   1.555  13.694  1.00  0.00     0.031 A 
ATOM     47  C   UNL     1       7.873   7.143  16.617  1.00  0.00     0.049 A 
ATOM     48  C   UNL     1      10.267   2.500  14.603  1.00  0.00     0.074 A 
ATOM     49  C   UNL     1       8.630   7.905  17.490  1.00  0.00     0.029 A 
ATOM     50  N   UNL     1       8.660   6.065  16.242  1.00  0.00    -0.354 N 
ATOM     51  N   UNL     1       9.839   3.608  15.159  1.00  0.00    -0.248 NA
ATOM     52  C   UNL     1      11.655   2.152  14.937  1.00  0.00     0.031 C 
ATOM     53  C   UNL     1       9.890   7.311  17.609  1.00  0.00     0.029 A 
ATOM     54  C   UNL     1       9.901   6.152  16.851  1.00  0.00     0.049 A 
ATOM     55  H   UNL     1       8.379   5.345  15.633  1.00  0.00     0.167 HD
ATOM     56  C   UNL     1      10.899   4.078  15.928  1.00  0.00     0.074 A 
ATOM     57  C   UNL     1      11.980   3.126  15.777  1.00  0.00     0.031 C 
ATOM     58  C   UNL     1      10.967   5.196  16.691  1.00  0.00     0.031 A 
BRANCH  45  59
ATOM     59  C   UNL     1       5.836   8.641  16.594  1.00  0.00    -0.014 A 
ATOM     60  C   UNL     1       4.771   8.604  17.512  1.00  0.00     0.010 A 
ATOM     61  C   UNL     1       6.276   9.885  16.106  1.00  0.00     0.010 A 
ATOM     62  C   UNL     1       4.130   9.782  17.901  1.00  0.00     0.020 A 
ATOM     63  C   UNL     1       5.655  11.069  16.514  1.00  0.00     0.020 A 
ATOM     64  C   UNL     1       4.573  11.008  17.395  1.00  0.00     0.054 A 
BRANCH  64  65
ATOM     65  S   UNL     1       3.735  12.525  17.932  1.00  0.00     0.124 S 
ATOM     66  O   UNL     1       2.483  12.457  17.182  1.00  0.00    -0.237 OA
ATOM     67  O   UNL     1       3.614  12.332  19.375  1.00  0.00    -0.237 OA
ATOM     68  O   UNL     1       4.649  13.589  17.523  1.00  0.00    -0.744 OA
ENDBRANCH  64  65
ENDBRANCH  45  59
BRANCH  46  69
ATOM     69  C   UNL     1      10.198   0.341  13.152  1.00  0.00    -0.014 A 
ATOM     70  C   UNL     1      10.488  -0.748  13.993  1.00  0.00     0.010 A 
ATOM     71  C   UNL     1      10.537   0.262  11.789  1.00  0.00     0.010 A 
ATOM     72  C   UNL     1      11.120  -1.887  13.485  1.00  0.00     0.020 A 
ATOM     73  C   UNL     1      11.146  -0.886  11.272  1.00  0.00     0.020 A 
ATOM     74  C   UNL     1      11.444  -1.949  12.127  1.00  0.00     0.054 A 
BRANCH  74  75
ATOM     75  S   UNL     1      12.217  -3.457  11.479  1.00  0.00     0.124 S 
ATOM     76  O   UNL     1      13.587  -3.328  11.963  1.00  0.00    -0.237 OA
ATOM     77  O   UNL     1      11.421  -4.513  12.101  1.00  0.00    -0.237 OA
ATOM     78  O   UNL     1      12.047  -3.332  10.033  1.00  0.00    -0.744 OA
ENDBRANCH  74  75
ENDBRANCH  46  69
BRANCH  58  79
ATOM     79  C   UNL     1      12.244   5.439  17.450  1.00  0.00    -0.014 A 
ATOM     80  C   UNL     1      13.412   5.862  16.793  1.00  0.00     0.010 A 
ATOM     81  C   UNL     1      12.256   5.295  18.849  1.00  0.00     0.010 A 
ATOM     82  C   UNL     1      14.579   6.111  17.520  1.00  0.00     0.020 A 
ATOM     83  C   UNL     1      13.413   5.566  19.582  1.00  0.00     0.020 A 
ATOM     84  C   UNL     1      14.572   5.960  18.911  1.00  0.00     0.054 A 
BRANCH  84  85
ATOM     85  S   UNL     1      16.086   6.335  19.838  1.00  0.00     0.124 S 
ATOM     86  O   UNL     1      16.912   5.164  19.555  1.00  0.00    -0.237 OA
ATOM     87  O   UNL     1      16.536   7.584  19.230  1.00  0.00    -0.237 OA
ATOM     88  O   UNL     1      15.624   6.453  21.220  1.00  0.00    -0.744 OA
ENDBRANCH  84  85
ENDBRANCH  58  79
ENDBRANCH  32  33
ENDBRANCH  24  27
ENDBRANCH  22  23
ENDBRANCH   1  22
TORSDOF 17
