REMARK SMILES CCNC(=O)c1cccc(-c2ccc(Cl)c(C(=O)NCCCCNC(=O)c3ccc(-c4c5nc(c(-c6ccc(S(=O)(=O)[O-])cc6)c6ccc([nH]6)c(-c6ccc(S(=O)(=O)[O-])cc6)c6nc(c(-c7ccc(S(=O)(=O)[O-])cc7)c7ccc4[nH]7)C=C6)C=C5)cc3)c2)c1
REMARK SMILES IDX 21 1 20 2 19 3 17 4 18 5 16 7 11 8 12 9 87 10 13 11 14 12
REMARK SMILES IDX 15 13 10 14 6 15 7 16 88 17 8 18 9 19 4 20 3 21 5 23 2 24
REMARK SMILES IDX 1 25 22 26 23 27 24 28 25 29 26 31 27 32 28 33 86 34 29 35
REMARK SMILES IDX 85 36 30 37 31 38 32 39 79 40 33 41 84 42 78 43 80 44 34 45
REMARK SMILES IDX 83 46 77 47 76 48 35 50 65 51 46 52 64 53 47 54 50 55 63 56
REMARK SMILES IDX 81 57 48 58 49 59 62 61 82 62 51 63 36 64 37 65 45 66 38 67
REMARK SMILES IDX 44 68 39 69 40 70 41 71 42 72 43 73 66 74 67 75 75 76 68 77
REMARK SMILES IDX 74 78 69 79 70 80 71 81 72 82 73 83 52 84 53 85 61 86 54 87
REMARK SMILES IDX 60 88 55 89 56 90 57 91 58 92 59 93
REMARK H PARENT 19 6 3 22 24 30 80 49 50 60
REMARK Flexibility Score: inf
ROOT
ATOM      1  C   UNL     1      -3.043   0.736   7.856  1.00  0.00     0.023 C 
ENDROOT
BRANCH   1   2
ATOM      2  C   UNL     1      -2.718  -0.302   6.793  1.00  0.00     0.116 C 
BRANCH   2   3
ATOM      3  N   UNL     1      -3.125  -1.673   7.089  1.00  0.00    -0.352 N 
ATOM      4  C   UNL     1      -3.685  -2.663   6.296  1.00  0.00     0.252 C 
ATOM      5  O   UNL     1      -3.787  -3.792   6.768  1.00  0.00    -0.269 OA
ATOM      6  H   UNL     1      -2.974  -1.944   8.024  1.00  0.00     0.163 HD
BRANCH   4   7
ATOM      7  C   UNL     1      -4.169  -2.382   4.912  1.00  0.00     0.059 A 
ATOM      8  C   UNL     1      -4.008  -0.869   2.991  1.00  0.00    -0.017 A 
ATOM      9  C   UNL     1      -5.185  -1.423   2.480  1.00  0.00     0.010 A 
ATOM     10  C   UNL     1      -3.448  -1.483   4.121  1.00  0.00     0.024 A 
ATOM     11  C   UNL     1      -5.824  -2.473   3.149  1.00  0.00     0.022 A 
ATOM     12  C   UNL     1      -5.349  -2.921   4.389  1.00  0.00     0.053 A 
ATOM     13  Cl  UNL     1      -6.319  -4.095   5.203  1.00  0.00    -0.083 Cl
BRANCH   8  14
ATOM     14  C   UNL     1      -3.440   0.406   2.498  1.00  0.00    -0.018 A 
ATOM     15  C   UNL     1      -1.524   1.900   2.187  1.00  0.00     0.040 A 
ATOM     16  C   UNL     1      -2.378   2.948   1.843  1.00  0.00     0.014 A 
ATOM     17  C   UNL     1      -2.060   0.658   2.549  1.00  0.00     0.022 A 
ATOM     18  C   UNL     1      -3.753   2.733   1.801  1.00  0.00     0.001 A 
ATOM     19  C   UNL     1      -4.274   1.472   2.113  1.00  0.00     0.009 A 
BRANCH  15  20
ATOM     20  C   UNL     1      -0.069   2.159   2.268  1.00  0.00     0.251 C 
ATOM     21  N   UNL     1       0.842   1.213   1.869  1.00  0.00    -0.352 N 
ATOM     22  H   UNL     1       1.772   1.404   2.128  1.00  0.00     0.163 HD
ATOM     23  O   UNL     1       0.324   3.239   2.700  1.00  0.00    -0.269 OA
BRANCH  21  24
ATOM     24  C   UNL     1       0.659  -0.023   1.128  1.00  0.00     0.112 C 
ATOM     25  C   UNL     1       1.348   0.039  -0.220  1.00  0.00     0.027 C 
ENDBRANCH  21  24
ENDBRANCH  15  20
ENDBRANCH   8  14
ENDBRANCH   4   7
ENDBRANCH   2   3
ENDBRANCH   1   2
BRANCH   1  26
ATOM     26  C   UNL     1      -2.397   0.552   9.221  1.00  0.00     0.023 C 
BRANCH  26  27
ATOM     27  C   UNL     1      -0.887   0.342   9.236  1.00  0.00     0.116 C 
BRANCH  27  28
ATOM     28  N   UNL     1      -0.127   1.406   8.598  1.00  0.00    -0.352 N 
ATOM     29  C   UNL     1       0.955   2.120   9.066  1.00  0.00     0.251 C 
ATOM     30  H   UNL     1      -0.432   1.653   7.695  1.00  0.00     0.163 HD
ATOM     31  O   UNL     1       1.422   3.028   8.390  1.00  0.00    -0.269 OA
BRANCH  29  32
ATOM     32  C   UNL     1       1.526   1.825  10.401  1.00  0.00     0.039 A 
ATOM     33  C   UNL     1       1.821   2.893  11.253  1.00  0.00     0.014 A 
ATOM     34  C   UNL     1       1.751   0.514  10.824  1.00  0.00     0.014 A 
ATOM     35  C   UNL     1       2.257   2.641  12.557  1.00  0.00     0.010 A 
ATOM     36  C   UNL     1       2.101   0.263  12.149  1.00  0.00     0.010 A 
ATOM     37  C   UNL     1       2.356   1.323  13.032  1.00  0.00    -0.014 A 
BRANCH  37  38
ATOM     38  C   UNL     1       2.715   1.040  14.447  1.00  0.00     0.031 A 
ATOM     39  C   UNL     1       3.974   0.283  14.776  1.00  0.00     0.074 A 
ATOM     40  C   UNL     1       1.878   1.418  15.435  1.00  0.00     0.049 A 
ATOM     41  N   UNL     1       4.436  -0.078  15.946  1.00  0.00    -0.248 NA
ATOM     42  C   UNL     1       4.810  -0.147  13.643  1.00  0.00     0.031 C 
ATOM     43  C   UNL     1       0.600   2.111  15.248  1.00  0.00     0.029 A 
ATOM     44  N   UNL     1       1.976   1.273  16.797  1.00  0.00    -0.354 N 
ATOM     45  C   UNL     1       5.605  -0.786  15.690  1.00  0.00     0.074 A 
ATOM     46  C   UNL     1       5.751  -0.853  14.252  1.00  0.00     0.031 C 
ATOM     47  C   UNL     1       0.055   2.363  16.449  1.00  0.00     0.029 A 
ATOM     48  C   UNL     1       0.921   1.819  17.490  1.00  0.00     0.049 A 
ATOM     49  H   UNL     1       2.732   0.820  17.237  1.00  0.00     0.167 HD
ATOM     50  C   UNL     1       6.492  -1.311  16.569  1.00  0.00     0.031 A 
ATOM     51  C   UNL     1       0.677   1.880  18.814  1.00  0.00     0.031 A 
ATOM     52  C   UNL     1       6.353  -1.232  17.999  1.00  0.00     0.049 A 
ATOM     53  C   UNL     1       1.679   1.293  19.770  1.00  0.00     0.074 A 
ATOM     54  C   UNL     1       7.223  -1.687  18.974  1.00  0.00     0.029 A 
ATOM     55  N   UNL     1       5.277  -0.659  18.659  1.00  0.00    -0.354 N 
ATOM     56  N   UNL     1       2.812   0.686  19.508  1.00  0.00    -0.248 NA
ATOM     57  C   UNL     1       1.376   1.413  21.203  1.00  0.00     0.031 C 
ATOM     58  C   UNL     1       6.652  -1.429  20.225  1.00  0.00     0.029 A 
ATOM     59  C   UNL     1       5.452  -0.764  20.029  1.00  0.00     0.049 A 
ATOM     60  H   UNL     1       4.502  -0.240  18.219  1.00  0.00     0.167 HD
ATOM     61  C   UNL     1       3.370   0.378  20.744  1.00  0.00     0.074 A 
ATOM     62  C   UNL     1       2.458   0.879  21.752  1.00  0.00     0.031 C 
ATOM     63  C   UNL     1       4.534  -0.261  21.019  1.00  0.00     0.031 A 
BRANCH  50  64
ATOM     64  C   UNL     1       7.697  -2.016  16.002  1.00  0.00    -0.014 A 
ATOM     65  C   UNL     1       8.713  -1.298  15.345  1.00  0.00     0.010 A 
ATOM     66  C   UNL     1       7.833  -3.408  16.155  1.00  0.00     0.010 A 
ATOM     67  C   UNL     1       9.821  -1.964  14.814  1.00  0.00     0.020 A 
ATOM     68  C   UNL     1       8.954  -4.074  15.650  1.00  0.00     0.020 A 
ATOM     69  C   UNL     1       9.932  -3.349  14.966  1.00  0.00     0.054 A 
BRANCH  69  70
ATOM     70  S   UNL     1      11.391  -4.183  14.283  1.00  0.00     0.124 S 
ATOM     71  O   UNL     1      11.112  -4.150  12.850  1.00  0.00    -0.237 OA
ATOM     72  O   UNL     1      12.488  -3.328  14.729  1.00  0.00    -0.237 OA
ATOM     73  O   UNL     1      11.351  -5.509  14.895  1.00  0.00    -0.744 OA
ENDBRANCH  69  70
ENDBRANCH  50  64
BRANCH  51  74
ATOM     74  C   UNL     1      -0.554   2.549  19.316  1.00  0.00    -0.014 A 
ATOM     75  C   UNL     1      -0.472   3.782  19.988  1.00  0.00     0.010 A 
ATOM     76  C   UNL     1      -1.817   1.960  19.122  1.00  0.00     0.010 A 
ATOM     77  C   UNL     1      -1.626   4.402  20.476  1.00  0.00     0.020 A 
ATOM     78  C   UNL     1      -2.976   2.591  19.585  1.00  0.00     0.020 A 
ATOM     79  C   UNL     1      -2.871   3.802  20.271  1.00  0.00     0.054 A 
BRANCH  79  80
ATOM     80  S   UNL     1      -4.360   4.647  20.875  1.00  0.00     0.124 S 
ATOM     81  O   UNL     1      -4.279   4.415  22.313  1.00  0.00    -0.237 OA
ATOM     82  O   UNL     1      -4.140   6.024  20.442  1.00  0.00    -0.237 OA
ATOM     83  O   UNL     1      -5.447   3.953  20.187  1.00  0.00    -0.744 OA
ENDBRANCH  79  80
ENDBRANCH  51  74
BRANCH  63  84
ATOM     84  C   UNL     1       4.906  -0.424  22.469  1.00  0.00    -0.014 A 
ATOM     85  C   UNL     1       4.223  -1.327  23.302  1.00  0.00     0.010 A 
ATOM     86  C   UNL     1       5.985   0.311  22.994  1.00  0.00     0.010 A 
ATOM     87  C   UNL     1       4.587  -1.465  24.643  1.00  0.00     0.020 A 
ATOM     88  C   UNL     1       6.371   0.155  24.327  1.00  0.00     0.020 A 
ATOM     89  C   UNL     1       5.658  -0.720  25.149  1.00  0.00     0.054 A 
BRANCH  89  90
ATOM     90  S   UNL     1       6.133  -0.939  26.885  1.00  0.00     0.124 S 
ATOM     91  O   UNL     1       5.071  -0.219  27.583  1.00  0.00    -0.237 OA
ATOM     92  O   UNL     1       6.116  -2.391  27.043  1.00  0.00    -0.237 OA
ATOM     93  O   UNL     1       7.456  -0.325  26.962  1.00  0.00    -0.744 OA
ENDBRANCH  89  90
ENDBRANCH  63  84
ENDBRANCH  37  38
ENDBRANCH  29  32
ENDBRANCH  27  28
ENDBRANCH  26  27
ENDBRANCH   1  26
TORSDOF 17
