REMARK SMILES C#CC[N@@H+](CC(=O)NCCCCNC(=O)c1ccc(-c2c3nc(c(-c4ccc(S(=O)(=O)[O-])cc4)c4ccc([nH]4)c(-c4ccc(S(=O)(=O)[O-])cc4)c4nc(c(-c5ccc(S(=O)(=O)[O-])cc5)c5ccc2[nH]5)C=C4)C=C3)cc1)Cc1ccc(C(C)C)cc1
REMARK SMILES IDX 10 1 9 2 8 3 6 4 7 5 5 7 4 8 3 10 2 11 1 12 76 13 77 14
REMARK SMILES IDX 78 15 85 16 79 17 84 18 80 19 81 20 82 21 83 22 11 23 12 24
REMARK SMILES IDX 13 25 14 26 15 28 16 29 17 30 75 31 18 32 74 33 19 34 20 35
REMARK SMILES IDX 21 36 68 37 22 38 73 39 67 40 69 41 23 42 72 43 66 44 65 45
REMARK SMILES IDX 24 47 54 48 35 49 53 50 36 51 39 52 52 53 70 54 37 55 38 56
REMARK SMILES IDX 51 58 71 59 40 60 25 61 26 62 34 63 27 64 33 65 28 66 29 67
REMARK SMILES IDX 30 68 31 69 32 70 55 71 56 72 64 73 57 74 63 75 58 76 59 77
REMARK SMILES IDX 60 78 61 79 62 80 41 81 42 82 50 83 43 84 49 85 44 86 45 87
REMARK SMILES IDX 46 88 47 89 48 90
REMARK H PARENT 8 6 4 9 13 27 69 46 39 57
REMARK Flexibility Score: inf
ROOT
ATOM      1  C   UNL     1      -2.671   1.017   2.769  1.00  0.00     0.023 C 
ENDROOT
BRANCH   1   2
ATOM      2  C   UNL     1      -3.907   0.207   2.276  1.00  0.00     0.116 C 
BRANCH   2   3
ATOM      3  N   UNL     1      -4.780   0.829   1.279  1.00  0.00    -0.351 N 
ATOM      4  C   UNL     1      -4.941   0.737  -0.083  1.00  0.00     0.275 C 
ATOM      5  O   UNL     1      -5.898   1.373  -0.547  1.00  0.00    -0.269 OA
ATOM      6  H   UNL     1      -5.407   1.471   1.684  1.00  0.00     0.163 HD
BRANCH   4   7
ATOM      7  C   UNL     1      -4.070  -0.101  -1.044  1.00  0.00     0.364 C 
BRANCH   7   8
ATOM      8  N   UNL     1      -2.642   0.260  -1.237  1.00  0.00    -0.313 N 
ATOM      9  H   UNL     1      -2.271  -0.372  -1.946  1.00  0.00     0.349 HD
BRANCH   8  10
ATOM     10  C   UNL     1      -1.921   0.018  -0.011  1.00  0.00     0.354 C 
BRANCH  10  11
ATOM     11  C   UNL     1      -0.402   0.018  -0.011  1.00  0.00    -0.047 C 
ATOM     12  C   UNL     1       0.902   0.018  -0.011  1.00  0.00     0.010 C 
ENDBRANCH  10  11
ENDBRANCH   8  10
BRANCH   8  13
ATOM     13  C   UNL     1      -2.336   1.519  -1.967  1.00  0.00     0.300 C 
BRANCH  13  14
ATOM     14  C   UNL     1      -2.473   2.913  -1.351  1.00  0.00     0.006 A 
ATOM     15  C   UNL     1      -2.019   4.058  -2.029  1.00  0.00     0.010 A 
ATOM     16  C   UNL     1      -3.064   3.162  -0.123  1.00  0.00     0.010 A 
ATOM     17  C   UNL     1      -2.167   5.357  -1.476  1.00  0.00     0.004 A 
ATOM     18  C   UNL     1      -3.240   4.422   0.428  1.00  0.00     0.004 A 
ATOM     19  C   UNL     1      -2.785   5.546  -0.233  1.00  0.00    -0.045 A 
BRANCH  19  20
ATOM     20  C   UNL     1      -3.011   6.872   0.460  1.00  0.00     0.013 C 
ATOM     21  C   UNL     1      -1.718   7.647   0.681  1.00  0.00     0.012 C 
ATOM     22  C   UNL     1      -4.087   7.694  -0.241  1.00  0.00     0.012 C 
ENDBRANCH  19  20
ENDBRANCH  13  14
ENDBRANCH   8  13
ENDBRANCH   7   8
ENDBRANCH   4   7
ENDBRANCH   2   3
ENDBRANCH   1   2
BRANCH   1  23
ATOM     23  C   UNL     1      -2.915   2.196   3.670  1.00  0.00     0.023 C 
BRANCH  23  24
ATOM     24  C   UNL     1      -3.463   1.794   5.000  1.00  0.00     0.116 C 
BRANCH  24  25
ATOM     25  N   UNL     1      -2.700   0.718   5.628  1.00  0.00    -0.352 N 
ATOM     26  C   UNL     1      -2.205   0.658   6.910  1.00  0.00     0.251 C 
ATOM     27  H   UNL     1      -2.517  -0.065   5.061  1.00  0.00     0.163 HD
ATOM     28  O   UNL     1      -1.443  -0.227   7.250  1.00  0.00    -0.269 OA
BRANCH  26  29
ATOM     29  C   UNL     1      -2.615   1.730   7.833  1.00  0.00     0.039 A 
ATOM     30  C   UNL     1      -1.658   2.372   8.611  1.00  0.00     0.014 A 
ATOM     31  C   UNL     1      -3.934   2.184   7.787  1.00  0.00     0.014 A 
ATOM     32  C   UNL     1      -2.029   3.518   9.306  1.00  0.00     0.010 A 
ATOM     33  C   UNL     1      -4.234   3.426   8.300  1.00  0.00     0.010 A 
ATOM     34  C   UNL     1      -3.309   4.072   9.123  1.00  0.00    -0.014 A 
BRANCH  34  35
ATOM     35  C   UNL     1      -3.733   5.288   9.846  1.00  0.00     0.031 A 
ATOM     36  C   UNL     1      -4.933   5.222  10.757  1.00  0.00     0.074 A 
ATOM     37  C   UNL     1      -3.060   6.438   9.659  1.00  0.00     0.049 A 
ATOM     38  N   UNL     1      -5.431   6.154  11.525  1.00  0.00    -0.248 NA
ATOM     39  C   UNL     1      -5.706   3.965  10.777  1.00  0.00     0.031 C 
ATOM     40  C   UNL     1      -1.950   6.634   8.720  1.00  0.00     0.029 A 
ATOM     41  N   UNL     1      -3.197   7.656  10.268  1.00  0.00    -0.354 N 
ATOM     42  C   UNL     1      -6.573   5.600  12.091  1.00  0.00     0.074 A 
ATOM     43  C   UNL     1      -6.754   4.293  11.512  1.00  0.00     0.031 C 
ATOM     44  C   UNL     1      -1.461   7.875   8.872  1.00  0.00     0.029 A 
ATOM     45  C   UNL     1      -2.239   8.567   9.893  1.00  0.00     0.049 A 
ATOM     46  H   UNL     1      -3.913   7.860  10.913  1.00  0.00     0.167 HD
ATOM     47  C   UNL     1      -7.377   6.113  13.050  1.00  0.00     0.031 A 
ATOM     48  C   UNL     1      -2.002   9.811  10.348  1.00  0.00     0.031 A 
ATOM     49  C   UNL     1      -7.159   7.398  13.648  1.00  0.00     0.049 A 
ATOM     50  C   UNL     1      -2.862  10.337  11.464  1.00  0.00     0.074 A 
ATOM     51  C   UNL     1      -7.855   7.999  14.678  1.00  0.00     0.029 A 
ATOM     52  N   UNL     1      -6.156   8.278  13.266  1.00  0.00    -0.354 N 
ATOM     53  N   UNL     1      -3.882   9.763  12.059  1.00  0.00    -0.248 NA
ATOM     54  C   UNL     1      -2.520  11.663  11.989  1.00  0.00     0.031 C 
ATOM     55  C   UNL     1      -7.302   9.267  14.888  1.00  0.00     0.029 A 
ATOM     56  C   UNL     1      -6.224   9.428  14.030  1.00  0.00     0.049 A 
ATOM     57  H   UNL     1      -5.495   8.108  12.557  1.00  0.00     0.167 HD
ATOM     58  C   UNL     1      -4.293  10.651  13.046  1.00  0.00     0.074 A 
ATOM     59  C   UNL     1      -3.391  11.786  12.981  1.00  0.00     0.031 C 
ATOM     60  C   UNL     1      -5.319  10.543  13.927  1.00  0.00     0.031 A 
BRANCH  47  61
ATOM     61  C   UNL     1      -8.543   5.273  13.500  1.00  0.00    -0.014 A 
ATOM     62  C   UNL     1      -8.349   4.066  14.199  1.00  0.00     0.010 A 
ATOM     63  C   UNL     1      -9.854   5.696  13.220  1.00  0.00     0.010 A 
ATOM     64  C   UNL     1      -9.441   3.275  14.567  1.00  0.00     0.020 A 
ATOM     65  C   UNL     1     -10.951   4.924  13.616  1.00  0.00     0.020 A 
ATOM     66  C   UNL     1     -10.735   3.710  14.271  1.00  0.00     0.054 A 
BRANCH  66  67
ATOM     67  S   UNL     1     -12.136   2.677  14.782  1.00  0.00     0.124 S 
ATOM     68  O   UNL     1     -12.057   1.571  13.831  1.00  0.00    -0.237 OA
ATOM     69  O   UNL     1     -11.799   2.342  16.163  1.00  0.00    -0.237 OA
ATOM     70  O   UNL     1     -13.291   3.556  14.621  1.00  0.00    -0.744 OA
ENDBRANCH  66  67
ENDBRANCH  47  61
BRANCH  48  71
ATOM     71  C   UNL     1      -0.872  10.603   9.790  1.00  0.00    -0.014 A 
ATOM     72  C   UNL     1       0.283  10.845  10.555  1.00  0.00     0.010 A 
ATOM     73  C   UNL     1      -0.931  11.089   8.471  1.00  0.00     0.010 A 
ATOM     74  C   UNL     1       1.349  11.574  10.019  1.00  0.00     0.020 A 
ATOM     75  C   UNL     1       0.144  11.794   7.922  1.00  0.00     0.020 A 
ATOM     76  C   UNL     1       1.273  12.042   8.704  1.00  0.00     0.054 A 
BRANCH  76  77
ATOM     77  S   UNL     1       2.691  12.936   8.008  1.00  0.00     0.124 S 
ATOM     78  O   UNL     1       2.597  14.226   8.683  1.00  0.00    -0.237 OA
ATOM     79  O   UNL     1       3.819  12.095   8.402  1.00  0.00    -0.237 OA
ATOM     80  O   UNL     1       2.411  12.956   6.574  1.00  0.00    -0.744 OA
ENDBRANCH  76  77
ENDBRANCH  48  71
BRANCH  60  81
ATOM     81  C   UNL     1      -5.497  11.674  14.902  1.00  0.00    -0.014 A 
ATOM     82  C   UNL     1      -5.954  12.935  14.480  1.00  0.00     0.010 A 
ATOM     83  C   UNL     1      -5.224  11.458  16.265  1.00  0.00     0.010 A 
ATOM     84  C   UNL     1      -6.075  13.980  15.397  1.00  0.00     0.020 A 
ATOM     85  C   UNL     1      -5.377  12.491  17.189  1.00  0.00     0.020 A 
ATOM     86  C   UNL     1      -5.777  13.753  16.745  1.00  0.00     0.054 A 
BRANCH  86  87
ATOM     87  S   UNL     1      -5.939  15.126  17.916  1.00  0.00     0.124 S 
ATOM     88  O   UNL     1      -4.755  15.924  17.610  1.00  0.00    -0.237 OA
ATOM     89  O   UNL     1      -7.217  15.723  17.538  1.00  0.00    -0.237 OA
ATOM     90  O   UNL     1      -5.927  14.469  19.222  1.00  0.00    -0.744 OA
ENDBRANCH  86  87
ENDBRANCH  60  81
ENDBRANCH  34  35
ENDBRANCH  26  29
ENDBRANCH  24  25
ENDBRANCH  23  24
ENDBRANCH   1  23
TORSDOF 20
