REMARK SMILES Cn1cncc1COc1c(F)cc(C(=O)NCCCCNC(=O)c2ccc(-c3c4nc(c(-c5ccc(S(=O)(=O)[O-])cc5)c5ccc([nH]5)c(-c5ccc(S(=O)(=O)[O-])cc5)c5nc(c(-c6ccc(S(=O)(=O)[O-])cc6)c6ccc3[nH]6)C=C5)C=C4)cc2)cc1F
REMARK SMILES IDX 18 1 17 2 16 3 14 4 15 5 13 7 9 8 10 9 85 10 11 11 12 12
REMARK SMILES IDX 84 13 86 14 8 15 7 16 6 17 1 18 2 19 3 20 4 21 5 22 19 23
REMARK SMILES IDX 20 24 21 25 22 26 23 28 24 29 25 30 83 31 26 32 82 33 27 34
REMARK SMILES IDX 28 35 29 36 76 37 30 38 81 39 75 40 77 41 31 42 80 43 74 44
REMARK SMILES IDX 73 45 32 47 62 48 43 49 61 50 44 51 47 52 60 53 78 54 45 55
REMARK SMILES IDX 46 56 59 58 79 59 48 60 33 61 34 62 42 63 35 64 41 65 36 66
REMARK SMILES IDX 37 67 38 68 39 69 40 70 63 71 64 72 72 73 65 74 71 75 66 76
REMARK SMILES IDX 67 77 68 78 69 79 70 80 49 81 50 82 58 83 51 84 57 85 52 86
REMARK SMILES IDX 53 87 54 88 55 89 56 90
REMARK H PARENT 16 6 21 27 77 46 47 57
REMARK Flexibility Score: inf
ROOT
ATOM      1  C   UNL     1      -0.583   1.733   6.052  1.00  0.00     0.023 C 
ENDROOT
BRANCH   1   2
ATOM      2  C   UNL     1       0.816   1.109   6.044  1.00  0.00     0.116 C 
BRANCH   2   3
ATOM      3  N   UNL     1       0.859  -0.137   6.792  1.00  0.00    -0.352 N 
ATOM      4  C   UNL     1       0.795  -1.447   6.386  1.00  0.00     0.251 C 
ATOM      5  O   UNL     1       1.012  -2.329   7.216  1.00  0.00    -0.269 OA
ATOM      6  H   UNL     1       0.952  -0.020   7.765  1.00  0.00     0.163 HD
BRANCH   4   7
ATOM      7  C   UNL     1       0.495  -1.854   4.984  1.00  0.00     0.045 A 
ATOM      8  C   UNL     1      -0.062  -2.749   2.366  1.00  0.00     0.191 A 
ATOM      9  C   UNL     1      -0.583  -1.554   2.841  1.00  0.00     0.168 A 
ATOM     10  C   UNL     1       0.682  -3.536   3.239  1.00  0.00     0.168 A 
ATOM     11  F   UNL     1      -1.394  -0.803   2.088  1.00  0.00    -0.203 F 
ATOM     12  C   UNL     1      -0.306  -1.107   4.126  1.00  0.00     0.057 A 
ATOM     13  C   UNL     1       0.963  -3.100   4.538  1.00  0.00     0.057 A 
ATOM     14  F   UNL     1       1.139  -4.732   2.842  1.00  0.00    -0.203 F 
BRANCH   8  15
ATOM     15  O   UNL     1      -0.371  -3.192   1.108  1.00  0.00    -0.481 OA
BRANCH  15  16
ATOM     16  C   UNL     1       0.525  -2.672   0.110  1.00  0.00     0.285 C 
BRANCH  16  17
ATOM     17  C   UNL     1       0.027  -1.350  -0.360  1.00  0.00     0.075 A 
ATOM     18  C   UNL     1       2.165  -0.031  -0.095  1.00  0.00     0.151 C 
ATOM     19  N   UNL     1       0.766  -0.190  -0.403  1.00  0.00    -0.335 N 
ATOM     20  C   UNL     1      -0.064   0.820  -0.801  1.00  0.00     0.199 A 
ATOM     21  N   UNL     1      -1.266   0.375  -1.079  1.00  0.00    -0.245 NA
ATOM     22  C   UNL     1      -1.225  -0.966  -0.803  1.00  0.00     0.138 A 
ENDBRANCH  16  17
ENDBRANCH  15  16
ENDBRANCH   8  15
ENDBRANCH   4   7
ENDBRANCH   2   3
ENDBRANCH   1   2
BRANCH   1  23
ATOM     23  C   UNL     1      -0.915   2.589   7.272  1.00  0.00     0.023 C 
BRANCH  23  24
ATOM     24  C   UNL     1      -0.044   3.823   7.455  1.00  0.00     0.116 C 
BRANCH  24  25
ATOM     25  N   UNL     1      -0.052   4.720   6.310  1.00  0.00    -0.352 N 
ATOM     26  C   UNL     1       0.125   6.085   6.295  1.00  0.00     0.251 C 
ATOM     27  H   UNL     1      -0.204   4.296   5.434  1.00  0.00     0.163 HD
ATOM     28  O   UNL     1       0.005   6.709   5.252  1.00  0.00    -0.269 OA
BRANCH  26  29
ATOM     29  C   UNL     1       0.416   6.789   7.564  1.00  0.00     0.039 A 
ATOM     30  C   UNL     1      -0.323   7.930   7.882  1.00  0.00     0.014 A 
ATOM     31  C   UNL     1       1.386   6.309   8.449  1.00  0.00     0.014 A 
ATOM     32  C   UNL     1      -0.129   8.556   9.114  1.00  0.00     0.010 A 
ATOM     33  C   UNL     1       1.521   6.886   9.708  1.00  0.00     0.010 A 
ATOM     34  C   UNL     1       0.773   8.021  10.050  1.00  0.00    -0.014 A 
BRANCH  34  35
ATOM     35  C   UNL     1       0.950   8.649  11.383  1.00  0.00     0.031 A 
ATOM     36  C   UNL     1       2.273   9.257  11.764  1.00  0.00     0.074 A 
ATOM     37  C   UNL     1      -0.068   8.634  12.267  1.00  0.00     0.049 A 
ATOM     38  N   UNL     1       2.616   9.853  12.878  1.00  0.00    -0.248 NA
ATOM     39  C   UNL     1       3.361   9.159  10.777  1.00  0.00     0.031 C 
ATOM     40  C   UNL     1      -1.380   8.023  12.040  1.00  0.00     0.029 A 
ATOM     41  N   UNL     1      -0.159   9.152  13.534  1.00  0.00    -0.354 N 
ATOM     42  C   UNL     1       3.957  10.189  12.730  1.00  0.00     0.074 A 
ATOM     43  C   UNL     1       4.381   9.679  11.445  1.00  0.00     0.031 C 
ATOM     44  C   UNL     1      -2.156   8.235  13.116  1.00  0.00     0.029 A 
ATOM     45  C   UNL     1      -1.390   8.968  14.118  1.00  0.00     0.049 A 
ATOM     46  H   UNL     1       0.587   9.612  13.983  1.00  0.00     0.167 HD
ATOM     47  C   UNL     1       4.757  10.882  13.575  1.00  0.00     0.031 A 
ATOM     48  C   UNL     1      -1.853   9.354  15.323  1.00  0.00     0.031 A 
ATOM     49  C   UNL     1       4.329  11.400  14.846  1.00  0.00     0.049 A 
ATOM     50  C   UNL     1      -0.953  10.141  16.235  1.00  0.00     0.074 A 
ATOM     51  C   UNL     1       5.045  12.165  15.750  1.00  0.00     0.029 A 
ATOM     52  N   UNL     1       3.069  11.209  15.394  1.00  0.00    -0.354 N 
ATOM     53  N   UNL     1       0.291  10.514  16.044  1.00  0.00    -0.248 NA
ATOM     54  C   UNL     1      -1.526  10.578  17.514  1.00  0.00     0.031 C 
ATOM     55  C   UNL     1       4.232  12.399  16.865  1.00  0.00     0.029 A 
ATOM     56  C   UNL     1       2.992  11.826  16.631  1.00  0.00     0.049 A 
ATOM     57  H   UNL     1       2.337  10.709  14.966  1.00  0.00     0.167 HD
ATOM     58  C   UNL     1       0.640  11.251  17.171  1.00  0.00     0.074 A 
ATOM     59  C   UNL     1      -0.530  11.287  18.025  1.00  0.00     0.031 C 
ATOM     60  C   UNL     1       1.822  11.844  17.472  1.00  0.00     0.031 A 
BRANCH  47  61
ATOM     61  C   UNL     1       6.181  11.117  13.143  1.00  0.00    -0.014 A 
ATOM     62  C   UNL     1       6.481  11.988  12.078  1.00  0.00     0.010 A 
ATOM     63  C   UNL     1       7.235  10.482  13.824  1.00  0.00     0.010 A 
ATOM     64  C   UNL     1       7.804  12.182  11.672  1.00  0.00     0.020 A 
ATOM     65  C   UNL     1       8.562  10.697  13.440  1.00  0.00     0.020 A 
ATOM     66  C   UNL     1       8.836  11.531  12.354  1.00  0.00     0.054 A 
BRANCH  66  67
ATOM     67  S   UNL     1      10.545  11.813  11.816  1.00  0.00     0.124 S 
ATOM     68  O   UNL     1      10.601  11.041  10.576  1.00  0.00    -0.237 OA
ATOM     69  O   UNL     1      10.596  13.264  11.655  1.00  0.00    -0.237 OA
ATOM     70  O   UNL     1      11.347  11.282  12.915  1.00  0.00    -0.744 OA
ENDBRANCH  66  67
ENDBRANCH  47  61
BRANCH  48  71
ATOM     71  C   UNL     1      -3.251   9.033  15.721  1.00  0.00    -0.014 A 
ATOM     72  C   UNL     1      -4.224  10.046  15.793  1.00  0.00     0.010 A 
ATOM     73  C   UNL     1      -3.620   7.709  16.021  1.00  0.00     0.010 A 
ATOM     74  C   UNL     1      -5.533   9.746  16.179  1.00  0.00     0.020 A 
ATOM     75  C   UNL     1      -4.935   7.400  16.381  1.00  0.00     0.020 A 
ATOM     76  C   UNL     1      -5.880   8.424  16.470  1.00  0.00     0.054 A 
BRANCH  76  77
ATOM     77  S   UNL     1      -7.597   8.049  16.923  1.00  0.00     0.124 S 
ATOM     78  O   UNL     1      -7.669   8.557  18.289  1.00  0.00    -0.237 OA
ATOM     79  O   UNL     1      -8.358   8.799  15.927  1.00  0.00    -0.237 OA
ATOM     80  O   UNL     1      -7.675   6.596  16.789  1.00  0.00    -0.744 OA
ENDBRANCH  76  77
ENDBRANCH  48  71
BRANCH  60  81
ATOM     81  C   UNL     1       1.895  12.607  18.768  1.00  0.00    -0.014 A 
ATOM     82  C   UNL     1       1.901  11.942  20.007  1.00  0.00     0.010 A 
ATOM     83  C   UNL     1       1.982  14.011  18.742  1.00  0.00     0.010 A 
ATOM     84  C   UNL     1       1.941  12.671  21.199  1.00  0.00     0.020 A 
ATOM     85  C   UNL     1       2.051  14.742  19.931  1.00  0.00     0.020 A 
ATOM     86  C   UNL     1       2.009  14.067  21.152  1.00  0.00     0.054 A 
BRANCH  86  87
ATOM     87  S   UNL     1       2.071  14.992  22.711  1.00  0.00     0.124 S 
ATOM     88  O   UNL     1       0.684  14.915  23.164  1.00  0.00    -0.237 OA
ATOM     89  O   UNL     1       3.033  14.228  23.501  1.00  0.00    -0.237 OA
ATOM     90  O   UNL     1       2.522  16.321  22.306  1.00  0.00    -0.744 OA
ENDBRANCH  86  87
ENDBRANCH  60  81
ENDBRANCH  34  35
ENDBRANCH  26  29
ENDBRANCH  24  25
ENDBRANCH  23  24
ENDBRANCH   1  23
TORSDOF 17
