REMARK SMILES Cc1cccc(OC2(C(=O)NCCCCNC(=O)c3ccc(-c4c5nc(c(-c6ccc(S(=O)(=O)[O-])cc6)c6ccc([nH]6)c(-c6ccc(S(=O)(=O)[O-])cc6)c6nc(c(-c7ccc(S(=O)(=O)[O-])cc7)c7ccc4[nH]7)C=C6)C=C5)cc3)CCN(C(=O)c3cnc[nH]c3=O)CC2)c1
REMARK SMILES IDX 14 1 13 2 12 3 11 4 9 5 10 6 8 8 79 9 92 10 80 11 91 12
REMARK SMILES IDX 81 13 82 14 83 15 7 16 6 17 1 18 2 19 3 20 93 21 4 22 5 23
REMARK SMILES IDX 84 24 85 25 89 26 86 27 88 28 90 29 87 30 15 32 16 33 17 34
REMARK SMILES IDX 18 36 19 37 20 38 78 39 21 40 77 41 22 42 23 43 24 44 71 45
REMARK SMILES IDX 25 46 76 47 70 48 72 49 26 50 75 51 69 52 68 53 27 55 57 56
REMARK SMILES IDX 38 57 56 58 39 59 42 60 55 61 73 62 40 63 41 64 54 66 74 67
REMARK SMILES IDX 43 68 28 69 29 70 37 71 30 72 36 73 31 74 32 75 33 76 34 77
REMARK SMILES IDX 35 78 58 79 59 80 67 81 60 82 66 83 61 84 62 85 63 86 64 87
REMARK SMILES IDX 65 88 44 89 45 90 53 91 46 92 52 93 47 94 48 95 49 96 50 97
REMARK SMILES IDX 51 98
REMARK H PARENT 11 7 88 31 16 35 72 54 42 65
REMARK Flexibility Score: inf
ROOT
ATOM      1  C   UNL     1       2.122   6.149  -2.997  1.00  0.00     0.023 C 
ENDROOT
BRANCH   1   2
ATOM      2  C   UNL     1       1.655   6.548  -1.604  1.00  0.00     0.023 C 
BRANCH   2   3
ATOM      3  C   UNL     1       0.123   6.608  -1.387  1.00  0.00     0.116 C 
BRANCH   3   4
ATOM      4  N   UNL     1      -0.681   5.467  -1.849  1.00  0.00    -0.353 N 
ATOM      5  C   UNL     1      -1.172   4.322  -1.283  1.00  0.00     0.264 C 
ATOM      6  O   UNL     1      -2.089   3.780  -1.919  1.00  0.00    -0.270 OA
ATOM      7  H   UNL     1      -0.927   5.546  -2.800  1.00  0.00     0.163 HD
BRANCH   5   8
ATOM      8  C   UNL     1      -0.662   3.690   0.058  1.00  0.00     0.190 C 
ATOM      9  C   UNL     1       0.835   3.924   0.201  1.00  0.00     0.080 C 
ATOM     10  C   UNL     1      -1.401   4.351   1.257  1.00  0.00     0.080 C 
ATOM     11  C   UNL     1       1.423   3.584   1.550  1.00  0.00     0.124 C 
ATOM     12  C   UNL     1      -0.747   3.965   2.599  1.00  0.00     0.124 C 
ATOM     13  N   UNL     1       0.671   4.303   2.557  1.00  0.00    -0.338 N 
ATOM     14  C   UNL     1       1.158   5.525   2.993  1.00  0.00     0.261 C 
ATOM     15  O   UNL     1       1.937   6.216   2.345  1.00  0.00    -0.269 OA
BRANCH   8  16
ATOM     16  O   UNL     1      -1.157   2.334   0.074  1.00  0.00    -0.477 OA
BRANCH  16  17
ATOM     17  C   UNL     1      -0.547   1.133  -0.032  1.00  0.00     0.121 A 
ATOM     18  C   UNL     1       2.761  -0.741  -0.106  1.00  0.00     0.044 C 
ATOM     19  C   UNL     1       1.284  -0.474  -0.087  1.00  0.00    -0.047 A 
ATOM     20  C   UNL     1       0.379  -1.530   0.023  1.00  0.00     0.003 A 
ATOM     21  C   UNL     1       0.804   0.846  -0.166  1.00  0.00     0.049 A 
ATOM     22  C   UNL     1      -0.986  -1.267   0.075  1.00  0.00     0.004 A 
ATOM     23  C   UNL     1      -1.437   0.055   0.060  1.00  0.00     0.046 A 
ENDBRANCH  16  17
ENDBRANCH   8  16
BRANCH  14  24
ATOM     24  C   UNL     1       0.751   5.927   4.347  1.00  0.00     0.123 A 
ATOM     25  C   UNL     1       0.187   7.123   4.565  1.00  0.00     0.132 A 
ATOM     26  C   UNL     1       1.042   5.086   5.521  1.00  0.00     0.263 A 
ATOM     27  N   UNL     1      -0.195   7.598   5.800  1.00  0.00    -0.246 NA
ATOM     28  N   UNL     1       0.677   5.627   6.721  1.00  0.00    -0.312 N 
ATOM     29  O   UNL     1       1.581   3.986   5.462  1.00  0.00    -0.269 OA
ATOM     30  C   UNL     1       0.076   6.847   6.812  1.00  0.00     0.199 A 
ATOM     31  H   UNL     1       0.855   5.121   7.546  1.00  0.00     0.171 HD
ENDBRANCH  14  24
ENDBRANCH   5   8
ENDBRANCH   3   4
ENDBRANCH   2   3
ENDBRANCH   1   2
BRANCH   1  32
ATOM     32  C   UNL     1       2.132   7.334  -3.940  1.00  0.00     0.116 C 
BRANCH  32  33
ATOM     33  N   UNL     1       3.394   8.065  -3.978  1.00  0.00    -0.352 N 
ATOM     34  C   UNL     1       3.683   9.187  -4.742  1.00  0.00     0.251 C 
ATOM     35  H   UNL     1       4.117   7.726  -3.401  1.00  0.00     0.163 HD
ATOM     36  O   UNL     1       4.814   9.608  -4.907  1.00  0.00    -0.269 OA
BRANCH  34  37
ATOM     37  C   UNL     1       2.514   9.925  -5.264  1.00  0.00     0.039 A 
ATOM     38  C   UNL     1       2.183  11.117  -4.610  1.00  0.00     0.014 A 
ATOM     39  C   UNL     1       1.590   9.246  -6.054  1.00  0.00     0.014 A 
ATOM     40  C   UNL     1       0.855  11.527  -4.579  1.00  0.00     0.010 A 
ATOM     41  C   UNL     1       0.261   9.588  -5.920  1.00  0.00     0.010 A 
ATOM     42  C   UNL     1      -0.111  10.699  -5.146  1.00  0.00    -0.014 A 
BRANCH  42  43
ATOM     43  C   UNL     1      -1.546  10.888  -4.971  1.00  0.00     0.031 A 
ATOM     44  C   UNL     1      -2.336  11.389  -6.118  1.00  0.00     0.074 A 
ATOM     45  C   UNL     1      -2.158  10.527  -3.821  1.00  0.00     0.049 A 
ATOM     46  N   UNL     1      -3.511  11.915  -6.034  1.00  0.00    -0.248 NA
ATOM     47  C   UNL     1      -1.804  11.392  -7.478  1.00  0.00     0.031 C 
ATOM     48  C   UNL     1      -3.595  10.352  -3.613  1.00  0.00     0.029 A 
ATOM     49  N   UNL     1      -1.623  10.461  -2.531  1.00  0.00    -0.354 N 
ATOM     50  C   UNL     1      -4.001  12.029  -7.317  1.00  0.00     0.074 A 
ATOM     51  C   UNL     1      -2.870  11.783  -8.176  1.00  0.00     0.031 C 
ATOM     52  C   UNL     1      -3.861  10.509  -2.307  1.00  0.00     0.029 A 
ATOM     53  C   UNL     1      -2.627  10.940  -1.671  1.00  0.00     0.049 A 
ATOM     54  H   UNL     1      -0.726  10.145  -2.277  1.00  0.00     0.167 HD
ATOM     55  C   UNL     1      -5.343  12.171  -7.513  1.00  0.00     0.031 A 
ATOM     56  C   UNL     1      -2.498  12.054  -0.892  1.00  0.00     0.031 A 
ATOM     57  C   UNL     1      -6.044  12.388  -6.249  1.00  0.00     0.049 A 
ATOM     58  C   UNL     1      -3.556  13.102  -1.181  1.00  0.00     0.074 A 
ATOM     59  C   UNL     1      -6.778  11.560  -5.417  1.00  0.00     0.029 A 
ATOM     60  N   UNL     1      -5.774  13.541  -5.519  1.00  0.00    -0.354 N 
ATOM     61  N   UNL     1      -4.297  13.114  -2.256  1.00  0.00    -0.248 NA
ATOM     62  C   UNL     1      -3.833  14.239  -0.306  1.00  0.00     0.031 C 
ATOM     63  C   UNL     1      -6.859  12.183  -4.142  1.00  0.00     0.029 A 
ATOM     64  C   UNL     1      -6.207  13.402  -4.215  1.00  0.00     0.049 A 
ATOM     65  H   UNL     1      -5.335  14.344  -5.881  1.00  0.00     0.167 HD
ATOM     66  C   UNL     1      -5.121  14.208  -2.238  1.00  0.00     0.074 A 
ATOM     67  C   UNL     1      -4.799  14.877  -0.990  1.00  0.00     0.031 C 
ATOM     68  C   UNL     1      -5.994  14.477  -3.254  1.00  0.00     0.031 A 
BRANCH  55  69
ATOM     69  C   UNL     1      -6.035  11.809  -8.813  1.00  0.00    -0.014 A 
ATOM     70  C   UNL     1      -7.388  11.412  -8.793  1.00  0.00     0.010 A 
ATOM     71  C   UNL     1      -5.400  11.753 -10.069  1.00  0.00     0.010 A 
ATOM     72  C   UNL     1      -8.033  10.894  -9.930  1.00  0.00     0.020 A 
ATOM     73  C   UNL     1      -6.016  11.208 -11.205  1.00  0.00     0.020 A 
ATOM     74  C   UNL     1      -7.330  10.767 -11.126  1.00  0.00     0.054 A 
BRANCH  74  75
ATOM     75  S   UNL     1      -8.140  10.022 -12.564  1.00  0.00     0.124 S 
ATOM     76  O   UNL     1      -8.543   8.713 -12.056  1.00  0.00    -0.237 OA
ATOM     77  O   UNL     1      -9.227  10.958 -12.832  1.00  0.00    -0.237 OA
ATOM     78  O   UNL     1      -7.087   9.989 -13.577  1.00  0.00    -0.744 OA
ENDBRANCH  74  75
ENDBRANCH  55  69
BRANCH  56  79
ATOM     79  C   UNL     1      -1.100  12.350  -0.472  1.00  0.00    -0.014 A 
ATOM     80  C   UNL     1      -0.484  11.447   0.421  1.00  0.00     0.010 A 
ATOM     81  C   UNL     1      -0.292  13.202  -1.245  1.00  0.00     0.010 A 
ATOM     82  C   UNL     1       0.902  11.270   0.409  1.00  0.00     0.020 A 
ATOM     83  C   UNL     1       1.100  13.033  -1.249  1.00  0.00     0.020 A 
ATOM     84  C   UNL     1       1.676  12.023  -0.473  1.00  0.00     0.054 A 
BRANCH  84  85
ATOM     85  S   UNL     1       3.399  11.506  -0.748  1.00  0.00     0.124 S 
ATOM     86  O   UNL     1       3.984  11.655   0.580  1.00  0.00    -0.237 OA
ATOM     87  O   UNL     1       3.221  10.133  -1.215  1.00  0.00    -0.237 OA
ATOM     88  O   UNL     1       3.874  12.450  -1.755  1.00  0.00    -0.744 OA
ENDBRANCH  84  85
ENDBRANCH  56  79
BRANCH  68  89
ATOM     89  C   UNL     1      -6.796  15.747  -3.421  1.00  0.00    -0.014 A 
ATOM     90  C   UNL     1      -6.429  16.989  -2.880  1.00  0.00     0.010 A 
ATOM     91  C   UNL     1      -7.918  15.732  -4.286  1.00  0.00     0.010 A 
ATOM     92  C   UNL     1      -7.179  18.146  -3.139  1.00  0.00     0.020 A 
ATOM     93  C   UNL     1      -8.645  16.886  -4.588  1.00  0.00     0.020 A 
ATOM     94  C   UNL     1      -8.285  18.087  -3.989  1.00  0.00     0.054 A 
BRANCH  94  95
ATOM     95  S   UNL     1      -9.207  19.597  -4.374  1.00  0.00     0.124 S 
ATOM     96  O   UNL     1     -10.193  19.630  -3.296  1.00  0.00    -0.237 OA
ATOM     97  O   UNL     1      -8.180  20.635  -4.314  1.00  0.00    -0.237 OA
ATOM     98  O   UNL     1      -9.743  19.339  -5.708  1.00  0.00    -0.744 OA
ENDBRANCH  94  95
ENDBRANCH  68  89
ENDBRANCH  42  43
ENDBRANCH  34  37
ENDBRANCH  32  33
ENDBRANCH   1  32
TORSDOF 17
