REMARK SMILES CC(C)(C)[C@H]1CCC[C@H]([NH+]2CCC(CC(=O)NCCCCNC(=O)c3ccc(-c4c5nc(c(-c6ccc(S(=O)(=O)[O-])cc6)c6ccc([nH]6)c(-c6ccc(S(=O)(=O)[O-])cc6)c6nc(c(-c7ccc(S(=O)(=O)[O-])cc7)c7ccc4[nH]7)C=C6)C=C5)cc3)CC2)CC1
REMARK SMILES IDX 18 1 17 2 15 3 16 4 14 6 13 7 10 8 11 9 86 10 12 12 85 13
REMARK SMILES IDX 9 14 87 15 88 16 5 17 2 18 1 19 3 20 4 21 6 22 8 24 7 25
REMARK SMILES IDX 19 27 20 28 21 29 22 30 23 31 24 33 25 34 26 35 84 36 27 37
REMARK SMILES IDX 83 38 28 39 29 40 30 41 77 42 31 43 82 44 76 45 78 46 32 47
REMARK SMILES IDX 81 48 75 49 74 50 33 52 63 53 44 54 62 55 45 56 48 57 61 58
REMARK SMILES IDX 79 59 46 60 47 61 60 63 80 64 49 65 34 66 35 67 43 68 36 69
REMARK SMILES IDX 42 70 37 71 38 72 39 73 40 74 41 75 64 76 65 77 73 78 66 79
REMARK SMILES IDX 72 80 67 81 68 82 69 83 70 84 71 85 50 86 51 87 59 88 52 89
REMARK SMILES IDX 58 90 53 91 54 92 55 93 56 94 57 95
REMARK H PARENT 17 5 10 11 22 32 78 51 48 62
REMARK Flexibility Score: 90.00
ROOT
ATOM      1  C   UNL     1       8.054   2.400   0.749  1.00  0.00     0.116 C 
ENDROOT
BRANCH   1   2
ATOM      2  N   UNL     1       9.278   1.828   0.192  1.00  0.00    -0.356 N 
ATOM      3  C   UNL     1       9.779   1.789  -1.083  1.00  0.00     0.220 C 
ATOM      4  O   UNL     1      10.872   1.239  -1.249  1.00  0.00    -0.275 OA
ATOM      5  H   UNL     1       9.852   1.387   0.859  1.00  0.00     0.163 HD
BRANCH   3   6
ATOM      6  C   UNL     1       9.017   2.354  -2.293  1.00  0.00     0.104 C 
BRANCH   6   7
ATOM      7  C   UNL     1       8.061   1.320  -2.933  1.00  0.00     0.009 C 
ATOM      8  N   UNL     1       5.213   0.687  -3.439  1.00  0.00    -0.332 N 
ATOM      9  C   UNL     1       5.922   0.063  -2.328  1.00  0.00     0.262 C 
ATOM     10  C   UNL     1       6.138   0.858  -4.571  1.00  0.00     0.262 C 
ATOM     11  H   UNL     1       4.901   1.624  -3.185  1.00  0.00     0.348 HD
ATOM     12  C   UNL     1       7.046   0.942  -1.885  1.00  0.00     0.066 C 
ATOM     13  C   UNL     1       7.324   1.790  -4.196  1.00  0.00     0.066 C 
BRANCH   8  14
ATOM     14  C   UNL     1       3.951  -0.035  -3.750  1.00  0.00     0.184 C 
BRANCH  14  15
ATOM     15  C   UNL     1       2.878   0.415  -2.714  1.00  0.00     0.065 C 
BRANCH  15  16
ATOM     16  C   UNL     1       1.442   0.004  -3.075  1.00  0.00     0.010 C 
BRANCH  16  17
ATOM     17  C   UNL     1       0.993  -1.393  -2.572  1.00  0.00    -0.005 C 
BRANCH  17  18
ATOM     18  C   UNL     1      -0.370  -1.936  -3.208  1.00  0.00    -0.035 C 
ATOM     19  C   UNL     1      -1.054  -0.922  -4.148  1.00  0.00     0.011 C 
ATOM     20  C   UNL     1      -1.357  -2.226  -2.051  1.00  0.00     0.011 C 
ATOM     21  C   UNL     1      -0.234  -3.255  -4.005  1.00  0.00     0.011 C 
ENDBRANCH  17  18
BRANCH  17  22
ATOM     22  C   UNL     1       2.151  -2.404  -2.590  1.00  0.00     0.004 CG0
ATOM     23  G   UNL     1       2.901  -2.421  -3.922  1.00  0.00     0.000 G0
ENDBRANCH  17  22
ENDBRANCH  16  17
ENDBRANCH  15  16
ENDBRANCH  14  15
BRANCH  14  24
ATOM     24  C   UNL     1       4.156  -1.566  -3.871  1.00  0.00     0.065 C 
BRANCH  24  25
ATOM     25  C   UNL     1       2.901  -2.421  -3.922  1.00  0.00     0.006 CG0
ATOM     26  G   UNL     1       2.151  -2.404  -2.590  1.00  0.00     0.000 G0
ENDBRANCH  24  25
ENDBRANCH  14  24
ENDBRANCH   8  14
ENDBRANCH   6   7
ENDBRANCH   3   6
ENDBRANCH   1   2
BRANCH   1  27
ATOM     27  C   UNL     1       7.006   1.339   1.143  1.00  0.00     0.023 C 
BRANCH  27  28
ATOM     28  C   UNL     1       7.032   0.832   2.570  1.00  0.00     0.023 C 
BRANCH  28  29
ATOM     29  C   UNL     1       6.580   1.841   3.598  1.00  0.00     0.116 C 
BRANCH  29  30
ATOM     30  N   UNL     1       5.212   2.308   3.410  1.00  0.00    -0.352 N 
ATOM     31  C   UNL     1       4.255   2.555   4.374  1.00  0.00     0.251 C 
ATOM     32  H   UNL     1       4.936   2.468   2.479  1.00  0.00     0.163 HD
ATOM     33  O   UNL     1       3.122   2.875   4.060  1.00  0.00    -0.269 OA
BRANCH  31  34
ATOM     34  C   UNL     1       4.627   2.365   5.794  1.00  0.00     0.039 A 
ATOM     35  C   UNL     1       3.794   1.608   6.618  1.00  0.00     0.014 A 
ATOM     36  C   UNL     1       5.850   2.843   6.268  1.00  0.00     0.014 A 
ATOM     37  C   UNL     1       4.233   1.260   7.896  1.00  0.00     0.010 A 
ATOM     38  C   UNL     1       6.337   2.387   7.482  1.00  0.00     0.010 A 
ATOM     39  C   UNL     1       5.527   1.607   8.319  1.00  0.00    -0.014 A 
BRANCH  39  40
ATOM     40  C   UNL     1       6.047   1.199   9.646  1.00  0.00     0.031 A 
ATOM     41  C   UNL     1       6.460   2.255  10.638  1.00  0.00     0.074 A 
ATOM     42  C   UNL     1       6.216  -0.107   9.931  1.00  0.00     0.049 A 
ATOM     43  N   UNL     1       6.986   2.110  11.826  1.00  0.00    -0.248 NA
ATOM     44  C   UNL     1       6.300   3.660  10.223  1.00  0.00     0.031 C 
ATOM     45  C   UNL     1       5.927  -1.221   9.023  1.00  0.00     0.029 A 
ATOM     46  N   UNL     1       6.678  -0.720  11.068  1.00  0.00    -0.354 N 
ATOM     47  C   UNL     1       7.240   3.398  12.284  1.00  0.00     0.074 A 
ATOM     48  C   UNL     1       6.880   4.307  11.220  1.00  0.00     0.031 C 
ATOM     49  C   UNL     1       6.183  -2.380   9.653  1.00  0.00     0.029 A 
ATOM     50  C   UNL     1       6.684  -2.092  10.993  1.00  0.00     0.049 A 
ATOM     51  H   UNL     1       6.977  -0.223  11.864  1.00  0.00     0.167 HD
ATOM     52  C   UNL     1       7.697   3.795  13.494  1.00  0.00     0.031 A 
ATOM     53  C   UNL     1       7.046  -3.015  11.904  1.00  0.00     0.031 A 
ATOM     54  C   UNL     1       8.024   2.889  14.559  1.00  0.00     0.049 A 
ATOM     55  C   UNL     1       7.509  -2.555  13.259  1.00  0.00     0.074 A 
ATOM     56  C   UNL     1       8.434   3.183  15.847  1.00  0.00     0.029 A 
ATOM     57  N   UNL     1       7.971   1.506  14.459  1.00  0.00    -0.354 N 
ATOM     58  N   UNL     1       7.669  -1.329  13.701  1.00  0.00    -0.248 NA
ATOM     59  C   UNL     1       7.819  -3.599  14.244  1.00  0.00     0.031 C 
ATOM     60  C   UNL     1       8.666   1.975  16.514  1.00  0.00     0.029 A 
ATOM     61  C   UNL     1       8.352   0.931  15.658  1.00  0.00     0.049 A 
ATOM     62  H   UNL     1       7.702   1.008  13.654  1.00  0.00     0.167 HD
ATOM     63  C   UNL     1       8.079  -1.455  15.024  1.00  0.00     0.074 A 
ATOM     64  C   UNL     1       8.121  -2.875  15.313  1.00  0.00     0.031 C 
ATOM     65  C   UNL     1       8.392  -0.486  15.919  1.00  0.00     0.031 A 
BRANCH  52  66
ATOM     66  C   UNL     1       7.855   5.276  13.717  1.00  0.00    -0.014 A 
ATOM     67  C   UNL     1       6.732   6.123  13.785  1.00  0.00     0.010 A 
ATOM     68  C   UNL     1       9.138   5.832  13.857  1.00  0.00     0.010 A 
ATOM     69  C   UNL     1       6.892   7.503  13.928  1.00  0.00     0.020 A 
ATOM     70  C   UNL     1       9.302   7.210  14.034  1.00  0.00     0.020 A 
ATOM     71  C   UNL     1       8.178   8.039  14.045  1.00  0.00     0.054 A 
BRANCH  71  72
ATOM     72  S   UNL     1       8.358   9.834  14.232  1.00  0.00     0.124 S 
ATOM     73  O   UNL     1       8.085  10.305  12.876  1.00  0.00    -0.237 OA
ATOM     74  O   UNL     1       7.337  10.157  15.226  1.00  0.00    -0.237 OA
ATOM     75  O   UNL     1       9.737   9.998  14.683  1.00  0.00    -0.744 OA
ENDBRANCH  71  72
ENDBRANCH  52  66
BRANCH  53  76
ATOM     76  C   UNL     1       6.948  -4.463  11.573  1.00  0.00    -0.014 A 
ATOM     77  C   UNL     1       5.942  -5.261  12.147  1.00  0.00     0.010 A 
ATOM     78  C   UNL     1       7.843  -5.046  10.658  1.00  0.00     0.010 A 
ATOM     79  C   UNL     1       5.840  -6.617  11.822  1.00  0.00     0.020 A 
ATOM     80  C   UNL     1       7.729  -6.396  10.311  1.00  0.00     0.020 A 
ATOM     81  C   UNL     1       6.734  -7.176  10.904  1.00  0.00     0.054 A 
BRANCH  81  82
ATOM     82  S   UNL     1       6.544  -8.922  10.448  1.00  0.00     0.124 S 
ATOM     83  O   UNL     1       7.065  -9.603  11.629  1.00  0.00    -0.237 OA
ATOM     84  O   UNL     1       5.103  -9.039  10.233  1.00  0.00    -0.237 OA
ATOM     85  O   UNL     1       7.357  -9.050   9.240  1.00  0.00    -0.744 OA
ENDBRANCH  81  82
ENDBRANCH  53  76
BRANCH  65  86
ATOM     86  C   UNL     1       8.782  -0.929  17.302  1.00  0.00    -0.014 A 
ATOM     87  C   UNL     1      10.024  -1.540  17.547  1.00  0.00     0.010 A 
ATOM     88  C   UNL     1       7.907  -0.692  18.378  1.00  0.00     0.010 A 
ATOM     89  C   UNL     1      10.369  -1.942  18.840  1.00  0.00     0.020 A 
ATOM     90  C   UNL     1       8.260  -1.067  19.676  1.00  0.00     0.020 A 
ATOM     91  C   UNL     1       9.482  -1.707  19.895  1.00  0.00     0.054 A 
BRANCH  91  92
ATOM     92  S   UNL     1       9.962  -2.213  21.569  1.00  0.00     0.124 S 
ATOM     93  O   UNL     1       9.769  -3.660  21.515  1.00  0.00    -0.237 OA
ATOM     94  O   UNL     1      11.350  -1.767  21.655  1.00  0.00    -0.237 OA
ATOM     95  O   UNL     1       9.027  -1.491  22.430  1.00  0.00    -0.744 OA
ENDBRANCH  91  92
ENDBRANCH  65  86
ENDBRANCH  39  40
ENDBRANCH  31  34
ENDBRANCH  29  30
ENDBRANCH  28  29
ENDBRANCH  27  28
ENDBRANCH   1  27
TORSDOF 17
