REMARK SMILES C[C@@]([NH2+]Cc1ccccc1Br)(C(=O)NCCCCNC(=O)c1ccc(-c2c3nc(c(-c4ccc(S(=O)(=O)[O-])cc4)c4ccc([nH]4)c(-c4ccc(S(=O)(=O)[O-])cc4)c4nc(c(-c5ccc(S(=O)(=O)[O-])cc5)c5ccc2[nH]5)C=C4)C=C3)cc1)C(F)(F)F
REMARK SMILES IDX 16 1 15 2 14 3 12 4 13 5 2 7 1 8 3 9 4 12 5 13 6 14 10 15
REMARK SMILES IDX 7 16 9 17 11 18 8 19 82 20 83 21 84 22 85 23 17 24 18 25
REMARK SMILES IDX 19 26 20 27 21 29 22 30 23 31 81 32 24 33 80 34 25 35 26 36
REMARK SMILES IDX 27 37 74 38 28 39 79 40 73 41 75 42 29 43 78 44 72 45 71 46
REMARK SMILES IDX 30 48 60 49 41 50 59 51 42 52 45 53 58 54 76 55 43 56 44 57
REMARK SMILES IDX 57 59 77 60 46 61 31 62 32 63 40 64 33 65 39 66 34 67 35 68
REMARK SMILES IDX 36 69 37 70 38 71 61 72 62 73 70 74 63 75 69 76 64 77 65 78
REMARK SMILES IDX 66 79 67 80 68 81 47 82 48 83 56 84 49 85 55 86 50 87 51 88
REMARK SMILES IDX 52 89 53 90 54 91
REMARK H PARENT 14 6 3 10 3 11 19 28 75 47 45 58
REMARK Flexibility Score: inf
ROOT
ATOM      1  C   UNL     1      -1.225  -0.945  -2.580  1.00  0.00     0.023 C 
ENDROOT
BRANCH   1   2
ATOM      2  C   UNL     1      -0.927   0.545  -2.406  1.00  0.00     0.116 C 
BRANCH   2   3
ATOM      3  N   UNL     1      -1.604   1.083  -1.244  1.00  0.00    -0.350 N 
ATOM      4  C   UNL     1      -1.152   1.405   0.002  1.00  0.00     0.290 C 
ATOM      5  O   UNL     1      -2.016   1.833   0.773  1.00  0.00    -0.267 OA
ATOM      6  H   UNL     1      -2.566   1.245  -1.377  1.00  0.00     0.163 HD
BRANCH   4   7
ATOM      7  C   UNL     1       0.335   1.296   0.407  1.00  0.00     0.268 C 
ATOM      8  C   UNL     1       0.859  -0.151   0.261  1.00  0.00     0.101 C 
BRANCH   7   9
ATOM      9  N   UNL     1       1.193   2.108  -0.534  1.00  0.00    -0.322 N 
ATOM     10  H   UNL     1       1.017   1.767  -1.479  1.00  0.00     0.347 HD
ATOM     11  H   UNL     1       2.145   1.980  -0.190  1.00  0.00     0.347 HD
BRANCH   9  12
ATOM     12  C   UNL     1       0.999   3.561  -0.551  1.00  0.00     0.299 C 
BRANCH  12  13
ATOM     13  C   UNL     1       1.534   4.328   0.638  1.00  0.00     0.020 A 
ATOM     14  C   UNL     1       0.762   5.416   1.096  1.00  0.00     0.011 A 
ATOM     15  C   UNL     1       2.728   4.045   1.323  1.00  0.00     0.026 A 
ATOM     16  C   UNL     1       1.089   6.094   2.271  1.00  0.00     0.001 A 
ATOM     17  C   UNL     1       3.021   4.684   2.534  1.00  0.00     0.016 A 
ATOM     18  Br  UNL     1       4.038   2.820   0.682  1.00  0.00    -0.050 Br
ATOM     19  C   UNL     1       2.192   5.694   3.016  1.00  0.00     0.001 A 
ENDBRANCH  12  13
ENDBRANCH   9  12
ENDBRANCH   7   9
BRANCH   7  20
ATOM     20  C   UNL     1       0.373   1.578   1.944  1.00  0.00     0.453 C 
ATOM     21  F   UNL     1      -0.330   0.653   2.644  1.00  0.00    -0.164 F 
ATOM     22  F   UNL     1       1.651   1.486   2.404  1.00  0.00    -0.164 F 
ATOM     23  F   UNL     1      -0.083   2.793   2.301  1.00  0.00    -0.164 F 
ENDBRANCH   7  20
ENDBRANCH   4   7
ENDBRANCH   2   3
ENDBRANCH   1   2
BRANCH   1  24
ATOM     24  C   UNL     1      -2.702  -1.277  -2.801  1.00  0.00     0.023 C 
BRANCH  24  25
ATOM     25  C   UNL     1      -3.366  -0.527  -3.948  1.00  0.00     0.116 C 
BRANCH  25  26
ATOM     26  N   UNL     1      -2.704  -0.750  -5.223  1.00  0.00    -0.352 N 
ATOM     27  C   UNL     1      -3.267  -1.031  -6.447  1.00  0.00     0.251 C 
ATOM     28  H   UNL     1      -1.722  -0.693  -5.209  1.00  0.00     0.163 HD
ATOM     29  O   UNL     1      -2.560  -1.340  -7.394  1.00  0.00    -0.269 OA
BRANCH  27  30
ATOM     30  C   UNL     1      -4.738  -0.984  -6.588  1.00  0.00     0.039 A 
ATOM     31  C   UNL     1      -5.392  -2.055  -7.201  1.00  0.00     0.014 A 
ATOM     32  C   UNL     1      -5.468   0.095  -6.081  1.00  0.00     0.014 A 
ATOM     33  C   UNL     1      -6.787  -2.073  -7.247  1.00  0.00     0.010 A 
ATOM     34  C   UNL     1      -6.857   0.037  -6.057  1.00  0.00     0.010 A 
ATOM     35  C   UNL     1      -7.532  -1.046  -6.642  1.00  0.00    -0.014 A 
BRANCH  35  36
ATOM     36  C   UNL     1      -9.016  -1.087  -6.610  1.00  0.00     0.031 A 
ATOM     37  C   UNL     1      -9.816  -0.021  -7.308  1.00  0.00     0.074 A 
ATOM     38  C   UNL     1      -9.642  -2.049  -5.903  1.00  0.00     0.049 A 
ATOM     39  N   UNL     1     -11.113   0.143  -7.347  1.00  0.00    -0.248 NA
ATOM     40  C   UNL     1      -9.059   1.011  -8.036  1.00  0.00     0.031 C 
ATOM     41  C   UNL     1      -8.977  -3.114  -5.146  1.00  0.00     0.029 A 
ATOM     42  N   UNL     1     -10.979  -2.284  -5.699  1.00  0.00    -0.354 N 
ATOM     43  C   UNL     1     -11.326   1.298  -8.090  1.00  0.00     0.074 A 
ATOM     44  C   UNL     1     -10.024   1.826  -8.433  1.00  0.00     0.031 C 
ATOM     45  C   UNL     1      -9.908  -3.901  -4.584  1.00  0.00     0.029 A 
ATOM     46  C   UNL     1     -11.232  -3.376  -4.901  1.00  0.00     0.049 A 
ATOM     47  H   UNL     1     -11.689  -1.724  -6.087  1.00  0.00     0.167 HD
ATOM     48  C   UNL     1     -12.499   1.857  -8.473  1.00  0.00     0.031 A 
ATOM     49  C   UNL     1     -12.399  -3.892  -4.466  1.00  0.00     0.031 A 
ATOM     50  C   UNL     1     -13.792   1.326  -8.133  1.00  0.00     0.049 A 
ATOM     51  C   UNL     1     -13.689  -3.244  -4.891  1.00  0.00     0.074 A 
ATOM     52  C   UNL     1     -15.039   1.791  -8.511  1.00  0.00     0.029 A 
ATOM     53  N   UNL     1     -14.006   0.213  -7.332  1.00  0.00    -0.354 N 
ATOM     54  N   UNL     1     -13.870  -2.190  -5.650  1.00  0.00    -0.248 NA
ATOM     55  C   UNL     1     -14.931  -3.864  -4.411  1.00  0.00     0.031 C 
ATOM     56  C   UNL     1     -16.008   0.993  -7.894  1.00  0.00     0.029 A 
ATOM     57  C   UNL     1     -15.365  -0.009  -7.185  1.00  0.00     0.049 A 
ATOM     58  H   UNL     1     -13.296  -0.337  -6.928  1.00  0.00     0.167 HD
ATOM     59  C   UNL     1     -15.248  -2.037  -5.761  1.00  0.00     0.074 A 
ATOM     60  C   UNL     1     -15.851  -3.116  -5.006  1.00  0.00     0.031 C 
ATOM     61  C   UNL     1     -15.950  -1.088  -6.429  1.00  0.00     0.031 A 
BRANCH  48  62
ATOM     62  C   UNL     1     -12.433   3.112  -9.304  1.00  0.00    -0.014 A 
ATOM     63  C   UNL     1     -11.954   3.083 -10.627  1.00  0.00     0.010 A 
ATOM     64  C   UNL     1     -12.891   4.331  -8.771  1.00  0.00     0.010 A 
ATOM     65  C   UNL     1     -11.892   4.256 -11.384  1.00  0.00     0.020 A 
ATOM     66  C   UNL     1     -12.860   5.501  -9.536  1.00  0.00     0.020 A 
ATOM     67  C   UNL     1     -12.344   5.458 -10.833  1.00  0.00     0.054 A 
BRANCH  67  68
ATOM     68  S   UNL     1     -12.271   6.959 -11.848  1.00  0.00     0.124 S 
ATOM     69  O   UNL     1     -10.835   7.227 -11.886  1.00  0.00    -0.237 OA
ATOM     70  O   UNL     1     -12.860   6.520 -13.110  1.00  0.00    -0.237 OA
ATOM     71  O   UNL     1     -13.065   7.927 -11.095  1.00  0.00    -0.744 OA
ENDBRANCH  67  68
ENDBRANCH  48  62
BRANCH  49  72
ATOM     72  C   UNL     1     -12.397  -5.093  -3.585  1.00  0.00    -0.014 A 
ATOM     73  C   UNL     1     -12.863  -6.331  -4.059  1.00  0.00     0.010 A 
ATOM     74  C   UNL     1     -11.916  -5.005  -2.265  1.00  0.00     0.010 A 
ATOM     75  C   UNL     1     -12.867  -7.454  -3.225  1.00  0.00     0.020 A 
ATOM     76  C   UNL     1     -11.890  -6.131  -1.438  1.00  0.00     0.020 A 
ATOM     77  C   UNL     1     -12.377  -7.347  -1.921  1.00  0.00     0.054 A 
BRANCH  77  78
ATOM     78  S   UNL     1     -12.346  -8.829  -0.874  1.00  0.00     0.124 S 
ATOM     79  O   UNL     1     -13.761  -9.015  -0.569  1.00  0.00    -0.237 OA
ATOM     80  O   UNL     1     -11.752  -9.827  -1.760  1.00  0.00    -0.237 OA
ATOM     81  O   UNL     1     -11.508  -8.432   0.255  1.00  0.00    -0.744 OA
ENDBRANCH  77  78
ENDBRANCH  49  72
BRANCH  61  82
ATOM     82  C   UNL     1     -17.453  -1.193  -6.408  1.00  0.00    -0.014 A 
ATOM     83  C   UNL     1     -18.190  -0.915  -5.243  1.00  0.00     0.010 A 
ATOM     84  C   UNL     1     -18.140  -1.518  -7.593  1.00  0.00     0.010 A 
ATOM     85  C   UNL     1     -19.585  -0.993  -5.255  1.00  0.00     0.020 A 
ATOM     86  C   UNL     1     -19.536  -1.567  -7.616  1.00  0.00     0.020 A 
ATOM     87  C   UNL     1     -20.249  -1.317  -6.443  1.00  0.00     0.054 A 
BRANCH  87  88
ATOM     88  S   UNL     1     -22.062  -1.367  -6.443  1.00  0.00     0.124 S 
ATOM     89  O   UNL     1     -22.333  -2.590  -5.692  1.00  0.00    -0.237 OA
ATOM     90  O   UNL     1     -22.416  -0.122  -5.765  1.00  0.00    -0.237 OA
ATOM     91  O   UNL     1     -22.408  -1.417  -7.861  1.00  0.00    -0.744 OA
ENDBRANCH  87  88
ENDBRANCH  61  82
ENDBRANCH  35  36
ENDBRANCH  27  30
ENDBRANCH  25  26
ENDBRANCH  24  25
ENDBRANCH   1  24
TORSDOF 18
