REMARK SMILES C=Cc1cccc(-c2ccc([C@@H](C)C(=O)NCCCCNC(=O)c3ccc(-c4c5nc(c(-c6ccc(S(=O)(=O)[O-])cc6)c6ccc([nH]6)c(-c6ccc(S(=O)(=O)[O-])cc6)c6nc(c(-c7ccc(S(=O)(=O)[O-])cc7)c7ccc4[nH]7)C=C6)C=C5)cc3)cc2)c1
REMARK SMILES IDX 18 1 17 2 16 3 14 4 15 5 12 7 13 8 11 9 8 10 9 11 85 12
REMARK SMILES IDX 10 13 84 14 7 15 3 16 4 17 86 18 5 19 6 20 2 21 1 22 19 23
REMARK SMILES IDX 20 24 21 25 22 26 23 28 24 29 25 30 83 31 26 32 82 33 27 34
REMARK SMILES IDX 28 35 29 36 76 37 30 38 81 39 75 40 77 41 31 42 80 43 74 44
REMARK SMILES IDX 73 45 32 47 62 48 43 49 61 50 44 51 47 52 60 53 78 54 45 55
REMARK SMILES IDX 46 56 59 58 79 59 48 60 33 61 34 62 42 63 35 64 41 65 36 66
REMARK SMILES IDX 37 67 38 68 39 69 40 70 63 71 64 72 72 73 65 74 71 75 66 76
REMARK SMILES IDX 67 77 68 78 69 79 70 80 49 81 50 82 58 83 51 84 57 85 52 86
REMARK SMILES IDX 53 87 54 88 55 89 56 90
REMARK H PARENT 16 6 21 27 77 46 47 57
REMARK Flexibility Score: inf
ROOT
ATOM      1  C   UNL     1      -6.246   2.258  -3.369  1.00  0.00     0.023 C 
ENDROOT
BRANCH   1   2
ATOM      2  C   UNL     1      -7.077   1.752  -4.548  1.00  0.00     0.116 C 
BRANCH   2   3
ATOM      3  N   UNL     1      -6.256   1.382  -5.683  1.00  0.00    -0.356 N 
ATOM      4  C   UNL     1      -5.755   0.178  -6.075  1.00  0.00     0.227 C 
ATOM      5  O   UNL     1      -5.028   0.178  -7.076  1.00  0.00    -0.274 OA
ATOM      6  H   UNL     1      -6.019   2.133  -6.274  1.00  0.00     0.163 HD
BRANCH   4   7
ATOM      7  C   UNL     1      -6.058  -1.145  -5.355  1.00  0.00     0.105 C 
ATOM      8  C   UNL     1      -7.535  -1.540  -5.382  1.00  0.00     0.023 C 
BRANCH   7   9
ATOM      9  C   UNL     1      -5.342  -1.282  -4.021  1.00  0.00    -0.036 A 
ATOM     10  C   UNL     1      -3.840  -1.374  -1.583  1.00  0.00    -0.018 A 
ATOM     11  C   UNL     1      -5.191  -0.991  -1.608  1.00  0.00     0.009 A 
ATOM     12  C   UNL     1      -3.274  -1.754  -2.810  1.00  0.00     0.009 A 
ATOM     13  C   UNL     1      -5.937  -0.976  -2.795  1.00  0.00     0.005 A 
ATOM     14  C   UNL     1      -4.001  -1.689  -4.007  1.00  0.00     0.005 A 
BRANCH  10  15
ATOM     15  C   UNL     1      -3.050  -1.360  -0.324  1.00  0.00    -0.018 A 
ATOM     16  C   UNL     1      -0.908  -1.073   0.863  1.00  0.00    -0.026 A 
ATOM     17  C   UNL     1      -1.550  -1.315   2.079  1.00  0.00     0.008 A 
ATOM     18  C   UNL     1      -1.664  -1.097  -0.323  1.00  0.00     0.016 A 
ATOM     19  C   UNL     1      -2.919  -1.566   2.112  1.00  0.00     0.001 A 
ATOM     20  C   UNL     1      -3.655  -1.596   0.924  1.00  0.00     0.009 A 
BRANCH  16  21
ATOM     21  C   UNL     1       0.545  -0.862   0.862  1.00  0.00     0.000 C 
ATOM     22  C   UNL     1       1.181   0.017   0.077  1.00  0.00     0.009 C 
ENDBRANCH  16  21
ENDBRANCH  10  15
ENDBRANCH   7   9
ENDBRANCH   4   7
ENDBRANCH   2   3
ENDBRANCH   1   2
BRANCH   1  23
ATOM     23  C   UNL     1      -5.912   3.749  -3.404  1.00  0.00     0.023 C 
BRANCH  23  24
ATOM     24  C   UNL     1      -7.113   4.687  -3.348  1.00  0.00     0.116 C 
BRANCH  24  25
ATOM     25  N   UNL     1      -7.950   4.514  -2.169  1.00  0.00    -0.352 N 
ATOM     26  C   UNL     1      -8.727   5.465  -1.540  1.00  0.00     0.251 C 
ATOM     27  H   UNL     1      -7.963   3.612  -1.774  1.00  0.00     0.163 HD
ATOM     28  O   UNL     1      -9.329   5.202  -0.510  1.00  0.00    -0.269 OA
BRANCH  26  29
ATOM     29  C   UNL     1      -8.771   6.827  -2.115  1.00  0.00     0.039 A 
ATOM     30  C   UNL     1      -8.411   7.912  -1.312  1.00  0.00     0.014 A 
ATOM     31  C   UNL     1      -9.075   7.009  -3.465  1.00  0.00     0.014 A 
ATOM     32  C   UNL     1      -8.267   9.176  -1.891  1.00  0.00     0.010 A 
ATOM     33  C   UNL     1      -8.867   8.252  -4.050  1.00  0.00     0.010 A 
ATOM     34  C   UNL     1      -8.448   9.345  -3.273  1.00  0.00    -0.014 A 
BRANCH  34  35
ATOM     35  C   UNL     1      -8.201  10.644  -3.947  1.00  0.00     0.031 A 
ATOM     36  C   UNL     1      -9.335  11.347  -4.638  1.00  0.00     0.074 A 
ATOM     37  C   UNL     1      -6.946  11.128  -4.037  1.00  0.00     0.049 A 
ATOM     38  N   UNL     1      -9.301  12.386  -5.431  1.00  0.00    -0.248 NA
ATOM     39  C   UNL     1     -10.681  10.785  -4.436  1.00  0.00     0.031 C 
ATOM     40  C   UNL     1      -5.754  10.522  -3.439  1.00  0.00     0.029 A 
ATOM     41  N   UNL     1      -6.462  12.236  -4.688  1.00  0.00    -0.354 N 
ATOM     42  C   UNL     1     -10.610  12.577  -5.856  1.00  0.00     0.074 A 
ATOM     43  C   UNL     1     -11.408  11.530  -5.255  1.00  0.00     0.031 C 
ATOM     44  C   UNL     1      -4.680  11.271  -3.742  1.00  0.00     0.029 A 
ATOM     45  C   UNL     1      -5.098  12.384  -4.588  1.00  0.00     0.049 A 
ATOM     46  H   UNL     1      -7.037  12.865  -5.181  1.00  0.00     0.167 HD
ATOM     47  C   UNL     1     -11.106  13.543  -6.665  1.00  0.00     0.031 A 
ATOM     48  C   UNL     1      -4.275  13.302  -5.130  1.00  0.00     0.031 A 
ATOM     49  C   UNL     1     -10.316  14.600  -7.234  1.00  0.00     0.049 A 
ATOM     50  C   UNL     1      -4.852  14.384  -6.001  1.00  0.00     0.074 A 
ATOM     51  C   UNL     1     -10.733  15.655  -8.026  1.00  0.00     0.029 A 
ATOM     52  N   UNL     1      -8.948  14.744  -7.059  1.00  0.00    -0.354 N 
ATOM     53  N   UNL     1      -6.098  14.568  -6.365  1.00  0.00    -0.248 NA
ATOM     54  C   UNL     1      -3.914  15.386  -6.527  1.00  0.00     0.031 C 
ATOM     55  C   UNL     1      -9.611  16.425  -8.352  1.00  0.00     0.029 A 
ATOM     56  C   UNL     1      -8.504  15.870  -7.730  1.00  0.00     0.049 A 
ATOM     57  H   UNL     1      -8.378  14.136  -6.537  1.00  0.00     0.167 HD
ATOM     58  C   UNL     1      -6.099  15.723  -7.138  1.00  0.00     0.074 A 
ATOM     59  C   UNL     1      -4.732  16.198  -7.187  1.00  0.00     0.031 C 
ATOM     60  C   UNL     1      -7.141  16.337  -7.749  1.00  0.00     0.031 A 
BRANCH  47  61
ATOM     61  C   UNL     1     -12.574  13.489  -6.984  1.00  0.00    -0.014 A 
ATOM     62  C   UNL     1     -13.539  13.806  -6.010  1.00  0.00     0.010 A 
ATOM     63  C   UNL     1     -12.996  13.131  -8.277  1.00  0.00     0.010 A 
ATOM     64  C   UNL     1     -14.900  13.717  -6.310  1.00  0.00     0.020 A 
ATOM     65  C   UNL     1     -14.357  13.066  -8.588  1.00  0.00     0.020 A 
ATOM     66  C   UNL     1     -15.301  13.339  -7.595  1.00  0.00     0.054 A 
BRANCH  66  67
ATOM     67  S   UNL     1     -17.074  13.233  -7.961  1.00  0.00     0.124 S 
ATOM     68  O   UNL     1     -17.433  11.962  -7.338  1.00  0.00    -0.237 OA
ATOM     69  O   UNL     1     -17.611  14.425  -7.308  1.00  0.00    -0.237 OA
ATOM     70  O   UNL     1     -17.127  13.249  -9.420  1.00  0.00    -0.744 OA
ENDBRANCH  66  67
ENDBRANCH  47  61
BRANCH  48  71
ATOM     71  C   UNL     1      -2.816  13.250  -4.847  1.00  0.00    -0.014 A 
ATOM     72  C   UNL     1      -2.232  14.179  -3.969  1.00  0.00     0.010 A 
ATOM     73  C   UNL     1      -2.006  12.262  -5.437  1.00  0.00     0.010 A 
ATOM     74  C   UNL     1      -0.861  14.133  -3.697  1.00  0.00     0.020 A 
ATOM     75  C   UNL     1      -0.639  12.199  -5.149  1.00  0.00     0.020 A 
ATOM     76  C   UNL     1      -0.073  13.142  -4.289  1.00  0.00     0.054 A 
BRANCH  76  77
ATOM     77  S   UNL     1       1.692  13.063  -3.877  1.00  0.00     0.124 S 
ATOM     78  O   UNL     1       2.240  14.146  -4.687  1.00  0.00    -0.237 OA
ATOM     79  O   UNL     1       1.693  13.288  -2.434  1.00  0.00    -0.237 OA
ATOM     80  O   UNL     1       2.077  11.714  -4.289  1.00  0.00    -0.744 OA
ENDBRANCH  76  77
ENDBRANCH  48  71
BRANCH  60  81
ATOM     81  C   UNL     1      -6.864  17.620  -8.480  1.00  0.00    -0.014 A 
ATOM     82  C   UNL     1      -6.268  17.618  -9.752  1.00  0.00     0.010 A 
ATOM     83  C   UNL     1      -7.291  18.838  -7.920  1.00  0.00     0.010 A 
ATOM     84  C   UNL     1      -6.095  18.817 -10.449  1.00  0.00     0.020 A 
ATOM     85  C   UNL     1      -7.137  20.035  -8.622  1.00  0.00     0.020 A 
ATOM     86  C   UNL     1      -6.533  20.018  -9.881  1.00  0.00     0.054 A 
BRANCH  86  87
ATOM     87  S   UNL     1      -6.371  21.551 -10.836  1.00  0.00     0.124 S 
ATOM     88  O   UNL     1      -4.951  21.856 -10.682  1.00  0.00    -0.237 OA
ATOM     89  O   UNL     1      -6.784  21.142 -12.177  1.00  0.00    -0.237 OA
ATOM     90  O   UNL     1      -7.284  22.474 -10.166  1.00  0.00    -0.744 OA
ENDBRANCH  86  87
ENDBRANCH  60  81
ENDBRANCH  34  35
ENDBRANCH  26  29
ENDBRANCH  24  25
ENDBRANCH  23  24
ENDBRANCH   1  23
TORSDOF 17
