REMARK SMILES [NH3+][C@]1(C(=O)NCCCCNC(=O)c2ccc(-c3c4nc(c(-c5ccc(S(=O)(=O)[O-])cc5)c5ccc([nH]5)c(-c5ccc(S(=O)(=O)[O-])cc5)c5nc(c(-c6ccc(S(=O)(=O)[O-])cc6)c6ccc3[nH]6)C=C5)C=C4)cc2)CC[C@@H](Sc2cc3ccccc3[nH]2)C1
REMARK SMILES IDX 8 1 7 2 6 3 5 4 3 5 4 6 2 8 73 9 86 10 74 11 75 12 1 13
REMARK SMILES IDX 76 17 77 18 78 19 85 20 79 21 84 22 80 24 83 25 81 26 82 27
REMARK SMILES IDX 9 28 10 29 11 30 12 32 13 33 14 34 72 35 15 36 71 37 16 38
REMARK SMILES IDX 17 39 18 40 65 41 19 42 70 43 64 44 66 45 20 46 69 47 63 48
REMARK SMILES IDX 62 49 21 51 51 52 32 53 50 54 33 55 36 56 49 57 67 58 34 59
REMARK SMILES IDX 35 60 48 62 68 63 37 64 22 65 23 66 31 67 24 68 30 69 25 70
REMARK SMILES IDX 26 71 27 72 28 73 29 74 52 75 53 76 61 77 54 78 60 79 55 80
REMARK SMILES IDX 56 81 57 82 58 83 59 84 38 85 39 86 47 87 40 88 46 89 41 90
REMARK SMILES IDX 42 91 43 92 44 93 45 94
REMARK H PARENT 5 7 1 14 1 15 1 16 85 23 10 31 66 50 36 61
REMARK Flexibility Score: inf
ROOT
ATOM      1  C   UNL     1       3.409  -3.834  -0.095  1.00  0.00     0.023 C 
ENDROOT
BRANCH   1   2
ATOM      2  C   UNL     1       2.778  -3.193   1.135  1.00  0.00     0.023 C 
BRANCH   2   3
ATOM      3  C   UNL     1       2.785  -1.671   1.145  1.00  0.00     0.116 C 
BRANCH   3   4
ATOM      4  N   UNL     1       1.943  -1.109   0.109  1.00  0.00    -0.351 N 
ATOM      5  C   UNL     1       0.969  -0.168   0.130  1.00  0.00     0.281 C 
ATOM      6  O   UNL     1       0.412   0.055  -0.955  1.00  0.00    -0.268 OA
ATOM      7  H   UNL     1       2.112  -1.484  -0.785  1.00  0.00     0.163 HD
BRANCH   5   8
ATOM      8  C   UNL     1       0.447   0.535   1.415  1.00  0.00     0.175 C 
ATOM      9  C   UNL     1       1.331   0.605   2.662  1.00  0.00     0.080 C 
ATOM     10  C   UNL     1       0.268   2.032   1.061  1.00  0.00     0.094 C 
ATOM     11  C   UNL     1       0.843   1.817   3.435  1.00  0.00     0.022 C 
ATOM     12  C   UNL     1       0.483   2.820   2.353  1.00  0.00     0.060 C 
BRANCH   8  13
ATOM     13  N   UNL     1      -0.862  -0.065   1.794  1.00  0.00    -0.345 N 
ATOM     14  H   UNL     1      -1.214   0.389   2.637  1.00  0.00     0.345 HD
ATOM     15  H   UNL     1      -0.740  -1.062   1.971  1.00  0.00     0.345 HD
ATOM     16  H   UNL     1      -1.529   0.066   1.034  1.00  0.00     0.345 HD
ENDBRANCH   8  13
BRANCH  12  17
ATOM     17  S   UNL     1       1.637   4.183   2.105  1.00  0.00    -0.105 SA
BRANCH  17  18
ATOM     18  C   UNL     1       3.256   3.552   2.136  1.00  0.00     0.073 A 
ATOM     19  C   UNL     1       4.210   3.531   1.139  1.00  0.00     0.043 A 
ATOM     20  N   UNL     1       3.933   3.593   3.329  1.00  0.00    -0.350 N 
ATOM     21  C   UNL     1       5.342   4.196   1.721  1.00  0.00     0.001 A 
ATOM     22  C   UNL     1       5.113   4.269   3.096  1.00  0.00     0.046 A 
ATOM     23  H   UNL     1       3.634   3.212   4.186  1.00  0.00     0.167 HD
ATOM     24  C   UNL     1       6.446   4.887   1.186  1.00  0.00     0.010 A 
ATOM     25  C   UNL     1       5.908   5.015   3.970  1.00  0.00     0.027 A 
ATOM     26  C   UNL     1       7.198   5.714   2.032  1.00  0.00     0.001 A 
ATOM     27  C   UNL     1       6.925   5.782   3.398  1.00  0.00     0.002 A 
ENDBRANCH  17  18
ENDBRANCH  12  17
ENDBRANCH   5   8
ENDBRANCH   3   4
ENDBRANCH   2   3
ENDBRANCH   1   2
BRANCH   1  28
ATOM     28  C   UNL     1       4.814  -3.350  -0.431  1.00  0.00     0.116 C 
BRANCH  28  29
ATOM     29  N   UNL     1       5.750  -3.477   0.678  1.00  0.00    -0.352 N 
ATOM     30  C   UNL     1       6.997  -4.055   0.697  1.00  0.00     0.251 C 
ATOM     31  H   UNL     1       5.447  -3.095   1.533  1.00  0.00     0.163 HD
ATOM     32  O   UNL     1       7.609  -4.174   1.754  1.00  0.00    -0.269 OA
BRANCH  30  33
ATOM     33  C   UNL     1       7.572  -4.565  -0.564  1.00  0.00     0.039 A 
ATOM     34  C   UNL     1       8.066  -5.870  -0.604  1.00  0.00     0.014 A 
ATOM     35  C   UNL     1       7.556  -3.776  -1.716  1.00  0.00     0.014 A 
ATOM     36  C   UNL     1       8.466  -6.415  -1.825  1.00  0.00     0.010 A 
ATOM     37  C   UNL     1       7.871  -4.348  -2.942  1.00  0.00     0.010 A 
ATOM     38  C   UNL     1       8.328  -5.673  -3.010  1.00  0.00    -0.014 A 
BRANCH  38  39
ATOM     39  C   UNL     1       8.648  -6.262  -4.335  1.00  0.00     0.031 A 
ATOM     40  C   UNL     1       9.749  -5.675  -5.173  1.00  0.00     0.074 A 
ATOM     41  C   UNL     1       7.900  -7.276  -4.814  1.00  0.00     0.049 A 
ATOM     42  N   UNL     1      10.144  -6.014  -6.373  1.00  0.00    -0.248 NA
ATOM     43  C   UNL     1      10.484  -4.537  -4.597  1.00  0.00     0.031 C 
ATOM     44  C   UNL     1       6.779  -7.908  -4.116  1.00  0.00     0.029 A 
ATOM     45  N   UNL     1       7.973  -7.953  -6.005  1.00  0.00    -0.354 N 
ATOM     46  C   UNL     1      11.153  -5.119  -6.704  1.00  0.00     0.074 A 
ATOM     47  C   UNL     1      11.270  -4.188  -5.604  1.00  0.00     0.031 C 
ATOM     48  C   UNL     1       6.300  -8.910  -4.871  1.00  0.00     0.029 A 
ATOM     49  C   UNL     1       7.048  -8.963  -6.123  1.00  0.00     0.049 A 
ATOM     50  H   UNL     1       8.626  -7.736  -6.710  1.00  0.00     0.167 HD
ATOM     51  C   UNL     1      11.930  -5.085  -7.814  1.00  0.00     0.031 A 
ATOM     52  C   UNL     1       6.830  -9.839  -7.124  1.00  0.00     0.031 A 
ATOM     53  C   UNL     1      11.816  -6.016  -8.904  1.00  0.00     0.049 A 
ATOM     54  C   UNL     1       7.691  -9.774  -8.354  1.00  0.00     0.074 A 
ATOM     55  C   UNL     1      12.591  -6.106 -10.046  1.00  0.00     0.029 A 
ATOM     56  N   UNL     1      10.858  -7.017  -8.989  1.00  0.00    -0.354 N 
ATOM     57  N   UNL     1       8.684  -8.961  -8.623  1.00  0.00    -0.248 NA
ATOM     58  C   UNL     1       7.404 -10.751  -9.413  1.00  0.00     0.031 C 
ATOM     59  C   UNL     1      12.070  -7.130 -10.846  1.00  0.00     0.029 A 
ATOM     60  C   UNL     1      11.006  -7.713 -10.177  1.00  0.00     0.049 A 
ATOM     61  H   UNL     1      10.174  -7.204  -8.306  1.00  0.00     0.167 HD
ATOM     62  C   UNL     1       9.162  -9.347  -9.871  1.00  0.00     0.074 A 
ATOM     63  C   UNL     1       8.351 -10.470 -10.299  1.00  0.00     0.031 C 
ATOM     64  C   UNL     1      10.184  -8.823 -10.592  1.00  0.00     0.031 A 
BRANCH  51  65
ATOM     65  C   UNL     1      12.956  -3.984  -7.895  1.00  0.00    -0.014 A 
ATOM     66  C   UNL     1      14.063  -3.954  -7.025  1.00  0.00     0.010 A 
ATOM     67  C   UNL     1      12.797  -2.949  -8.834  1.00  0.00     0.010 A 
ATOM     68  C   UNL     1      14.946  -2.872  -7.041  1.00  0.00     0.020 A 
ATOM     69  C   UNL     1      13.698  -1.881  -8.875  1.00  0.00     0.020 A 
ATOM     70  C   UNL     1      14.749  -1.835  -7.957  1.00  0.00     0.054 A 
BRANCH  70  71
ATOM     71  S   UNL     1      15.887  -0.422  -7.933  1.00  0.00     0.124 S 
ATOM     72  O   UNL     1      15.430   0.309  -6.753  1.00  0.00    -0.237 OA
ATOM     73  O   UNL     1      17.194  -1.063  -7.806  1.00  0.00    -0.237 OA
ATOM     74  O   UNL     1      15.643   0.240  -9.211  1.00  0.00    -0.744 OA
ENDBRANCH  70  71
ENDBRANCH  51  65
BRANCH  52  75
ATOM     75  C   UNL     1       5.784 -10.886  -6.971  1.00  0.00    -0.014 A 
ATOM     76  C   UNL     1       6.158 -12.221  -6.738  1.00  0.00     0.010 A 
ATOM     77  C   UNL     1       4.418 -10.553  -7.009  1.00  0.00     0.010 A 
ATOM     78  C   UNL     1       5.185 -13.206  -6.544  1.00  0.00     0.020 A 
ATOM     79  C   UNL     1       3.443 -11.532  -6.793  1.00  0.00     0.020 A 
ATOM     80  C   UNL     1       3.833 -12.853  -6.565  1.00  0.00     0.054 A 
BRANCH  80  81
ATOM     81  S   UNL     1       2.593 -14.134  -6.226  1.00  0.00     0.124 S 
ATOM     82  O   UNL     1       2.627 -14.923  -7.454  1.00  0.00    -0.237 OA
ATOM     83  O   UNL     1       3.134 -14.789  -5.037  1.00  0.00    -0.237 OA
ATOM     84  O   UNL     1       1.366 -13.372  -6.004  1.00  0.00    -0.744 OA
ENDBRANCH  80  81
ENDBRANCH  52  75
BRANCH  64  85
ATOM     85  C   UNL     1      10.504  -9.476 -11.910  1.00  0.00    -0.014 A 
ATOM     86  C   UNL     1       9.669  -9.312 -13.029  1.00  0.00     0.010 A 
ATOM     87  C   UNL     1      11.691 -10.221 -12.043  1.00  0.00     0.010 A 
ATOM     88  C   UNL     1      10.000  -9.905 -14.250  1.00  0.00     0.020 A 
ATOM     89  C   UNL     1      12.039 -10.793 -13.269  1.00  0.00     0.020 A 
ATOM     90  C   UNL     1      11.184 -10.642 -14.362  1.00  0.00     0.054 A 
BRANCH  90  91
ATOM     91  S   UNL     1      11.616 -11.362 -15.970  1.00  0.00     0.124 S 
ATOM     92  O   UNL     1      10.694 -12.491 -16.055  1.00  0.00    -0.237 OA
ATOM     93  O   UNL     1      11.352 -10.263 -16.895  1.00  0.00    -0.237 OA
ATOM     94  O   UNL     1      13.025 -11.718 -15.822  1.00  0.00    -0.744 OA
ENDBRANCH  90  91
ENDBRANCH  64  85
ENDBRANCH  38  39
ENDBRANCH  30  33
ENDBRANCH  28  29
ENDBRANCH   1  28
TORSDOF 17
