REMARK SMILES Cc1n[nH]c(C(=O)NCCCCNC(=O)c2ccc(-c3c4nc(c(-c5ccc(S(=O)(=O)[O-])cc5)c5ccc([nH]5)c(-c5ccc(S(=O)(=O)[O-])cc5)c5nc(c(-c6ccc(S(=O)(=O)[O-])cc6)c6ccc3[nH]6)C=C5)C=C4)cc2)c1Br
REMARK SMILES IDX 12 1 11 2 10 3 9 4 8 5 6 6 7 7 5 9 1 10 2 11 3 12 76 13 4 14
REMARK SMILES IDX 77 15 13 17 14 18 15 20 16 21 17 22 75 23 18 24 74 25 19 26
REMARK SMILES IDX 20 27 21 28 68 29 22 30 73 31 67 32 69 33 23 34 72 35 66 36
REMARK SMILES IDX 65 37 24 39 54 40 35 41 53 42 36 43 39 44 52 45 70 46 37 47
REMARK SMILES IDX 38 48 51 50 71 51 40 52 25 53 26 54 34 55 27 56 33 57 28 58
REMARK SMILES IDX 29 59 30 60 31 61 32 62 55 63 56 64 64 65 57 66 63 67 58 68
REMARK SMILES IDX 59 69 60 70 61 71 62 72 41 73 42 74 50 75 43 76 49 77 44 78
REMARK SMILES IDX 45 79 46 80 47 81 48 82
REMARK H PARENT 8 8 4 16 13 19 69 38 39 49
REMARK Flexibility Score: inf
ROOT
ATOM      1  C   UNL     1      -2.049   8.768   2.009  1.00  0.00     0.116 C 
ENDROOT
BRANCH   1   2
ATOM      2  C   UNL     1      -1.167   7.706   2.659  1.00  0.00     0.023 C 
BRANCH   2   3
ATOM      3  C   UNL     1      -1.512   6.250   2.296  1.00  0.00     0.023 C 
BRANCH   3   4
ATOM      4  C   UNL     1      -1.403   5.890   0.810  1.00  0.00     0.116 C 
BRANCH   4   5
ATOM      5  N   UNL     1      -0.026   5.861   0.359  1.00  0.00    -0.351 N 
ATOM      6  C   UNL     1       0.906   4.891   0.096  1.00  0.00     0.270 C 
ATOM      7  O   UNL     1       2.006   5.339  -0.233  1.00  0.00    -0.267 OA
ATOM      8  H   UNL     1       0.329   6.766   0.202  1.00  0.00     0.163 HD
BRANCH   6   9
ATOM      9  C   UNL     1       0.650   3.472   0.193  1.00  0.00     0.137 A 
ATOM     10  C   UNL     1       1.207  -0.186  -0.084  1.00  0.00     0.070 C 
ATOM     11  C   UNL     1       0.790   1.224   0.120  1.00  0.00     0.074 A 
ATOM     12  N   UNL     1      -0.420   1.490   0.624  1.00  0.00    -0.179 NA
ATOM     13  C   UNL     1       1.487   2.421  -0.149  1.00  0.00     0.071 A 
ATOM     14  N   UNL     1      -0.468   2.833   0.653  1.00  0.00    -0.272 N 
ATOM     15  Br  UNL     1       3.230   2.478  -0.852  1.00  0.00    -0.046 Br
ATOM     16  H   UNL     1      -1.255   3.324   0.984  1.00  0.00     0.190 HD
ENDBRANCH   6   9
ENDBRANCH   4   5
ENDBRANCH   3   4
ENDBRANCH   2   3
ENDBRANCH   1   2
BRANCH   1  17
ATOM     17  N   UNL     1      -3.465   8.640   2.357  1.00  0.00    -0.352 N 
ATOM     18  C   UNL     1      -4.543   9.329   1.818  1.00  0.00     0.251 C 
ATOM     19  H   UNL     1      -3.680   7.984   3.059  1.00  0.00     0.163 HD
ATOM     20  O   UNL     1      -5.591   9.435   2.432  1.00  0.00    -0.269 OA
BRANCH  18  21
ATOM     21  C   UNL     1      -4.391   9.917   0.473  1.00  0.00     0.039 A 
ATOM     22  C   UNL     1      -4.866  11.192   0.154  1.00  0.00     0.014 A 
ATOM     23  C   UNL     1      -3.701   9.161  -0.466  1.00  0.00     0.014 A 
ATOM     24  C   UNL     1      -4.554  11.727  -1.096  1.00  0.00     0.010 A 
ATOM     25  C   UNL     1      -3.238   9.755  -1.607  1.00  0.00     0.010 A 
ATOM     26  C   UNL     1      -3.719  11.007  -1.965  1.00  0.00    -0.014 A 
BRANCH  26  27
ATOM     27  C   UNL     1      -3.257  11.571  -3.228  1.00  0.00     0.031 A 
ATOM     28  C   UNL     1      -2.553  12.877  -3.115  1.00  0.00     0.074 A 
ATOM     29  C   UNL     1      -3.240  10.860  -4.377  1.00  0.00     0.049 A 
ATOM     30  N   UNL     1      -2.962  14.030  -3.529  1.00  0.00    -0.248 NA
ATOM     31  C   UNL     1      -1.307  12.935  -2.333  1.00  0.00     0.031 C 
ATOM     32  C   UNL     1      -3.576   9.444  -4.588  1.00  0.00     0.029 A 
ATOM     33  N   UNL     1      -2.778  11.231  -5.598  1.00  0.00    -0.354 N 
ATOM     34  C   UNL     1      -1.930  14.925  -3.261  1.00  0.00     0.074 A 
ATOM     35  C   UNL     1      -1.032  14.241  -2.365  1.00  0.00     0.031 C 
ATOM     36  C   UNL     1      -3.062   9.025  -5.765  1.00  0.00     0.029 A 
ATOM     37  C   UNL     1      -2.537  10.177  -6.472  1.00  0.00     0.049 A 
ATOM     38  H   UNL     1      -2.626  12.172  -5.845  1.00  0.00     0.167 HD
ATOM     39  C   UNL     1      -1.771  16.071  -3.982  1.00  0.00     0.031 A 
ATOM     40  C   UNL     1      -1.917  10.245  -7.677  1.00  0.00     0.031 A 
ATOM     41  C   UNL     1      -2.928  16.351  -4.795  1.00  0.00     0.049 A 
ATOM     42  C   UNL     1      -1.996  11.662  -8.116  1.00  0.00     0.074 A 
ATOM     43  C   UNL     1      -4.267  16.565  -4.531  1.00  0.00     0.029 A 
ATOM     44  N   UNL     1      -2.856  16.014  -6.128  1.00  0.00    -0.354 N 
ATOM     45  N   UNL     1      -3.122  12.265  -8.383  1.00  0.00    -0.248 NA
ATOM     46  C   UNL     1      -0.884  12.539  -7.784  1.00  0.00     0.031 C 
ATOM     47  C   UNL     1      -4.955  15.852  -5.558  1.00  0.00     0.029 A 
ATOM     48  C   UNL     1      -4.003  15.325  -6.434  1.00  0.00     0.049 A 
ATOM     49  H   UNL     1      -2.120  16.227  -6.745  1.00  0.00     0.167 HD
ATOM     50  C   UNL     1      -2.988  13.533  -7.834  1.00  0.00     0.074 A 
ATOM     51  C   UNL     1      -1.557  13.672  -7.557  1.00  0.00     0.031 C 
ATOM     52  C   UNL     1      -4.071  14.241  -7.394  1.00  0.00     0.031 A 
BRANCH  39  53
ATOM     53  C   UNL     1      -0.436  16.723  -4.251  1.00  0.00    -0.014 A 
ATOM     54  C   UNL     1      -0.404  17.948  -4.949  1.00  0.00     0.010 A 
ATOM     55  C   UNL     1       0.792  16.053  -4.082  1.00  0.00     0.010 A 
ATOM     56  C   UNL     1       0.785  18.439  -5.505  1.00  0.00     0.020 A 
ATOM     57  C   UNL     1       1.991  16.555  -4.593  1.00  0.00     0.020 A 
ATOM     58  C   UNL     1       1.973  17.730  -5.332  1.00  0.00     0.054 A 
BRANCH  58  59
ATOM     59  S   UNL     1       3.482  18.318  -6.138  1.00  0.00     0.124 S 
ATOM     60  O   UNL     1       3.155  18.149  -7.550  1.00  0.00    -0.237 OA
ATOM     61  O   UNL     1       3.566  19.698  -5.667  1.00  0.00    -0.237 OA
ATOM     62  O   UNL     1       4.516  17.425  -5.622  1.00  0.00    -0.744 OA
ENDBRANCH  58  59
ENDBRANCH  39  53
BRANCH  40  63
ATOM     63  C   UNL     1      -0.979   9.257  -8.271  1.00  0.00    -0.014 A 
ATOM     64  C   UNL     1      -0.586   9.341  -9.620  1.00  0.00     0.010 A 
ATOM     65  C   UNL     1      -0.247   8.389  -7.433  1.00  0.00     0.010 A 
ATOM     66  C   UNL     1       0.534   8.634 -10.095  1.00  0.00     0.020 A 
ATOM     67  C   UNL     1       0.866   7.678  -7.899  1.00  0.00     0.020 A 
ATOM     68  C   UNL     1       1.267   7.823  -9.224  1.00  0.00     0.054 A 
BRANCH  68  69
ATOM     69  S   UNL     1       2.816   7.059  -9.796  1.00  0.00     0.124 S 
ATOM     70  O   UNL     1       2.336   6.041 -10.727  1.00  0.00    -0.237 OA
ATOM     71  O   UNL     1       3.522   8.185 -10.401  1.00  0.00    -0.237 OA
ATOM     72  O   UNL     1       3.418   6.542  -8.569  1.00  0.00    -0.744 OA
ENDBRANCH  68  69
ENDBRANCH  40  63
BRANCH  52  73
ATOM     73  C   UNL     1      -5.460  13.741  -7.736  1.00  0.00    -0.014 A 
ATOM     74  C   UNL     1      -5.972  12.491  -7.335  1.00  0.00     0.010 A 
ATOM     75  C   UNL     1      -6.339  14.653  -8.347  1.00  0.00     0.010 A 
ATOM     76  C   UNL     1      -7.319  12.158  -7.562  1.00  0.00     0.020 A 
ATOM     77  C   UNL     1      -7.683  14.336  -8.559  1.00  0.00     0.020 A 
ATOM     78  C   UNL     1      -8.166  13.086  -8.175  1.00  0.00     0.054 A 
BRANCH  78  79
ATOM     79  S   UNL     1      -9.915  12.673  -8.433  1.00  0.00     0.124 S 
ATOM     80  O   UNL     1      -9.848  11.620  -9.443  1.00  0.00    -0.237 OA
ATOM     81  O   UNL     1     -10.349  12.245  -7.105  1.00  0.00    -0.237 OA
ATOM     82  O   UNL     1     -10.506  13.930  -8.891  1.00  0.00    -0.744 OA
ENDBRANCH  78  79
ENDBRANCH  52  73
ENDBRANCH  26  27
ENDBRANCH  18  21
ENDBRANCH   1  17
TORSDOF 14
