REMARK SMILES CC(C)(C)OC(=O)N1CCC2(CC1)C[C@@H](C(=O)NCCCCNC(=O)c1ccc(-c3c4nc(c(-c5ccc(S(=O)(=O)[O-])cc5)c5ccc([nH]5)c(-c5ccc(S(=O)(=O)[O-])cc5)c5nc(c(-c6ccc(S(=O)(=O)[O-])cc6)c6ccc3[nH]6)C=C5)C=C4)cc1)CO2
REMARK SMILES IDX 21 1 20 2 19 3 18 4 16 5 17 6 15 8 6 9 7 10 8 11 9 12 13 13
REMARK SMILES IDX 10 14 12 15 11 16 14 17 87 18 86 19 5 20 2 21 1 22 3 23 4 24
REMARK SMILES IDX 22 25 23 26 24 27 25 29 26 30 27 31 85 32 28 33 84 34 29 35
REMARK SMILES IDX 30 36 31 37 78 38 32 39 83 40 77 41 79 42 33 43 82 44 76 45
REMARK SMILES IDX 75 46 34 48 64 49 45 50 63 51 46 52 49 53 62 54 80 55 47 56
REMARK SMILES IDX 48 57 61 59 81 60 50 61 35 62 36 63 44 64 37 65 43 66 38 67
REMARK SMILES IDX 39 68 40 69 41 70 42 71 65 72 66 73 74 74 67 75 73 76 68 77
REMARK SMILES IDX 69 78 70 79 71 80 72 81 51 82 52 83 60 84 53 85 59 86 54 87
REMARK SMILES IDX 55 88 56 89 57 90 58 91
REMARK H PARENT 18 7 23 28 79 47 49 58
REMARK Flexibility Score: inf
ROOT
ATOM      1  C   UNL     1       6.851   7.870   0.014  1.00  0.00     0.023 C 
ENDROOT
BRANCH   1   2
ATOM      2  C   UNL     1       5.345   8.059   0.170  1.00  0.00     0.023 C 
BRANCH   2   3
ATOM      3  C   UNL     1       4.737   7.345   1.371  1.00  0.00     0.116 C 
BRANCH   3   4
ATOM      4  N   UNL     1       4.586   8.162   2.556  1.00  0.00    -0.356 N 
ATOM      5  C   UNL     1       3.488   8.640   3.198  1.00  0.00     0.225 C 
ATOM      6  O   UNL     1       3.683   9.141   4.312  1.00  0.00    -0.275 OA
ATOM      7  H   UNL     1       5.439   8.420   2.975  1.00  0.00     0.163 HD
BRANCH   5   8
ATOM      8  C   UNL     1       2.054   8.589   2.662  1.00  0.00     0.107 C 
ATOM      9  C   UNL     1       0.041   3.571  -1.154  1.00  0.00     0.410 C 
ATOM     10  O   UNL     1      -0.971   3.552  -1.844  1.00  0.00    -0.224 OA
ATOM     11  N   UNL     1       0.562   4.717  -0.594  1.00  0.00    -0.308 N 
ATOM     12  C   UNL     1      -0.226   5.942  -0.535  1.00  0.00     0.126 C 
ATOM     13  C   UNL     1       1.919   4.795  -0.070  1.00  0.00     0.126 C 
ATOM     14  C   UNL     1      -0.249   6.506   0.901  1.00  0.00     0.057 C 
ATOM     15  C   UNL     1       1.883   5.309   1.357  1.00  0.00     0.057 C 
ATOM     16  C   UNL     1       1.190   6.686   1.420  1.00  0.00     0.072 C 
ATOM     17  C   UNL     1       1.312   7.273   2.833  1.00  0.00     0.051 C 
ATOM     18  O   UNL     1       1.803   7.647   0.531  1.00  0.00    -0.374 OA
ATOM     19  C   UNL     1       1.902   8.908   1.202  1.00  0.00     0.174 C 
BRANCH   9  20
ATOM     20  O   UNL     1       0.743   2.475  -0.776  1.00  0.00    -0.444 OA
BRANCH  20  21
ATOM     21  C   UNL     1       0.351   1.132  -1.150  1.00  0.00     0.106 C 
ATOM     22  C   UNL     1       1.111   0.222  -0.172  1.00  0.00     0.056 C 
ATOM     23  C   UNL     1       0.820   0.852  -2.577  1.00  0.00     0.056 C 
ATOM     24  C   UNL     1      -1.150   0.868  -0.977  1.00  0.00     0.056 C 
ENDBRANCH  20  21
ENDBRANCH   9  20
ENDBRANCH   5   8
ENDBRANCH   3   4
ENDBRANCH   2   3
ENDBRANCH   1   2
BRANCH   1  25
ATOM     25  C   UNL     1       7.346   6.426  -0.010  1.00  0.00     0.116 C 
BRANCH  25  26
ATOM     26  N   UNL     1       6.720   5.582  -1.019  1.00  0.00    -0.352 N 
ATOM     27  C   UNL     1       7.289   4.520  -1.691  1.00  0.00     0.251 C 
ATOM     28  H   UNL     1       5.786   5.793  -1.246  1.00  0.00     0.163 HD
ATOM     29  O   UNL     1       6.668   3.918  -2.559  1.00  0.00    -0.269 OA
BRANCH  27  30
ATOM     30  C   UNL     1       8.687   4.158  -1.378  1.00  0.00     0.039 A 
ATOM     31  C   UNL     1       9.636   4.172  -2.402  1.00  0.00     0.014 A 
ATOM     32  C   UNL     1       9.072   3.925  -0.055  1.00  0.00     0.014 A 
ATOM     33  C   UNL     1      10.989   4.042  -2.085  1.00  0.00     0.010 A 
ATOM     34  C   UNL     1      10.424   3.870   0.265  1.00  0.00     0.010 A 
ATOM     35  C   UNL     1      11.398   3.940  -0.745  1.00  0.00    -0.014 A 
BRANCH  35  36
ATOM     36  C   UNL     1      12.836   3.931  -0.373  1.00  0.00     0.031 A 
ATOM     37  C   UNL     1      13.431   2.731   0.310  1.00  0.00     0.074 A 
ATOM     38  C   UNL     1      13.586   5.034  -0.570  1.00  0.00     0.049 A 
ATOM     39  N   UNL     1      14.642   2.562   0.774  1.00  0.00    -0.248 NA
ATOM     40  C   UNL     1      12.537   1.581   0.526  1.00  0.00     0.031 C 
ATOM     41  C   UNL     1      13.113   6.287  -1.165  1.00  0.00     0.029 A 
ATOM     42  N   UNL     1      14.904   5.284  -0.278  1.00  0.00    -0.354 N 
ATOM     43  C   UNL     1      14.652   1.298   1.351  1.00  0.00     0.074 A 
ATOM     44  C   UNL     1      13.311   0.768   1.228  1.00  0.00     0.031 C 
ATOM     45  C   UNL     1      14.129   7.164  -1.208  1.00  0.00     0.029 A 
ATOM     46  C   UNL     1      15.314   6.552  -0.617  1.00  0.00     0.049 A 
ATOM     47  H   UNL     1      15.499   4.618   0.135  1.00  0.00     0.167 HD
ATOM     48  C   UNL     1      15.686   0.628   1.913  1.00  0.00     0.031 A 
ATOM     49  C   UNL     1      16.508   7.158  -0.464  1.00  0.00     0.031 A 
ATOM     50  C   UNL     1      17.020   1.153   2.029  1.00  0.00     0.049 A 
ATOM     51  C   UNL     1      17.648   6.392   0.146  1.00  0.00     0.074 A 
ATOM     52  C   UNL     1      18.150   0.533   2.533  1.00  0.00     0.029 A 
ATOM     53  N   UNL     1      17.404   2.427   1.637  1.00  0.00    -0.354 N 
ATOM     54  N   UNL     1      17.657   5.169   0.620  1.00  0.00    -0.248 NA
ATOM     55  C   UNL     1      18.944   7.081   0.227  1.00  0.00     0.031 C 
ATOM     56  C   UNL     1      19.208   1.447   2.484  1.00  0.00     0.029 A 
ATOM     57  C   UNL     1      18.750   2.618   1.902  1.00  0.00     0.049 A 
ATOM     58  H   UNL     1      16.808   3.097   1.230  1.00  0.00     0.167 HD
ATOM     59  C   UNL     1      18.962   4.934   1.038  1.00  0.00     0.074 A 
ATOM     60  C   UNL     1      19.717   6.136   0.746  1.00  0.00     0.031 C 
ATOM     61  C   UNL     1      19.486   3.823   1.611  1.00  0.00     0.031 A 
BRANCH  48  62
ATOM     62  C   UNL     1      15.400  -0.751   2.446  1.00  0.00    -0.014 A 
ATOM     63  C   UNL     1      15.108  -1.817   1.574  1.00  0.00     0.010 A 
ATOM     64  C   UNL     1      15.418  -0.987   3.832  1.00  0.00     0.010 A 
ATOM     65  C   UNL     1      14.779  -3.077   2.081  1.00  0.00     0.020 A 
ATOM     66  C   UNL     1      15.119  -2.254   4.342  1.00  0.00     0.020 A 
ATOM     67  C   UNL     1      14.776  -3.284   3.463  1.00  0.00     0.054 A 
BRANCH  67  68
ATOM     68  S   UNL     1      14.332  -4.924   4.096  1.00  0.00     0.124 S 
ATOM     69  O   UNL     1      12.882  -4.930   3.919  1.00  0.00    -0.237 OA
ATOM     70  O   UNL     1      15.075  -5.822   3.215  1.00  0.00    -0.237 OA
ATOM     71  O   UNL     1      14.790  -4.896   5.483  1.00  0.00    -0.744 OA
ENDBRANCH  67  68
ENDBRANCH  48  62
BRANCH  49  72
ATOM     72  C   UNL     1      16.682   8.565  -0.917  1.00  0.00    -0.014 A 
ATOM     73  C   UNL     1      17.415   8.857  -2.080  1.00  0.00     0.010 A 
ATOM     74  C   UNL     1      16.079   9.619  -0.206  1.00  0.00     0.010 A 
ATOM     75  C   UNL     1      17.548  10.177  -2.522  1.00  0.00     0.020 A 
ATOM     76  C   UNL     1      16.190  10.938  -0.657  1.00  0.00     0.020 A 
ATOM     77  C   UNL     1      16.930  11.209  -1.810  1.00  0.00     0.054 A 
BRANCH  77  78
ATOM     78  S   UNL     1      17.051  12.905  -2.443  1.00  0.00     0.124 S 
ATOM     79  O   UNL     1      18.421  13.264  -2.091  1.00  0.00    -0.237 OA
ATOM     80  O   UNL     1      16.789  12.730  -3.869  1.00  0.00    -0.237 OA
ATOM     81  O   UNL     1      16.007  13.618  -1.709  1.00  0.00    -0.744 OA
ENDBRANCH  77  78
ENDBRANCH  49  72
BRANCH  61  82
ATOM     82  C   UNL     1      20.955   3.841   1.941  1.00  0.00    -0.014 A 
ATOM     83  C   UNL     1      21.448   4.590   3.024  1.00  0.00     0.010 A 
ATOM     84  C   UNL     1      21.845   3.051   1.191  1.00  0.00     0.010 A 
ATOM     85  C   UNL     1      22.810   4.568   3.335  1.00  0.00     0.020 A 
ATOM     86  C   UNL     1      23.203   3.008   1.513  1.00  0.00     0.020 A 
ATOM     87  C   UNL     1      23.680   3.778   2.576  1.00  0.00     0.054 A 
BRANCH  87  88
ATOM     88  S   UNL     1      25.436   3.729   3.028  1.00  0.00     0.124 S 
ATOM     89  O   UNL     1      25.911   5.019   2.537  1.00  0.00    -0.237 OA
ATOM     90  O   UNL     1      25.391   3.587   4.481  1.00  0.00    -0.237 OA
ATOM     91  O   UNL     1      25.945   2.562   2.310  1.00  0.00    -0.744 OA
ENDBRANCH  87  88
ENDBRANCH  61  82
ENDBRANCH  35  36
ENDBRANCH  27  30
ENDBRANCH  25  26
ENDBRANCH   1  25
TORSDOF 16
