REMARK SMILES O=C(Cc1ccccc1C(=O)NCCCCNC(=O)c1ccc(-c2c3nc(c(-c4ccc(S(=O)(=O)[O-])cc4)c4ccc([nH]4)c(-c4ccc(S(=O)(=O)[O-])cc4)c4nc(c(-c5ccc(S(=O)(=O)[O-])cc5)c5ccc2[nH]5)C=C4)C=C3)cc1)Nc1ccc(S(=O)(=O)N2CCCC2)cc1
REMARK SMILES IDX 13 1 12 2 10 3 11 4 9 6 4 7 5 8 6 9 8 10 7 11 3 12 2 13 1 14
REMARK SMILES IDX 80 15 81 17 82 18 94 19 83 20 93 21 84 22 85 23 86 24 87 25
REMARK SMILES IDX 88 26 89 27 92 28 90 29 91 30 14 31 15 32 16 33 17 34 18 35
REMARK SMILES IDX 19 37 20 38 21 39 79 40 22 41 78 42 23 43 24 44 25 45 72 46
REMARK SMILES IDX 26 47 77 48 71 49 73 50 27 51 76 52 70 53 69 54 28 56 58 57
REMARK SMILES IDX 39 58 57 59 40 60 43 61 56 62 74 63 41 64 42 65 55 67 75 68
REMARK SMILES IDX 44 69 29 70 30 71 38 72 31 73 37 74 32 75 33 76 34 77 35 78
REMARK SMILES IDX 36 79 59 80 60 81 68 82 61 83 67 84 62 85 63 86 64 87 65 88
REMARK SMILES IDX 66 89 45 90 46 91 54 92 47 93 53 94 48 95 49 96 50 97 51 98
REMARK SMILES IDX 52 99
REMARK H PARENT 12 5 80 16 17 36 73 55 43 66
REMARK Flexibility Score: inf
ROOT
ATOM      1  C   UNL     1       1.477  -1.164  -0.789  1.00  0.00     0.116 C 
ENDROOT
BRANCH   1   2
ATOM      2  N   UNL     1       1.563   0.287  -0.859  1.00  0.00    -0.352 N 
ATOM      3  C   UNL     1       2.370   1.114  -1.610  1.00  0.00     0.251 C 
ATOM      4  O   UNL     1       1.994   2.261  -1.842  1.00  0.00    -0.269 OA
ATOM      5  H   UNL     1       0.935   0.760  -0.267  1.00  0.00     0.163 HD
BRANCH   3   6
ATOM      6  C   UNL     1       3.657   0.656  -2.192  1.00  0.00     0.043 A 
ATOM      7  C   UNL     1       4.648  -0.059  -1.512  1.00  0.00    -0.026 A 
ATOM      8  C   UNL     1       5.650  -0.693  -2.280  1.00  0.00     0.005 A 
ATOM      9  C   UNL     1       5.836  -0.380  -3.624  1.00  0.00     0.000 A 
ATOM     10  C   UNL     1       3.913   1.056  -3.518  1.00  0.00     0.014 A 
ATOM     11  C   UNL     1       5.020   0.572  -4.217  1.00  0.00     0.001 A 
BRANCH   7  12
ATOM     12  C   UNL     1       4.872  -0.113  -0.017  1.00  0.00     0.136 C 
BRANCH  12  13
ATOM     13  C   UNL     1       4.126   0.810   0.923  1.00  0.00     0.228 C 
ATOM     14  O   UNL     1       3.674   0.350   1.974  1.00  0.00    -0.274 OA
ATOM     15  N   UNL     1       4.131   2.164   0.642  1.00  0.00    -0.326 N 
ATOM     16  H   UNL     1       4.775   2.508  -0.018  1.00  0.00     0.169 HD
BRANCH  15  17
ATOM     17  C   UNL     1       3.245   3.075   1.267  1.00  0.00     0.041 A 
ATOM     18  C   UNL     1       3.639   4.385   1.528  1.00  0.00     0.027 A 
ATOM     19  C   UNL     1       1.945   2.693   1.606  1.00  0.00     0.027 A 
ATOM     20  C   UNL     1       2.777   5.249   2.228  1.00  0.00     0.024 A 
ATOM     21  C   UNL     1       1.060   3.562   2.238  1.00  0.00     0.024 A 
ATOM     22  C   UNL     1       1.488   4.829   2.597  1.00  0.00     0.082 A 
BRANCH  22  23
ATOM     23  S   UNL     1       0.457   5.936   3.544  1.00  0.00     0.243 S 
ATOM     24  O   UNL     1       1.323   6.526   4.541  1.00  0.00    -0.207 OA
ATOM     25  O   UNL     1      -0.241   6.755   2.571  1.00  0.00    -0.207 OA
BRANCH  23  26
ATOM     26  N   UNL     1      -0.681   5.005   4.353  1.00  0.00    -0.198 NA
ATOM     27  C   UNL     1      -0.324   4.141   5.485  1.00  0.00     0.102 C 
ATOM     28  C   UNL     1      -1.888   4.493   3.690  1.00  0.00     0.102 C 
ATOM     29  C   UNL     1      -0.863   2.778   5.087  1.00  0.00     0.018 C 
ATOM     30  C   UNL     1      -2.095   3.083   4.247  1.00  0.00     0.018 C 
ENDBRANCH  23  26
ENDBRANCH  22  23
ENDBRANCH  15  17
ENDBRANCH  12  13
ENDBRANCH   7  12
ENDBRANCH   3   6
ENDBRANCH   1   2
BRANCH   1  31
ATOM     31  C   UNL     1       1.803  -1.812   0.563  1.00  0.00     0.023 C 
BRANCH  31  32
ATOM     32  C   UNL     1       1.170  -1.220   1.823  1.00  0.00     0.023 C 
BRANCH  32  33
ATOM     33  C   UNL     1      -0.339  -1.286   1.883  1.00  0.00     0.116 C 
BRANCH  33  34
ATOM     34  N   UNL     1      -0.771  -2.661   2.034  1.00  0.00    -0.352 N 
ATOM     35  C   UNL     1      -1.443  -3.209   3.097  1.00  0.00     0.251 C 
ATOM     36  H   UNL     1      -0.559  -3.270   1.290  1.00  0.00     0.163 HD
ATOM     37  O   UNL     1      -1.348  -4.411   3.325  1.00  0.00    -0.269 OA
BRANCH  35  38
ATOM     38  C   UNL     1      -2.304  -2.346   3.935  1.00  0.00     0.039 A 
ATOM     39  C   UNL     1      -2.456  -2.641   5.291  1.00  0.00     0.014 A 
ATOM     40  C   UNL     1      -3.015  -1.285   3.361  1.00  0.00     0.014 A 
ATOM     41  C   UNL     1      -3.325  -1.874   6.065  1.00  0.00     0.010 A 
ATOM     42  C   UNL     1      -3.803  -0.464   4.153  1.00  0.00     0.010 A 
ATOM     43  C   UNL     1      -4.000  -0.777   5.502  1.00  0.00    -0.014 A 
BRANCH  43  44
ATOM     44  C   UNL     1      -4.954   0.023   6.301  1.00  0.00     0.031 A 
ATOM     45  C   UNL     1      -6.413   0.042   5.929  1.00  0.00     0.074 A 
ATOM     46  C   UNL     1      -4.493   0.751   7.335  1.00  0.00     0.049 A 
ATOM     47  N   UNL     1      -7.401   0.668   6.513  1.00  0.00    -0.248 NA
ATOM     48  C   UNL     1      -6.814  -0.719   4.732  1.00  0.00     0.031 C 
ATOM     49  C   UNL     1      -3.090   0.835   7.750  1.00  0.00     0.029 A 
ATOM     50  N   UNL     1      -5.151   1.553   8.228  1.00  0.00    -0.354 N 
ATOM     51  C   UNL     1      -8.531   0.382   5.755  1.00  0.00     0.074 A 
ATOM     52  C   UNL     1      -8.099  -0.417   4.632  1.00  0.00     0.031 C 
ATOM     53  C   UNL     1      -2.998   1.616   8.837  1.00  0.00     0.029 A 
ATOM     54  C   UNL     1      -4.327   2.111   9.177  1.00  0.00     0.049 A 
ATOM     55  H   UNL     1      -6.122   1.714   8.195  1.00  0.00     0.167 HD
ATOM     56  C   UNL     1      -9.817   0.732   5.990  1.00  0.00     0.031 A 
ATOM     57  C   UNL     1      -4.616   2.924  10.210  1.00  0.00     0.031 A 
ATOM     58  C   UNL     1     -10.231   1.519   7.120  1.00  0.00     0.049 A 
ATOM     59  C   UNL     1      -6.052   3.297  10.449  1.00  0.00     0.074 A 
ATOM     60  C   UNL     1     -11.512   1.885   7.492  1.00  0.00     0.029 A 
ATOM     61  N   UNL     1      -9.368   2.066   8.060  1.00  0.00    -0.354 N 
ATOM     62  N   UNL     1      -7.119   2.947   9.768  1.00  0.00    -0.248 NA
ATOM     63  C   UNL     1      -6.326   4.156  11.607  1.00  0.00     0.031 C 
ATOM     64  C   UNL     1     -11.418   2.708   8.619  1.00  0.00     0.029 A 
ATOM     65  C   UNL     1     -10.086   2.794   8.993  1.00  0.00     0.049 A 
ATOM     66  H   UNL     1      -8.391   1.952   8.063  1.00  0.00     0.167 HD
ATOM     67  C   UNL     1      -8.195   3.525  10.431  1.00  0.00     0.074 A 
ATOM     68  C   UNL     1      -7.649   4.221  11.580  1.00  0.00     0.031 C 
ATOM     69  C   UNL     1      -9.515   3.489  10.119  1.00  0.00     0.031 A 
BRANCH  56  70
ATOM     70  C   UNL     1     -10.864   0.272   5.008  1.00  0.00    -0.014 A 
ATOM     71  C   UNL     1     -11.207  -1.088   4.887  1.00  0.00     0.010 A 
ATOM     72  C   UNL     1     -11.555   1.219   4.229  1.00  0.00     0.010 A 
ATOM     73  C   UNL     1     -12.195  -1.495   3.986  1.00  0.00     0.020 A 
ATOM     74  C   UNL     1     -12.566   0.820   3.349  1.00  0.00     0.020 A 
ATOM     75  C   UNL     1     -12.870  -0.537   3.224  1.00  0.00     0.054 A 
BRANCH  75  76
ATOM     76  S   UNL     1     -14.179  -1.091   2.096  1.00  0.00     0.124 S 
ATOM     77  O   UNL     1     -13.413  -1.775   1.058  1.00  0.00    -0.237 OA
ATOM     78  O   UNL     1     -14.991  -1.954   2.950  1.00  0.00    -0.237 OA
ATOM     79  O   UNL     1     -14.825   0.151   1.676  1.00  0.00    -0.744 OA
ENDBRANCH  75  76
ENDBRANCH  56  70
BRANCH  57  80
ATOM     80  C   UNL     1      -3.527   3.412  11.099  1.00  0.00    -0.014 A 
ATOM     81  C   UNL     1      -3.439   2.979  12.434  1.00  0.00     0.010 A 
ATOM     82  C   UNL     1      -2.558   4.306  10.606  1.00  0.00     0.010 A 
ATOM     83  C   UNL     1      -2.422   3.453  13.267  1.00  0.00     0.020 A 
ATOM     84  C   UNL     1      -1.519   4.755  11.426  1.00  0.00     0.020 A 
ATOM     85  C   UNL     1      -1.467   4.338  12.757  1.00  0.00     0.054 A 
BRANCH  85  86
ATOM     86  S   UNL     1      -0.135   4.910  13.848  1.00  0.00     0.124 S 
ATOM     87  O   UNL     1      -0.847   5.813  14.746  1.00  0.00    -0.237 OA
ATOM     88  O   UNL     1       0.338   3.663  14.445  1.00  0.00    -0.237 OA
ATOM     89  O   UNL     1       0.806   5.549  12.931  1.00  0.00    -0.744 OA
ENDBRANCH  85  86
ENDBRANCH  57  80
BRANCH  69  90
ATOM     90  C   UNL     1     -10.456   4.207  11.050  1.00  0.00    -0.014 A 
ATOM     91  C   UNL     1     -10.464   5.611  11.138  1.00  0.00     0.010 A 
ATOM     92  C   UNL     1     -11.363   3.464  11.827  1.00  0.00     0.010 A 
ATOM     93  C   UNL     1     -11.327   6.255  12.027  1.00  0.00     0.020 A 
ATOM     94  C   UNL     1     -12.253   4.107  12.689  1.00  0.00     0.020 A 
ATOM     95  C   UNL     1     -12.214   5.498  12.799  1.00  0.00     0.054 A 
BRANCH  95  96
ATOM     96  S   UNL     1     -13.334   6.360  13.934  1.00  0.00     0.124 S 
ATOM     97  O   UNL     1     -12.421   6.797  14.987  1.00  0.00    -0.237 OA
ATOM     98  O   UNL     1     -13.882   7.423  13.095  1.00  0.00    -0.237 OA
ATOM     99  O   UNL     1     -14.290   5.328  14.328  1.00  0.00    -0.744 OA
ENDBRANCH  95  96
ENDBRANCH  69  90
ENDBRANCH  43  44
ENDBRANCH  35  38
ENDBRANCH  33  34
ENDBRANCH  32  33
ENDBRANCH  31  32
ENDBRANCH   1  31
TORSDOF 19
