REMARK SMILES O=C(NCCCCNC(=O)[C@@H](CCc1ccccc1)[C@@H]1CCS(=O)(=O)C1)c1ccc(-c2c3nc(c(-c4ccc(S(=O)(=O)[O-])cc4)c4ccc([nH]4)c(-c4ccc(S(=O)(=O)[O-])cc4)c4nc(c(-c5ccc(S(=O)(=O)[O-])cc5)c5ccc2[nH]5)C=C4)C=C3)cc1
REMARK SMILES IDX 5 1 4 2 3 3 1 4 2 5 27 7 28 8 86 9 29 10 85 11 30 12 31 13
REMARK SMILES IDX 32 14 79 15 33 16 84 17 78 18 80 19 34 20 83 21 77 22 76 23
REMARK SMILES IDX 35 25 65 26 46 27 64 28 47 29 50 30 63 31 81 32 48 33 49 34
REMARK SMILES IDX 62 36 82 37 51 38 36 39 37 40 45 41 38 42 44 43 39 44 40 45
REMARK SMILES IDX 41 46 42 47 43 48 66 49 67 50 75 51 68 52 74 53 69 54 70 55
REMARK SMILES IDX 71 56 72 57 73 58 52 59 53 60 61 61 54 62 60 63 55 64 56 65
REMARK SMILES IDX 57 66 58 67 59 68 6 69 7 70 8 71 9 72 10 74 11 75 12 76
REMARK SMILES IDX 13 77 14 78 15 79 19 80 16 81 18 82 17 83 20 84 21 85 26 86
REMARK SMILES IDX 22 87 23 88 24 89 25 90
REMARK H PARENT 3 6 80 24 50 35 8 73
REMARK Flexibility Score: inf
ROOT
ATOM      1  C   UNL     1       5.237  -2.396  -0.375  1.00  0.00     0.023 C 
ENDROOT
BRANCH   1   2
ATOM      2  C   UNL     1       4.695  -0.975  -0.482  1.00  0.00     0.116 C 
BRANCH   2   3
ATOM      3  N   UNL     1       3.248  -0.867  -0.624  1.00  0.00    -0.352 N 
ATOM      4  O   UNL     1       1.187  -0.055  -0.116  1.00  0.00    -0.269 OA
ATOM      5  C   UNL     1       2.391  -0.069   0.110  1.00  0.00     0.251 C 
ATOM      6  H   UNL     1       2.835  -1.426  -1.321  1.00  0.00     0.163 HD
BRANCH   5   7
ATOM      7  C   UNL     1       2.965   0.710   1.227  1.00  0.00     0.039 A 
ATOM      8  C   UNL     1       4.070   1.529   0.998  1.00  0.00     0.014 A 
ATOM      9  C   UNL     1       2.527   0.446   2.526  1.00  0.00     0.014 A 
ATOM     10  C   UNL     1       4.879   1.874   2.072  1.00  0.00     0.010 A 
ATOM     11  C   UNL     1       3.271   0.921   3.609  1.00  0.00     0.010 A 
ATOM     12  C   UNL     1       4.489   1.583   3.393  1.00  0.00    -0.014 A 
BRANCH  12  13
ATOM     13  C   UNL     1       5.356   2.022   4.520  1.00  0.00     0.031 A 
ATOM     14  C   UNL     1       5.934   1.041   5.511  1.00  0.00     0.074 A 
ATOM     15  C   UNL     1       5.648   3.334   4.623  1.00  0.00     0.049 A 
ATOM     16  N   UNL     1       6.717   1.275   6.536  1.00  0.00    -0.248 NA
ATOM     17  C   UNL     1       5.585  -0.379   5.344  1.00  0.00     0.031 C 
ATOM     18  C   UNL     1       5.152   4.380   3.721  1.00  0.00     0.029 A 
ATOM     19  N   UNL     1       6.450   4.013   5.502  1.00  0.00    -0.354 N 
ATOM     20  C   UNL     1       6.921   0.046   7.156  1.00  0.00     0.074 A 
ATOM     21  C   UNL     1       6.165  -0.931   6.402  1.00  0.00     0.031 C 
ATOM     22  C   UNL     1       5.721   5.548   4.044  1.00  0.00     0.029 A 
ATOM     23  C   UNL     1       6.541   5.357   5.232  1.00  0.00     0.049 A 
ATOM     24  H   UNL     1       6.915   3.579   6.254  1.00  0.00     0.167 HD
ATOM     25  C   UNL     1       7.667  -0.239   8.253  1.00  0.00     0.031 A 
ATOM     26  C   UNL     1       7.191   6.342   5.878  1.00  0.00     0.031 A 
ATOM     27  C   UNL     1       8.421   0.743   8.993  1.00  0.00     0.049 A 
ATOM     28  C   UNL     1       7.978   6.003   7.107  1.00  0.00     0.074 A 
ATOM     29  C   UNL     1       9.242   0.549  10.092  1.00  0.00     0.029 A 
ATOM     30  N   UNL     1       8.443   2.103   8.718  1.00  0.00    -0.354 N 
ATOM     31  N   UNL     1       8.179   4.830   7.659  1.00  0.00    -0.248 NA
ATOM     32  C   UNL     1       8.625   7.121   7.801  1.00  0.00     0.031 C 
ATOM     33  C   UNL     1       9.703   1.798  10.522  1.00  0.00     0.029 A 
ATOM     34  C   UNL     1       9.234   2.763   9.645  1.00  0.00     0.049 A 
ATOM     35  H   UNL     1       7.967   2.535   7.973  1.00  0.00     0.167 HD
ATOM     36  C   UNL     1       9.002   5.066   8.753  1.00  0.00     0.074 A 
ATOM     37  C   UNL     1       9.274   6.490   8.770  1.00  0.00     0.031 C 
ATOM     38  C   UNL     1       9.490   4.183   9.658  1.00  0.00     0.031 A 
BRANCH  25  39
ATOM     39  C   UNL     1       7.672  -1.665   8.756  1.00  0.00    -0.014 A 
ATOM     40  C   UNL     1       8.293  -2.703   8.038  1.00  0.00     0.010 A 
ATOM     41  C   UNL     1       7.084  -1.960  10.001  1.00  0.00     0.010 A 
ATOM     42  C   UNL     1       8.282  -4.013   8.530  1.00  0.00     0.020 A 
ATOM     43  C   UNL     1       7.098  -3.262  10.512  1.00  0.00     0.020 A 
ATOM     44  C   UNL     1       7.680  -4.285   9.763  1.00  0.00     0.054 A 
BRANCH  44  45
ATOM     45  S   UNL     1       7.685  -5.992  10.378  1.00  0.00     0.124 S 
ATOM     46  O   UNL     1       6.737  -6.641   9.475  1.00  0.00    -0.237 OA
ATOM     47  O   UNL     1       9.081  -6.388  10.212  1.00  0.00    -0.237 OA
ATOM     48  O   UNL     1       7.237  -5.865  11.763  1.00  0.00    -0.744 OA
ENDBRANCH  44  45
ENDBRANCH  25  39
BRANCH  26  49
ATOM     49  C   UNL     1       7.107   7.737   5.369  1.00  0.00    -0.014 A 
ATOM     50  C   UNL     1       8.241   8.369   4.832  1.00  0.00     0.010 A 
ATOM     51  C   UNL     1       5.881   8.430   5.390  1.00  0.00     0.010 A 
ATOM     52  C   UNL     1       8.155   9.675   4.342  1.00  0.00     0.020 A 
ATOM     53  C   UNL     1       5.784   9.721   4.867  1.00  0.00     0.020 A 
ATOM     54  C   UNL     1       6.926  10.341   4.359  1.00  0.00     0.054 A 
BRANCH  54  55
ATOM     55  S   UNL     1       6.832  12.017   3.676  1.00  0.00     0.124 S 
ATOM     56  O   UNL     1       7.545  12.795   4.684  1.00  0.00    -0.237 OA
ATOM     57  O   UNL     1       7.510  11.872   2.390  1.00  0.00    -0.237 OA
ATOM     58  O   UNL     1       5.395  12.271   3.589  1.00  0.00    -0.744 OA
ENDBRANCH  54  55
ENDBRANCH  26  49
BRANCH  38  59
ATOM     59  C   UNL     1      10.409   4.729  10.719  1.00  0.00    -0.014 A 
ATOM     60  C   UNL     1       9.935   5.569  11.742  1.00  0.00     0.010 A 
ATOM     61  C   UNL     1      11.771   4.377  10.699  1.00  0.00     0.010 A 
ATOM     62  C   UNL     1      10.815   6.084  12.698  1.00  0.00     0.020 A 
ATOM     63  C   UNL     1      12.647   4.860  11.672  1.00  0.00     0.020 A 
ATOM     64  C   UNL     1      12.167   5.727  12.656  1.00  0.00     0.054 A 
BRANCH  64  65
ATOM     65  S   UNL     1      13.284   6.387  13.922  1.00  0.00     0.124 S 
ATOM     66  O   UNL     1      13.404   7.786  13.522  1.00  0.00    -0.237 OA
ATOM     67  O   UNL     1      12.543   6.147  15.158  1.00  0.00    -0.237 OA
ATOM     68  O   UNL     1      14.497   5.588  13.765  1.00  0.00    -0.744 OA
ENDBRANCH  64  65
ENDBRANCH  38  59
ENDBRANCH  12  13
ENDBRANCH   5   7
ENDBRANCH   2   3
ENDBRANCH   1   2
BRANCH   1  69
ATOM     69  C   UNL     1       5.163  -3.221  -1.650  1.00  0.00     0.023 C 
BRANCH  69  70
ATOM     70  C   UNL     1       5.777  -2.511  -2.849  1.00  0.00     0.116 C 
BRANCH  70  71
ATOM     71  N   UNL     1       6.976  -3.094  -3.376  1.00  0.00    -0.356 N 
ATOM     72  C   UNL     1       7.335  -3.070  -4.686  1.00  0.00     0.223 C 
ATOM     73  H   UNL     1       7.582  -3.543  -2.743  1.00  0.00     0.163 HD
ATOM     74  O   UNL     1       8.533  -2.938  -4.951  1.00  0.00    -0.275 OA
BRANCH  72  75
ATOM     75  C   UNL     1       6.312  -3.222  -5.827  1.00  0.00     0.083 C 
BRANCH  75  76
ATOM     76  C   UNL     1       5.263  -4.382  -5.711  1.00  0.00     0.018 C 
BRANCH  76  77
ATOM     77  C   UNL     1       3.928  -4.364  -4.931  1.00  0.00     0.036 C 
BRANCH  77  78
ATOM     78  C   UNL     1       2.859  -3.376  -5.333  1.00  0.00    -0.048 A 
ATOM     79  C   UNL     1       2.519  -2.288  -4.514  1.00  0.00     0.004 A 
ATOM     80  C   UNL     1       2.157  -3.537  -6.531  1.00  0.00     0.004 A 
ATOM     81  C   UNL     1       1.651  -1.290  -4.958  1.00  0.00     0.000 A 
ATOM     82  C   UNL     1       1.233  -2.574  -6.947  1.00  0.00     0.000 A 
ATOM     83  C   UNL     1       1.017  -1.427  -6.185  1.00  0.00     0.000 A 
ENDBRANCH  77  78
ENDBRANCH  76  77
ENDBRANCH  75  76
BRANCH  75  84
ATOM     84  C   UNL     1       5.912  -1.952  -6.635  1.00  0.00     0.017 C 
ATOM     85  C   UNL     1       7.085  -1.187  -7.299  1.00  0.00     0.021 C 
ATOM     86  C   UNL     1       5.053  -0.889  -5.969  1.00  0.00     0.141 C 
ATOM     87  C   UNL     1       7.489   0.022  -6.462  1.00  0.00     0.137 C 
ATOM     88  S   UNL     1       6.054   0.505  -5.544  1.00  0.00     0.150 S 
ATOM     89  O   UNL     1       6.350   0.440  -4.132  1.00  0.00    -0.229 OA
ATOM     90  O   UNL     1       5.465   1.683  -6.155  1.00  0.00    -0.229 OA
ENDBRANCH  75  84
ENDBRANCH  72  75
ENDBRANCH  70  71
ENDBRANCH  69  70
ENDBRANCH   1  69
TORSDOF 18
