REMARK SMILES CC(=O)Nc1nc(C[N@@H+]2CCO[C@@H](CC(=O)NCCCCNC(=O)c3ccc(-c4c5nc(c(-c6ccc(S(=O)(=O)[O-])cc6)c6ccc([nH]6)c(-c6ccc(S(=O)(=O)[O-])cc6)c6nc(c(-c7ccc(S(=O)(=O)[O-])cc7)c7ccc4[nH]7)C=C6)C=C5)cc3)C2)cs1
REMARK SMILES IDX 19 1 18 2 17 3 15 4 16 5 14 7 13 8 9 9 10 10 85 11 11 13
REMARK SMILES IDX 12 14 8 15 7 16 5 17 6 18 87 19 86 20 4 21 1 22 2 23 3 24
REMARK SMILES IDX 20 26 21 27 22 28 23 29 24 31 25 32 26 33 84 34 27 35 83 36
REMARK SMILES IDX 28 37 29 38 30 39 77 40 31 41 82 42 76 43 78 44 32 45 81 46
REMARK SMILES IDX 75 47 74 48 33 50 63 51 44 52 62 53 45 54 48 55 61 56 79 57
REMARK SMILES IDX 46 58 47 59 60 61 80 62 49 63 34 64 35 65 43 66 36 67 42 68
REMARK SMILES IDX 37 69 38 70 39 71 40 72 41 73 64 74 65 75 73 76 66 77 72 78
REMARK SMILES IDX 67 79 68 80 69 81 70 82 71 83 50 84 51 85 59 86 52 87 58 88
REMARK SMILES IDX 53 89 54 90 55 91 56 92 57 93
REMARK H PARENT 17 6 9 12 4 25 22 30 78 49 48 60
REMARK Flexibility Score: inf
ROOT
ATOM      1  C   UNL     1       7.689  -0.638   1.946  1.00  0.00     0.023 C 
ENDROOT
BRANCH   1   2
ATOM      2  C   UNL     1       7.587   0.176   3.241  1.00  0.00     0.116 C 
BRANCH   2   3
ATOM      3  N   UNL     1       6.326   0.895   3.331  1.00  0.00    -0.356 N 
ATOM      4  C   UNL     1       5.226   0.655   4.104  1.00  0.00     0.222 C 
ATOM      5  O   UNL     1       4.239   1.380   3.971  1.00  0.00    -0.275 OA
ATOM      6  H   UNL     1       6.254   1.680   2.741  1.00  0.00     0.163 HD
BRANCH   4   7
ATOM      7  C   UNL     1       5.211  -0.493   5.090  1.00  0.00     0.138 C 
BRANCH   7   8
ATOM      8  C   UNL     1       4.526  -1.750   4.542  1.00  0.00     0.182 C 
ATOM      9  N   UNL     1       4.811  -3.539   2.717  1.00  0.00    -0.326 N 
ATOM     10  C   UNL     1       4.723  -4.522   3.790  1.00  0.00     0.291 C 
ATOM     11  C   UNL     1       5.155  -2.208   3.214  1.00  0.00     0.295 C 
ATOM     12  H   UNL     1       5.609  -3.871   2.174  1.00  0.00     0.348 HD
ATOM     13  C   UNL     1       4.093  -4.009   5.096  1.00  0.00     0.222 C 
ATOM     14  O   UNL     1       4.684  -2.783   5.538  1.00  0.00    -0.366 OA
BRANCH   9  15
ATOM     15  C   UNL     1       3.818  -3.578   1.645  1.00  0.00     0.320 C 
BRANCH  15  16
ATOM     16  C   UNL     1       2.482  -3.038   2.050  1.00  0.00     0.108 A 
ATOM     17  C   UNL     1       0.995  -1.423   2.244  1.00  0.00     0.189 A 
ATOM     18  N   UNL     1       2.129  -1.744   1.679  1.00  0.00    -0.219 NA
ATOM     19  S   UNL     1       0.262  -2.619   3.214  1.00  0.00    -0.105 S 
ATOM     20  C   UNL     1       1.512  -3.705   2.777  1.00  0.00     0.098 A 
BRANCH  17  21
ATOM     21  N   UNL     1       0.298  -0.256   2.184  1.00  0.00    -0.302 N 
ATOM     22  C   UNL     1       1.301   0.498   0.038  1.00  0.00     0.114 C 
ATOM     23  C   UNL     1       0.460   0.734   1.265  1.00  0.00     0.223 C 
ATOM     24  O   UNL     1      -0.160   1.790   1.419  1.00  0.00    -0.275 OA
ATOM     25  H   UNL     1      -0.391  -0.114   2.873  1.00  0.00     0.172 HD
ENDBRANCH  17  21
ENDBRANCH  15  16
ENDBRANCH   9  15
ENDBRANCH   7   8
ENDBRANCH   4   7
ENDBRANCH   2   3
ENDBRANCH   1   2
BRANCH   1  26
ATOM     26  C   UNL     1       8.252   0.107   0.750  1.00  0.00     0.023 C 
BRANCH  26  27
ATOM     27  C   UNL     1       9.723   0.442   0.871  1.00  0.00     0.116 C 
BRANCH  27  28
ATOM     28  N   UNL     1      10.586  -0.729   1.003  1.00  0.00    -0.352 N 
ATOM     29  C   UNL     1      11.828  -0.919   0.440  1.00  0.00     0.251 C 
ATOM     30  H   UNL     1      10.240  -1.466   1.557  1.00  0.00     0.163 HD
ATOM     31  O   UNL     1      12.431  -1.978   0.564  1.00  0.00    -0.269 OA
BRANCH  29  32
ATOM     32  C   UNL     1      12.383   0.184  -0.366  1.00  0.00     0.039 A 
ATOM     33  C   UNL     1      12.677  -0.039  -1.712  1.00  0.00     0.014 A 
ATOM     34  C   UNL     1      12.422   1.469   0.178  1.00  0.00     0.014 A 
ATOM     35  C   UNL     1      12.920   1.054  -2.545  1.00  0.00     0.010 A 
ATOM     36  C   UNL     1      12.562   2.555  -0.672  1.00  0.00     0.010 A 
ATOM     37  C   UNL     1      12.810   2.360  -2.041  1.00  0.00    -0.014 A 
BRANCH  37  38
ATOM     38  C   UNL     1      12.963   3.558  -2.902  1.00  0.00     0.031 A 
ATOM     39  C   UNL     1      14.043   4.553  -2.574  1.00  0.00     0.074 A 
ATOM     40  C   UNL     1      12.076   3.813  -3.884  1.00  0.00     0.049 A 
ATOM     41  N   UNL     1      14.231   5.755  -3.050  1.00  0.00    -0.248 NA
ATOM     42  C   UNL     1      15.006   4.159  -1.531  1.00  0.00     0.031 C 
ATOM     43  C   UNL     1      10.957   2.949  -4.272  1.00  0.00     0.029 A 
ATOM     44  N   UNL     1      11.964   4.893  -4.724  1.00  0.00    -0.354 N 
ATOM     45  C   UNL     1      15.297   6.278  -2.328  1.00  0.00     0.074 A 
ATOM     46  C   UNL     1      15.684   5.281  -1.354  1.00  0.00     0.031 C 
ATOM     47  C   UNL     1      10.289   3.522  -5.287  1.00  0.00     0.029 A 
ATOM     48  C   UNL     1      10.899   4.813  -5.591  1.00  0.00     0.049 A 
ATOM     49  H   UNL     1      12.589   5.654  -4.709  1.00  0.00     0.167 HD
ATOM     50  C   UNL     1      15.911   7.475  -2.473  1.00  0.00     0.031 A 
ATOM     51  C   UNL     1      10.458   5.686  -6.517  1.00  0.00     0.031 A 
ATOM     52  C   UNL     1      15.556   8.438  -3.477  1.00  0.00     0.049 A 
ATOM     53  C   UNL     1      11.189   6.989  -6.700  1.00  0.00     0.074 A 
ATOM     54  C   UNL     1      16.156   9.652  -3.756  1.00  0.00     0.029 A 
ATOM     55  N   UNL     1      14.514   8.284  -4.380  1.00  0.00    -0.354 N 
ATOM     56  N   UNL     1      12.220   7.452  -6.034  1.00  0.00    -0.248 NA
ATOM     57  C   UNL     1      10.705   7.881  -7.762  1.00  0.00     0.031 C 
ATOM     58  C   UNL     1      15.461  10.245  -4.815  1.00  0.00     0.029 A 
ATOM     59  C   UNL     1      14.455   9.381  -5.219  1.00  0.00     0.049 A 
ATOM     60  H   UNL     1      13.908   7.510  -4.417  1.00  0.00     0.167 HD
ATOM     61  C   UNL     1      12.528   8.675  -6.618  1.00  0.00     0.074 A 
ATOM     62  C   UNL     1      11.577   8.879  -7.691  1.00  0.00     0.031 C 
ATOM     63  C   UNL     1      13.512   9.550  -6.296  1.00  0.00     0.031 A 
BRANCH  50  64
ATOM     64  C   UNL     1      17.029   7.796  -1.519  1.00  0.00    -0.014 A 
ATOM     65  C   UNL     1      18.259   7.115  -1.586  1.00  0.00     0.010 A 
ATOM     66  C   UNL     1      16.848   8.790  -0.542  1.00  0.00     0.010 A 
ATOM     67  C   UNL     1      19.266   7.383  -0.656  1.00  0.00     0.020 A 
ATOM     68  C   UNL     1      17.865   9.083   0.371  1.00  0.00     0.020 A 
ATOM     69  C   UNL     1      19.059   8.360   0.322  1.00  0.00     0.054 A 
BRANCH  69  70
ATOM     70  S   UNL     1      20.383   8.690   1.516  1.00  0.00     0.124 S 
ATOM     71  O   UNL     1      20.254   7.556   2.427  1.00  0.00    -0.237 OA
ATOM     72  O   UNL     1      21.581   8.690   0.680  1.00  0.00    -0.237 OA
ATOM     73  O   UNL     1      20.022   9.988   2.082  1.00  0.00    -0.744 OA
ENDBRANCH  69  70
ENDBRANCH  50  64
BRANCH  51  74
ATOM     74  C   UNL     1       9.282   5.344  -7.362  1.00  0.00    -0.014 A 
ATOM     75  C   UNL     1       9.460   4.989  -8.711  1.00  0.00     0.010 A 
ATOM     76  C   UNL     1       7.983   5.346  -6.821  1.00  0.00     0.010 A 
ATOM     77  C   UNL     1       8.361   4.654  -9.508  1.00  0.00     0.020 A 
ATOM     78  C   UNL     1       6.884   4.989  -7.609  1.00  0.00     0.020 A 
ATOM     79  C   UNL     1       7.080   4.654  -8.951  1.00  0.00     0.054 A 
BRANCH  79  80
ATOM     80  S   UNL     1       5.675   4.155  -9.987  1.00  0.00     0.124 S 
ATOM     81  O   UNL     1       5.472   5.339 -10.815  1.00  0.00    -0.237 OA
ATOM     82  O   UNL     1       6.195   2.979 -10.681  1.00  0.00    -0.237 OA
ATOM     83  O   UNL     1       4.619   3.877  -9.016  1.00  0.00    -0.744 OA
ENDBRANCH  79  80
ENDBRANCH  51  74
BRANCH  63  84
ATOM     84  C   UNL     1      13.654  10.783  -7.143  1.00  0.00    -0.014 A 
ATOM     85  C   UNL     1      12.780  11.873  -6.994  1.00  0.00     0.010 A 
ATOM     86  C   UNL     1      14.740  10.884  -8.031  1.00  0.00     0.010 A 
ATOM     87  C   UNL     1      12.985  13.043  -7.729  1.00  0.00     0.020 A 
ATOM     88  C   UNL     1      14.960  12.060  -8.752  1.00  0.00     0.020 A 
ATOM     89  C   UNL     1      14.076  13.130  -8.601  1.00  0.00     0.054 A 
BRANCH  89  90
ATOM     90  S   UNL     1      14.368  14.686  -9.486  1.00  0.00     0.124 S 
ATOM     91  O   UNL     1      13.355  14.633 -10.536  1.00  0.00    -0.237 OA
ATOM     92  O   UNL     1      14.147  15.692  -8.449  1.00  0.00    -0.237 OA
ATOM     93  O   UNL     1      15.750  14.569  -9.945  1.00  0.00    -0.744 OA
ENDBRANCH  89  90
ENDBRANCH  63  84
ENDBRANCH  37  38
ENDBRANCH  29  32
ENDBRANCH  27  28
ENDBRANCH  26  27
ENDBRANCH   1  26
TORSDOF 18
