REMARK SMILES COc1cccc(NC(=O)[C@@H]2[C@@H](C(=O)NCCCCNC(=O)c3ccc(-c4c5nc(c(-c6ccc(S(=O)(=O)[O-])cc6)c6ccc([nH]6)c(-c6ccc(S(=O)(=O)[O-])cc6)c6nc(c(-c7ccc(S(=O)(=O)[O-])cc7)c7ccc4[nH]7)C=C6)C=C5)cc3)[C@H]3C=C[C@@H]2C3)c1
REMARK SMILES IDX 17 1 16 2 15 3 13 4 14 5 12 7 11 8 86 9 83 10 85 11 87 12
REMARK SMILES IDX 84 13 9 14 8 15 10 17 7 18 3 19 4 20 88 21 5 22 6 23 2 24
REMARK SMILES IDX 1 25 18 26 19 27 20 28 21 29 22 31 23 32 24 33 82 34 25 35
REMARK SMILES IDX 81 36 26 37 27 38 28 39 75 40 29 41 80 42 74 43 76 44 30 45
REMARK SMILES IDX 79 46 73 47 72 48 31 50 61 51 42 52 60 53 43 54 46 55 59 56
REMARK SMILES IDX 77 57 44 58 45 59 58 61 78 62 47 63 32 64 33 65 41 66 34 67
REMARK SMILES IDX 40 68 35 69 36 70 37 71 38 72 39 73 62 74 63 75 71 76 64 77
REMARK SMILES IDX 70 78 65 79 66 80 67 81 68 82 69 83 48 84 49 85 57 86 50 87
REMARK SMILES IDX 56 88 51 89 52 90 53 91 54 92 55 93
REMARK H PARENT 15 6 8 16 20 30 76 49 46 60
REMARK Flexibility Score: inf
ROOT
ATOM      1  C   UNL     1       0.943  -2.883   2.980  1.00  0.00     0.023 C 
ENDROOT
BRANCH   1   2
ATOM      2  C   UNL     1       0.849  -4.117   3.876  1.00  0.00     0.116 C 
BRANCH   2   3
ATOM      3  N   UNL     1       0.388  -5.274   3.125  1.00  0.00    -0.356 N 
ATOM      4  C   UNL     1       1.101  -6.159   2.369  1.00  0.00     0.224 C 
ATOM      5  O   UNL     1       0.484  -6.888   1.592  1.00  0.00    -0.275 OA
ATOM      6  H   UNL     1      -0.581  -5.443   3.167  1.00  0.00     0.163 HD
BRANCH   4   7
ATOM      7  C   UNL     1       2.601  -6.264   2.576  1.00  0.00     0.098 C 
ATOM      8  C   UNL     1       3.407  -6.769   1.331  1.00  0.00     0.099 C 
ATOM      9  C   UNL     1       4.178  -7.992   1.922  1.00  0.00     0.025 C 
ATOM     10  C   UNL     1       2.914  -7.349   3.649  1.00  0.00     0.025 C 
ATOM     11  C   UNL     1       3.162  -9.088   2.156  1.00  0.00    -0.027 C 
ATOM     12  C   UNL     1       4.401  -7.581   3.384  1.00  0.00     0.017 C 
ATOM     13  C   UNL     1       2.405  -8.704   3.195  1.00  0.00    -0.027 C 
BRANCH   8  14
ATOM     14  C   UNL     1       4.373  -5.702   0.824  1.00  0.00     0.228 C 
ATOM     15  N   UNL     1       3.950  -4.548   0.225  1.00  0.00    -0.326 N 
ATOM     16  H   UNL     1       4.667  -3.880   0.128  1.00  0.00     0.169 HD
ATOM     17  O   UNL     1       5.589  -5.798   1.031  1.00  0.00    -0.274 OA
BRANCH  15  18
ATOM     18  C   UNL     1       2.715  -4.108  -0.281  1.00  0.00     0.044 A 
ATOM     19  C   UNL     1       1.261  -2.204  -0.694  1.00  0.00     0.120 A 
ATOM     20  C   UNL     1       0.231  -3.063  -1.063  1.00  0.00     0.046 A 
ATOM     21  C   UNL     1       2.511  -2.717  -0.336  1.00  0.00     0.072 A 
ATOM     22  C   UNL     1       0.456  -4.434  -1.098  1.00  0.00     0.006 A 
ATOM     23  C   UNL     1       1.695  -4.953  -0.712  1.00  0.00     0.026 A 
BRANCH  19  24
ATOM     24  O   UNL     1       0.904  -0.905  -0.451  1.00  0.00    -0.497 OA
ATOM     25  C   UNL     1       1.649   0.063  -1.172  1.00  0.00     0.278 C 
ENDBRANCH  19  24
ENDBRANCH  15  18
ENDBRANCH   8  14
ENDBRANCH   4   7
ENDBRANCH   2   3
ENDBRANCH   1   2
BRANCH   1  26
ATOM     26  C   UNL     1      -0.400  -2.452   2.388  1.00  0.00     0.023 C 
BRANCH  26  27
ATOM     27  C   UNL     1      -1.319  -1.745   3.367  1.00  0.00     0.116 C 
BRANCH  27  28
ATOM     28  N   UNL     1      -0.850  -0.400   3.669  1.00  0.00    -0.352 N 
ATOM     29  C   UNL     1      -1.419   0.829   3.433  1.00  0.00     0.251 C 
ATOM     30  H   UNL     1       0.024  -0.365   4.120  1.00  0.00     0.163 HD
ATOM     31  O   UNL     1      -0.726   1.834   3.575  1.00  0.00    -0.269 OA
BRANCH  29  32
ATOM     32  C   UNL     1      -2.837   0.965   3.013  1.00  0.00     0.039 A 
ATOM     33  C   UNL     1      -3.219   2.080   2.257  1.00  0.00     0.014 A 
ATOM     34  C   UNL     1      -3.812   0.049   3.408  1.00  0.00     0.014 A 
ATOM     35  C   UNL     1      -4.558   2.259   1.893  1.00  0.00     0.010 A 
ATOM     36  C   UNL     1      -5.112   0.150   2.925  1.00  0.00     0.010 A 
ATOM     37  C   UNL     1      -5.517   1.286   2.214  1.00  0.00    -0.014 A 
BRANCH  37  38
ATOM     38  C   UNL     1      -6.962   1.470   1.919  1.00  0.00     0.031 A 
ATOM     39  C   UNL     1      -7.961   1.457   3.054  1.00  0.00     0.074 A 
ATOM     40  C   UNL     1      -7.390   1.579   0.647  1.00  0.00     0.049 A 
ATOM     41  N   UNL     1      -9.268   1.500   3.010  1.00  0.00    -0.248 NA
ATOM     42  C   UNL     1      -7.417   1.325   4.417  1.00  0.00     0.031 C 
ATOM     43  C   UNL     1      -6.537   1.544  -0.543  1.00  0.00     0.029 A 
ATOM     44  N   UNL     1      -8.656   1.736   0.144  1.00  0.00    -0.354 N 
ATOM     45  C   UNL     1      -9.695   1.350   4.327  1.00  0.00     0.074 A 
ATOM     46  C   UNL     1      -8.515   1.142   5.133  1.00  0.00     0.031 C 
ATOM     47  C   UNL     1      -7.300   1.712  -1.635  1.00  0.00     0.029 A 
ATOM     48  C   UNL     1      -8.697   1.831  -1.226  1.00  0.00     0.049 A 
ATOM     49  H   UNL     1      -9.460   1.776   0.711  1.00  0.00     0.167 HD
ATOM     50  C   UNL     1     -10.951   1.414   4.831  1.00  0.00     0.031 A 
ATOM     51  C   UNL     1      -9.741   2.001  -2.060  1.00  0.00     0.031 A 
ATOM     52  C   UNL     1     -12.117   1.673   4.031  1.00  0.00     0.049 A 
ATOM     53  C   UNL     1     -11.120   2.145  -1.480  1.00  0.00     0.074 A 
ATOM     54  C   UNL     1     -13.429   1.830   4.439  1.00  0.00     0.029 A 
ATOM     55  N   UNL     1     -12.104   1.829   2.652  1.00  0.00    -0.354 N 
ATOM     56  N   UNL     1     -11.501   2.055  -0.228  1.00  0.00    -0.248 NA
ATOM     57  C   UNL     1     -12.206   2.442  -2.423  1.00  0.00     0.031 C 
ATOM     58  C   UNL     1     -14.215   2.048   3.302  1.00  0.00     0.029 A 
ATOM     59  C   UNL     1     -13.384   2.079   2.192  1.00  0.00     0.049 A 
ATOM     60  H   UNL     1     -11.301   1.770   2.085  1.00  0.00     0.167 HD
ATOM     61  C   UNL     1     -12.867   2.311  -0.227  1.00  0.00     0.074 A 
ATOM     62  C   UNL     1     -13.241   2.574  -1.603  1.00  0.00     0.031 C 
ATOM     63  C   UNL     1     -13.734   2.333   0.817  1.00  0.00     0.031 A 
BRANCH  50  64
ATOM     64  C   UNL     1     -11.110   1.200   6.316  1.00  0.00    -0.014 A 
ATOM     65  C   UNL     1     -10.585   2.117   7.248  1.00  0.00     0.010 A 
ATOM     66  C   UNL     1     -11.769   0.052   6.792  1.00  0.00     0.010 A 
ATOM     67  C   UNL     1     -10.643   1.851   8.618  1.00  0.00     0.020 A 
ATOM     68  C   UNL     1     -11.863  -0.200   8.165  1.00  0.00     0.020 A 
ATOM     69  C   UNL     1     -11.271   0.686   9.068  1.00  0.00     0.054 A 
BRANCH  69  70
ATOM     70  S   UNL     1     -11.310   0.349  10.850  1.00  0.00     0.124 S 
ATOM     71  O   UNL     1      -9.941  -0.094  11.100  1.00  0.00    -0.237 OA
ATOM     72  O   UNL     1     -11.662   1.648  11.416  1.00  0.00    -0.237 OA
ATOM     73  O   UNL     1     -12.334  -0.685  10.984  1.00  0.00    -0.744 OA
ENDBRANCH  69  70
ENDBRANCH  50  64
BRANCH  51  74
ATOM     74  C   UNL     1      -9.497   2.104  -3.525  1.00  0.00    -0.014 A 
ATOM     75  C   UNL     1      -9.571   3.351  -4.172  1.00  0.00     0.010 A 
ATOM     76  C   UNL     1      -9.123   0.970  -4.268  1.00  0.00     0.010 A 
ATOM     77  C   UNL     1      -9.277   3.461  -5.534  1.00  0.00     0.020 A 
ATOM     78  C   UNL     1      -8.805   1.081  -5.625  1.00  0.00     0.020 A 
ATOM     79  C   UNL     1      -8.887   2.326  -6.250  1.00  0.00     0.054 A 
BRANCH  79  80
ATOM     80  S   UNL     1      -8.419   2.512  -7.994  1.00  0.00     0.124 S 
ATOM     81  O   UNL     1      -9.713   2.711  -8.638  1.00  0.00    -0.237 OA
ATOM     82  O   UNL     1      -7.541   3.680  -7.962  1.00  0.00    -0.237 OA
ATOM     83  O   UNL     1      -7.751   1.250  -8.305  1.00  0.00    -0.744 OA
ENDBRANCH  79  80
ENDBRANCH  51  74
BRANCH  63  84
ATOM     84  C   UNL     1     -15.164   2.693   0.515  1.00  0.00    -0.014 A 
ATOM     85  C   UNL     1     -16.015   1.804  -0.165  1.00  0.00     0.010 A 
ATOM     86  C   UNL     1     -15.669   3.931   0.953  1.00  0.00     0.010 A 
ATOM     87  C   UNL     1     -17.335   2.168  -0.442  1.00  0.00     0.020 A 
ATOM     88  C   UNL     1     -16.996   4.285   0.703  1.00  0.00     0.020 A 
ATOM     89  C   UNL     1     -17.815   3.409  -0.012  1.00  0.00     0.054 A 
BRANCH  89  90
ATOM     90  S   UNL     1     -19.537   3.853  -0.368  1.00  0.00     0.124 S 
ATOM     91  O   UNL     1     -19.475   4.185  -1.789  1.00  0.00    -0.237 OA
ATOM     92  O   UNL     1     -20.261   2.628  -0.039  1.00  0.00    -0.237 OA
ATOM     93  O   UNL     1     -19.795   4.981   0.525  1.00  0.00    -0.744 OA
ENDBRANCH  89  90
ENDBRANCH  63  84
ENDBRANCH  37  38
ENDBRANCH  29  32
ENDBRANCH  27  28
ENDBRANCH  26  27
ENDBRANCH   1  26
TORSDOF 17
