REMARK SMILES C[C@@H](Oc1cncc(C(=O)NCCCCNC(=O)c2ccc(-c3c4nc(c(-c5ccc(S(=O)(=O)[O-])cc5)c5ccc([nH]5)c(-c5ccc(S(=O)(=O)[O-])cc5)c5nc(c(-c6ccc(S(=O)(=O)[O-])cc6)c6ccc3[nH]6)C=C5)C=C4)cc2)n1)C(F)(F)F
REMARK SMILES IDX 13 1 12 2 11 3 9 4 10 5 8 7 4 8 5 9 79 10 6 11 7 12 3 13
REMARK SMILES IDX 2 14 1 15 80 16 81 17 82 18 83 19 14 20 15 21 16 22 17 23
REMARK SMILES IDX 18 25 19 26 20 27 78 28 21 29 77 30 22 31 23 32 24 33 71 34
REMARK SMILES IDX 25 35 76 36 70 37 72 38 26 39 75 40 69 41 68 42 27 44 57 45
REMARK SMILES IDX 38 46 56 47 39 48 42 49 55 50 73 51 40 52 41 53 54 55 74 56
REMARK SMILES IDX 43 57 28 58 29 59 37 60 30 61 36 62 31 63 32 64 33 65 34 66
REMARK SMILES IDX 35 67 58 68 59 69 67 70 60 71 66 72 61 73 62 74 63 75 64 76
REMARK SMILES IDX 65 77 44 78 45 79 53 80 46 81 52 82 47 83 48 84 49 85 50 86
REMARK SMILES IDX 51 87
REMARK H PARENT 11 6 16 24 72 43 42 54
REMARK Flexibility Score: inf
ROOT
ATOM      1  C   UNL     1       2.042   6.827   0.362  1.00  0.00     0.023 C 
ENDROOT
BRANCH   1   2
ATOM      2  C   UNL     1       2.416   6.238  -0.997  1.00  0.00     0.116 C 
BRANCH   2   3
ATOM      3  N   UNL     1       3.856   6.123  -1.131  1.00  0.00    -0.351 N 
ATOM      4  C   UNL     1       4.697   5.038  -1.094  1.00  0.00     0.271 C 
ATOM      5  O   UNL     1       5.908   5.260  -1.171  1.00  0.00    -0.267 OA
ATOM      6  H   UNL     1       4.316   6.982  -1.275  1.00  0.00     0.163 HD
BRANCH   4   7
ATOM      7  C   UNL     1       4.231   3.621  -1.012  1.00  0.00     0.150 A 
ATOM      8  C   UNL     1       2.603   2.014  -0.949  1.00  0.00     0.233 A 
ATOM      9  C   UNL     1       3.558   1.030  -1.175  1.00  0.00     0.179 A 
ATOM     10  N   UNL     1       2.913   3.323  -0.860  1.00  0.00    -0.205 NA
ATOM     11  N   UNL     1       4.878   1.303  -1.259  1.00  0.00    -0.257 NA
ATOM     12  C   UNL     1       5.190   2.623  -1.186  1.00  0.00     0.145 A 
BRANCH   8  13
ATOM     13  O   UNL     1       1.270   1.705  -1.011  1.00  0.00    -0.464 OA
BRANCH  13  14
ATOM     14  C   UNL     1       0.739   1.286   0.262  1.00  0.00     0.277 C 
ATOM     15  C   UNL     1       0.877  -0.234   0.381  1.00  0.00     0.063 C 
BRANCH  14  16
ATOM     16  C   UNL     1      -0.743   1.667   0.336  1.00  0.00     0.425 C 
ATOM     17  F   UNL     1      -1.297   1.220   1.490  1.00  0.00    -0.167 F 
ATOM     18  F   UNL     1      -0.920   3.006   0.303  1.00  0.00    -0.167 F 
ATOM     19  F   UNL     1      -1.452   1.127  -0.682  1.00  0.00    -0.167 F 
ENDBRANCH  14  16
ENDBRANCH  13  14
ENDBRANCH   8  13
ENDBRANCH   4   7
ENDBRANCH   2   3
ENDBRANCH   1   2
BRANCH   1  20
ATOM     20  C   UNL     1       2.405   8.307   0.530  1.00  0.00     0.023 C 
BRANCH  20  21
ATOM     21  C   UNL     1       1.813   9.252  -0.514  1.00  0.00     0.116 C 
BRANCH  21  22
ATOM     22  N   UNL     1       0.363   9.174  -0.597  1.00  0.00    -0.352 N 
ATOM     23  C   UNL     1      -0.549  10.191  -0.742  1.00  0.00     0.251 C 
ATOM     24  H   UNL     1      -0.017   8.267  -0.541  1.00  0.00     0.163 HD
ATOM     25  O   UNL     1      -1.752   9.953  -0.671  1.00  0.00    -0.269 OA
BRANCH  23  26
ATOM     26  C   UNL     1      -0.075  11.575  -0.950  1.00  0.00     0.039 A 
ATOM     27  C   UNL     1      -0.622  12.598  -0.171  1.00  0.00     0.014 A 
ATOM     28  C   UNL     1       0.915  11.860  -1.895  1.00  0.00     0.014 A 
ATOM     29  C   UNL     1      -0.126  13.898  -0.291  1.00  0.00     0.010 A 
ATOM     30  C   UNL     1       1.452  13.143  -1.966  1.00  0.00     0.010 A 
ATOM     31  C   UNL     1       0.940  14.174  -1.164  1.00  0.00    -0.014 A 
BRANCH  31  32
ATOM     32  C   UNL     1       1.539  15.530  -1.242  1.00  0.00     0.031 A 
ATOM     33  C   UNL     1       1.452  16.324  -2.517  1.00  0.00     0.074 A 
ATOM     34  C   UNL     1       2.221  16.020  -0.187  1.00  0.00     0.049 A 
ATOM     35  N   UNL     1       1.970  17.493  -2.797  1.00  0.00    -0.248 NA
ATOM     36  C   UNL     1       0.708  15.714  -3.631  1.00  0.00     0.031 C 
ATOM     37  C   UNL     1       2.412  15.331   1.093  1.00  0.00     0.029 A 
ATOM     38  N   UNL     1       2.887  17.209  -0.025  1.00  0.00    -0.354 N 
ATOM     39  C   UNL     1       1.630  17.750  -4.120  1.00  0.00     0.074 A 
ATOM     40  C   UNL     1       0.902  16.596  -4.601  1.00  0.00     0.031 C 
ATOM     41  C   UNL     1       3.126  16.119   1.913  1.00  0.00     0.029 A 
ATOM     42  C   UNL     1       3.476  17.349   1.210  1.00  0.00     0.049 A 
ATOM     43  H   UNL     1       2.939  17.897  -0.727  1.00  0.00     0.167 HD
ATOM     44  C   UNL     1       1.885  18.854  -4.863  1.00  0.00     0.031 A 
ATOM     45  C   UNL     1       4.221  18.350   1.718  1.00  0.00     0.031 A 
ATOM     46  C   UNL     1       2.598  20.006  -4.378  1.00  0.00     0.049 A 
ATOM     47  C   UNL     1       4.493  19.564   0.873  1.00  0.00     0.074 A 
ATOM     48  C   UNL     1       2.858  21.195  -5.036  1.00  0.00     0.029 A 
ATOM     49  N   UNL     1       3.164  20.114  -3.117  1.00  0.00    -0.354 N 
ATOM     50  N   UNL     1       4.109  19.814  -0.356  1.00  0.00    -0.248 NA
ATOM     51  C   UNL     1       5.290  20.635   1.487  1.00  0.00     0.031 C 
ATOM     52  C   UNL     1       3.622  22.005  -4.189  1.00  0.00     0.029 A 
ATOM     53  C   UNL     1       3.791  21.341  -2.984  1.00  0.00     0.049 A 
ATOM     54  H   UNL     1       3.127  19.420  -2.420  1.00  0.00     0.167 HD
ATOM     55  C   UNL     1       4.596  21.083  -0.653  1.00  0.00     0.074 A 
ATOM     56  C   UNL     1       5.289  21.552   0.529  1.00  0.00     0.031 C 
ATOM     57  C   UNL     1       4.477  21.795  -1.801  1.00  0.00     0.031 A 
BRANCH  44  58
ATOM     58  C   UNL     1       1.389  18.864  -6.285  1.00  0.00    -0.014 A 
ATOM     59  C   UNL     1       0.015  18.958  -6.573  1.00  0.00     0.010 A 
ATOM     60  C   UNL     1       2.309  18.817  -7.348  1.00  0.00     0.010 A 
ATOM     61  C   UNL     1      -0.431  18.961  -7.897  1.00  0.00     0.020 A 
ATOM     62  C   UNL     1       1.868  18.847  -8.674  1.00  0.00     0.020 A 
ATOM     63  C   UNL     1       0.498  18.901  -8.939  1.00  0.00     0.054 A 
BRANCH  63  64
ATOM     64  S   UNL     1      -0.109  18.926 -10.648  1.00  0.00     0.124 S 
ATOM     65  O   UNL     1      -0.661  17.580 -10.791  1.00  0.00    -0.237 OA
ATOM     66  O   UNL     1      -1.091  20.007 -10.625  1.00  0.00    -0.237 OA
ATOM     67  O   UNL     1       1.090  19.194 -11.439  1.00  0.00    -0.744 OA
ENDBRANCH  63  64
ENDBRANCH  44  58
BRANCH  45  68
ATOM     68  C   UNL     1       4.750  18.253   3.106  1.00  0.00    -0.014 A 
ATOM     69  C   UNL     1       4.220  19.060   4.128  1.00  0.00     0.010 A 
ATOM     70  C   UNL     1       5.779  17.345   3.415  1.00  0.00     0.010 A 
ATOM     71  C   UNL     1       4.722  18.975   5.430  1.00  0.00     0.020 A 
ATOM     72  C   UNL     1       6.266  17.239   4.721  1.00  0.00     0.020 A 
ATOM     73  C   UNL     1       5.742  18.064   5.718  1.00  0.00     0.054 A 
BRANCH  73  74
ATOM     74  S   UNL     1       6.344  17.935   7.425  1.00  0.00     0.124 S 
ATOM     75  O   UNL     1       7.148  19.146   7.555  1.00  0.00    -0.237 OA
ATOM     76  O   UNL     1       5.104  17.911   8.197  1.00  0.00    -0.237 OA
ATOM     77  O   UNL     1       7.094  16.680   7.428  1.00  0.00    -0.744 OA
ENDBRANCH  73  74
ENDBRANCH  45  68
BRANCH  57  78
ATOM     78  C   UNL     1       5.082  23.173  -1.827  1.00  0.00    -0.014 A 
ATOM     79  C   UNL     1       6.475  23.357  -1.889  1.00  0.00     0.010 A 
ATOM     80  C   UNL     1       4.239  24.299  -1.844  1.00  0.00     0.010 A 
ATOM     81  C   UNL     1       7.014  24.645  -1.940  1.00  0.00     0.020 A 
ATOM     82  C   UNL     1       4.774  25.587  -1.921  1.00  0.00     0.020 A 
ATOM     83  C   UNL     1       6.160  25.752  -1.955  1.00  0.00     0.054 A 
BRANCH  83  84
ATOM     84  S   UNL     1       6.883  27.412  -2.067  1.00  0.00     0.124 S 
ATOM     85  O   UNL     1       7.404  27.608  -0.717  1.00  0.00    -0.237 OA
ATOM     86  O   UNL     1       7.891  27.254  -3.112  1.00  0.00    -0.237 OA
ATOM     87  O   UNL     1       5.749  28.260  -2.427  1.00  0.00    -0.744 OA
ENDBRANCH  83  84
ENDBRANCH  57  78
ENDBRANCH  31  32
ENDBRANCH  23  26
ENDBRANCH  21  22
ENDBRANCH  20  21
ENDBRANCH   1  20
TORSDOF 17
