REMARK SMILES CN1C(=O)C[C@@H](C(=O)NCCCCNC(=O)c2ccc(-c3c4nc(c(-c5ccc(S(=O)(=O)[O-])cc5)c5ccc([nH]5)c(-c5ccc(S(=O)(=O)[O-])cc5)c5nc(c(-c6ccc(S(=O)(=O)[O-])cc6)c6ccc3[nH]6)C=C5)C=C4)cc2)C12CCN(c1ccc(Cl)cn1)CC2
REMARK SMILES IDX 12 1 11 2 10 3 9 4 7 5 8 6 6 8 1 9 2 10 3 11 77 12 4 13 5 14
REMARK SMILES IDX 78 15 89 16 79 17 88 18 80 19 81 20 82 21 87 22 83 23 86 24
REMARK SMILES IDX 84 25 85 26 13 27 14 28 15 29 16 31 17 32 18 33 76 34 19 35
REMARK SMILES IDX 75 36 20 37 21 38 22 39 69 40 23 41 74 42 68 43 70 44 24 45
REMARK SMILES IDX 73 46 67 47 66 48 25 50 55 51 36 52 54 53 37 54 40 55 53 56
REMARK SMILES IDX 71 57 38 58 39 59 52 61 72 62 41 63 26 64 27 65 35 66 28 67
REMARK SMILES IDX 34 68 29 69 30 70 31 71 32 72 33 73 56 74 57 75 65 76 58 77
REMARK SMILES IDX 64 78 59 79 60 80 61 81 62 82 63 83 42 84 43 85 51 86 44 87
REMARK SMILES IDX 50 88 45 89 46 90 47 91 48 92 49 93
REMARK H PARENT 9 7 14 30 70 49 40 60
REMARK Flexibility Score: inf
ROOT
ATOM      1  C   UNL     1      -4.010  -0.972   0.397  1.00  0.00     0.023 C 
ENDROOT
BRANCH   1   2
ATOM      2  C   UNL     1      -2.584  -0.436   0.477  1.00  0.00     0.023 C 
BRANCH   2   3
ATOM      3  C   UNL     1      -2.299   0.427   1.709  1.00  0.00     0.116 C 
BRANCH   3   4
ATOM      4  N   UNL     1      -2.329  -0.311   2.960  1.00  0.00    -0.356 N 
ATOM      5  C   UNL     1      -1.376  -0.671   3.855  1.00  0.00     0.226 C 
ATOM      6  O   UNL     1      -1.775  -1.274   4.859  1.00  0.00    -0.275 OA
ATOM      7  H   UNL     1      -3.231  -0.613   3.211  1.00  0.00     0.163 HD
BRANCH   5   8
ATOM      8  C   UNL     1       0.127  -0.425   3.704  1.00  0.00     0.113 C 
ATOM      9  C   UNL     1       1.337  -0.177   0.173  1.00  0.00     0.147 C 
ATOM     10  N   UNL     1       0.981  -0.014   1.570  1.00  0.00    -0.339 N 
ATOM     11  C   UNL     1       0.914   1.236   2.171  1.00  0.00     0.223 C 
ATOM     12  C   UNL     1       0.865  -1.122   2.535  1.00  0.00     0.058 C 
ATOM     13  O   UNL     1       1.131   2.313   1.640  1.00  0.00    -0.275 OA
ATOM     14  C   UNL     1       0.486   1.057   3.602  1.00  0.00     0.116 C 
ATOM     15  C   UNL     1       0.124  -2.356   1.975  1.00  0.00     0.051 C 
ATOM     16  C   UNL     1       2.310  -1.539   2.971  1.00  0.00     0.051 C 
ATOM     17  C   UNL     1       0.201  -3.553   2.903  1.00  0.00     0.120 C 
ATOM     18  C   UNL     1       2.377  -2.841   3.789  1.00  0.00     0.120 C 
ATOM     19  N   UNL     1       1.608  -3.842   3.076  1.00  0.00    -0.356 N 
BRANCH  19  20
ATOM     20  C   UNL     1       2.040  -5.142   2.957  1.00  0.00     0.128 A 
ATOM     21  C   UNL     1       1.715  -5.872   1.807  1.00  0.00     0.048 A 
ATOM     22  N   UNL     1       2.782  -5.689   3.940  1.00  0.00    -0.238 NA
ATOM     23  C   UNL     1       2.123  -7.196   1.670  1.00  0.00     0.026 A 
ATOM     24  C   UNL     1       3.144  -6.991   3.803  1.00  0.00     0.134 A 
ATOM     25  C   UNL     1       2.843  -7.774   2.700  1.00  0.00     0.059 A 
ATOM     26  Cl  UNL     1       3.351  -9.408   2.601  1.00  0.00    -0.083 Cl
ENDBRANCH  19  20
ENDBRANCH   5   8
ENDBRANCH   3   4
ENDBRANCH   2   3
ENDBRANCH   1   2
BRANCH   1  27
ATOM     27  C   UNL     1      -5.073   0.114   0.338  1.00  0.00     0.116 C 
BRANCH  27  28
ATOM     28  N   UNL     1      -4.829   1.079  -0.727  1.00  0.00    -0.352 N 
ATOM     29  C   UNL     1      -5.721   1.607  -1.625  1.00  0.00     0.251 C 
ATOM     30  H   UNL     1      -3.900   1.393  -0.814  1.00  0.00     0.163 HD
ATOM     31  O   UNL     1      -5.331   2.289  -2.567  1.00  0.00    -0.269 OA
BRANCH  29  32
ATOM     32  C   UNL     1      -7.153   1.314  -1.445  1.00  0.00     0.039 A 
ATOM     33  C   UNL     1      -7.892   0.837  -2.528  1.00  0.00     0.014 A 
ATOM     34  C   UNL     1      -7.734   1.447  -0.181  1.00  0.00     0.014 A 
ATOM     35  C   UNL     1      -9.209   0.429  -2.325  1.00  0.00     0.010 A 
ATOM     36  C   UNL     1      -9.012   0.957   0.036  1.00  0.00     0.010 A 
ATOM     37  C   UNL     1      -9.765   0.452  -1.034  1.00  0.00    -0.014 A 
BRANCH  37  38
ATOM     38  C   UNL     1     -11.142  -0.026  -0.776  1.00  0.00     0.031 A 
ATOM     39  C   UNL     1     -12.178   0.938  -0.270  1.00  0.00     0.074 A 
ATOM     40  C   UNL     1     -11.435  -1.332  -0.925  1.00  0.00     0.049 A 
ATOM     41  N   UNL     1     -13.415   0.707   0.087  1.00  0.00    -0.248 NA
ATOM     42  C   UNL     1     -11.758   2.341  -0.111  1.00  0.00     0.031 C 
ATOM     43  C   UNL     1     -10.499  -2.369  -1.367  1.00  0.00     0.029 A 
ATOM     44  N   UNL     1     -12.607  -2.012  -0.717  1.00  0.00    -0.354 N 
ATOM     45  C   UNL     1     -13.909   1.926   0.535  1.00  0.00     0.074 A 
ATOM     46  C   UNL     1     -12.824   2.879   0.460  1.00  0.00     0.031 C 
ATOM     47  C   UNL     1     -11.145  -3.545  -1.436  1.00  0.00     0.029 A 
ATOM     48  C   UNL     1     -12.526  -3.353  -1.006  1.00  0.00     0.049 A 
ATOM     49  H   UNL     1     -13.430  -1.580  -0.392  1.00  0.00     0.167 HD
ATOM     50  C   UNL     1     -15.161   2.232   0.949  1.00  0.00     0.031 A 
ATOM     51  C   UNL     1     -13.463  -4.318  -0.935  1.00  0.00     0.031 A 
ATOM     52  C   UNL     1     -16.240   1.285   0.999  1.00  0.00     0.049 A 
ATOM     53  C   UNL     1     -14.848  -3.955  -0.477  1.00  0.00     0.074 A 
ATOM     54  C   UNL     1     -17.562   1.500   1.345  1.00  0.00     0.029 A 
ATOM     55  N   UNL     1     -16.120  -0.062   0.688  1.00  0.00    -0.354 N 
ATOM     56  N   UNL     1     -15.315  -2.784  -0.113  1.00  0.00    -0.248 NA
ATOM     57  C   UNL     1     -15.835  -5.042  -0.431  1.00  0.00     0.031 C 
ATOM     58  C   UNL     1     -18.233   0.274   1.281  1.00  0.00     0.029 A 
ATOM     59  C   UNL     1     -17.340  -0.695   0.849  1.00  0.00     0.049 A 
ATOM     60  H   UNL     1     -15.290  -0.502   0.395  1.00  0.00     0.167 HD
ATOM     61  C   UNL     1     -16.658  -2.987   0.179  1.00  0.00     0.074 A 
ATOM     62  C   UNL     1     -16.930  -4.391  -0.061  1.00  0.00     0.031 C 
ATOM     63  C   UNL     1     -17.586  -2.093   0.603  1.00  0.00     0.031 A 
BRANCH  50  64
ATOM     64  C   UNL     1     -15.414   3.652   1.379  1.00  0.00    -0.014 A 
ATOM     65  C   UNL     1     -15.406   4.706   0.445  1.00  0.00     0.010 A 
ATOM     66  C   UNL     1     -15.654   3.942   2.734  1.00  0.00     0.010 A 
ATOM     67  C   UNL     1     -15.572   6.027   0.867  1.00  0.00     0.020 A 
ATOM     68  C   UNL     1     -15.851   5.260   3.155  1.00  0.00     0.020 A 
ATOM     69  C   UNL     1     -15.784   6.296   2.221  1.00  0.00     0.054 A 
BRANCH  69  70
ATOM     70  S   UNL     1     -15.988   8.021   2.745  1.00  0.00     0.124 S 
ATOM     71  O   UNL     1     -14.613   8.513   2.695  1.00  0.00    -0.237 OA
ATOM     72  O   UNL     1     -16.885   8.563   1.728  1.00  0.00    -0.237 OA
ATOM     73  O   UNL     1     -16.562   7.910   4.083  1.00  0.00    -0.744 OA
ENDBRANCH  69  70
ENDBRANCH  50  64
BRANCH  51  74
ATOM     74  C   UNL     1     -13.131  -5.708  -1.349  1.00  0.00    -0.014 A 
ATOM     75  C   UNL     1     -13.637  -6.223  -2.556  1.00  0.00     0.010 A 
ATOM     76  C   UNL     1     -12.294  -6.514  -0.557  1.00  0.00     0.010 A 
ATOM     77  C   UNL     1     -13.323  -7.524  -2.958  1.00  0.00     0.020 A 
ATOM     78  C   UNL     1     -11.959  -7.808  -0.968  1.00  0.00     0.020 A 
ATOM     79  C   UNL     1     -12.484  -8.308  -2.162  1.00  0.00     0.054 A 
BRANCH  79  80
ATOM     80  S   UNL     1     -12.043  -9.973  -2.733  1.00  0.00     0.124 S 
ATOM     81  O   UNL     1     -13.271 -10.718  -2.474  1.00  0.00    -0.237 OA
ATOM     82  O   UNL     1     -11.722  -9.750  -4.140  1.00  0.00    -0.237 OA
ATOM     83  O   UNL     1     -10.903 -10.331  -1.892  1.00  0.00    -0.744 OA
ENDBRANCH  79  80
ENDBRANCH  51  74
BRANCH  63  84
ATOM     84  C   UNL     1     -18.988  -2.599   0.801  1.00  0.00    -0.014 A 
ATOM     85  C   UNL     1     -19.322  -3.402   1.905  1.00  0.00     0.010 A 
ATOM     86  C   UNL     1     -19.995  -2.214  -0.102  1.00  0.00     0.010 A 
ATOM     87  C   UNL     1     -20.637  -3.837   2.086  1.00  0.00     0.020 A 
ATOM     88  C   UNL     1     -21.316  -2.626   0.090  1.00  0.00     0.020 A 
ATOM     89  C   UNL     1     -21.625  -3.447   1.177  1.00  0.00     0.054 A 
BRANCH  89  90
ATOM     90  S   UNL     1     -23.334  -3.984   1.459  1.00  0.00     0.124 S 
ATOM     91  O   UNL     1     -23.285  -5.383   1.043  1.00  0.00    -0.237 OA
ATOM     92  O   UNL     1     -23.510  -3.760   2.892  1.00  0.00    -0.237 OA
ATOM     93  O   UNL     1     -24.120  -3.104   0.597  1.00  0.00    -0.744 OA
ENDBRANCH  89  90
ENDBRANCH  63  84
ENDBRANCH  37  38
ENDBRANCH  29  32
ENDBRANCH  27  28
ENDBRANCH   1  27
TORSDOF 15
