REMARK SMILES CC[C@@H](Sc1nnc2ccc3ccccc3n12)C(=O)Nc1cccc(C(=O)NCCCCNC(=O)c2ccc(-c3c4nc(c(-c5ccc(S(=O)(=O)[O-])cc5)c5ccc([nH]5)c(-c5ccc(S(=O)(=O)[O-])cc5)c5nc(c(-c6ccc(S(=O)(=O)[O-])cc6)c6ccc3[nH]6)C=C5)C=C4)cc2)c1
REMARK SMILES IDX 30 1 29 2 28 3 26 4 27 5 25 7 21 8 22 9 96 10 23 11 24 12
REMARK SMILES IDX 20 13 18 14 19 15 3 17 2 18 1 19 4 20 5 21 6 22 17 23 7 24
REMARK SMILES IDX 8 25 16 26 9 27 11 28 15 29 10 30 12 31 14 32 13 33 31 34
REMARK SMILES IDX 32 35 33 36 34 37 35 39 36 40 37 41 95 42 38 43 94 44 39 45
REMARK SMILES IDX 40 46 41 47 88 48 42 49 93 50 87 51 89 52 43 53 92 54 86 55
REMARK SMILES IDX 85 56 44 58 74 59 55 60 73 61 56 62 59 63 72 64 90 65 57 66
REMARK SMILES IDX 58 67 71 69 91 70 60 71 45 72 46 73 54 74 47 75 53 76 48 77
REMARK SMILES IDX 49 78 50 79 51 80 52 81 75 82 76 83 84 84 77 85 83 86 78 87
REMARK SMILES IDX 79 88 80 89 81 90 82 91 61 92 62 93 70 94 63 95 69 96 64 97
REMARK SMILES IDX 65 98 66 99 67 100 68 101
REMARK H PARENT 28 6 20 16 33 38 89 57 59 68
REMARK Flexibility Score: inf
ROOT
ATOM      1  C   UNL     1      -3.323  -6.142  -3.940  1.00  0.00     0.023 C 
ENDROOT
BRANCH   1   2
ATOM      2  C   UNL     1      -3.707  -4.701  -3.663  1.00  0.00     0.116 C 
BRANCH   2   3
ATOM      3  N   UNL     1      -4.625  -4.503  -2.560  1.00  0.00    -0.352 N 
ATOM      4  C   UNL     1      -4.818  -3.440  -1.702  1.00  0.00     0.251 C 
ATOM      5  O   UNL     1      -5.729  -3.524  -0.892  1.00  0.00    -0.269 OA
ATOM      6  H   UNL     1      -5.221  -5.268  -2.392  1.00  0.00     0.163 HD
BRANCH   4   7
ATOM      7  C   UNL     1      -3.944  -2.226  -1.682  1.00  0.00     0.041 A 
ATOM      8  C   UNL     1      -2.107  -0.878  -2.490  1.00  0.00     0.041 A 
ATOM      9  C   UNL     1      -2.250  -0.024  -1.405  1.00  0.00     0.026 A 
ATOM     10  C   UNL     1      -3.080  -1.849  -2.710  1.00  0.00     0.040 A 
ATOM     11  C   UNL     1      -3.178  -0.304  -0.410  1.00  0.00     0.003 A 
ATOM     12  C   UNL     1      -3.975  -1.441  -0.517  1.00  0.00     0.014 A 
BRANCH   8  13
ATOM     13  N   UNL     1      -1.014  -0.864  -3.373  1.00  0.00    -0.325 N 
ATOM     14  C   UNL     1       0.311  -1.147  -3.111  1.00  0.00     0.237 C 
ATOM     15  O   UNL     1       1.021  -1.348  -4.108  1.00  0.00    -0.273 OA
ATOM     16  H   UNL     1      -1.221  -0.620  -4.303  1.00  0.00     0.169 HD
BRANCH  14  17
ATOM     17  C   UNL     1       0.961  -1.188  -1.700  1.00  0.00     0.144 C 
BRANCH  17  18
ATOM     18  C   UNL     1       1.072   0.281  -1.238  1.00  0.00     0.021 C 
ATOM     19  C   UNL     1       1.580   0.636   0.139  1.00  0.00     0.005 C 
ENDBRANCH  17  18
BRANCH  17  20
ATOM     20  S   UNL     1       0.231  -2.605  -0.737  1.00  0.00    -0.072 SA
BRANCH  20  21
ATOM     21  C   UNL     1       1.326  -2.853   0.593  1.00  0.00     0.196 A 
ATOM     22  N   UNL     1       1.965  -1.848   1.143  1.00  0.00    -0.122 NA
ATOM     23  N   UNL     1       1.499  -3.983   1.387  1.00  0.00    -0.270 N 
ATOM     24  N   UNL     1       2.388  -2.206   2.383  1.00  0.00    -0.129 NA
ATOM     25  C   UNL     1       2.073  -3.468   2.553  1.00  0.00     0.161 A 
ATOM     26  C   UNL     1       1.294  -5.384   1.218  1.00  0.00     0.057 A 
ATOM     27  C   UNL     1       2.272  -4.292   3.681  1.00  0.00     0.050 A 
ATOM     28  C   UNL     1       1.621  -6.204   2.330  1.00  0.00    -0.001 A 
ATOM     29  C   UNL     1       0.911  -5.977   0.016  1.00  0.00     0.027 A 
ATOM     30  C   UNL     1       2.057  -5.609   3.598  1.00  0.00     0.014 A 
ATOM     31  C   UNL     1       1.568  -7.598   2.222  1.00  0.00     0.010 A 
ATOM     32  C   UNL     1       0.870  -7.377  -0.076  1.00  0.00     0.002 A 
ATOM     33  C   UNL     1       1.201  -8.183   1.015  1.00  0.00     0.001 A 
ENDBRANCH  20  21
ENDBRANCH  17  20
ENDBRANCH  14  17
ENDBRANCH   8  13
ENDBRANCH   4   7
ENDBRANCH   2   3
ENDBRANCH   1   2
BRANCH   1  34
ATOM     34  C   UNL     1      -4.452  -7.124  -4.215  1.00  0.00     0.023 C 
BRANCH  34  35
ATOM     35  C   UNL     1      -5.489  -6.710  -5.261  1.00  0.00     0.116 C 
BRANCH  35  36
ATOM     36  N   UNL     1      -4.963  -6.220  -6.521  1.00  0.00    -0.352 N 
ATOM     37  C   UNL     1      -4.623  -6.801  -7.713  1.00  0.00     0.251 C 
ATOM     38  H   UNL     1      -4.816  -5.247  -6.518  1.00  0.00     0.163 HD
ATOM     39  O   UNL     1      -4.475  -6.028  -8.664  1.00  0.00    -0.269 OA
BRANCH  37  40
ATOM     40  C   UNL     1      -4.349  -8.250  -7.918  1.00  0.00     0.039 A 
ATOM     41  C   UNL     1      -4.466  -9.233  -6.941  1.00  0.00     0.014 A 
ATOM     42  C   UNL     1      -3.836  -8.620  -9.178  1.00  0.00     0.014 A 
ATOM     43  C   UNL     1      -3.946 -10.505  -7.155  1.00  0.00     0.010 A 
ATOM     44  C   UNL     1      -3.351  -9.905  -9.414  1.00  0.00     0.010 A 
ATOM     45  C   UNL     1      -3.350 -10.830  -8.377  1.00  0.00    -0.014 A 
BRANCH  45  46
ATOM     46  C   UNL     1      -2.788 -12.172  -8.506  1.00  0.00     0.031 A 
ATOM     47  C   UNL     1      -3.740 -13.296  -8.283  1.00  0.00     0.074 A 
ATOM     48  C   UNL     1      -1.507 -12.437  -8.825  1.00  0.00     0.049 A 
ATOM     49  N   UNL     1      -3.743 -14.153  -7.315  1.00  0.00    -0.248 NA
ATOM     50  C   UNL     1      -4.881 -13.418  -9.199  1.00  0.00     0.031 C 
ATOM     51  C   UNL     1      -0.479 -11.531  -9.341  1.00  0.00     0.029 A 
ATOM     52  N   UNL     1      -0.881 -13.647  -8.825  1.00  0.00    -0.354 N 
ATOM     53  C   UNL     1      -4.804 -15.021  -7.563  1.00  0.00     0.074 A 
ATOM     54  C   UNL     1      -5.530 -14.460  -8.676  1.00  0.00     0.031 C 
ATOM     55  C   UNL     1       0.556 -12.262  -9.819  1.00  0.00     0.029 A 
ATOM     56  C   UNL     1       0.332 -13.661  -9.495  1.00  0.00     0.049 A 
ATOM     57  H   UNL     1      -1.258 -14.444  -8.387  1.00  0.00     0.167 HD
ATOM     58  C   UNL     1      -4.942 -16.215  -6.919  1.00  0.00     0.031 A 
ATOM     59  C   UNL     1       1.062 -14.758  -9.814  1.00  0.00     0.031 A 
ATOM     60  C   UNL     1      -4.103 -16.301  -5.755  1.00  0.00     0.049 A 
ATOM     61  C   UNL     1       0.662 -15.844  -8.885  1.00  0.00     0.074 A 
ATOM     62  C   UNL     1      -4.034 -15.613  -4.561  1.00  0.00     0.029 A 
ATOM     63  N   UNL     1      -2.917 -16.987  -5.864  1.00  0.00    -0.354 N 
ATOM     64  N   UNL     1       0.913 -15.831  -7.606  1.00  0.00    -0.248 NA
ATOM     65  C   UNL     1      -0.381 -16.766  -9.307  1.00  0.00     0.031 C 
ATOM     66  C   UNL     1      -2.643 -15.526  -4.268  1.00  0.00     0.029 A 
ATOM     67  C   UNL     1      -1.952 -16.214  -5.269  1.00  0.00     0.049 A 
ATOM     68  H   UNL     1      -2.785 -17.865  -6.289  1.00  0.00     0.167 HD
ATOM     69  C   UNL     1      -0.203 -16.409  -7.018  1.00  0.00     0.074 A 
ATOM     70  C   UNL     1      -0.918 -17.052  -8.119  1.00  0.00     0.031 C 
ATOM     71  C   UNL     1      -0.587 -16.093  -5.746  1.00  0.00     0.031 A 
BRANCH  58  72
ATOM     72  C   UNL     1      -5.652 -17.418  -7.482  1.00  0.00    -0.014 A 
ATOM     73  C   UNL     1      -5.953 -17.554  -8.852  1.00  0.00     0.010 A 
ATOM     74  C   UNL     1      -5.823 -18.562  -6.674  1.00  0.00     0.010 A 
ATOM     75  C   UNL     1      -6.412 -18.758  -9.392  1.00  0.00     0.020 A 
ATOM     76  C   UNL     1      -6.242 -19.787  -7.214  1.00  0.00     0.020 A 
ATOM     77  C   UNL     1      -6.537 -19.874  -8.572  1.00  0.00     0.054 A 
BRANCH  77  78
ATOM     78  S   UNL     1      -7.005 -21.446  -9.337  1.00  0.00     0.124 S 
ATOM     79  O   UNL     1      -8.395 -21.197  -9.710  1.00  0.00    -0.237 OA
ATOM     80  O   UNL     1      -6.062 -21.545 -10.448  1.00  0.00    -0.237 OA
ATOM     81  O   UNL     1      -6.809 -22.421  -8.267  1.00  0.00    -0.744 OA
ENDBRANCH  77  78
ENDBRANCH  58  72
BRANCH  59  82
ATOM     82  C   UNL     1       1.701 -15.036 -11.126  1.00  0.00    -0.014 A 
ATOM     83  C   UNL     1       1.206 -14.416 -12.291  1.00  0.00     0.010 A 
ATOM     84  C   UNL     1       2.569 -16.133 -11.280  1.00  0.00     0.010 A 
ATOM     85  C   UNL     1       1.494 -14.923 -13.562  1.00  0.00     0.020 A 
ATOM     86  C   UNL     1       2.860 -16.649 -12.554  1.00  0.00     0.020 A 
ATOM     87  C   UNL     1       2.286 -16.062 -13.683  1.00  0.00     0.054 A 
BRANCH  87  88
ATOM     88  S   UNL     1       2.461 -16.810 -15.328  1.00  0.00     0.124 S 
ATOM     89  O   UNL     1       1.105 -17.282 -15.592  1.00  0.00    -0.237 OA
ATOM     90  O   UNL     1       2.901 -15.680 -16.143  1.00  0.00    -0.237 OA
ATOM     91  O   UNL     1       3.460 -17.857 -15.129  1.00  0.00    -0.744 OA
ENDBRANCH  87  88
ENDBRANCH  59  82
BRANCH  71  92
ATOM     92  C   UNL     1       0.353 -15.302  -4.857  1.00  0.00    -0.014 A 
ATOM     93  C   UNL     1       0.552 -15.766  -3.542  1.00  0.00     0.010 A 
ATOM     94  C   UNL     1       0.866 -14.035  -5.199  1.00  0.00     0.010 A 
ATOM     95  C   UNL     1       1.199 -14.978  -2.586  1.00  0.00     0.020 A 
ATOM     96  C   UNL     1       1.543 -13.250  -4.251  1.00  0.00     0.020 A 
ATOM     97  C   UNL     1       1.677 -13.716  -2.941  1.00  0.00     0.054 A 
BRANCH  97  98
ATOM     98  S   UNL     1       2.453 -12.696  -1.656  1.00  0.00     0.124 S 
ATOM     99  O   UNL     1       1.308 -12.286  -0.844  1.00  0.00    -0.237 OA
ATOM    100  O   UNL     1       3.371 -13.631  -1.008  1.00  0.00    -0.237 OA
ATOM    101  O   UNL     1       3.096 -11.615  -2.399  1.00  0.00    -0.744 OA
ENDBRANCH  97  98
ENDBRANCH  71  92
ENDBRANCH  45  46
ENDBRANCH  37  40
ENDBRANCH  35  36
ENDBRANCH  34  35
ENDBRANCH   1  34
TORSDOF 19
