REMARK SMILES Cc1ccc(Cl)cc1NC(=O)N[C@@](C)(C(=O)NCCCCNC(=O)c1ccc(-c2c3nc(c(-c4ccc(S(=O)(=O)[O-])cc4)c4ccc([nH]4)c(-c4ccc(S(=O)(=O)[O-])cc4)c4nc(c(-c5ccc(S(=O)(=O)[O-])cc5)c5ccc2[nH]5)C=C4)C=C3)cc1)C(F)(F)F
REMARK SMILES IDX 20 1 19 2 18 3 17 4 15 5 16 6 13 8 14 9 12 10 9 11 10 12
REMARK SMILES IDX 11 14 8 16 1 17 2 18 3 19 4 20 7 21 5 22 6 23 85 24 86 25
REMARK SMILES IDX 87 26 88 27 21 28 22 29 23 30 24 32 25 33 26 34 84 35 27 36
REMARK SMILES IDX 83 37 28 38 29 39 30 40 77 41 31 42 82 43 76 44 78 45 32 46
REMARK SMILES IDX 81 47 75 48 74 49 33 51 63 52 44 53 62 54 45 55 48 56 61 57
REMARK SMILES IDX 79 58 46 59 47 60 60 62 80 63 49 64 34 65 35 66 43 67 36 68
REMARK SMILES IDX 42 69 37 70 38 71 39 72 40 73 41 74 64 75 65 76 73 77 66 78
REMARK SMILES IDX 72 79 67 80 68 81 69 82 70 83 71 84 50 85 51 86 59 87 52 88
REMARK SMILES IDX 58 89 53 90 54 91 55 92 56 93 57 94
REMARK H PARENT 17 7 9 13 12 15 22 31 78 50 48 61
REMARK Flexibility Score: inf
ROOT
ATOM      1  C   UNL     1      -3.652   6.561  -2.255  1.00  0.00     0.023 C 
ENDROOT
BRANCH   1   2
ATOM      2  C   UNL     1      -2.700   6.388  -1.061  1.00  0.00     0.023 C 
BRANCH   2   3
ATOM      3  C   UNL     1      -2.928   5.126  -0.224  1.00  0.00     0.116 C 
BRANCH   3   4
ATOM      4  N   UNL     1      -2.995   3.957  -1.075  1.00  0.00    -0.354 N 
ATOM      5  C   UNL     1      -1.896   3.312  -1.569  1.00  0.00     0.255 C 
ATOM      6  O   UNL     1      -1.690   3.472  -2.771  1.00  0.00    -0.272 OA
ATOM      7  H   UNL     1      -3.884   3.607  -1.312  1.00  0.00     0.163 HD
BRANCH   5   8
ATOM      8  C   UNL     1      -0.988   2.466  -0.619  1.00  0.00     0.213 C 
ATOM      9  C   UNL     1      -1.883   1.923   0.511  1.00  0.00     0.056 C 
BRANCH   8  10
ATOM     10  N   UNL     1       0.103   3.302  -0.015  1.00  0.00    -0.316 N 
ATOM     11  N   UNL     1       1.871   1.982   0.977  1.00  0.00    -0.308 N 
ATOM     12  C   UNL     1       1.245   3.132   0.665  1.00  0.00     0.320 C 
ATOM     13  H   UNL     1       2.804   2.143   1.248  1.00  0.00     0.171 HD
ATOM     14  O   UNL     1       1.854   4.175   0.940  1.00  0.00    -0.248 OA
ATOM     15  H   UNL     1      -0.072   4.259  -0.163  1.00  0.00     0.166 HD
BRANCH  11  16
ATOM     16  C   UNL     1       1.554   0.617   1.022  1.00  0.00     0.047 A 
ATOM     17  C   UNL     1       3.842  -0.012   0.023  1.00  0.00     0.046 C 
ATOM     18  C   UNL     1       2.438  -0.330   0.462  1.00  0.00    -0.027 A 
ATOM     19  C   UNL     1       1.994  -1.656   0.280  1.00  0.00     0.007 A 
ATOM     20  C   UNL     1       0.725  -2.050   0.698  1.00  0.00     0.021 A 
ATOM     21  C   UNL     1       0.381   0.158   1.616  1.00  0.00     0.047 A 
ATOM     22  C   UNL     1      -0.055  -1.153   1.413  1.00  0.00     0.043 A 
ATOM     23  Cl  UNL     1      -1.597  -1.644   2.001  1.00  0.00    -0.084 Cl
ENDBRANCH  11  16
ENDBRANCH   8  10
BRANCH   8  24
ATOM     24  C   UNL     1      -0.520   1.392  -1.643  1.00  0.00     0.420 C 
ATOM     25  F   UNL     1       0.270   1.907  -2.615  1.00  0.00    -0.168 F 
ATOM     26  F   UNL     1       0.190   0.394  -1.099  1.00  0.00    -0.168 F 
ATOM     27  F   UNL     1      -1.578   0.781  -2.235  1.00  0.00    -0.168 F 
ENDBRANCH   8  24
ENDBRANCH   5   8
ENDBRANCH   3   4
ENDBRANCH   2   3
ENDBRANCH   1   2
BRANCH   1  28
ATOM     28  C   UNL     1      -5.135   6.370  -1.956  1.00  0.00     0.116 C 
BRANCH  28  29
ATOM     29  N   UNL     1      -5.610   7.239  -0.895  1.00  0.00    -0.352 N 
ATOM     30  C   UNL     1      -6.719   8.052  -0.881  1.00  0.00     0.251 C 
ATOM     31  H   UNL     1      -5.064   7.247  -0.076  1.00  0.00     0.163 HD
ATOM     32  O   UNL     1      -6.906   8.822   0.046  1.00  0.00    -0.269 OA
BRANCH  30  33
ATOM     33  C   UNL     1      -7.656   8.001  -2.023  1.00  0.00     0.039 A 
ATOM     34  C   UNL     1      -8.005   9.195  -2.655  1.00  0.00     0.014 A 
ATOM     35  C   UNL     1      -8.146   6.778  -2.488  1.00  0.00     0.014 A 
ATOM     36  C   UNL     1      -8.805   9.156  -3.797  1.00  0.00     0.010 A 
ATOM     37  C   UNL     1      -8.879   6.737  -3.670  1.00  0.00     0.010 A 
ATOM     38  C   UNL     1      -9.220   7.926  -4.334  1.00  0.00    -0.014 A 
BRANCH  38  39
ATOM     39  C   UNL     1     -10.012   7.867  -5.588  1.00  0.00     0.031 A 
ATOM     40  C   UNL     1     -11.411   7.313  -5.572  1.00  0.00     0.074 A 
ATOM     41  C   UNL     1      -9.453   8.261  -6.750  1.00  0.00     0.049 A 
ATOM     42  N   UNL     1     -12.244   7.148  -6.567  1.00  0.00    -0.248 NA
ATOM     43  C   UNL     1     -11.932   6.859  -4.272  1.00  0.00     0.031 C 
ATOM     44  C   UNL     1      -8.088   8.772  -6.902  1.00  0.00     0.029 A 
ATOM     45  N   UNL     1      -9.960   8.289  -8.024  1.00  0.00    -0.354 N 
ATOM     46  C   UNL     1     -13.376   6.557  -6.018  1.00  0.00     0.074 A 
ATOM     47  C   UNL     1     -13.102   6.342  -4.615  1.00  0.00     0.031 C 
ATOM     48  C   UNL     1      -7.878   9.090  -8.189  1.00  0.00     0.029 A 
ATOM     49  C   UNL     1      -9.073   8.767  -8.961  1.00  0.00     0.049 A 
ATOM     50  H   UNL     1     -10.873   7.995  -8.248  1.00  0.00     0.167 HD
ATOM     51  C   UNL     1     -14.545   6.239  -6.624  1.00  0.00     0.031 A 
ATOM     52  C   UNL     1      -9.204   8.922 -10.293  1.00  0.00     0.031 A 
ATOM     53  C   UNL     1     -14.812   6.463  -8.020  1.00  0.00     0.049 A 
ATOM     54  C   UNL     1     -10.510   8.558 -10.946  1.00  0.00     0.074 A 
ATOM     55  C   UNL     1     -15.984   6.236  -8.718  1.00  0.00     0.029 A 
ATOM     56  N   UNL     1     -13.892   6.959  -8.933  1.00  0.00    -0.354 N 
ATOM     57  N   UNL     1     -11.598   8.073 -10.396  1.00  0.00    -0.248 NA
ATOM     58  C   UNL     1     -10.611   8.776 -12.395  1.00  0.00     0.031 C 
ATOM     59  C   UNL     1     -15.755   6.535 -10.065  1.00  0.00     0.029 A 
ATOM     60  C   UNL     1     -14.461   7.015 -10.194  1.00  0.00     0.049 A 
ATOM     61  H   UNL     1     -12.971   7.230  -8.716  1.00  0.00     0.167 HD
ATOM     62  C   UNL     1     -12.522   7.952 -11.428  1.00  0.00     0.074 A 
ATOM     63  C   UNL     1     -11.869   8.430 -12.630  1.00  0.00     0.031 C 
ATOM     64  C   UNL     1     -13.796   7.489 -11.383  1.00  0.00     0.031 A 
BRANCH  51  65
ATOM     65  C   UNL     1     -15.617   5.602  -5.778  1.00  0.00    -0.014 A 
ATOM     66  C   UNL     1     -16.270   6.322  -4.761  1.00  0.00     0.010 A 
ATOM     67  C   UNL     1     -15.996   4.269  -6.020  1.00  0.00     0.010 A 
ATOM     68  C   UNL     1     -17.245   5.707  -3.970  1.00  0.00     0.020 A 
ATOM     69  C   UNL     1     -16.994   3.660  -5.254  1.00  0.00     0.020 A 
ATOM     70  C   UNL     1     -17.598   4.378  -4.220  1.00  0.00     0.054 A 
BRANCH  70  71
ATOM     71  S   UNL     1     -18.876   3.610  -3.187  1.00  0.00     0.124 S 
ATOM     72  O   UNL     1     -18.174   3.444  -1.916  1.00  0.00    -0.237 OA
ATOM     73  O   UNL     1     -19.937   4.614  -3.192  1.00  0.00    -0.237 OA
ATOM     74  O   UNL     1     -19.192   2.369  -3.890  1.00  0.00    -0.744 OA
ENDBRANCH  70  71
ENDBRANCH  51  65
BRANCH  52  75
ATOM     75  C   UNL     1      -8.067   9.460 -11.091  1.00  0.00    -0.014 A 
ATOM     76  C   UNL     1      -8.131  10.748 -11.651  1.00  0.00     0.010 A 
ATOM     77  C   UNL     1      -6.900   8.696 -11.270  1.00  0.00     0.010 A 
ATOM     78  C   UNL     1      -7.055  11.257 -12.385  1.00  0.00     0.020 A 
ATOM     79  C   UNL     1      -5.810   9.211 -11.978  1.00  0.00     0.020 A 
ATOM     80  C   UNL     1      -5.899  10.486 -12.539  1.00  0.00     0.054 A 
BRANCH  80  81
ATOM     81  S   UNL     1      -4.491  11.193 -13.441  1.00  0.00     0.124 S 
ATOM     82  O   UNL     1      -4.972  11.173 -14.819  1.00  0.00    -0.237 OA
ATOM     83  O   UNL     1      -4.362  12.516 -12.834  1.00  0.00    -0.237 OA
ATOM     84  O   UNL     1      -3.397  10.271 -13.145  1.00  0.00    -0.744 OA
ENDBRANCH  80  81
ENDBRANCH  52  75
BRANCH  64  85
ATOM     85  C   UNL     1     -14.586   7.503 -12.665  1.00  0.00    -0.014 A 
ATOM     86  C   UNL     1     -14.298   6.611 -13.713  1.00  0.00     0.010 A 
ATOM     87  C   UNL     1     -15.674   8.387 -12.797  1.00  0.00     0.010 A 
ATOM     88  C   UNL     1     -15.064   6.624 -14.882  1.00  0.00     0.020 A 
ATOM     89  C   UNL     1     -16.461   8.380 -13.950  1.00  0.00     0.020 A 
ATOM     90  C   UNL     1     -16.142   7.508 -14.992  1.00  0.00     0.054 A 
BRANCH  90  91
ATOM     91  S   UNL     1     -17.149   7.472 -16.500  1.00  0.00     0.124 S 
ATOM     92  O   UNL     1     -16.253   8.082 -17.478  1.00  0.00    -0.237 OA
ATOM     93  O   UNL     1     -17.402   6.044 -16.682  1.00  0.00    -0.237 OA
ATOM     94  O   UNL     1     -18.325   8.267 -16.151  1.00  0.00    -0.744 OA
ENDBRANCH  90  91
ENDBRANCH  64  85
ENDBRANCH  38  39
ENDBRANCH  30  33
ENDBRANCH  28  29
ENDBRANCH   1  28
TORSDOF 17
