REMARK SMILES C[C@H](CSc1ccc(C(=O)N(C)C)cn1)C(=O)NCCCCNC(=O)c1ccc(-c2c3nc(c(-c4ccc(S(=O)(=O)[O-])cc4)c4ccc([nH]4)c(-c4ccc(S(=O)(=O)[O-])cc4)c4nc(c(-c5ccc(S(=O)(=O)[O-])cc5)c5ccc2[nH]5)C=C4)C=C3)cc1
REMARK SMILES IDX 20 1 19 2 18 3 16 4 17 5 2 7 1 8 3 9 4 10 5 11 6 12 15 13
REMARK SMILES IDX 7 14 14 15 8 16 9 17 10 18 11 19 12 20 13 21 21 22 22 23
REMARK SMILES IDX 23 24 24 25 25 27 26 28 27 29 85 30 28 31 84 32 29 33 30 34
REMARK SMILES IDX 31 35 78 36 32 37 83 38 77 39 79 40 33 41 82 42 76 43 75 44
REMARK SMILES IDX 34 46 64 47 45 48 63 49 46 50 49 51 62 52 80 53 47 54 48 55
REMARK SMILES IDX 61 57 81 58 50 59 35 60 36 61 44 62 37 63 43 64 38 65 39 66
REMARK SMILES IDX 40 67 41 68 42 69 65 70 66 71 74 72 67 73 73 74 68 75 69 76
REMARK SMILES IDX 70 77 71 78 72 79 51 80 52 81 60 82 53 83 59 84 54 85 55 86
REMARK SMILES IDX 56 87 57 88 58 89
REMARK H PARENT 18 6 23 26 79 45 49 56
REMARK Flexibility Score: inf
ROOT
ATOM      1  C   UNL     1      -1.352   1.064   2.296  1.00  0.00     0.023 C 
ENDROOT
BRANCH   1   2
ATOM      2  C   UNL     1      -1.239  -0.444   2.069  1.00  0.00     0.116 C 
BRANCH   2   3
ATOM      3  N   UNL     1      -1.630  -0.803   0.723  1.00  0.00    -0.356 N 
ATOM      4  C   UNL     1      -0.866  -1.199  -0.332  1.00  0.00     0.223 C 
ATOM      5  O   UNL     1      -1.431  -1.359  -1.417  1.00  0.00    -0.275 OA
ATOM      6  H   UNL     1      -2.596  -0.752   0.542  1.00  0.00     0.163 HD
BRANCH   4   7
ATOM      7  C   UNL     1       0.616  -1.544  -0.181  1.00  0.00     0.085 C 
ATOM      8  C   UNL     1       0.732  -2.881   0.549  1.00  0.00     0.019 C 
BRANCH   7   9
ATOM      9  C   UNL     1       1.488  -0.361   0.290  1.00  0.00     0.089 C 
BRANCH   9  10
ATOM     10  S   UNL     1       3.060  -0.744   1.167  1.00  0.00    -0.106 SA
BRANCH  10  11
ATOM     11  C   UNL     1       2.465  -1.155   2.798  1.00  0.00     0.096 A 
ATOM     12  C   UNL     1       2.708  -2.425   3.312  1.00  0.00     0.036 A 
ATOM     13  N   UNL     1       1.789  -0.217   3.493  1.00  0.00    -0.249 NA
ATOM     14  C   UNL     1       2.183  -2.776   4.561  1.00  0.00     0.018 A 
ATOM     15  C   UNL     1       1.301  -0.582   4.714  1.00  0.00     0.126 A 
ATOM     16  C   UNL     1       1.420  -1.855   5.271  1.00  0.00     0.058 A 
BRANCH  16  17
ATOM     17  C   UNL     1       0.813  -2.086   6.608  1.00  0.00     0.254 C 
ATOM     18  O   UNL     1       0.695  -1.091   7.325  1.00  0.00    -0.269 OA
ATOM     19  N   UNL     1       0.389  -3.345   7.042  1.00  0.00    -0.345 N 
ATOM     20  C   UNL     1       0.247  -4.555   6.247  1.00  0.00     0.146 C 
ATOM     21  C   UNL     1      -0.103  -3.429   8.411  1.00  0.00     0.146 C 
ENDBRANCH  16  17
ENDBRANCH  10  11
ENDBRANCH   9  10
ENDBRANCH   7   9
ENDBRANCH   4   7
ENDBRANCH   2   3
ENDBRANCH   1   2
BRANCH   1  22
ATOM     22  C   UNL     1      -2.784   1.539   2.542  1.00  0.00     0.023 C 
BRANCH  22  23
ATOM     23  C   UNL     1      -3.438   0.956   3.789  1.00  0.00     0.116 C 
BRANCH  23  24
ATOM     24  N   UNL     1      -2.739   1.304   5.016  1.00  0.00    -0.352 N 
ATOM     25  C   UNL     1      -3.276   1.686   6.226  1.00  0.00     0.251 C 
ATOM     26  H   UNL     1      -1.756   1.262   4.977  1.00  0.00     0.163 HD
ATOM     27  O   UNL     1      -2.556   2.099   7.122  1.00  0.00    -0.269 OA
BRANCH  25  28
ATOM     28  C   UNL     1      -4.742   1.635   6.405  1.00  0.00     0.039 A 
ATOM     29  C   UNL     1      -5.395   2.756   6.921  1.00  0.00     0.014 A 
ATOM     30  C   UNL     1      -5.470   0.507   6.016  1.00  0.00     0.014 A 
ATOM     31  C   UNL     1      -6.790   2.773   6.977  1.00  0.00     0.010 A 
ATOM     32  C   UNL     1      -6.860   0.557   6.001  1.00  0.00     0.010 A 
ATOM     33  C   UNL     1      -7.534   1.691   6.479  1.00  0.00    -0.014 A 
BRANCH  33  34
ATOM     34  C   UNL     1      -9.017   1.730   6.442  1.00  0.00     0.031 A 
ATOM     35  C   UNL     1      -9.818   0.744   7.247  1.00  0.00     0.074 A 
ATOM     36  C   UNL     1      -9.641   2.610   5.633  1.00  0.00     0.049 A 
ATOM     37  N   UNL     1     -11.115   0.582   7.297  1.00  0.00    -0.248 NA
ATOM     38  C   UNL     1      -9.062  -0.202   8.084  1.00  0.00     0.031 C 
ATOM     39  C   UNL     1      -8.975   3.586   4.767  1.00  0.00     0.029 A 
ATOM     40  N   UNL     1     -10.977   2.820   5.402  1.00  0.00    -0.354 N 
ATOM     41  C   UNL     1     -11.329  -0.488   8.157  1.00  0.00     0.074 A 
ATOM     42  C   UNL     1     -10.028  -0.973   8.561  1.00  0.00     0.031 C 
ATOM     43  C   UNL     1      -9.905   4.307   4.120  1.00  0.00     0.029 A 
ATOM     44  C   UNL     1     -11.230   3.820   4.492  1.00  0.00     0.049 A 
ATOM     45  H   UNL     1     -11.689   2.304   5.846  1.00  0.00     0.167 HD
ATOM     46  C   UNL     1     -12.503  -1.008   8.590  1.00  0.00     0.031 A 
ATOM     47  C   UNL     1     -12.396   4.289   4.006  1.00  0.00     0.031 A 
ATOM     48  C   UNL     1     -13.796  -0.517   8.193  1.00  0.00     0.049 A 
ATOM     49  C   UNL     1     -13.687   3.694   4.497  1.00  0.00     0.074 A 
ATOM     50  C   UNL     1     -15.043  -0.943   8.613  1.00  0.00     0.029 A 
ATOM     51  N   UNL     1     -14.008   0.508   7.283  1.00  0.00    -0.354 N 
ATOM     52  N   UNL     1     -13.869   2.723   5.359  1.00  0.00    -0.248 NA
ATOM     53  C   UNL     1     -14.928   4.268   3.961  1.00  0.00     0.031 C 
ATOM     54  C   UNL     1     -16.012  -0.208   7.921  1.00  0.00     0.029 A 
ATOM     55  C   UNL     1     -15.367   0.715   7.113  1.00  0.00     0.049 A 
ATOM     56  H   UNL     1     -13.298   1.013   6.826  1.00  0.00     0.167 HD
ATOM     57  C   UNL     1     -15.247   2.585   5.488  1.00  0.00     0.074 A 
ATOM     58  C   UNL     1     -15.849   3.583   4.627  1.00  0.00     0.031 C 
ATOM     59  C   UNL     1     -15.950   1.712   6.251  1.00  0.00     0.031 A 
BRANCH  46  60
ATOM     60  C   UNL     1     -12.435  -2.171   9.544  1.00  0.00    -0.014 A 
ATOM     61  C   UNL     1     -11.973  -2.002  10.862  1.00  0.00     0.010 A 
ATOM     62  C   UNL     1     -12.865  -3.445   9.128  1.00  0.00     0.010 A 
ATOM     63  C   UNL     1     -11.895  -3.094  11.731  1.00  0.00     0.020 A 
ATOM     64  C   UNL     1     -12.817  -4.533  10.004  1.00  0.00     0.020 A 
ATOM     65  C   UNL     1     -12.313  -4.354  11.294  1.00  0.00     0.054 A 
BRANCH  65  66
ATOM     66  S   UNL     1     -12.212  -5.750  12.447  1.00  0.00     0.124 S 
ATOM     67  O   UNL     1     -10.774  -6.003  12.487  1.00  0.00    -0.237 OA
ATOM     68  O   UNL     1     -12.787  -5.199  13.671  1.00  0.00    -0.237 OA
ATOM     69  O   UNL     1     -13.009  -6.792  11.802  1.00  0.00    -0.744 OA
ENDBRANCH  65  66
ENDBRANCH  46  60
BRANCH  47  70
ATOM     70  C   UNL     1     -12.392   5.392   3.006  1.00  0.00    -0.014 A 
ATOM     71  C   UNL     1     -12.825   6.682   3.362  1.00  0.00     0.010 A 
ATOM     72  C   UNL     1     -11.935   5.163   1.695  1.00  0.00     0.010 A 
ATOM     73  C   UNL     1     -12.819   7.716   2.422  1.00  0.00     0.020 A 
ATOM     74  C   UNL     1     -11.901   6.201   0.760  1.00  0.00     0.020 A 
ATOM     75  C   UNL     1     -12.354   7.470   1.127  1.00  0.00     0.054 A 
BRANCH  75  76
ATOM     76  S   UNL     1     -12.303   8.841  -0.061  1.00  0.00     0.124 S 
ATOM     77  O   UNL     1     -13.714   9.009  -0.391  1.00  0.00    -0.237 OA
ATOM     78  O   UNL     1     -11.702   9.916   0.724  1.00  0.00    -0.237 OA
ATOM     79  O   UNL     1     -11.463   8.325  -1.141  1.00  0.00    -0.744 OA
ENDBRANCH  75  76
ENDBRANCH  47  70
BRANCH  59  80
ATOM     80  C   UNL     1     -17.452   1.815   6.216  1.00  0.00    -0.014 A 
ATOM     81  C   UNL     1     -18.186   1.396   5.093  1.00  0.00     0.010 A 
ATOM     82  C   UNL     1     -18.140   2.286   7.350  1.00  0.00     0.010 A 
ATOM     83  C   UNL     1     -19.582   1.474   5.094  1.00  0.00     0.020 A 
ATOM     84  C   UNL     1     -19.535   2.339   7.365  1.00  0.00     0.020 A 
ATOM     85  C   UNL     1     -20.247   1.945   6.230  1.00  0.00     0.054 A 
BRANCH  85  86
ATOM     86  S   UNL     1     -22.061   1.992   6.223  1.00  0.00     0.124 S 
ATOM     87  O   UNL     1     -22.331   3.132   5.352  1.00  0.00    -0.237 OA
ATOM     88  O   UNL     1     -22.414   0.685   5.675  1.00  0.00    -0.237 OA
ATOM     89  O   UNL     1     -22.408   2.186   7.630  1.00  0.00    -0.744 OA
ENDBRANCH  85  86
ENDBRANCH  59  80
ENDBRANCH  33  34
ENDBRANCH  25  28
ENDBRANCH  23  24
ENDBRANCH  22  23
ENDBRANCH   1  22
TORSDOF 18
