REMARK SMILES C[C@H]1CC[C@@]1(C(=O)NCCCCNC(=O)c1ccc(-c2c3nc(c(-c4ccc(S(=O)(=O)[O-])cc4)c4ccc([nH]4)c(-c4ccc(S(=O)(=O)[O-])cc4)c4nc(c(-c5ccc(S(=O)(=O)[O-])cc5)c5ccc2[nH]5)C=C4)C=C3)cc1)c1ccc(Cl)cc1Cl
REMARK SMILES IDX 11 1 10 2 9 3 8 4 6 5 7 6 5 8 1 9 2 10 3 11 4 12 76 13 77 14
REMARK SMILES IDX 82 15 78 16 81 17 83 18 79 19 80 20 12 21 13 22 14 23 15 25
REMARK SMILES IDX 16 26 17 27 75 28 18 29 74 30 19 31 20 32 21 33 68 34 22 35
REMARK SMILES IDX 73 36 67 37 69 38 23 39 72 40 66 41 65 42 24 44 54 45 35 46
REMARK SMILES IDX 53 47 36 48 39 49 52 50 70 51 37 52 38 53 51 55 71 56 40 57
REMARK SMILES IDX 25 58 26 59 34 60 27 61 33 62 28 63 29 64 30 65 31 66 32 67
REMARK SMILES IDX 55 68 56 69 64 70 57 71 63 72 58 73 59 74 60 75 61 76 62 77
REMARK SMILES IDX 41 78 42 79 50 80 43 81 49 82 44 83 45 84 46 85 47 86 48 87
REMARK H PARENT 8 7 13 24 69 43 39 54
REMARK Flexibility Score: inf
ROOT
ATOM      1  C   UNL     1       4.393   4.416   0.650  1.00  0.00     0.023 C 
ENDROOT
BRANCH   1   2
ATOM      2  C   UNL     1       3.620   3.646  -0.421  1.00  0.00     0.023 C 
BRANCH   2   3
ATOM      3  C   UNL     1       3.409   2.160  -0.146  1.00  0.00     0.116 C 
BRANCH   3   4
ATOM      4  N   UNL     1       2.769   1.891   1.125  1.00  0.00    -0.355 N 
ATOM      5  C   UNL     1       1.532   1.349   1.394  1.00  0.00     0.230 C 
ATOM      6  O   UNL     1       1.306   1.083   2.582  1.00  0.00    -0.274 OA
ATOM      7  H   UNL     1       3.300   2.133   1.918  1.00  0.00     0.163 HD
BRANCH   5   8
ATOM      8  C   UNL     1       0.516   1.045   0.188  1.00  0.00     0.078 C 
ATOM      9  C   UNL     1      -1.989   0.114  -0.246  1.00  0.00     0.009 C 
ATOM     10  C   UNL     1      -0.712   0.098   0.588  1.00  0.00     0.006 C 
ATOM     11  C   UNL     1       0.205  -1.108   0.278  1.00  0.00     0.006 C 
ATOM     12  C   UNL     1       1.002  -0.200  -0.672  1.00  0.00     0.022 C 
BRANCH   8  13
ATOM     13  C   UNL     1       0.095   2.448  -0.576  1.00  0.00    -0.013 A 
ATOM     14  C   UNL     1      -0.092   2.468  -1.982  1.00  0.00     0.008 A 
ATOM     15  C   UNL     1      -0.131   3.697   0.064  1.00  0.00     0.046 A 
ATOM     16  C   UNL     1      -0.416   3.627  -2.696  1.00  0.00     0.021 A 
ATOM     17  C   UNL     1      -0.414   4.873  -0.650  1.00  0.00     0.041 A 
ATOM     18  Cl  UNL     1      -0.108   3.873   1.784  1.00  0.00    -0.084 Cl
ATOM     19  C   UNL     1      -0.551   4.832  -2.028  1.00  0.00     0.042 A 
ATOM     20  Cl  UNL     1      -0.908   6.265  -2.906  1.00  0.00    -0.084 Cl
ENDBRANCH   8  13
ENDBRANCH   5   8
ENDBRANCH   3   4
ENDBRANCH   2   3
ENDBRANCH   1   2
BRANCH   1  21
ATOM     21  C   UNL     1       5.728   3.812   1.071  1.00  0.00     0.116 C 
BRANCH  21  22
ATOM     22  N   UNL     1       6.654   3.632  -0.039  1.00  0.00    -0.352 N 
ATOM     23  C   UNL     1       7.957   4.049  -0.172  1.00  0.00     0.251 C 
ATOM     24  H   UNL     1       6.292   3.138  -0.810  1.00  0.00     0.163 HD
ATOM     25  O   UNL     1       8.542   3.888  -1.240  1.00  0.00    -0.269 OA
BRANCH  23  26
ATOM     26  C   UNL     1       8.637   4.729   0.952  1.00  0.00     0.039 A 
ATOM     27  C   UNL     1       9.314   5.926   0.701  1.00  0.00     0.014 A 
ATOM     28  C   UNL     1       8.579   4.213   2.250  1.00  0.00     0.014 A 
ATOM     29  C   UNL     1       9.842   6.658   1.767  1.00  0.00     0.010 A 
ATOM     30  C   UNL     1       9.049   4.976   3.317  1.00  0.00     0.010 A 
ATOM     31  C   UNL     1       9.663   6.217   3.088  1.00  0.00    -0.014 A 
BRANCH  31  32
ATOM     32  C   UNL     1      10.041   7.069   4.245  1.00  0.00     0.031 A 
ATOM     33  C   UNL     1      11.106   6.627   5.208  1.00  0.00     0.074 A 
ATOM     34  C   UNL     1       9.353   8.206   4.476  1.00  0.00     0.049 A 
ATOM     35  N   UNL     1      11.498   7.196   6.319  1.00  0.00    -0.248 NA
ATOM     36  C   UNL     1      11.807   5.372   4.894  1.00  0.00     0.031 C 
ATOM     37  C   UNL     1       8.267   8.725   3.639  1.00  0.00     0.029 A 
ATOM     38  N   UNL     1       9.453   9.123   5.492  1.00  0.00    -0.354 N 
ATOM     39  C   UNL     1      12.479   6.365   6.845  1.00  0.00     0.074 A 
ATOM     40  C   UNL     1      12.596   5.232   5.950  1.00  0.00     0.031 C 
ATOM     41  C   UNL     1       7.814   9.873   4.167  1.00  0.00     0.029 A 
ATOM     42  C   UNL     1       8.543  10.151   5.400  1.00  0.00     0.049 A 
ATOM     43  H   UNL     1      10.113   9.052   6.219  1.00  0.00     0.167 HD
ATOM     44  C   UNL     1      13.223   6.535   7.964  1.00  0.00     0.031 A 
ATOM     45  C   UNL     1       8.306  11.191   6.221  1.00  0.00     0.031 A 
ATOM     46  C   UNL     1      13.108   7.663   8.851  1.00  0.00     0.049 A 
ATOM     47  C   UNL     1       9.127  11.344   7.470  1.00  0.00     0.074 A 
ATOM     48  C   UNL     1      13.863   7.955   9.973  1.00  0.00     0.029 A 
ATOM     49  N   UNL     1      12.174   8.680   8.723  1.00  0.00    -0.354 N 
ATOM     50  N   UNL     1      10.098  10.582   7.914  1.00  0.00    -0.248 NA
ATOM     51  C   UNL     1       8.820  12.496   8.329  1.00  0.00     0.031 C 
ATOM     52  C   UNL     1      13.353   9.122  10.553  1.00  0.00     0.029 A 
ATOM     53  C   UNL     1      12.312   9.584   9.763  1.00  0.00     0.049 A 
ATOM     54  H   UNL     1      11.511   8.749   7.998  1.00  0.00     0.167 HD
ATOM     55  C   UNL     1      10.526  11.169   9.099  1.00  0.00     0.074 A 
ATOM     56  C   UNL     1       9.724  12.360   9.291  1.00  0.00     0.031 C 
ATOM     57  C   UNL     1      11.496  10.756   9.951  1.00  0.00     0.031 A 
BRANCH  44  58
ATOM     58  C   UNL     1      14.229   5.465   8.298  1.00  0.00    -0.014 A 
ATOM     59  C   UNL     1      15.403   5.312   7.539  1.00  0.00     0.010 A 
ATOM     60  C   UNL     1      14.018   4.629   9.410  1.00  0.00     0.010 A 
ATOM     61  C   UNL     1      16.328   4.316   7.860  1.00  0.00     0.020 A 
ATOM     62  C   UNL     1      14.954   3.647   9.749  1.00  0.00     0.020 A 
ATOM     63  C   UNL     1      16.095   3.486   8.961  1.00  0.00     0.054 A 
BRANCH  63  64
ATOM     64  S   UNL     1      17.322   2.213   9.365  1.00  0.00     0.124 S 
ATOM     65  O   UNL     1      17.079   1.219   8.322  1.00  0.00    -0.237 OA
ATOM     66  O   UNL     1      18.586   2.938   9.259  1.00  0.00    -0.237 OA
ATOM     67  O   UNL     1      16.958   1.797  10.718  1.00  0.00    -0.744 OA
ENDBRANCH  63  64
ENDBRANCH  44  58
BRANCH  45  68
ATOM     68  C   UNL     1       7.238  12.171   5.886  1.00  0.00    -0.014 A 
ATOM     69  C   UNL     1       7.571  13.464   5.448  1.00  0.00     0.010 A 
ATOM     70  C   UNL     1       5.882  11.808   5.982  1.00  0.00     0.010 A 
ATOM     71  C   UNL     1       6.568  14.381   5.122  1.00  0.00     0.020 A 
ATOM     72  C   UNL     1       4.876  12.714   5.634  1.00  0.00     0.020 A 
ATOM     73  C   UNL     1       5.226  13.999   5.215  1.00  0.00     0.054 A 
BRANCH  73  74
ATOM     74  S   UNL     1       3.942  15.184   4.727  1.00  0.00     0.124 S 
ATOM     75  O   UNL     1       3.916  16.092   5.870  1.00  0.00    -0.237 OA
ATOM     76  O   UNL     1       4.478  15.741   3.488  1.00  0.00    -0.237 OA
ATOM     77  O   UNL     1       2.754  14.350   4.561  1.00  0.00    -0.744 OA
ENDBRANCH  73  74
ENDBRANCH  45  68
BRANCH  57  78
ATOM     78  C   UNL     1      11.748  11.602  11.169  1.00  0.00    -0.014 A 
ATOM     79  C   UNL     1      10.848  11.598  12.250  1.00  0.00     0.010 A 
ATOM     80  C   UNL     1      12.921  12.373  11.255  1.00  0.00     0.010 A 
ATOM     81  C   UNL     1      11.105  12.370  13.385  1.00  0.00     0.020 A 
ATOM     82  C   UNL     1      13.193  13.127  12.399  1.00  0.00     0.020 A 
ATOM     83  C   UNL     1      12.276  13.131  13.453  1.00  0.00     0.054 A 
BRANCH  83  84
ATOM     84  S   UNL     1      12.611  14.088  14.957  1.00  0.00     0.124 S 
ATOM     85  O   UNL     1      11.692  15.214  14.811  1.00  0.00    -0.237 OA
ATOM     86  O   UNL     1      12.283  13.142  16.021  1.00  0.00    -0.237 OA
ATOM     87  O   UNL     1      14.029  14.423  14.845  1.00  0.00    -0.744 OA
ENDBRANCH  83  84
ENDBRANCH  57  78
ENDBRANCH  31  32
ENDBRANCH  23  26
ENDBRANCH  21  22
ENDBRANCH   1  21
TORSDOF 15
