REMARK SMILES O=C(NCCCCNC(=O)[C@H]1CC=CC[C@@H]1C(=O)NC1CCCCC1)c1ccc(-c2c3nc(c(-c4ccc(S(=O)(=O)[O-])cc4)c4ccc([nH]4)c(-c4ccc(S(=O)(=O)[O-])cc4)c4nc(c(-c5ccc(S(=O)(=O)[O-])cc5)c5ccc2[nH]5)C=C4)C=C3)cc1
REMARK SMILES IDX 5 1 4 2 3 3 1 4 2 5 26 7 27 8 85 9 28 10 84 11 29 12 30 13
REMARK SMILES IDX 31 14 78 15 32 16 83 17 77 18 79 19 33 20 82 21 76 22 75 23
REMARK SMILES IDX 34 25 64 26 45 27 63 28 46 29 49 30 62 31 80 32 47 33 48 34
REMARK SMILES IDX 61 36 81 37 50 38 35 39 36 40 44 41 37 42 43 43 38 44 39 45
REMARK SMILES IDX 40 46 41 47 42 48 65 49 66 50 74 51 67 52 73 53 68 54 69 55
REMARK SMILES IDX 70 56 71 57 72 58 51 59 52 60 60 61 53 62 59 63 54 64 55 65
REMARK SMILES IDX 56 66 57 67 58 68 6 69 7 70 8 71 9 72 10 74 11 75 12 76
REMARK SMILES IDX 16 77 13 78 15 79 14 80 17 81 18 82 19 83 20 85 21 86 25 87
REMARK SMILES IDX 22 88 24 89 23 90
REMARK H PARENT 3 6 79 24 49 35 8 73 19 84
REMARK Flexibility Score: inf
ROOT
ATOM      1  C   UNL     1       5.218  -1.223   1.738  1.00  0.00     0.023 C 
ENDROOT
BRANCH   1   2
ATOM      2  C   UNL     1       4.612  -0.930   0.382  1.00  0.00     0.116 C 
BRANCH   2   3
ATOM      3  N   UNL     1       3.156  -0.955   0.373  1.00  0.00    -0.352 N 
ATOM      4  O   UNL     1       1.073  -0.158   0.031  1.00  0.00    -0.269 OA
ATOM      5  C   UNL     1       2.277  -0.018  -0.127  1.00  0.00     0.251 C 
ATOM      6  H   UNL     1       2.743  -1.750   0.780  1.00  0.00     0.163 HD
BRANCH   5   7
ATOM      7  C   UNL     1       2.814   1.179  -0.813  1.00  0.00     0.039 A 
ATOM      8  C   UNL     1       3.858   1.062  -1.732  1.00  0.00     0.014 A 
ATOM      9  C   UNL     1       2.305   2.437  -0.483  1.00  0.00     0.014 A 
ATOM     10  C   UNL     1       4.522   2.200  -2.167  1.00  0.00     0.010 A 
ATOM     11  C   UNL     1       2.903   3.582  -1.014  1.00  0.00     0.010 A 
ATOM     12  C   UNL     1       4.043   3.474  -1.826  1.00  0.00    -0.014 A 
BRANCH  12  13
ATOM     13  C   UNL     1       4.713   4.680  -2.371  1.00  0.00     0.031 A 
ATOM     14  C   UNL     1       5.346   5.695  -1.462  1.00  0.00     0.074 A 
ATOM     15  C   UNL     1       4.743   4.851  -3.707  1.00  0.00     0.049 A 
ATOM     16  N   UNL     1       5.904   6.838  -1.769  1.00  0.00    -0.248 NA
ATOM     17  C   UNL     1       5.347   5.395  -0.021  1.00  0.00     0.031 C 
ATOM     18  C   UNL     1       4.174   3.924  -4.690  1.00  0.00     0.029 A 
ATOM     19  N   UNL     1       5.274   5.858  -4.471  1.00  0.00    -0.354 N 
ATOM     20  C   UNL     1       6.289   7.412  -0.562  1.00  0.00     0.074 A 
ATOM     21  C   UNL     1       5.891   6.495   0.484  1.00  0.00     0.031 C 
ATOM     22  C   UNL     1       4.415   4.387  -5.923  1.00  0.00     0.029 A 
ATOM     23  C   UNL     1       5.079   5.680  -5.819  1.00  0.00     0.049 A 
ATOM     24  H   UNL     1       5.748   6.632  -4.090  1.00  0.00     0.167 HD
ATOM     25  C   UNL     1       6.912   8.597  -0.350  1.00  0.00     0.031 A 
ATOM     26  C   UNL     1       5.365   6.481  -6.861  1.00  0.00     0.031 A 
ATOM     27  C   UNL     1       7.303   9.500  -1.402  1.00  0.00     0.049 A 
ATOM     28  C   UNL     1       6.023   7.802  -6.601  1.00  0.00     0.074 A 
ATOM     29  C   UNL     1       7.956  10.716  -1.296  1.00  0.00     0.029 A 
ATOM     30  N   UNL     1       7.072   9.289  -2.754  1.00  0.00    -0.354 N 
ATOM     31  N   UNL     1       6.382   8.326  -5.454  1.00  0.00    -0.248 NA
ATOM     32  C   UNL     1       6.314   8.639  -7.771  1.00  0.00     0.031 C 
ATOM     33  C   UNL     1       8.076  11.261  -2.579  1.00  0.00     0.029 A 
ATOM     34  C   UNL     1       7.551  10.359  -3.491  1.00  0.00     0.049 A 
ATOM     35  H   UNL     1       6.631   8.494  -3.134  1.00  0.00     0.167 HD
ATOM     36  C   UNL     1       6.962   9.549  -5.764  1.00  0.00     0.074 A 
ATOM     37  C   UNL     1       6.912   9.681  -7.207  1.00  0.00     0.031 C 
ATOM     38  C   UNL     1       7.492  10.474  -4.927  1.00  0.00     0.031 A 
BRANCH  25  39
ATOM     39  C   UNL     1       7.163   9.005   1.079  1.00  0.00    -0.014 A 
ATOM     40  C   UNL     1       8.126   8.354   1.872  1.00  0.00     0.010 A 
ATOM     41  C   UNL     1       6.429  10.069   1.635  1.00  0.00     0.010 A 
ATOM     42  C   UNL     1       8.309   8.723   3.209  1.00  0.00     0.020 A 
ATOM     43  C   UNL     1       6.628  10.459   2.963  1.00  0.00     0.020 A 
ATOM     44  C   UNL     1       7.549   9.765   3.749  1.00  0.00     0.054 A 
BRANCH  44  45
ATOM     45  S   UNL     1       7.788  10.209   5.492  1.00  0.00     0.124 S 
ATOM     46  O   UNL     1       7.107   9.111   6.176  1.00  0.00    -0.237 OA
ATOM     47  O   UNL     1       9.242  10.223   5.625  1.00  0.00    -0.237 OA
ATOM     48  O   UNL     1       7.141  11.513   5.610  1.00  0.00    -0.744 OA
ENDBRANCH  44  45
ENDBRANCH  25  39
BRANCH  26  49
ATOM     49  C   UNL     1       4.997   6.040  -8.232  1.00  0.00    -0.014 A 
ATOM     50  C   UNL     1       5.985   5.608  -9.132  1.00  0.00     0.010 A 
ATOM     51  C   UNL     1       3.643   5.963  -8.608  1.00  0.00     0.010 A 
ATOM     52  C   UNL     1       5.624   5.098 -10.382  1.00  0.00     0.020 A 
ATOM     53  C   UNL     1       3.277   5.428  -9.845  1.00  0.00     0.020 A 
ATOM     54  C   UNL     1       4.272   5.003 -10.727  1.00  0.00     0.054 A 
BRANCH  54  55
ATOM     55  S   UNL     1       3.824   4.246 -12.313  1.00  0.00     0.124 S 
ATOM     56  O   UNL     1       4.166   5.303 -13.260  1.00  0.00    -0.237 OA
ATOM     57  O   UNL     1       4.678   3.061 -12.350  1.00  0.00    -0.237 OA
ATOM     58  O   UNL     1       2.396   3.970 -12.169  1.00  0.00    -0.744 OA
ENDBRANCH  54  55
ENDBRANCH  26  49
BRANCH  38  59
ATOM     59  C   UNL     1       8.102  11.698  -5.552  1.00  0.00    -0.014 A 
ATOM     60  C   UNL     1       7.300  12.726  -6.076  1.00  0.00     0.010 A 
ATOM     61  C   UNL     1       9.501  11.848  -5.548  1.00  0.00     0.010 A 
ATOM     62  C   UNL     1       7.889  13.879  -6.602  1.00  0.00     0.020 A 
ATOM     63  C   UNL     1      10.091  13.009  -6.051  1.00  0.00     0.020 A 
ATOM     64  C   UNL     1       9.281  14.014  -6.583  1.00  0.00     0.054 A 
BRANCH  64  65
ATOM     65  S   UNL     1      10.020  15.549  -7.208  1.00  0.00     0.124 S 
ATOM     66  O   UNL     1       9.882  15.385  -8.652  1.00  0.00    -0.237 OA
ATOM     67  O   UNL     1       9.176  16.579  -6.608  1.00  0.00    -0.237 OA
ATOM     68  O   UNL     1      11.390  15.504  -6.703  1.00  0.00    -0.744 OA
ENDBRANCH  64  65
ENDBRANCH  38  59
ENDBRANCH  12  13
ENDBRANCH   5   7
ENDBRANCH   2   3
ENDBRANCH   1   2
BRANCH   1  69
ATOM     69  C   UNL     1       4.842  -2.564   2.340  1.00  0.00     0.023 C 
BRANCH  69  70
ATOM     70  C   UNL     1       5.240  -3.813   1.550  1.00  0.00     0.116 C 
BRANCH  70  71
ATOM     71  N   UNL     1       6.625  -4.177   1.787  1.00  0.00    -0.356 N 
ATOM     72  C   UNL     1       7.164  -5.131   2.605  1.00  0.00     0.224 C 
ATOM     73  H   UNL     1       7.283  -3.651   1.276  1.00  0.00     0.163 HD
ATOM     74  O   UNL     1       8.392  -5.238   2.596  1.00  0.00    -0.275 OA
BRANCH  72  75
ATOM     75  C   UNL     1       6.261  -6.026   3.477  1.00  0.00     0.095 C 
ATOM     76  C   UNL     1       7.061  -7.198   4.088  1.00  0.00     0.041 C 
ATOM     77  C   UNL     1       5.554  -5.198   4.575  1.00  0.00     0.095 C 
ATOM     78  C   UNL     1       7.729  -6.889   5.399  1.00  0.00    -0.030 C 
ATOM     79  C   UNL     1       6.556  -4.712   5.620  1.00  0.00     0.041 C 
ATOM     80  C   UNL     1       7.516  -5.758   6.082  1.00  0.00    -0.030 C 
BRANCH  77  81
ATOM     81  C   UNL     1       4.285  -5.858   5.116  1.00  0.00     0.224 C 
ATOM     82  O   UNL     1       3.985  -7.013   4.797  1.00  0.00    -0.275 OA
ATOM     83  N   UNL     1       3.353  -5.179   5.852  1.00  0.00    -0.353 N 
ATOM     84  H   UNL     1       2.489  -5.651   5.874  1.00  0.00     0.163 HD
BRANCH  83  85
ATOM     85  C   UNL     1       3.309  -3.916   6.626  1.00  0.00     0.082 C 
ATOM     86  C   UNL     1       3.902  -4.131   8.026  1.00  0.00     0.025 C 
ATOM     87  C   UNL     1       3.748  -2.662   5.859  1.00  0.00     0.025 C 
ATOM     88  C   UNL     1       4.258  -2.844   8.754  1.00  0.00     0.002 C 
ATOM     89  C   UNL     1       4.320  -1.497   6.661  1.00  0.00     0.002 C 
ATOM     90  C   UNL     1       5.105  -1.929   7.887  1.00  0.00     0.000 C 
ENDBRANCH  83  85
ENDBRANCH  77  81
ENDBRANCH  72  75
ENDBRANCH  70  71
ENDBRANCH  69  70
ENDBRANCH   1  69
TORSDOF 16
