REMARK SMILES O=C(NCCCCNC(=O)[C@H]1Cc2c([nH]c3ccccc23)[C@H](c2c[nH]c3ccccc23)[NH2+]1)c1ccc(-c2c3nc(c(-c4ccc(S(=O)(=O)[O-])cc4)c4ccc([nH]4)c(-c4ccc(S(=O)(=O)[O-])cc4)c4nc(c(-c5ccc(S(=O)(=O)[O-])cc5)c5ccc2[nH]5)C=C4)C=C3)cc1
REMARK SMILES IDX 4 1 3 2 1 3 2 4 33 6 34 7 92 8 35 9 91 10 36 11 37 12 38 13
REMARK SMILES IDX 85 14 39 15 90 16 84 17 86 18 40 19 89 20 83 21 82 22 41 24
REMARK SMILES IDX 71 25 52 26 70 27 53 28 56 29 69 30 87 31 54 32 55 33 68 35
REMARK SMILES IDX 88 36 57 37 42 38 43 39 51 40 44 41 50 42 45 43 46 44 47 45
REMARK SMILES IDX 48 46 49 47 72 48 73 49 81 50 74 51 80 52 75 53 76 54 77 55
REMARK SMILES IDX 78 56 79 57 58 58 59 59 67 60 60 61 66 62 61 63 62 64 63 65
REMARK SMILES IDX 64 66 65 67 5 68 6 69 7 70 8 71 9 72 10 74 11 75 12 76 32 77
REMARK SMILES IDX 13 78 22 79 14 82 21 83 15 84 16 85 20 86 17 88 19 89 18 90
REMARK SMILES IDX 23 91 24 92 31 93 25 94 26 95 30 96 27 98 29 99 28 100
REMARK H PARENT 3 5 86 23 56 34 8 73 32 80 32 81 15 87 25 97
REMARK Flexibility Score: inf
ROOT
ATOM      1  C   UNL     1       4.528  -0.146   1.027  1.00  0.00     0.116 C 
ENDROOT
BRANCH   1   2
ATOM      2  N   UNL     1       3.115  -0.407   0.808  1.00  0.00    -0.352 N 
ATOM      3  O   UNL     1       1.108  -0.168  -0.192  1.00  0.00    -0.269 OA
ATOM      4  C   UNL     1       2.312   0.048  -0.208  1.00  0.00     0.251 C 
ATOM      5  H   UNL     1       2.677  -0.985   1.475  1.00  0.00     0.163 HD
BRANCH   4   6
ATOM      6  C   UNL     1       2.922   0.831  -1.300  1.00  0.00     0.039 A 
ATOM      7  C   UNL     1       4.050   0.353  -1.973  1.00  0.00     0.014 A 
ATOM      8  C   UNL     1       2.362   2.066  -1.632  1.00  0.00     0.014 A 
ATOM      9  C   UNL     1       4.682   1.159  -2.914  1.00  0.00     0.010 A 
ATOM     10  C   UNL     1       2.965   2.848  -2.615  1.00  0.00     0.010 A 
ATOM     11  C   UNL     1       4.141   2.409  -3.247  1.00  0.00    -0.014 A 
BRANCH  11  12
ATOM     12  C   UNL     1       4.771   3.239  -4.299  1.00  0.00     0.031 A 
ATOM     13  C   UNL     1       5.414   4.551  -3.957  1.00  0.00     0.074 A 
ATOM     14  C   UNL     1       4.718   2.814  -5.575  1.00  0.00     0.049 A 
ATOM     15  N   UNL     1       5.930   5.446  -4.759  1.00  0.00    -0.248 NA
ATOM     16  C   UNL     1       5.477   4.908  -2.532  1.00  0.00     0.031 C 
ATOM     17  C   UNL     1       4.115   1.555  -6.018  1.00  0.00     0.029 A 
ATOM     18  N   UNL     1       5.161   3.400  -6.731  1.00  0.00    -0.354 N 
ATOM     19  C   UNL     1       6.352   6.487  -3.942  1.00  0.00     0.074 A 
ATOM     20  C   UNL     1       6.021   6.117  -2.582  1.00  0.00     0.031 C 
ATOM     21  C   UNL     1       4.227   1.463  -7.351  1.00  0.00     0.029 A 
ATOM     22  C   UNL     1       4.855   2.678  -7.859  1.00  0.00     0.049 A 
ATOM     23  H   UNL     1       5.651   4.254  -6.752  1.00  0.00     0.167 HD
ATOM     24  C   UNL     1       6.954   7.648  -4.298  1.00  0.00     0.031 A 
ATOM     25  C   UNL     1       5.022   2.973  -9.161  1.00  0.00     0.031 A 
ATOM     26  C   UNL     1       7.268   8.007  -5.656  1.00  0.00     0.049 A 
ATOM     27  C   UNL     1       5.667   4.273  -9.537  1.00  0.00     0.074 A 
ATOM     28  C   UNL     1       7.911   9.141  -6.120  1.00  0.00     0.029 A 
ATOM     29  N   UNL     1       6.950   7.243  -6.770  1.00  0.00    -0.354 N 
ATOM     30  N   UNL     1       6.098   5.230  -8.750  1.00  0.00    -0.248 NA
ATOM     31  C   UNL     1       5.854   4.535 -10.969  1.00  0.00     0.031 C 
ATOM     32  C   UNL     1       7.939   9.084  -7.518  1.00  0.00     0.029 A 
ATOM     33  C   UNL     1       7.360   7.891  -7.922  1.00  0.00     0.049 A 
ATOM     34  H   UNL     1       6.499   6.368  -6.744  1.00  0.00     0.167 HD
ATOM     35  C   UNL     1       6.622   6.203  -9.590  1.00  0.00     0.074 A 
ATOM     36  C   UNL     1       6.462   5.715 -10.946  1.00  0.00     0.031 C 
ATOM     37  C   UNL     1       7.190   7.390  -9.264  1.00  0.00     0.031 A 
BRANCH  24  38
ATOM     38  C   UNL     1       7.264   8.630  -3.199  1.00  0.00    -0.014 A 
ATOM     39  C   UNL     1       8.289   8.387  -2.266  1.00  0.00     0.010 A 
ATOM     40  C   UNL     1       6.516   9.817  -3.100  1.00  0.00     0.010 A 
ATOM     41  C   UNL     1       8.518   9.284  -1.218  1.00  0.00     0.020 A 
ATOM     42  C   UNL     1       6.758  10.729  -2.068  1.00  0.00     0.020 A 
ATOM     43  C   UNL     1       7.741  10.442  -1.118  1.00  0.00     0.054 A 
BRANCH  43  44
ATOM     44  S   UNL     1       8.035  11.577   0.267  1.00  0.00     0.124 S 
ATOM     45  O   UNL     1       7.391  10.871   1.373  1.00  0.00    -0.237 OA
ATOM     46  O   UNL     1       9.493  11.641   0.329  1.00  0.00    -0.237 OA
ATOM     47  O   UNL     1       7.378  12.812  -0.151  1.00  0.00    -0.744 OA
ENDBRANCH  43  44
ENDBRANCH  24  38
BRANCH  25  48
ATOM     48  C   UNL     1       4.541   2.006 -10.181  1.00  0.00    -0.014 A 
ATOM     49  C   UNL     1       5.447   1.181 -10.867  1.00  0.00     0.010 A 
ATOM     50  C   UNL     1       3.159   1.829 -10.383  1.00  0.00     0.010 A 
ATOM     51  C   UNL     1       4.978   0.182 -11.725  1.00  0.00     0.020 A 
ATOM     52  C   UNL     1       2.687   0.817 -11.222  1.00  0.00     0.020 A 
ATOM     53  C   UNL     1       3.600  -0.001 -11.888  1.00  0.00     0.054 A 
BRANCH  53  54
ATOM     54  S   UNL     1       3.015  -1.380 -12.913  1.00  0.00     0.124 S 
ATOM     55  O   UNL     1       3.244  -0.874 -14.262  1.00  0.00    -0.237 OA
ATOM     56  O   UNL     1       3.882  -2.478 -12.492  1.00  0.00    -0.237 OA
ATOM     57  O   UNL     1       1.613  -1.522 -12.525  1.00  0.00    -0.744 OA
ENDBRANCH  53  54
ENDBRANCH  25  48
BRANCH  37  58
ATOM     58  C   UNL     1       7.710   8.242 -10.389  1.00  0.00    -0.014 A 
ATOM     59  C   UNL     1       6.836   8.998 -11.188  1.00  0.00     0.010 A 
ATOM     60  C   UNL     1       9.098   8.358 -10.582  1.00  0.00     0.010 A 
ATOM     61  C   UNL     1       7.344   9.855 -12.168  1.00  0.00     0.020 A 
ATOM     62  C   UNL     1       9.610   9.228 -11.547  1.00  0.00     0.020 A 
ATOM     63  C   UNL     1       8.728   9.969 -12.337  1.00  0.00     0.054 A 
BRANCH  63  64
ATOM     64  S   UNL     1       9.367  11.152 -13.555  1.00  0.00     0.124 S 
ATOM     65  O   UNL     1       9.118  10.456 -14.815  1.00  0.00    -0.237 OA
ATOM     66  O   UNL     1       8.544  12.335 -13.317  1.00  0.00    -0.237 OA
ATOM     67  O   UNL     1      10.774  11.298 -13.191  1.00  0.00    -0.744 OA
ENDBRANCH  63  64
ENDBRANCH  37  58
ENDBRANCH  11  12
ENDBRANCH   4   6
ENDBRANCH   1   2
BRANCH   1  68
ATOM     68  C   UNL     1       4.896  -0.066   2.504  1.00  0.00     0.023 C 
BRANCH  68  69
ATOM     69  C   UNL     1       4.505  -1.294   3.333  1.00  0.00     0.023 C 
BRANCH  69  70
ATOM     70  C   UNL     1       5.186  -2.596   2.899  1.00  0.00     0.116 C 
BRANCH  70  71
ATOM     71  N   UNL     1       6.555  -2.620   3.364  1.00  0.00    -0.351 N 
ATOM     72  C   UNL     1       7.098  -3.117   4.505  1.00  0.00     0.278 C 
ATOM     73  H   UNL     1       7.203  -2.207   2.748  1.00  0.00     0.163 HD
ATOM     74  O   UNL     1       8.313  -2.923   4.653  1.00  0.00    -0.268 OA
BRANCH  72  75
ATOM     75  C   UNL     1       6.331  -3.991   5.529  1.00  0.00     0.277 C 
ATOM     76  C   UNL     1       4.982  -3.429   6.031  1.00  0.00     0.114 C 
ATOM     77  N   UNL     1       6.290  -5.394   5.011  1.00  0.00    -0.324 N 
ATOM     78  C   UNL     1       4.216  -4.483   6.748  1.00  0.00    -0.006 A 
ATOM     79  C   UNL     1       5.803  -6.373   5.998  1.00  0.00     0.264 C 
ATOM     80  H   UNL     1       7.233  -5.661   4.730  1.00  0.00     0.347 HD
ATOM     81  H   UNL     1       5.633  -5.405   4.231  1.00  0.00     0.347 HD
ATOM     82  C   UNL     1       4.607  -5.806   6.712  1.00  0.00     0.083 A 
ATOM     83  C   UNL     1       2.994  -4.402   7.466  1.00  0.00     0.003 A 
ATOM     84  N   UNL     1       3.676  -6.529   7.410  1.00  0.00    -0.353 N 
ATOM     85  C   UNL     1       2.683  -5.697   7.882  1.00  0.00     0.046 A 
ATOM     86  C   UNL     1       2.107  -3.355   7.783  1.00  0.00     0.010 A 
ATOM     87  H   UNL     1       3.712  -7.502   7.553  1.00  0.00     0.166 HD
ATOM     88  C   UNL     1       1.533  -5.994   8.624  1.00  0.00     0.026 A 
ATOM     89  C   UNL     1       0.948  -3.637   8.515  1.00  0.00     0.001 A 
ATOM     90  C   UNL     1       0.671  -4.937   8.932  1.00  0.00     0.002 A 
BRANCH  79  91
ATOM     91  C   UNL     1       6.860  -6.910   6.959  1.00  0.00     0.041 A 
ATOM     92  C   UNL     1       6.617  -7.993   7.801  1.00  0.00     0.093 A 
ATOM     93  C   UNL     1       8.237  -6.531   7.223  1.00  0.00     0.009 A 
ATOM     94  N   UNL     1       7.699  -8.198   8.605  1.00  0.00    -0.361 N 
ATOM     95  C   UNL     1       8.698  -7.318   8.285  1.00  0.00     0.046 A 
ATOM     96  C   UNL     1       9.157  -5.598   6.691  1.00  0.00     0.011 A 
ATOM     97  H   UNL     1       7.755  -8.879   9.313  1.00  0.00     0.166 HD
ATOM     98  C   UNL     1       9.970  -7.177   8.861  1.00  0.00     0.026 A 
ATOM     99  C   UNL     1      10.430  -5.438   7.254  1.00  0.00     0.001 A 
ATOM    100  C   UNL     1      10.826  -6.212   8.334  1.00  0.00     0.002 A 
ENDBRANCH  79  91
ENDBRANCH  72  75
ENDBRANCH  70  71
ENDBRANCH  69  70
ENDBRANCH  68  69
ENDBRANCH   1  68
TORSDOF 15
