REMARK SMILES O=C(COc1ccc(NC(=O)c2ccc(Br)cc2)cc1-c1nc2ccccc2o1)NCCCCNC(=O)c1ccc(-c2c3nc(c(-c4ccc(S(=O)(=O)[O-])cc4)c4ccc([nH]4)c(-c4ccc(S(=O)(=O)[O-])cc4)c4nc(c(-c5ccc(S(=O)(=O)[O-])cc5)c5ccc2[nH]5)C=C4)C=C3)cc1
REMARK SMILES IDX 32 1 31 2 30 3 1 4 2 5 3 7 4 8 5 9 6 10 20 11 7 12 19 13
REMARK SMILES IDX 8 14 21 15 22 16 29 17 23 18 28 19 24 20 27 21 25 22 26 23
REMARK SMILES IDX 9 24 10 25 11 27 12 28 13 29 18 30 14 31 17 32 15 33 16 34
REMARK SMILES IDX 33 35 34 36 35 37 36 38 37 40 38 41 39 42 97 43 40 44 96 45
REMARK SMILES IDX 41 46 42 47 43 48 90 49 44 50 95 51 89 52 91 53 45 54 94 55
REMARK SMILES IDX 88 56 87 57 46 59 76 60 57 61 75 62 58 63 61 64 74 65 92 66
REMARK SMILES IDX 59 67 60 68 73 70 93 71 62 72 47 73 48 74 56 75 49 76 55 77
REMARK SMILES IDX 50 78 51 79 52 80 53 81 54 82 77 83 78 84 86 85 79 86 85 87
REMARK SMILES IDX 80 88 81 89 82 90 83 91 84 92 63 93 64 94 72 95 65 96 71 97
REMARK SMILES IDX 66 98 67 99 68 100 69 101 70 102
REMARK H PARENT 30 6 9 26 35 39 91 58 61 69
REMARK Flexibility Score: inf
ROOT
ATOM      1  C   UNL     1       3.241  -3.037   1.810  1.00  0.00     0.023 C 
ENDROOT
BRANCH   1   2
ATOM      2  C   UNL     1       3.341  -1.542   1.586  1.00  0.00     0.116 C 
BRANCH   2   3
ATOM      3  N   UNL     1       4.335  -1.136   0.618  1.00  0.00    -0.353 N 
ATOM      4  O   UNL     1       3.554  -1.842  -1.439  1.00  0.00    -0.271 OA
ATOM      5  C   UNL     1       3.947  -0.941  -0.707  1.00  0.00     0.257 C 
ATOM      6  H   UNL     1       5.271  -1.000   0.890  1.00  0.00     0.163 HD
BRANCH   5   7
ATOM      7  C   UNL     1       4.027   0.535  -1.124  1.00  0.00     0.329 C 
BRANCH   7   8
ATOM      8  O   UNL     1       3.997   1.232   0.124  1.00  0.00    -0.483 OA
BRANCH   8   9
ATOM      9  C   UNL     1       3.253   2.367   0.252  1.00  0.00     0.132 A 
ATOM     10  C   UNL     1       4.070   3.466   0.486  1.00  0.00     0.049 A 
ATOM     11  C   UNL     1       1.873   2.396   0.563  1.00  0.00     0.081 A 
ATOM     12  C   UNL     1       3.554   4.595   1.090  1.00  0.00     0.030 A 
ATOM     13  C   UNL     1       1.366   3.571   1.165  1.00  0.00     0.043 A 
ATOM     14  C   UNL     1       2.202   4.679   1.420  1.00  0.00     0.042 A 
BRANCH  11  15
ATOM     15  C   UNL     1       1.022   1.231   0.283  1.00  0.00     0.231 A 
ATOM     16  N   UNL     1       1.232   0.302  -0.628  1.00  0.00    -0.209 NA
ATOM     17  O   UNL     1      -0.074   0.981   1.087  1.00  0.00    -0.436 OA
ATOM     18  C   UNL     1       0.364  -0.699  -0.314  1.00  0.00     0.110 A 
ATOM     19  C   UNL     1      -0.473  -0.285   0.708  1.00  0.00     0.155 A 
ATOM     20  C   UNL     1       0.286  -2.012  -0.795  1.00  0.00     0.032 A 
ATOM     21  C   UNL     1      -1.470  -1.088   1.254  1.00  0.00     0.049 A 
ATOM     22  C   UNL     1      -0.660  -2.869  -0.224  1.00  0.00     0.003 A 
ATOM     23  C   UNL     1      -1.535  -2.407   0.766  1.00  0.00     0.004 A 
ENDBRANCH  11  15
BRANCH  14  24
ATOM     24  N   UNL     1       1.672   5.816   2.071  1.00  0.00    -0.322 N 
ATOM     25  C   UNL     1       2.204   7.087   2.227  1.00  0.00     0.255 C 
ATOM     26  H   UNL     1       0.785   5.684   2.477  1.00  0.00     0.170 HD
ATOM     27  O   UNL     1       1.766   7.844   3.091  1.00  0.00    -0.269 OA
BRANCH  25  28
ATOM     28  C   UNL     1       3.256   7.592   1.309  1.00  0.00     0.040 A 
ATOM     29  C   UNL     1       4.424   8.155   1.840  1.00  0.00     0.015 A 
ATOM     30  C   UNL     1       3.110   7.455  -0.079  1.00  0.00     0.015 A 
ATOM     31  C   UNL     1       5.475   8.507   0.986  1.00  0.00     0.016 A 
ATOM     32  C   UNL     1       4.164   7.799  -0.928  1.00  0.00     0.016 A 
ATOM     33  C   UNL     1       5.345   8.312  -0.391  1.00  0.00     0.018 A 
ATOM     34  Br  UNL     1       6.787   8.725  -1.541  1.00  0.00    -0.051 Br
ENDBRANCH  25  28
ENDBRANCH  14  24
ENDBRANCH   8   9
ENDBRANCH   7   8
ENDBRANCH   5   7
ENDBRANCH   2   3
ENDBRANCH   1   2
BRANCH   1  35
ATOM     35  C   UNL     1       4.524  -3.657   2.348  1.00  0.00     0.023 C 
BRANCH  35  36
ATOM     36  C   UNL     1       5.045  -3.032   3.634  1.00  0.00     0.116 C 
BRANCH  36  37
ATOM     37  N   UNL     1       4.200  -3.293   4.793  1.00  0.00    -0.352 N 
ATOM     38  C   UNL     1       4.623  -3.587   6.071  1.00  0.00     0.251 C 
ATOM     39  H   UNL     1       3.227  -3.256   4.647  1.00  0.00     0.163 HD
ATOM     40  O   UNL     1       3.832  -3.901   6.953  1.00  0.00    -0.269 OA
BRANCH  38  41
ATOM     41  C   UNL     1       6.076  -3.548   6.333  1.00  0.00     0.039 A 
ATOM     42  C   UNL     1       6.729  -4.716   6.729  1.00  0.00     0.014 A 
ATOM     43  C   UNL     1       6.798  -2.391   6.024  1.00  0.00     0.014 A 
ATOM     44  C   UNL     1       8.126  -4.745   6.742  1.00  0.00     0.010 A 
ATOM     45  C   UNL     1       8.184  -2.450   5.961  1.00  0.00     0.010 A 
ATOM     46  C   UNL     1       8.864  -3.627   6.317  1.00  0.00    -0.014 A 
BRANCH  46  47
ATOM     47  C   UNL     1      10.347  -3.662   6.240  1.00  0.00     0.031 A 
ATOM     48  C   UNL     1      11.160  -2.726   7.094  1.00  0.00     0.074 A 
ATOM     49  C   UNL     1      10.960  -4.477   5.358  1.00  0.00     0.049 A 
ATOM     50  N   UNL     1      12.456  -2.553   7.125  1.00  0.00    -0.248 NA
ATOM     51  C   UNL     1      10.415  -1.846   8.009  1.00  0.00     0.031 C 
ATOM     52  C   UNL     1      10.286  -5.390   4.432  1.00  0.00     0.029 A 
ATOM     53  N   UNL     1      12.294  -4.664   5.091  1.00  0.00    -0.354 N 
ATOM     54  C   UNL     1      12.677  -1.533   8.043  1.00  0.00     0.074 A 
ATOM     55  C   UNL     1      11.381  -1.085   8.501  1.00  0.00     0.031 C 
ATOM     56  C   UNL     1      11.209  -6.060   3.722  1.00  0.00     0.029 A 
ATOM     57  C   UNL     1      12.538  -5.601   4.113  1.00  0.00     0.049 A 
ATOM     58  H   UNL     1      13.010  -4.173   5.555  1.00  0.00     0.167 HD
ATOM     59  C   UNL     1      13.853  -1.032   8.490  1.00  0.00     0.031 A 
ATOM     60  C   UNL     1      13.700  -6.041   3.591  1.00  0.00     0.031 A 
ATOM     61  C   UNL     1      15.142  -1.493   8.051  1.00  0.00     0.049 A 
ATOM     62  C   UNL     1      14.996  -5.483   4.114  1.00  0.00     0.074 A 
ATOM     63  C   UNL     1      16.393  -1.091   8.482  1.00  0.00     0.029 A 
ATOM     64  N   UNL     1      15.344  -2.466   7.084  1.00  0.00    -0.354 N 
ATOM     65  N   UNL     1      15.185  -4.564   5.031  1.00  0.00    -0.248 NA
ATOM     66  C   UNL     1      16.234  -6.030   3.542  1.00  0.00     0.031 C 
ATOM     67  C   UNL     1      17.354  -1.792   7.746  1.00  0.00     0.029 A 
ATOM     68  C   UNL     1      16.700  -2.668   6.894  1.00  0.00     0.049 A 
ATOM     69  H   UNL     1      14.629  -2.943   6.604  1.00  0.00     0.167 HD
ATOM     70  C   UNL     1      16.564  -4.442   5.164  1.00  0.00     0.074 A 
ATOM     71  C   UNL     1      17.159  -5.391   4.245  1.00  0.00     0.031 C 
ATOM     72  C   UNL     1      17.274  -3.618   5.975  1.00  0.00     0.031 A 
BRANCH  59  73
ATOM     73  C   UNL     1      13.789   0.073   9.511  1.00  0.00    -0.014 A 
ATOM     74  C   UNL     1      13.340  -0.179  10.821  1.00  0.00     0.010 A 
ATOM     75  C   UNL     1      14.194   1.374   9.165  1.00  0.00     0.010 A 
ATOM     76  C   UNL     1      13.247   0.860  11.750  1.00  0.00     0.020 A 
ATOM     77  C   UNL     1      14.132   2.411  10.101  1.00  0.00     0.020 A 
ATOM     78  C   UNL     1      13.639   2.151  11.382  1.00  0.00     0.054 A 
BRANCH  78  79
ATOM     79  S   UNL     1      13.517   3.479  12.610  1.00  0.00     0.124 S 
ATOM     80  O   UNL     1      12.076   3.716  12.653  1.00  0.00    -0.237 OA
ATOM     81  O   UNL     1      14.087   2.864  13.806  1.00  0.00    -0.237 OA
ATOM     82  O   UNL     1      14.309   4.561  12.030  1.00  0.00    -0.744 OA
ENDBRANCH  78  79
ENDBRANCH  59  73
BRANCH  60  83
ATOM     83  C   UNL     1      13.691  -7.085   2.529  1.00  0.00    -0.014 A 
ATOM     84  C   UNL     1      14.114  -8.396   2.812  1.00  0.00     0.010 A 
ATOM     85  C   UNL     1      13.244  -6.779   1.230  1.00  0.00     0.010 A 
ATOM     86  C   UNL     1      14.108  -9.376   1.815  1.00  0.00     0.020 A 
ATOM     87  C   UNL     1      13.211  -7.762   0.237  1.00  0.00     0.020 A 
ATOM     88  C   UNL     1      13.654  -9.053   0.533  1.00  0.00     0.054 A 
BRANCH  88  89
ATOM     89  S   UNL     1      13.601 -10.354  -0.732  1.00  0.00     0.124 S 
ATOM     90  O   UNL     1      15.013 -10.505  -1.071  1.00  0.00    -0.237 OA
ATOM     91  O   UNL     1      13.001 -11.473  -0.009  1.00  0.00    -0.237 OA
ATOM     92  O   UNL     1      12.762  -9.778  -1.780  1.00  0.00    -0.744 OA
ENDBRANCH  88  89
ENDBRANCH  60  83
BRANCH  72  93
ATOM     93  C   UNL     1      18.774  -3.726   5.931  1.00  0.00    -0.014 A 
ATOM     94  C   UNL     1      19.508  -3.229   4.840  1.00  0.00     0.010 A 
ATOM     95  C   UNL     1      19.461  -4.276   7.029  1.00  0.00     0.010 A 
ATOM     96  C   UNL     1      20.903  -3.305   4.836  1.00  0.00     0.020 A 
ATOM     97  C   UNL     1      20.857  -4.330   7.040  1.00  0.00     0.020 A 
ATOM     98  C   UNL     1      21.569  -3.856   5.936  1.00  0.00     0.054 A 
BRANCH  98  99
ATOM     99  S   UNL     1      23.382  -3.898   5.928  1.00  0.00     0.124 S 
ATOM    100  O   UNL     1      23.656  -4.986   4.993  1.00  0.00    -0.237 OA
ATOM    101  O   UNL     1      23.733  -2.561   5.457  1.00  0.00    -0.237 OA
ATOM    102  O   UNL     1      23.728  -4.172   7.322  1.00  0.00    -0.744 OA
ENDBRANCH  98  99
ENDBRANCH  72  93
ENDBRANCH  46  47
ENDBRANCH  38  41
ENDBRANCH  36  37
ENDBRANCH  35  36
ENDBRANCH   1  35
TORSDOF 19
