REMARK SMILES CS(=O)(=O)c1ccc(/C=C(/C(=O)NCCCCNC(=O)c2ccc(-c3c4nc(c(-c5ccc(S(=O)(=O)[O-])cc5)c5ccc([nH]5)c(-c5ccc(S(=O)(=O)[O-])cc5)c5nc(c(-c6ccc(S(=O)(=O)[O-])cc6)c6ccc3[nH]6)C=C5)C=C4)cc2)c2ccc(O)cc2)cc1
REMARK SMILES IDX 16 1 15 2 14 3 13 4 11 5 12 6 10 8 9 9 8 10 5 11 6 12 89 13
REMARK SMILES IDX 7 14 88 15 2 16 1 17 3 18 4 19 81 20 82 21 87 22 83 23 86 24
REMARK SMILES IDX 84 25 85 26 17 28 18 29 19 30 20 32 21 33 22 34 80 35 23 36
REMARK SMILES IDX 79 37 24 38 25 39 26 40 73 41 27 42 78 43 72 44 74 45 28 46
REMARK SMILES IDX 77 47 71 48 70 49 29 51 59 52 40 53 58 54 41 55 44 56 57 57
REMARK SMILES IDX 75 58 42 59 43 60 56 62 76 63 45 64 30 65 31 66 39 67 32 68
REMARK SMILES IDX 38 69 33 70 34 71 35 72 36 73 37 74 60 75 61 76 69 77 62 78
REMARK SMILES IDX 68 79 63 80 64 81 65 82 66 83 67 84 46 85 47 86 55 87 48 88
REMARK SMILES IDX 54 89 49 90 50 91 51 92 52 93 53 94
REMARK H PARENT 13 7 85 27 18 31 74 50 44 61
REMARK Flexibility Score: inf
ROOT
ATOM      1  C   UNL     1       0.758   9.624   6.164  1.00  0.00     0.023 C 
ENDROOT
BRANCH   1   2
ATOM      2  C   UNL     1       0.970   8.488   5.154  1.00  0.00     0.023 C 
BRANCH   2   3
ATOM      3  C   UNL     1       2.339   7.805   5.240  1.00  0.00     0.116 C 
BRANCH   3   4
ATOM      4  N   UNL     1       2.420   6.979   6.429  1.00  0.00    -0.352 N 
ATOM      5  C   UNL     1       2.238   5.653   6.669  1.00  0.00     0.251 C 
ATOM      6  O   UNL     1       2.366   5.294   7.843  1.00  0.00    -0.269 OA
ATOM      7  H   UNL     1       2.659   7.488   7.237  1.00  0.00     0.163 HD
BRANCH   5   8
ATOM      8  C   UNL     1       1.972   4.626   5.588  1.00  0.00     0.047 C 
ATOM      9  C   UNL     1       1.283   4.917   4.462  1.00  0.00     0.022 C 
BRANCH   9  10
ATOM     10  C   UNL     1       1.000   4.077   3.278  1.00  0.00    -0.025 A 
ATOM     11  C   UNL     1       0.552   2.598   0.935  1.00  0.00     0.067 A 
ATOM     12  C   UNL     1       0.297   2.022   2.180  1.00  0.00     0.021 A 
ATOM     13  C   UNL     1       0.992   3.918   0.845  1.00  0.00     0.021 A 
ATOM     14  C   UNL     1       0.507   2.768   3.345  1.00  0.00     0.009 A 
ATOM     15  C   UNL     1       1.211   4.652   2.014  1.00  0.00     0.009 A 
BRANCH  11  16
ATOM     16  S   UNL     1       0.318   1.655  -0.552  1.00  0.00     0.175 S 
ATOM     17  C   UNL     1       1.143   0.113  -0.261  1.00  0.00     0.163 C 
ATOM     18  O   UNL     1       1.041   2.325  -1.614  1.00  0.00    -0.224 OA
ATOM     19  O   UNL     1      -1.106   1.393  -0.664  1.00  0.00    -0.224 OA
ENDBRANCH  11  16
ENDBRANCH   9  10
BRANCH   8  20
ATOM     20  C   UNL     1       2.345   3.220   5.889  1.00  0.00    -0.013 A 
ATOM     21  C   UNL     1       1.635   2.536   6.892  1.00  0.00     0.013 A 
ATOM     22  C   UNL     1       3.312   2.527   5.148  1.00  0.00     0.013 A 
ATOM     23  C   UNL     1       1.854   1.179   7.120  1.00  0.00     0.047 A 
ATOM     24  C   UNL     1       3.526   1.163   5.372  1.00  0.00     0.047 A 
ATOM     25  C   UNL     1       2.783   0.498   6.346  1.00  0.00     0.115 A 
BRANCH  25  26
ATOM     26  O   UNL     1       2.928  -0.839   6.565  1.00  0.00    -0.508 OA
ATOM     27  H   UNL     1       2.418  -1.264   7.226  1.00  0.00     0.293 HD
ENDBRANCH  25  26
ENDBRANCH   8  20
ENDBRANCH   5   8
ENDBRANCH   3   4
ENDBRANCH   2   3
ENDBRANCH   1   2
BRANCH   1  28
ATOM     28  C   UNL     1       1.724  10.799   6.038  1.00  0.00     0.116 C 
BRANCH  28  29
ATOM     29  N   UNL     1       1.722  11.392   4.712  1.00  0.00    -0.352 N 
ATOM     30  C   UNL     1       1.959  12.690   4.340  1.00  0.00     0.251 C 
ATOM     31  H   UNL     1       1.522  10.772   3.974  1.00  0.00     0.163 HD
ATOM     32  O   UNL     1       1.794  13.017   3.168  1.00  0.00    -0.269 OA
BRANCH  30  33
ATOM     33  C   UNL     1       2.378  13.698   5.340  1.00  0.00     0.039 A 
ATOM     34  C   UNL     1       1.808  14.973   5.273  1.00  0.00     0.014 A 
ATOM     35  C   UNL     1       3.347  13.416   6.307  1.00  0.00     0.014 A 
ATOM     36  C   UNL     1       2.185  15.953   6.194  1.00  0.00     0.010 A 
ATOM     37  C   UNL     1       3.677  14.375   7.263  1.00  0.00     0.010 A 
ATOM     38  C   UNL     1       3.113  15.658   7.205  1.00  0.00    -0.014 A 
BRANCH  38  39
ATOM     39  C   UNL     1       3.524  16.698   8.181  1.00  0.00     0.031 A 
ATOM     40  C   UNL     1       4.930  17.234   8.168  1.00  0.00     0.074 A 
ATOM     41  C   UNL     1       2.639  17.141   9.094  1.00  0.00     0.049 A 
ATOM     42  N   UNL     1       5.469  18.153   8.928  1.00  0.00    -0.248 NA
ATOM     43  C   UNL     1       5.859  16.644   7.190  1.00  0.00     0.031 C 
ATOM     44  C   UNL     1       1.262  16.664   9.242  1.00  0.00     0.029 A 
ATOM     45  N   UNL     1       2.766  18.097  10.070  1.00  0.00    -0.354 N 
ATOM     46  C   UNL     1       6.798  18.241   8.532  1.00  0.00     0.074 A 
ATOM     47  C   UNL     1       6.997  17.248   7.498  1.00  0.00     0.031 C 
ATOM     48  C   UNL     1       0.663  17.352  10.228  1.00  0.00     0.029 A 
ATOM     49  C   UNL     1       1.616  18.301  10.794  1.00  0.00     0.049 A 
ATOM     50  H   UNL     1       3.602  18.590  10.235  1.00  0.00     0.167 HD
ATOM     51  C   UNL     1       7.763  19.085   8.971  1.00  0.00     0.031 A 
ATOM     52  C   UNL     1       1.354  19.167  11.792  1.00  0.00     0.031 A 
ATOM     53  C   UNL     1       7.560  20.083   9.987  1.00  0.00     0.049 A 
ATOM     54  C   UNL     1       2.426  20.125  12.232  1.00  0.00     0.074 A 
ATOM     55  C   UNL     1       8.459  21.017  10.471  1.00  0.00     0.029 A 
ATOM     56  N   UNL     1       6.369  20.284  10.669  1.00  0.00    -0.354 N 
ATOM     57  N   UNL     1       3.662  20.233  11.803  1.00  0.00    -0.248 NA
ATOM     58  C   UNL     1       2.059  21.097  13.271  1.00  0.00     0.031 C 
ATOM     59  C   UNL     1       7.819  21.765  11.467  1.00  0.00     0.029 A 
ATOM     60  C   UNL     1       6.510  21.324  11.571  1.00  0.00     0.049 A 
ATOM     61  H   UNL     1       5.545  19.762  10.531  1.00  0.00     0.167 HD
ATOM     62  C   UNL     1       4.210  21.305  12.499  1.00  0.00     0.074 A 
ATOM     63  C   UNL     1       3.167  21.818  13.365  1.00  0.00     0.031 C 
ATOM     64  C   UNL     1       5.462  21.821  12.424  1.00  0.00     0.031 A 
BRANCH  51  65
ATOM     65  C   UNL     1       9.127  18.958   8.346  1.00  0.00    -0.014 A 
ATOM     66  C   UNL     1       9.353  19.360   7.017  1.00  0.00     0.010 A 
ATOM     67  C   UNL     1      10.198  18.444   9.097  1.00  0.00     0.010 A 
ATOM     68  C   UNL     1      10.614  19.203   6.434  1.00  0.00     0.020 A 
ATOM     69  C   UNL     1      11.468  18.310   8.526  1.00  0.00     0.020 A 
ATOM     70  C   UNL     1      11.661  18.671   7.191  1.00  0.00     0.054 A 
BRANCH  70  71
ATOM     71  S   UNL     1      13.290  18.480   6.414  1.00  0.00     0.124 S 
ATOM     72  O   UNL     1      13.090  17.292   5.587  1.00  0.00    -0.237 OA
ATOM     73  O   UNL     1      13.448  19.734   5.682  1.00  0.00    -0.237 OA
ATOM     74  O   UNL     1      14.195  18.306   7.547  1.00  0.00    -0.744 OA
ENDBRANCH  70  71
ENDBRANCH  51  65
BRANCH  52  75
ATOM     75  C   UNL     1       0.001  19.201  12.407  1.00  0.00    -0.014 A 
ATOM     76  C   UNL     1      -0.881  20.260  12.126  1.00  0.00     0.010 A 
ATOM     77  C   UNL     1      -0.418  18.169  13.265  1.00  0.00     0.010 A 
ATOM     78  C   UNL     1      -2.151  20.297  12.708  1.00  0.00     0.020 A 
ATOM     79  C   UNL     1      -1.696  18.191  13.831  1.00  0.00     0.020 A 
ATOM     80  C   UNL     1      -2.550  19.262  13.558  1.00  0.00     0.054 A 
BRANCH  80  81
ATOM     81  S   UNL     1      -4.222  19.302  14.262  1.00  0.00     0.124 S 
ATOM     82  O   UNL     1      -4.079  20.288  15.329  1.00  0.00    -0.237 OA
ATOM     83  O   UNL     1      -5.038  19.715  13.123  1.00  0.00    -0.237 OA
ATOM     84  O   UNL     1      -4.437  17.925  14.704  1.00  0.00    -0.744 OA
ENDBRANCH  80  81
ENDBRANCH  52  75
BRANCH  64  85
ATOM     85  C   UNL     1       5.755  23.028  13.273  1.00  0.00    -0.014 A 
ATOM     86  C   UNL     1       5.908  22.922  14.666  1.00  0.00     0.010 A 
ATOM     87  C   UNL     1       5.900  24.285  12.659  1.00  0.00     0.010 A 
ATOM     88  C   UNL     1       6.153  24.062  15.437  1.00  0.00     0.020 A 
ATOM     89  C   UNL     1       6.169  25.423  13.423  1.00  0.00     0.020 A 
ATOM     90  C   UNL     1       6.273  25.306  14.811  1.00  0.00     0.054 A 
BRANCH  90  91
ATOM     91  S   UNL     1       6.603  26.773  15.827  1.00  0.00     0.124 S 
ATOM     92  O   UNL     1       5.281  27.066  16.372  1.00  0.00    -0.237 OA
ATOM     93  O   UNL     1       7.587  26.285  16.791  1.00  0.00    -0.237 OA
ATOM     94  O   UNL     1       7.114  27.748  14.866  1.00  0.00    -0.744 OA
ENDBRANCH  90  91
ENDBRANCH  64  85
ENDBRANCH  38  39
ENDBRANCH  30  33
ENDBRANCH  28  29
ENDBRANCH   1  28
TORSDOF 18
