REMARK SMILES Cc1ccc2c(c1)c(-c1ccnc3c(C)cccc13)c(C)n2CC(=O)NCCCCNC(=O)c1ccc(-c2c3nc(c(-c4ccc(S(=O)(=O)[O-])cc4)c4ccc([nH]4)c(-c4ccc(S(=O)(=O)[O-])cc4)c4nc(c(-c5ccc(S(=O)(=O)[O-])cc5)c5ccc2[nH]5)C=C4)C=C3)cc1
REMARK SMILES IDX 29 1 28 2 27 3 26 4 24 5 25 6 23 8 22 9 1 10 2 11 3 12 7 13
REMARK SMILES IDX 4 14 6 15 5 16 8 17 20 18 21 19 9 20 10 21 19 22 11 23 13 24
REMARK SMILES IDX 18 25 12 26 14 27 17 28 15 29 16 30 30 31 31 32 32 33 33 35
REMARK SMILES IDX 34 36 35 37 93 38 36 39 92 40 37 41 38 42 39 43 86 44 40 45
REMARK SMILES IDX 91 46 85 47 87 48 41 49 90 50 84 51 83 52 42 54 72 55 53 56
REMARK SMILES IDX 71 57 54 58 57 59 70 60 88 61 55 62 56 63 69 65 89 66 58 67
REMARK SMILES IDX 43 68 44 69 52 70 45 71 51 72 46 73 47 74 48 75 49 76 50 77
REMARK SMILES IDX 73 78 74 79 82 80 75 81 81 82 76 83 77 84 78 85 79 86 80 87
REMARK SMILES IDX 59 88 60 89 68 90 61 91 67 92 62 93 63 94 64 95 65 96 66 97
REMARK H PARENT 26 7 31 34 87 53 57 64
REMARK Flexibility Score: inf
ROOT
ATOM      1  C   UNL     1      -5.349   1.389  -3.386  1.00  0.00     0.023 C 
ENDROOT
BRANCH   1   2
ATOM      2  C   UNL     1      -3.880   0.950  -3.349  1.00  0.00     0.023 C 
BRANCH   2   3
ATOM      3  C   UNL     1      -3.504  -0.077  -4.412  1.00  0.00     0.116 C 
BRANCH   3   4
ATOM      4  N   UNL     1      -3.568   0.466  -5.754  1.00  0.00    -0.355 N 
ATOM      5  C   UNL     1      -2.553   0.664  -6.646  1.00  0.00     0.239 C 
ATOM      6  O   UNL     1      -2.845   1.072  -7.773  1.00  0.00    -0.273 OA
ATOM      7  H   UNL     1      -4.465   0.727  -6.066  1.00  0.00     0.163 HD
BRANCH   5   8
ATOM      8  C   UNL     1      -1.123   0.308  -6.286  1.00  0.00     0.222 C 
BRANCH   8   9
ATOM      9  N   UNL     1      -0.556   1.142  -5.231  1.00  0.00    -0.335 N 
ATOM     10  C   UNL     1       1.004   0.091   0.105  1.00  0.00     0.044 C 
ATOM     11  C   UNL     1       0.616   0.290  -1.331  1.00  0.00    -0.050 A 
ATOM     12  C   UNL     1       0.353  -0.807  -2.151  1.00  0.00     0.005 A 
ATOM     13  C   UNL     1       0.559   1.585  -1.870  1.00  0.00     0.014 A 
ATOM     14  C   UNL     1      -0.006  -0.641  -3.492  1.00  0.00     0.027 A 
ATOM     15  C   UNL     1       0.182   1.780  -3.217  1.00  0.00     0.008 A 
ATOM     16  C   UNL     1      -0.118   0.666  -4.003  1.00  0.00     0.049 A 
ATOM     17  C   UNL     1       0.016   2.932  -4.038  1.00  0.00     0.011 A 
ATOM     18  C   UNL     1      -0.391   2.513  -5.296  1.00  0.00     0.024 A 
ATOM     19  C   UNL     1      -0.675   3.334  -6.513  1.00  0.00     0.065 C 
BRANCH  17  20
ATOM     20  C   UNL     1       0.251   4.331  -3.702  1.00  0.00    -0.005 A 
ATOM     21  C   UNL     1       1.577   4.750  -3.613  1.00  0.00     0.029 A 
ATOM     22  C   UNL     1      -0.806   5.251  -3.478  1.00  0.00     0.008 A 
ATOM     23  C   UNL     1       1.814   6.074  -3.335  1.00  0.00     0.112 A 
ATOM     24  C   UNL     1      -0.454   6.594  -3.206  1.00  0.00     0.074 A 
ATOM     25  C   UNL     1      -2.175   4.888  -3.503  1.00  0.00     0.011 A 
ATOM     26  N   UNL     1       0.840   6.984  -3.150  1.00  0.00    -0.256 NA
ATOM     27  C   UNL     1      -1.482   7.525  -2.996  1.00  0.00    -0.025 A 
ATOM     28  C   UNL     1      -3.179   5.817  -3.260  1.00  0.00     0.001 A 
ATOM     29  C   UNL     1      -1.187   8.970  -2.688  1.00  0.00     0.047 C 
ATOM     30  C   UNL     1      -2.833   7.132  -3.004  1.00  0.00     0.005 A 
ENDBRANCH  17  20
ENDBRANCH   8   9
ENDBRANCH   5   8
ENDBRANCH   3   4
ENDBRANCH   2   3
ENDBRANCH   1   2
BRANCH   1  31
ATOM     31  C   UNL     1      -6.342   0.227  -3.450  1.00  0.00     0.116 C 
BRANCH  31  32
ATOM     32  N   UNL     1      -6.205  -0.719  -2.360  1.00  0.00    -0.352 N 
ATOM     33  C   UNL     1      -6.739  -0.815  -1.105  1.00  0.00     0.251 C 
ATOM     34  H   UNL     1      -5.589  -1.457  -2.571  1.00  0.00     0.163 HD
ATOM     35  O   UNL     1      -6.493  -1.856  -0.489  1.00  0.00    -0.269 OA
BRANCH  33  36
ATOM     36  C   UNL     1      -7.503   0.263  -0.428  1.00  0.00     0.039 A 
ATOM     37  C   UNL     1      -7.931   1.446  -1.030  1.00  0.00     0.014 A 
ATOM     38  C   UNL     1      -7.723   0.090   0.952  1.00  0.00     0.014 A 
ATOM     39  C   UNL     1      -8.423   2.487  -0.261  1.00  0.00     0.010 A 
ATOM     40  C   UNL     1      -8.243   1.118   1.725  1.00  0.00     0.010 A 
ATOM     41  C   UNL     1      -8.524   2.337   1.120  1.00  0.00    -0.014 A 
BRANCH  41  42
ATOM     42  C   UNL     1      -8.987   3.492   1.874  1.00  0.00     0.031 A 
ATOM     43  C   UNL     1     -10.372   3.934   1.556  1.00  0.00     0.074 A 
ATOM     44  C   UNL     1      -8.237   4.073   2.830  1.00  0.00     0.049 A 
ATOM     45  N   UNL     1     -10.766   5.071   1.084  1.00  0.00    -0.248 NA
ATOM     46  C   UNL     1     -11.438   2.924   1.661  1.00  0.00     0.031 C 
ATOM     47  C   UNL     1      -6.992   3.576   3.421  1.00  0.00     0.029 A 
ATOM     48  N   UNL     1      -8.510   5.180   3.570  1.00  0.00    -0.354 N 
ATOM     49  C   UNL     1     -12.155   4.988   0.993  1.00  0.00     0.074 A 
ATOM     50  C   UNL     1     -12.493   3.606   1.219  1.00  0.00     0.031 C 
ATOM     51  C   UNL     1      -6.771   4.221   4.588  1.00  0.00     0.029 A 
ATOM     52  C   UNL     1      -7.766   5.269   4.738  1.00  0.00     0.049 A 
ATOM     53  H   UNL     1      -9.173   5.857   3.302  1.00  0.00     0.167 HD
ATOM     54  C   UNL     1     -12.951   6.090   0.928  1.00  0.00     0.031 A 
ATOM     55  C   UNL     1      -8.024   6.074   5.798  1.00  0.00     0.031 A 
ATOM     56  C   UNL     1     -12.213   7.266   0.565  1.00  0.00     0.049 A 
ATOM     57  C   UNL     1      -8.903   7.170   5.318  1.00  0.00     0.074 A 
ATOM     58  C   UNL     1     -11.517   7.665  -0.558  1.00  0.00     0.029 A 
ATOM     59  N   UNL     1     -11.819   8.103   1.581  1.00  0.00    -0.354 N 
ATOM     60  N   UNL     1      -8.528   8.074   4.456  1.00  0.00    -0.248 NA
ATOM     61  C   UNL     1     -10.341   7.008   5.466  1.00  0.00     0.031 C 
ATOM     62  C   UNL     1     -10.408   8.402  -0.057  1.00  0.00     0.029 A 
ATOM     63  C   UNL     1     -10.521   8.466   1.335  1.00  0.00     0.049 A 
ATOM     64  H   UNL     1     -12.369   8.389   2.346  1.00  0.00     0.167 HD
ATOM     65  C   UNL     1      -9.644   8.292   3.660  1.00  0.00     0.074 A 
ATOM     66  C   UNL     1     -10.754   7.684   4.391  1.00  0.00     0.031 C 
ATOM     67  C   UNL     1      -9.525   8.701   2.363  1.00  0.00     0.031 A 
BRANCH  54  68
ATOM     68  C   UNL     1     -14.337   6.161   1.520  1.00  0.00    -0.014 A 
ATOM     69  C   UNL     1     -14.830   5.203   2.429  1.00  0.00     0.010 A 
ATOM     70  C   UNL     1     -15.090   7.346   1.375  1.00  0.00     0.010 A 
ATOM     71  C   UNL     1     -16.008   5.400   3.150  1.00  0.00     0.020 A 
ATOM     72  C   UNL     1     -16.250   7.575   2.129  1.00  0.00     0.020 A 
ATOM     73  C   UNL     1     -16.702   6.595   3.010  1.00  0.00     0.054 A 
BRANCH  73  74
ATOM     74  S   UNL     1     -18.148   6.862   4.064  1.00  0.00     0.124 S 
ATOM     75  O   UNL     1     -19.099   5.898   3.516  1.00  0.00    -0.237 OA
ATOM     76  O   UNL     1     -17.627   6.548   5.392  1.00  0.00    -0.237 OA
ATOM     77  O   UNL     1     -18.479   8.266   3.841  1.00  0.00    -0.744 OA
ENDBRANCH  73  74
ENDBRANCH  54  68
BRANCH  55  78
ATOM     78  C   UNL     1      -7.957   5.672   7.227  1.00  0.00    -0.014 A 
ATOM     79  C   UNL     1      -8.155   4.320   7.582  1.00  0.00     0.010 A 
ATOM     80  C   UNL     1      -7.993   6.632   8.254  1.00  0.00     0.010 A 
ATOM     81  C   UNL     1      -8.439   3.944   8.898  1.00  0.00     0.020 A 
ATOM     82  C   UNL     1      -8.280   6.261   9.581  1.00  0.00     0.020 A 
ATOM     83  C   UNL     1      -8.534   4.921   9.885  1.00  0.00     0.054 A 
BRANCH  83  84
ATOM     84  S   UNL     1      -9.075   4.415  11.543  1.00  0.00     0.124 S 
ATOM     85  O   UNL     1     -10.459   4.007  11.298  1.00  0.00    -0.237 OA
ATOM     86  O   UNL     1      -8.151   3.321  11.854  1.00  0.00    -0.237 OA
ATOM     87  O   UNL     1      -8.908   5.614  12.347  1.00  0.00    -0.744 OA
ENDBRANCH  83  84
ENDBRANCH  55  78
BRANCH  67  88
ATOM     88  C   UNL     1      -8.184   9.192   1.862  1.00  0.00    -0.014 A 
ATOM     89  C   UNL     1      -8.163  10.435   1.202  1.00  0.00     0.010 A 
ATOM     90  C   UNL     1      -7.031   8.384   1.810  1.00  0.00     0.010 A 
ATOM     91  C   UNL     1      -7.050  10.841   0.466  1.00  0.00     0.020 A 
ATOM     92  C   UNL     1      -5.897   8.800   1.093  1.00  0.00     0.020 A 
ATOM     93  C   UNL     1      -5.930  10.012   0.398  1.00  0.00     0.054 A 
BRANCH  93  94
ATOM     94  S   UNL     1      -4.528  10.537  -0.623  1.00  0.00     0.124 S 
ATOM     95  O   UNL     1      -4.950  10.131  -1.962  1.00  0.00    -0.237 OA
ATOM     96  O   UNL     1      -4.474  11.980  -0.398  1.00  0.00    -0.237 OA
ATOM     97  O   UNL     1      -3.401   9.788  -0.075  1.00  0.00    -0.744 OA
ENDBRANCH  93  94
ENDBRANCH  67  88
ENDBRANCH  41  42
ENDBRANCH  33  36
ENDBRANCH  31  32
ENDBRANCH   1  31
TORSDOF 16
