REMARK SMILES C=C(CC)C[C@@]1(C(=O)NCCCCNC(=O)c2ccc(-c3c4nc(c(-c5ccc(S(=O)(=O)[O-])cc5)c5ccc([nH]5)c(-c5ccc(S(=O)(=O)[O-])cc5)c5nc(c(-c6ccc(S(=O)(=O)[O-])cc6)c6ccc3[nH]6)C=C5)C=C4)cc2)C[C@H]2CC[C@@H]1C2
REMARK SMILES IDX 11 1 10 2 9 3 7 4 8 5 6 7 77 8 81 9 78 10 80 11 82 12 79 13
REMARK SMILES IDX 5 14 2 15 1 16 3 17 4 18 12 19 13 20 14 21 15 22 16 24 17 25
REMARK SMILES IDX 18 26 76 27 19 28 75 29 20 30 21 31 22 32 69 33 23 34 74 35
REMARK SMILES IDX 68 36 70 37 24 38 73 39 67 40 66 41 25 43 55 44 36 45 54 46
REMARK SMILES IDX 37 47 40 48 53 49 71 50 38 51 39 52 52 54 72 55 41 56 26 57
REMARK SMILES IDX 27 58 35 59 28 60 34 61 29 62 30 63 31 64 32 65 33 66 56 67
REMARK SMILES IDX 57 68 65 69 58 70 64 71 59 72 60 73 61 74 62 75 63 76 42 77
REMARK SMILES IDX 43 78 51 79 44 80 50 81 45 82 46 83 47 84 48 85 49 86
REMARK H PARENT 9 6 14 23 70 42 40 53
REMARK Flexibility Score: inf
ROOT
ATOM      1  C   UNL     1      -0.458  -1.363   0.523  1.00  0.00     0.023 C 
ENDROOT
BRANCH   1   2
ATOM      2  C   UNL     1       0.580  -0.328   0.103  1.00  0.00     0.116 C 
BRANCH   2   3
ATOM      3  N   UNL     1       0.597   0.840   0.962  1.00  0.00    -0.356 N 
ATOM      4  C   UNL     1       1.168   1.142   2.153  1.00  0.00     0.226 C 
ATOM      5  O   UNL     1       0.946   2.297   2.549  1.00  0.00    -0.274 OA
ATOM      6  H   UNL     1       0.071   1.587   0.595  1.00  0.00     0.163 HD
BRANCH   4   7
ATOM      7  C   UNL     1       2.018   0.190   3.040  1.00  0.00     0.056 C 
ATOM      8  C   UNL     1       3.369   0.972   3.295  1.00  0.00     0.021 C 
ATOM      9  C   UNL     1       2.587  -1.106   2.399  1.00  0.00     0.005 C 
ATOM     10  C   UNL     1       4.457   0.083   2.659  1.00  0.00    -0.010 C 
ATOM     11  C   UNL     1       3.441  -1.947   3.374  1.00  0.00     0.005 C 
ATOM     12  C   UNL     1       3.708  -0.557   1.498  1.00  0.00     0.008 C 
ATOM     13  C   UNL     1       4.710  -1.118   3.570  1.00  0.00     0.004 C 
BRANCH   7  14
ATOM     14  C   UNL     1       1.263   0.009   4.406  1.00  0.00     0.047 C 
BRANCH  14  15
ATOM     15  C   UNL     1      -0.064  -0.740   4.465  1.00  0.00    -0.077 C 
ATOM     16  C   UNL     1      -1.163  -0.287   3.832  1.00  0.00     0.008 C 
BRANCH  15  17
ATOM     17  C   UNL     1      -0.235  -1.872   5.464  1.00  0.00     0.027 C 
ATOM     18  C   UNL     1       0.679  -3.072   5.289  1.00  0.00     0.008 C 
ENDBRANCH  15  17
ENDBRANCH  14  15
ENDBRANCH   7  14
ENDBRANCH   4   7
ENDBRANCH   2   3
ENDBRANCH   1   2
BRANCH   1  19
ATOM     19  C   UNL     1      -1.889  -1.021   0.102  1.00  0.00     0.023 C 
BRANCH  19  20
ATOM     20  C   UNL     1      -2.120  -1.031  -1.407  1.00  0.00     0.116 C 
BRANCH  20  21
ATOM     21  N   UNL     1      -1.776  -2.301  -2.029  1.00  0.00    -0.352 N 
ATOM     22  C   UNL     1      -2.275  -2.852  -3.184  1.00  0.00     0.251 C 
ATOM     23  H   UNL     1      -1.094  -2.835  -1.561  1.00  0.00     0.163 HD
ATOM     24  O   UNL     1      -1.954  -3.985  -3.518  1.00  0.00    -0.269 OA
BRANCH  22  25
ATOM     25  C   UNL     1      -3.240  -2.077  -3.988  1.00  0.00     0.039 A 
ATOM     26  C   UNL     1      -4.442  -2.684  -4.359  1.00  0.00     0.014 A 
ATOM     27  C   UNL     1      -2.973  -0.752  -4.343  1.00  0.00     0.014 A 
ATOM     28  C   UNL     1      -5.406  -1.940  -5.039  1.00  0.00     0.010 A 
ATOM     29  C   UNL     1      -3.960   0.006  -4.961  1.00  0.00     0.010 A 
ATOM     30  C   UNL     1      -5.184  -0.581  -5.318  1.00  0.00    -0.014 A 
BRANCH  30  31
ATOM     31  C   UNL     1      -6.221   0.242  -5.985  1.00  0.00     0.031 A 
ATOM     32  C   UNL     1      -5.961   0.813  -7.352  1.00  0.00     0.074 A 
ATOM     33  C   UNL     1      -7.361   0.533  -5.328  1.00  0.00     0.049 A 
ATOM     34  N   UNL     1      -6.718   1.599  -8.072  1.00  0.00    -0.248 NA
ATOM     35  C   UNL     1      -4.670   0.481  -7.979  1.00  0.00     0.031 C 
ATOM     36  C   UNL     1      -7.698   0.086  -3.973  1.00  0.00     0.029 A 
ATOM     37  N   UNL     1      -8.445   1.284  -5.707  1.00  0.00    -0.354 N 
ATOM     38  C   UNL     1      -5.986   1.879  -9.220  1.00  0.00     0.074 A 
ATOM     39  C   UNL     1      -4.710   1.211  -9.084  1.00  0.00     0.031 C 
ATOM     40  C   UNL     1      -8.912   0.557  -3.643  1.00  0.00     0.029 A 
ATOM     41  C   UNL     1      -9.426   1.362  -4.746  1.00  0.00     0.049 A 
ATOM     42  H   UNL     1      -8.514   1.726  -6.584  1.00  0.00     0.167 HD
ATOM     43  C   UNL     1      -6.351   2.613 -10.298  1.00  0.00     0.031 A 
ATOM     44  C   UNL     1     -10.604   2.014  -4.752  1.00  0.00     0.031 A 
ATOM     45  C   UNL     1      -7.634   3.247 -10.440  1.00  0.00     0.049 A 
ATOM     46  C   UNL     1     -11.003   2.788  -5.979  1.00  0.00     0.074 A 
ATOM     47  C   UNL     1      -8.134   3.941 -11.527  1.00  0.00     0.029 A 
ATOM     48  N   UNL     1      -8.619   3.263  -9.464  1.00  0.00    -0.354 N 
ATOM     49  N   UNL     1     -10.333   2.966  -7.093  1.00  0.00    -0.248 NA
ATOM     50  C   UNL     1     -12.322   3.434  -5.957  1.00  0.00     0.031 C 
ATOM     51  C   UNL     1      -9.407   4.415 -11.193  1.00  0.00     0.029 A 
ATOM     52  C   UNL     1      -9.718   3.973  -9.916  1.00  0.00     0.049 A 
ATOM     53  H   UNL     1      -8.548   2.834  -8.582  1.00  0.00     0.167 HD
ATOM     54  C   UNL     1     -11.161   3.724  -7.914  1.00  0.00     0.074 A 
ATOM     55  C   UNL     1     -12.385   3.956  -7.174  1.00  0.00     0.031 C 
ATOM     56  C   UNL     1     -10.929   4.187  -9.166  1.00  0.00     0.031 A 
BRANCH  43  57
ATOM     57  C   UNL     1      -5.348   2.772 -11.409  1.00  0.00    -0.014 A 
ATOM     58  C   UNL     1      -5.013   1.693 -12.247  1.00  0.00     0.010 A 
ATOM     59  C   UNL     1      -4.766   4.030 -11.648  1.00  0.00     0.010 A 
ATOM     60  C   UNL     1      -4.089   1.861 -13.281  1.00  0.00     0.020 A 
ATOM     61  C   UNL     1      -3.861   4.209 -12.697  1.00  0.00     0.020 A 
ATOM     62  C   UNL     1      -3.516   3.118 -13.499  1.00  0.00     0.054 A 
BRANCH  62  63
ATOM     63  S   UNL     1      -2.345   3.316 -14.869  1.00  0.00     0.124 S 
ATOM     64  O   UNL     1      -1.154   2.651 -14.344  1.00  0.00    -0.237 OA
ATOM     65  O   UNL     1      -3.015   2.625 -15.967  1.00  0.00    -0.237 OA
ATOM     66  O   UNL     1      -2.232   4.764 -15.024  1.00  0.00    -0.744 OA
ENDBRANCH  62  63
ENDBRANCH  43  57
BRANCH  44  67
ATOM     67  C   UNL     1     -11.499   1.950  -3.564  1.00  0.00    -0.014 A 
ATOM     68  C   UNL     1     -12.697   1.216  -3.610  1.00  0.00     0.010 A 
ATOM     69  C   UNL     1     -11.154   2.622  -2.378  1.00  0.00     0.010 A 
ATOM     70  C   UNL     1     -13.548   1.178  -2.501  1.00  0.00     0.020 A 
ATOM     71  C   UNL     1     -11.988   2.564  -1.258  1.00  0.00     0.020 A 
ATOM     72  C   UNL     1     -13.188   1.855  -1.332  1.00  0.00     0.054 A 
BRANCH  72  73
ATOM     73  S   UNL     1     -14.287   1.761   0.109  1.00  0.00     0.124 S 
ATOM     74  O   UNL     1     -15.360   2.675  -0.269  1.00  0.00    -0.237 OA
ATOM     75  O   UNL     1     -14.645   0.345   0.145  1.00  0.00    -0.237 OA
ATOM     76  O   UNL     1     -13.440   2.209   1.212  1.00  0.00    -0.744 OA
ENDBRANCH  72  73
ENDBRANCH  44  67
BRANCH  56  77
ATOM     77  C   UNL     1     -12.033   4.962  -9.832  1.00  0.00    -0.014 A 
ATOM     78  C   UNL     1     -12.339   6.276  -9.438  1.00  0.00     0.010 A 
ATOM     79  C   UNL     1     -12.736   4.382 -10.903  1.00  0.00     0.010 A 
ATOM     80  C   UNL     1     -13.352   6.987 -10.086  1.00  0.00     0.020 A 
ATOM     81  C   UNL     1     -13.732   5.100 -11.570  1.00  0.00     0.020 A 
ATOM     82  C   UNL     1     -14.043   6.393 -11.147  1.00  0.00     0.054 A 
BRANCH  82  83
ATOM     83  S   UNL     1     -15.324   7.351 -12.002  1.00  0.00     0.124 S 
ATOM     84  O   UNL     1     -16.429   7.297 -11.049  1.00  0.00    -0.237 OA
ATOM     85  O   UNL     1     -14.695   8.660 -12.161  1.00  0.00    -0.237 OA
ATOM     86  O   UNL     1     -15.536   6.614 -13.245  1.00  0.00    -0.744 OA
ENDBRANCH  82  83
ENDBRANCH  56  77
ENDBRANCH  30  31
ENDBRANCH  22  25
ENDBRANCH  20  21
ENDBRANCH  19  20
ENDBRANCH   1  19
TORSDOF 17
