REMARK SMILES O=C(NCCCCNC(=O)c1ccc(-c2c3nc(c(-c4ccc(S(=O)(=O)[O-])cc4)c4ccc([nH]4)c(-c4ccc(S(=O)(=O)[O-])cc4)c4nc(c(-c5ccc(S(=O)(=O)[O-])cc5)c5ccc2[nH]5)C=C4)C=C3)cc1)C1=Cc2ccc(Cl)c(Cl)c2O[C@@H]1C(F)(F)F
REMARK SMILES IDX 6 1 5 2 4 3 3 4 1 5 2 6 71 8 72 9 82 10 73 11 81 12 74 13
REMARK SMILES IDX 80 14 75 15 78 16 76 17 79 18 77 19 83 20 84 21 85 22 86 23
REMARK SMILES IDX 7 24 8 25 9 26 10 28 11 29 12 30 70 31 13 32 69 33 14 34
REMARK SMILES IDX 15 35 16 36 63 37 17 38 68 39 62 40 64 41 18 42 67 43 61 44
REMARK SMILES IDX 60 45 19 47 49 48 30 49 48 50 31 51 34 52 47 53 65 54 32 55
REMARK SMILES IDX 33 56 46 58 66 59 35 60 20 61 21 62 29 63 22 64 28 65 23 66
REMARK SMILES IDX 24 67 25 68 26 69 27 70 50 71 51 72 59 73 52 74 58 75 53 76
REMARK SMILES IDX 54 77 55 78 56 79 57 80 36 81 37 82 45 83 38 84 44 85 39 86
REMARK SMILES IDX 40 87 41 88 42 89 43 90
REMARK H PARENT 3 7 8 27 64 46 34 57
REMARK Flexibility Score: inf
ROOT
ATOM      1  C   UNL     1       3.937   2.642  -3.571  1.00  0.00     0.023 C 
ENDROOT
BRANCH   1   2
ATOM      2  C   UNL     1       4.287   1.214  -3.169  1.00  0.00     0.023 C 
BRANCH   2   3
ATOM      3  C   UNL     1       4.004   0.831  -1.721  1.00  0.00     0.116 C 
BRANCH   3   4
ATOM      4  N   UNL     1       2.716   0.198  -1.483  1.00  0.00    -0.352 N 
ATOM      5  O   UNL     1       1.133  -0.926  -0.339  1.00  0.00    -0.270 OA
ATOM      6  C   UNL     1       2.316  -0.611  -0.451  1.00  0.00     0.251 C 
ATOM      7  H   UNL     1       2.029   0.377  -2.165  1.00  0.00     0.163 HD
BRANCH   6   8
ATOM      8  C   UNL     1       3.264  -1.050   0.616  1.00  0.00     0.067 C 
ATOM      9  C   UNL     1       4.509  -1.443   0.309  1.00  0.00     0.025 C 
ATOM     10  C   UNL     1       2.999  -0.406   1.954  1.00  0.00     0.314 C 
ATOM     11  C   UNL     1       5.553  -0.534   0.814  1.00  0.00     0.019 A 
ATOM     12  O   UNL     1       3.978   0.615   2.272  1.00  0.00    -0.474 OA
ATOM     13  C   UNL     1       6.802  -0.562   0.185  1.00  0.00     0.013 A 
ATOM     14  C   UNL     1       5.217   0.520   1.680  1.00  0.00     0.148 A 
ATOM     15  C   UNL     1       7.689   0.499   0.362  1.00  0.00     0.023 A 
ATOM     16  C   UNL     1       6.122   1.576   1.876  1.00  0.00     0.102 A 
ATOM     17  C   UNL     1       7.347   1.571   1.193  1.00  0.00     0.063 A 
ATOM     18  Cl  UNL     1       5.666   2.906   2.890  1.00  0.00    -0.079 Cl
ATOM     19  Cl  UNL     1       8.466   2.885   1.286  1.00  0.00    -0.083 Cl
BRANCH  10  20
ATOM     20  C   UNL     1       2.916  -1.463   3.070  1.00  0.00     0.429 C 
ATOM     21  F   UNL     1       2.572  -0.909   4.256  1.00  0.00    -0.167 F 
ATOM     22  F   UNL     1       1.992  -2.415   2.797  1.00  0.00    -0.167 F 
ATOM     23  F   UNL     1       4.097  -2.104   3.257  1.00  0.00    -0.167 F 
ENDBRANCH  10  20
ENDBRANCH   6   8
ENDBRANCH   3   4
ENDBRANCH   2   3
ENDBRANCH   1   2
BRANCH   1  24
ATOM     24  C   UNL     1       4.545   3.763  -2.727  1.00  0.00     0.116 C 
BRANCH  24  25
ATOM     25  N   UNL     1       5.995   3.705  -2.582  1.00  0.00    -0.352 N 
ATOM     26  C   UNL     1       6.949   4.681  -2.809  1.00  0.00     0.251 C 
ATOM     27  H   UNL     1       6.350   2.840  -2.275  1.00  0.00     0.163 HD
ATOM     28  O   UNL     1       8.132   4.426  -2.668  1.00  0.00    -0.269 OA
BRANCH  26  29
ATOM     29  C   UNL     1       6.522   6.015  -3.297  1.00  0.00     0.039 A 
ATOM     30  C   UNL     1       7.107   6.516  -4.463  1.00  0.00     0.014 A 
ATOM     31  C   UNL     1       5.483   6.709  -2.676  1.00  0.00     0.014 A 
ATOM     32  C   UNL     1       6.543   7.628  -5.092  1.00  0.00     0.010 A 
ATOM     33  C   UNL     1       4.873   7.768  -3.344  1.00  0.00     0.010 A 
ATOM     34  C   UNL     1       5.368   8.205  -4.582  1.00  0.00    -0.014 A 
BRANCH  34  35
ATOM     35  C   UNL     1       4.574   9.170  -5.387  1.00  0.00     0.031 A 
ATOM     36  C   UNL     1       4.328  10.568  -4.901  1.00  0.00     0.074 A 
ATOM     37  C   UNL     1       3.971   8.736  -6.514  1.00  0.00     0.049 A 
ATOM     38  N   UNL     1       3.594  11.508  -5.439  1.00  0.00    -0.248 NA
ATOM     39  C   UNL     1       4.966  10.950  -3.633  1.00  0.00     0.031 C 
ATOM     40  C   UNL     1       4.066   7.377  -7.056  1.00  0.00     0.029 A 
ATOM     41  N   UNL     1       3.143   9.384  -7.396  1.00  0.00    -0.354 N 
ATOM     42  C   UNL     1       3.668  12.589  -4.571  1.00  0.00     0.074 A 
ATOM     43  C   UNL     1       4.483  12.170  -3.449  1.00  0.00     0.031 C 
ATOM     44  C   UNL     1       3.340   7.298  -8.182  1.00  0.00     0.029 A 
ATOM     45  C   UNL     1       2.698   8.586  -8.424  1.00  0.00     0.049 A 
ATOM     46  H   UNL     1       2.891  10.331  -7.302  1.00  0.00     0.167 HD
ATOM     47  C   UNL     1       3.121  13.822  -4.700  1.00  0.00     0.031 A 
ATOM     48  C   UNL     1       1.857   8.847  -9.443  1.00  0.00     0.031 A 
ATOM     49  C   UNL     1       2.305  14.234  -5.812  1.00  0.00     0.049 A 
ATOM     50  C   UNL     1       1.265  10.220  -9.573  1.00  0.00     0.074 A 
ATOM     51  C   UNL     1       1.765  15.482  -6.068  1.00  0.00     0.029 A 
ATOM     52  N   UNL     1       1.900  13.403  -6.846  1.00  0.00    -0.354 N 
ATOM     53  N   UNL     1       1.423  11.258  -8.789  1.00  0.00    -0.248 NA
ATOM     54  C   UNL     1       0.387  10.458 -10.726  1.00  0.00     0.031 C 
ATOM     55  C   UNL     1       0.995  15.394  -7.235  1.00  0.00     0.029 A 
ATOM     56  C   UNL     1       1.091  14.102  -7.728  1.00  0.00     0.049 A 
ATOM     57  H   UNL     1       2.150  12.456  -6.940  1.00  0.00     0.167 HD
ATOM     58  C   UNL     1       0.666  12.277  -9.353  1.00  0.00     0.074 A 
ATOM     59  C   UNL     1       0.068  11.736 -10.557  1.00  0.00     0.031 C 
ATOM     60  C   UNL     1       0.482  13.545  -8.910  1.00  0.00     0.031 A 
BRANCH  47  61
ATOM     61  C   UNL     1       3.387  14.804  -3.591  1.00  0.00    -0.014 A 
ATOM     62  C   UNL     1       4.670  15.353  -3.405  1.00  0.00     0.010 A 
ATOM     63  C   UNL     1       2.351  15.171  -2.715  1.00  0.00     0.010 A 
ATOM     64  C   UNL     1       4.927  16.198  -2.323  1.00  0.00     0.020 A 
ATOM     65  C   UNL     1       2.599  16.038  -1.646  1.00  0.00     0.020 A 
ATOM     66  C   UNL     1       3.892  16.523  -1.441  1.00  0.00     0.054 A 
BRANCH  66  67
ATOM     67  S   UNL     1       4.257  17.596  -0.025  1.00  0.00     0.124 S 
ATOM     68  O   UNL     1       4.918  16.669   0.890  1.00  0.00    -0.237 OA
ATOM     69  O   UNL     1       5.119  18.621  -0.609  1.00  0.00    -0.237 OA
ATOM     70  O   UNL     1       2.941  18.064   0.402  1.00  0.00    -0.744 OA
ENDBRANCH  66  67
ENDBRANCH  47  61
BRANCH  48  71
ATOM     71  C   UNL     1       1.540   7.771 -10.419  1.00  0.00    -0.014 A 
ATOM     72  C   UNL     1       2.137   7.766 -11.691  1.00  0.00     0.010 A 
ATOM     73  C   UNL     1       0.697   6.706 -10.052  1.00  0.00     0.010 A 
ATOM     74  C   UNL     1       1.905   6.709 -12.576  1.00  0.00     0.020 A 
ATOM     75  C   UNL     1       0.480   5.638 -10.926  1.00  0.00     0.020 A 
ATOM     76  C   UNL     1       1.085   5.646 -12.184  1.00  0.00     0.054 A 
BRANCH  76  77
ATOM     77  S   UNL     1       0.885   4.232 -13.305  1.00  0.00     0.124 S 
ATOM     78  O   UNL     1      -0.062   4.752 -14.285  1.00  0.00    -0.237 OA
ATOM     79  O   UNL     1       2.246   4.017 -13.791  1.00  0.00    -0.237 OA
ATOM     80  O   UNL     1       0.373   3.178 -12.432  1.00  0.00    -0.744 OA
ENDBRANCH  76  77
ENDBRANCH  48  71
BRANCH  60  81
ATOM     81  C   UNL     1      -0.413  14.435  -9.726  1.00  0.00    -0.014 A 
ATOM     82  C   UNL     1      -1.810  14.281  -9.684  1.00  0.00     0.010 A 
ATOM     83  C   UNL     1       0.143  15.470 -10.498  1.00  0.00     0.010 A 
ATOM     84  C   UNL     1      -2.636  15.138 -10.416  1.00  0.00     0.020 A 
ATOM     85  C   UNL     1      -0.681  16.342 -11.215  1.00  0.00     0.020 A 
ATOM     86  C   UNL     1      -2.066  16.163 -11.178  1.00  0.00     0.054 A 
BRANCH  86  87
ATOM     87  S   UNL     1      -3.161  17.298 -12.076  1.00  0.00     0.124 S 
ATOM     88  O   UNL     1      -3.569  16.485 -13.218  1.00  0.00    -0.237 OA
ATOM     89  O   UNL     1      -4.209  17.578 -11.097  1.00  0.00    -0.237 OA
ATOM     90  O   UNL     1      -2.296  18.432 -12.394  1.00  0.00    -0.744 OA
ENDBRANCH  86  87
ENDBRANCH  60  81
ENDBRANCH  34  35
ENDBRANCH  26  29
ENDBRANCH  24  25
ENDBRANCH   1  24
TORSDOF 15
