REMARK SMILES NS(=O)(=O)c1ccc(NS(=O)(=O)c2cccc(C(=O)NCCCCNC(=O)c3ccc(-c4c5nc(c(-c6ccc(S(=O)(=O)[O-])cc6)c6ccc([nH]6)c(-c6ccc(S(=O)(=O)[O-])cc6)c6nc(c(-c7ccc(S(=O)(=O)[O-])cc7)c7ccc4[nH]7)C=C6)C=C5)cc3)c2)cc1
REMARK SMILES IDX 21 1 20 2 18 3 19 4 17 6 13 7 14 8 88 9 15 10 16 11 10 12
REMARK SMILES IDX 11 13 12 14 9 15 8 17 5 18 6 19 90 20 7 21 89 22 2 23 3 24
REMARK SMILES IDX 4 25 1 26 22 29 23 30 24 31 25 32 26 33 27 35 28 36 29 37
REMARK SMILES IDX 87 38 30 39 86 40 31 41 32 42 33 43 80 44 34 45 85 46 79 47
REMARK SMILES IDX 81 48 35 49 84 50 78 51 77 52 36 54 66 55 47 56 65 57 48 58
REMARK SMILES IDX 51 59 64 60 82 61 49 62 50 63 63 65 83 66 52 67 37 68 38 69
REMARK SMILES IDX 46 70 39 71 45 72 40 73 41 74 42 75 43 76 44 77 67 78 68 79
REMARK SMILES IDX 76 80 69 81 75 82 70 83 71 84 72 85 73 86 74 87 53 88 54 89
REMARK SMILES IDX 62 90 55 91 61 92 56 93 57 94 58 95 59 96 60 97
REMARK H PARENT 20 5 9 16 1 27 1 28 25 34 81 53 51 64
REMARK Flexibility Score: inf
ROOT
ATOM      1  C   UNL     1       1.908  -6.525  -9.060  1.00  0.00     0.116 C 
ENDROOT
BRANCH   1   2
ATOM      2  N   UNL     1       1.705  -7.452  -7.953  1.00  0.00    -0.352 N 
ATOM      3  C   UNL     1       1.973  -7.353  -6.605  1.00  0.00     0.251 C 
ATOM      4  O   UNL     1       1.736  -8.309  -5.870  1.00  0.00    -0.269 OA
ATOM      5  H   UNL     1       1.302  -8.310  -8.219  1.00  0.00     0.163 HD
BRANCH   3   6
ATOM      6  C   UNL     1       2.591  -6.137  -6.020  1.00  0.00     0.041 A 
ATOM      7  C   UNL     1       3.069  -3.775  -6.116  1.00  0.00     0.088 A 
ATOM      8  C   UNL     1       4.028  -3.900  -5.111  1.00  0.00     0.022 A 
ATOM      9  C   UNL     1       2.286  -4.867  -6.489  1.00  0.00     0.036 A 
ATOM     10  C   UNL     1       4.212  -5.146  -4.505  1.00  0.00     0.002 A 
ATOM     11  C   UNL     1       3.515  -6.267  -4.976  1.00  0.00     0.014 A 
BRANCH   7  12
ATOM     12  S   UNL     1       2.808  -2.252  -6.992  1.00  0.00     0.261 S 
ATOM     13  O   UNL     1       1.537  -2.340  -7.676  1.00  0.00    -0.201 OA
ATOM     14  O   UNL     1       4.032  -1.979  -7.715  1.00  0.00    -0.201 OA
BRANCH  12  15
ATOM     15  N   UNL     1       2.689  -1.075  -5.829  1.00  0.00    -0.280 N 
ATOM     16  H   UNL     1       3.317  -0.319  -5.898  1.00  0.00     0.180 HD
BRANCH  15  17
ATOM     17  C   UNL     1       1.775  -1.047  -4.747  1.00  0.00     0.049 A 
ATOM     18  C   UNL     1       0.534  -1.052  -2.254  1.00  0.00     0.082 A 
ATOM     19  C   UNL     1       0.394  -2.154  -3.096  1.00  0.00     0.024 A 
ATOM     20  C   UNL     1       1.192   0.097  -2.693  1.00  0.00     0.024 A 
ATOM     21  C   UNL     1       0.986  -2.132  -4.360  1.00  0.00     0.028 A 
ATOM     22  C   UNL     1       1.818   0.091  -3.938  1.00  0.00     0.028 A 
BRANCH  18  23
ATOM     23  S   UNL     1       0.015  -1.206  -0.573  1.00  0.00     0.238 S 
ATOM     24  O   UNL     1       0.464  -2.487  -0.072  1.00  0.00    -0.207 OA
ATOM     25  O   UNL     1      -1.342  -0.744  -0.460  1.00  0.00    -0.207 OA
BRANCH  23  26
ATOM     26  N   UNL     1       0.966  -0.078   0.239  1.00  0.00    -0.225 NA
ATOM     27  H   UNL     1       0.736  -0.092   1.233  1.00  0.00     0.137 HD
ATOM     28  H   UNL     1       0.787   0.852  -0.138  1.00  0.00     0.137 HD
ENDBRANCH  23  26
ENDBRANCH  18  23
ENDBRANCH  15  17
ENDBRANCH  12  15
ENDBRANCH   7  12
ENDBRANCH   3   6
ENDBRANCH   1   2
BRANCH   1  29
ATOM     29  C   UNL     1       2.930  -6.986 -10.089  1.00  0.00     0.023 C 
BRANCH  29  30
ATOM     30  C   UNL     1       2.499  -8.146 -10.974  1.00  0.00     0.023 C 
BRANCH  30  31
ATOM     31  C   UNL     1       1.125  -8.013 -11.618  1.00  0.00     0.116 C 
BRANCH  31  32
ATOM     32  N   UNL     1       0.933  -6.786 -12.383  1.00  0.00    -0.352 N 
ATOM     33  C   UNL     1       0.305  -6.631 -13.600  1.00  0.00     0.251 C 
ATOM     34  H   UNL     1       1.298  -5.966 -11.980  1.00  0.00     0.163 HD
ATOM     35  O   UNL     1       0.258  -5.537 -14.149  1.00  0.00    -0.269 OA
BRANCH  33  36
ATOM     36  C   UNL     1      -0.265  -7.825 -14.257  1.00  0.00     0.039 A 
ATOM     37  C   UNL     1       0.163  -8.158 -15.544  1.00  0.00     0.014 A 
ATOM     38  C   UNL     1      -1.131  -8.665 -13.553  1.00  0.00     0.014 A 
ATOM     39  C   UNL     1      -0.199  -9.392 -16.089  1.00  0.00     0.010 A 
ATOM     40  C   UNL     1      -1.425  -9.922 -14.067  1.00  0.00     0.010 A 
ATOM     41  C   UNL     1      -0.951 -10.304 -15.333  1.00  0.00    -0.014 A 
BRANCH  41  42
ATOM     42  C   UNL     1      -1.257 -11.671 -15.825  1.00  0.00     0.031 A 
ATOM     43  C   UNL     1      -2.689 -12.081 -16.026  1.00  0.00     0.074 A 
ATOM     44  C   UNL     1      -0.265 -12.571 -15.983  1.00  0.00     0.049 A 
ATOM     45  N   UNL     1      -3.182 -13.266 -16.276  1.00  0.00    -0.248 NA
ATOM     46  C   UNL     1      -3.704 -11.022 -15.890  1.00  0.00     0.031 C 
ATOM     47  C   UNL     1       1.163 -12.309 -15.786  1.00  0.00     0.029 A 
ATOM     48  N   UNL     1      -0.313 -13.900 -16.325  1.00  0.00    -0.354 N 
ATOM     49  C   UNL     1      -4.562 -13.104 -16.288  1.00  0.00     0.074 A 
ATOM     50  C   UNL     1      -4.829 -11.714 -15.986  1.00  0.00     0.031 C 
ATOM     51  C   UNL     1       1.855 -13.436 -16.026  1.00  0.00     0.029 A 
ATOM     52  C   UNL     1       0.920 -14.510 -16.347  1.00  0.00     0.049 A 
ATOM     53  H   UNL     1      -1.151 -14.372 -16.535  1.00  0.00     0.167 HD
ATOM     54  C   UNL     1      -5.521 -14.025 -16.540  1.00  0.00     0.031 A 
ATOM     55  C   UNL     1       1.259 -15.792 -16.584  1.00  0.00     0.031 A 
ATOM     56  C   UNL     1      -5.251 -15.398 -16.871  1.00  0.00     0.049 A 
ATOM     57  C   UNL     1       0.178 -16.794 -16.885  1.00  0.00     0.074 A 
ATOM     58  C   UNL     1      -6.151 -16.398 -17.194  1.00  0.00     0.029 A 
ATOM     59  N   UNL     1      -3.985 -15.961 -16.932  1.00  0.00    -0.354 N 
ATOM     60  N   UNL     1      -1.121 -16.614 -16.928  1.00  0.00    -0.248 NA
ATOM     61  C   UNL     1       0.607 -18.168 -17.180  1.00  0.00     0.031 C 
ATOM     62  C   UNL     1      -5.430 -17.575 -17.423  1.00  0.00     0.029 A 
ATOM     63  C   UNL     1      -4.080 -17.295 -17.285  1.00  0.00     0.049 A 
ATOM     64  H   UNL     1      -3.144 -15.482 -16.752  1.00  0.00     0.167 HD
ATOM     65  C   UNL     1      -1.661 -17.845 -17.285  1.00  0.00     0.074 A 
ATOM     66  C   UNL     1      -0.550 -18.759 -17.451  1.00  0.00     0.031 C 
ATOM     67  C   UNL     1      -2.961 -18.185 -17.463  1.00  0.00     0.031 A 
BRANCH  54  68
ATOM     68  C   UNL     1      -6.952 -13.570 -16.461  1.00  0.00    -0.014 A 
ATOM     69  C   UNL     1      -7.496 -12.713 -17.435  1.00  0.00     0.010 A 
ATOM     70  C   UNL     1      -7.771 -14.018 -15.408  1.00  0.00     0.010 A 
ATOM     71  C   UNL     1      -8.817 -12.272 -17.330  1.00  0.00     0.020 A 
ATOM     72  C   UNL     1      -9.101 -13.600 -15.315  1.00  0.00     0.020 A 
ATOM     73  C   UNL     1      -9.609 -12.713 -16.266  1.00  0.00     0.054 A 
BRANCH  73  74
ATOM     74  S   UNL     1     -11.324 -12.132 -16.158  1.00  0.00     0.124 S 
ATOM     75  O   UNL     1     -11.148 -10.770 -15.660  1.00  0.00    -0.237 OA
ATOM     76  O   UNL     1     -11.789 -12.240 -17.538  1.00  0.00    -0.237 OA
ATOM     77  O   UNL     1     -11.946 -13.063 -15.220  1.00  0.00    -0.744 OA
ENDBRANCH  73  74
ENDBRANCH  54  68
BRANCH  55  78
ATOM     78  C   UNL     1       2.690 -16.200 -16.562  1.00  0.00    -0.014 A 
ATOM     79  C   UNL     1       3.361 -16.493 -17.763  1.00  0.00     0.010 A 
ATOM     80  C   UNL     1       3.393 -16.287 -15.347  1.00  0.00     0.010 A 
ATOM     81  C   UNL     1       4.703 -16.882 -17.748  1.00  0.00     0.020 A 
ATOM     82  C   UNL     1       4.742 -16.652 -15.331  1.00  0.00     0.020 A 
ATOM     83  C   UNL     1       5.386 -16.959 -16.532  1.00  0.00     0.054 A 
BRANCH  83  84
ATOM     84  S   UNL     1       7.143 -17.414 -16.540  1.00  0.00     0.124 S 
ATOM     85  O   UNL     1       7.082 -18.856 -16.759  1.00  0.00    -0.237 OA
ATOM     86  O   UNL     1       7.670 -16.626 -17.652  1.00  0.00    -0.237 OA
ATOM     87  O   UNL     1       7.608 -16.999 -15.218  1.00  0.00    -0.744 OA
ENDBRANCH  83  84
ENDBRANCH  55  78
BRANCH  67  88
ATOM     88  C   UNL     1      -3.258 -19.588 -17.913  1.00  0.00    -0.014 A 
ATOM     89  C   UNL     1      -3.185 -20.671 -17.020  1.00  0.00     0.010 A 
ATOM     90  C   UNL     1      -3.693 -19.810 -19.232  1.00  0.00     0.010 A 
ATOM     91  C   UNL     1      -3.528 -21.957 -17.446  1.00  0.00     0.020 A 
ATOM     92  C   UNL     1      -4.058 -21.091 -19.654  1.00  0.00     0.020 A 
ATOM     93  C   UNL     1      -3.964 -22.159 -18.760  1.00  0.00     0.054 A 
BRANCH  93  94
ATOM     94  S   UNL     1      -4.467 -23.825 -19.271  1.00  0.00     0.124 S 
ATOM     95  O   UNL     1      -3.179 -24.491 -19.447  1.00  0.00    -0.237 OA
ATOM     96  O   UNL     1      -5.262 -24.285 -18.134  1.00  0.00    -0.237 OA
ATOM     97  O   UNL     1      -5.224 -23.596 -20.500  1.00  0.00    -0.744 OA
ENDBRANCH  93  94
ENDBRANCH  67  88
ENDBRANCH  41  42
ENDBRANCH  33  36
ENDBRANCH  31  32
ENDBRANCH  30  31
ENDBRANCH  29  30
ENDBRANCH   1  29
TORSDOF 19
