REMARK SMILES O=C(NCCCCNC(=O)c1ccccc1Nc1nc(Cl)nc(Nc2ccc(N3CCOCC3=O)cc2)n1)c1ccc(-c2c3nc(c(-c4ccc(S(=O)(=O)[O-])cc4)c4ccc([nH]4)c(-c4ccc(S(=O)(=O)[O-])cc4)c4nc(c(-c5ccc(S(=O)(=O)[O-])cc5)c5ccc2[nH]5)C=C4)C=C3)cc1
REMARK SMILES IDX 6 1 5 2 4 3 3 4 1 5 2 6 39 8 40 9 98 10 41 11 97 12 42 13
REMARK SMILES IDX 43 14 44 15 91 16 45 17 96 18 90 19 92 20 46 21 95 22 89 23
REMARK SMILES IDX 88 24 47 26 77 27 58 28 76 29 59 30 62 31 75 32 93 33 60 34
REMARK SMILES IDX 61 35 74 37 94 38 63 39 48 40 49 41 57 42 50 43 56 44 51 45
REMARK SMILES IDX 52 46 53 47 54 48 55 49 78 50 79 51 87 52 80 53 86 54 81 55
REMARK SMILES IDX 82 56 83 57 84 58 85 59 64 60 65 61 73 62 66 63 72 64 67 65
REMARK SMILES IDX 68 66 69 67 70 68 71 69 7 70 8 71 9 72 10 74 11 75 12 76
REMARK SMILES IDX 16 77 13 78 15 79 14 80 17 81 18 83 19 84 38 85 20 86 23 87
REMARK SMILES IDX 21 88 22 89 24 90 25 92 26 93 37 94 27 95 36 96 28 97 29 98
REMARK SMILES IDX 30 99 34 100 31 101 33 102 35 103 32 104
REMARK H PARENT 3 7 92 25 62 36 8 73 17 82 24 91
REMARK Flexibility Score: inf
ROOT
ATOM      1  C   UNL     1       4.470   0.775   3.841  1.00  0.00     0.023 C 
ENDROOT
BRANCH   1   2
ATOM      2  C   UNL     1       4.945   1.087   2.422  1.00  0.00     0.023 C 
BRANCH   2   3
ATOM      3  C   UNL     1       4.603   0.041   1.368  1.00  0.00     0.116 C 
BRANCH   3   4
ATOM      4  N   UNL     1       3.170  -0.124   1.178  1.00  0.00    -0.352 N 
ATOM      5  O   UNL     1       1.180   0.042   0.136  1.00  0.00    -0.269 OA
ATOM      6  C   UNL     1       2.405   0.090   0.056  1.00  0.00     0.251 C 
ATOM      7  H   UNL     1       2.675  -0.433   1.971  1.00  0.00     0.163 HD
BRANCH   6   8
ATOM      8  C   UNL     1       3.052   0.403  -1.237  1.00  0.00     0.039 A 
ATOM      9  C   UNL     1       4.155  -0.329  -1.684  1.00  0.00     0.014 A 
ATOM     10  C   UNL     1       2.539   1.441  -2.020  1.00  0.00     0.014 A 
ATOM     11  C   UNL     1       4.831   0.068  -2.833  1.00  0.00     0.010 A 
ATOM     12  C   UNL     1       3.171   1.786  -3.219  1.00  0.00     0.010 A 
ATOM     13  C   UNL     1       4.342   1.124  -3.619  1.00  0.00    -0.014 A 
BRANCH  13  14
ATOM     14  C   UNL     1       5.031   1.476  -4.887  1.00  0.00     0.031 A 
ATOM     15  C   UNL     1       5.690   2.815  -5.072  1.00  0.00     0.074 A 
ATOM     16  C   UNL     1       5.059   0.568  -5.882  1.00  0.00     0.049 A 
ATOM     17  N   UNL     1       6.331   3.278  -6.116  1.00  0.00    -0.248 NA
ATOM     18  C   UNL     1       5.616   3.759  -3.946  1.00  0.00     0.031 C 
ATOM     19  C   UNL     1       4.440  -0.759  -5.827  1.00  0.00     0.029 A 
ATOM     20  N   UNL     1       5.630   0.617  -7.128  1.00  0.00    -0.354 N 
ATOM     21  C   UNL     1       6.715   4.573  -5.786  1.00  0.00     0.074 A 
ATOM     22  C   UNL     1       6.217   4.829  -4.450  1.00  0.00     0.031 C 
ATOM     23  C   UNL     1       4.686  -1.406  -6.975  1.00  0.00     0.029 A 
ATOM     24  C   UNL     1       5.428  -0.522  -7.868  1.00  0.00     0.049 A 
ATOM     25  H   UNL     1       6.136   1.394  -7.460  1.00  0.00     0.167 HD
ATOM     26  C   UNL     1       7.417   5.465  -6.527  1.00  0.00     0.031 A 
ATOM     27  C   UNL     1       5.773  -0.822  -9.134  1.00  0.00     0.031 A 
ATOM     28  C   UNL     1       7.904   5.205  -7.858  1.00  0.00     0.049 A 
ATOM     29  C   UNL     1       6.535   0.186  -9.942  1.00  0.00     0.074 A 
ATOM     30  C   UNL     1       8.664   6.027  -8.672  1.00  0.00     0.029 A 
ATOM     31  N   UNL     1       7.669   4.041  -8.576  1.00  0.00    -0.354 N 
ATOM     32  N   UNL     1       6.935   1.385  -9.591  1.00  0.00    -0.248 NA
ATOM     33  C   UNL     1       6.895  -0.198 -11.312  1.00  0.00     0.031 C 
ATOM     34  C   UNL     1       8.842   5.382  -9.902  1.00  0.00     0.029 A 
ATOM     35  C   UNL     1       8.242   4.135  -9.834  1.00  0.00     0.049 A 
ATOM     36  H   UNL     1       7.168   3.262  -8.241  1.00  0.00     0.167 HD
ATOM     37  C   UNL     1       7.604   1.897 -10.696  1.00  0.00     0.074 A 
ATOM     38  C   UNL     1       7.571   0.870 -11.718  1.00  0.00     0.031 C 
ATOM     39  C   UNL     1       8.191   3.110 -10.847  1.00  0.00     0.031 A 
BRANCH  26  40
ATOM     40  C   UNL     1       7.666   6.825  -5.927  1.00  0.00    -0.014 A 
ATOM     41  C   UNL     1       8.568   7.001  -4.862  1.00  0.00     0.010 A 
ATOM     42  C   UNL     1       7.005   7.949  -6.455  1.00  0.00     0.010 A 
ATOM     43  C   UNL     1       8.762   8.268  -4.301  1.00  0.00     0.020 A 
ATOM     44  C   UNL     1       7.216   9.221  -5.914  1.00  0.00     0.020 A 
ATOM     45  C   UNL     1       8.077   9.368  -4.824  1.00  0.00     0.054 A 
BRANCH  45  46
ATOM     46  S   UNL     1       8.337  10.998  -4.072  1.00  0.00     0.124 S 
ATOM     47  O   UNL     1       7.576  10.880  -2.830  1.00  0.00    -0.237 OA
ATOM     48  O   UNL     1       9.788  11.053  -3.914  1.00  0.00    -0.237 OA
ATOM     49  O   UNL     1       7.785  11.927  -5.055  1.00  0.00    -0.744 OA
ENDBRANCH  45  46
ENDBRANCH  26  40
BRANCH  27  50
ATOM     50  C   UNL     1       5.369  -2.135  -9.702  1.00  0.00    -0.014 A 
ATOM     51  C   UNL     1       6.315  -3.153  -9.904  1.00  0.00     0.010 A 
ATOM     52  C   UNL     1       4.012  -2.395  -9.971  1.00  0.00     0.010 A 
ATOM     53  C   UNL     1       5.910  -4.410 -10.363  1.00  0.00     0.020 A 
ATOM     54  C   UNL     1       3.600  -3.657 -10.404  1.00  0.00     0.020 A 
ATOM     55  C   UNL     1       4.554  -4.656 -10.602  1.00  0.00     0.054 A 
BRANCH  55  56
ATOM     56  S   UNL     1       4.041  -6.321 -11.109  1.00  0.00     0.124 S 
ATOM     57  O   UNL     1       4.449  -6.351 -12.509  1.00  0.00    -0.237 OA
ATOM     58  O   UNL     1       4.808  -7.177 -10.207  1.00  0.00    -0.237 OA
ATOM     59  O   UNL     1       2.598  -6.319 -10.876  1.00  0.00    -0.744 OA
ENDBRANCH  55  56
ENDBRANCH  27  50
BRANCH  39  60
ATOM     60  C   UNL     1       8.862   3.390 -12.164  1.00  0.00    -0.014 A 
ATOM     61  C   UNL     1       8.108   3.659 -13.320  1.00  0.00     0.010 A 
ATOM     62  C   UNL     1      10.266   3.443 -12.231  1.00  0.00     0.010 A 
ATOM     63  C   UNL     1       8.748   3.954 -14.527  1.00  0.00     0.020 A 
ATOM     64  C   UNL     1      10.909   3.761 -13.430  1.00  0.00     0.020 A 
ATOM     65  C   UNL     1      10.145   4.003 -14.574  1.00  0.00     0.054 A 
BRANCH  65  66
ATOM     66  S   UNL     1      10.952   4.442 -16.138  1.00  0.00     0.124 S 
ATOM     67  O   UNL     1      10.798   3.215 -16.914  1.00  0.00    -0.237 OA
ATOM     68  O   UNL     1      10.162   5.582 -16.599  1.00  0.00    -0.237 OA
ATOM     69  O   UNL     1      12.322   4.762 -15.743  1.00  0.00    -0.744 OA
ENDBRANCH  65  66
ENDBRANCH  39  60
ENDBRANCH  13  14
ENDBRANCH   6   8
ENDBRANCH   3   4
ENDBRANCH   2   3
ENDBRANCH   1   2
BRANCH   1  70
ATOM     70  C   UNL     1       4.849  -0.603   4.377  1.00  0.00     0.116 C 
BRANCH  70  71
ATOM     71  N   UNL     1       6.283  -0.849   4.369  1.00  0.00    -0.352 N 
ATOM     72  C   UNL     1       7.061  -1.420   5.345  1.00  0.00     0.253 C 
ATOM     73  H   UNL     1       6.759  -0.567   3.555  1.00  0.00     0.163 HD
ATOM     74  O   UNL     1       8.271  -1.549   5.184  1.00  0.00    -0.269 OA
BRANCH  72  75
ATOM     75  C   UNL     1       6.453  -1.853   6.619  1.00  0.00     0.063 A 
ATOM     76  C   UNL     1       6.915  -1.216   7.780  1.00  0.00     0.016 A 
ATOM     77  C   UNL     1       5.464  -2.853   6.681  1.00  0.00     0.054 A 
ATOM     78  C   UNL     1       6.354  -1.525   9.016  1.00  0.00     0.001 A 
ATOM     79  C   UNL     1       4.880  -3.106   7.933  1.00  0.00     0.027 A 
ATOM     80  C   UNL     1       5.324  -2.458   9.089  1.00  0.00     0.002 A 
BRANCH  77  81
ATOM     81  N   UNL     1       5.058  -3.562   5.539  1.00  0.00    -0.323 N 
ATOM     82  H   UNL     1       5.737  -3.630   4.829  1.00  0.00     0.170 HD
BRANCH  81  83
ATOM     83  C   UNL     1       3.847  -4.182   5.256  1.00  0.00     0.233 A 
ATOM     84  N   UNL     1       2.723  -3.672   5.733  1.00  0.00    -0.182 NA
ATOM     85  N   UNL     1       3.907  -5.274   4.502  1.00  0.00    -0.176 NA
ATOM     86  C   UNL     1       1.643  -4.340   5.372  1.00  0.00     0.228 A 
ATOM     87  C   UNL     1       2.759  -5.906   4.273  1.00  0.00     0.233 A 
ATOM     88  Cl  UNL     1       0.156  -3.732   5.954  1.00  0.00    -0.041 Cl
ATOM     89  N   UNL     1       1.581  -5.456   4.670  1.00  0.00    -0.182 NA
BRANCH  87  90
ATOM     90  N   UNL     1       2.872  -7.170   3.699  1.00  0.00    -0.324 N 
ATOM     91  H   UNL     1       3.780  -7.435   3.426  1.00  0.00     0.170 HD
BRANCH  90  92
ATOM     92  C   UNL     1       1.868  -8.110   3.461  1.00  0.00     0.041 A 
ATOM     93  C   UNL     1       1.974  -9.391   4.013  1.00  0.00     0.028 A 
ATOM     94  C   UNL     1       0.701  -7.778   2.770  1.00  0.00     0.028 A 
ATOM     95  C   UNL     1       0.925 -10.312   3.896  1.00  0.00     0.028 A 
ATOM     96  C   UNL     1      -0.322  -8.715   2.600  1.00  0.00     0.028 A 
ATOM     97  C   UNL     1      -0.231  -9.984   3.180  1.00  0.00     0.044 A 
BRANCH  97  98
ATOM     98  N   UNL     1      -1.317 -10.904   3.090  1.00  0.00    -0.308 N 
ATOM     99  C   UNL     1      -1.833 -11.444   4.353  1.00  0.00     0.154 C 
ATOM    100  C   UNL     1      -2.061 -11.024   1.910  1.00  0.00     0.253 C 
ATOM    101  C   UNL     1      -2.793 -12.611   4.162  1.00  0.00     0.183 C 
ATOM    102  C   UNL     1      -3.288 -11.948   1.989  1.00  0.00     0.260 C 
ATOM    103  O   UNL     1      -1.741 -10.532   0.827  1.00  0.00    -0.272 OA
ATOM    104  O   UNL     1      -3.834 -12.228   3.269  1.00  0.00    -0.370 OA
ENDBRANCH  97  98
ENDBRANCH  90  92
ENDBRANCH  87  90
ENDBRANCH  81  83
ENDBRANCH  77  81
ENDBRANCH  72  75
ENDBRANCH  70  71
ENDBRANCH   1  70
TORSDOF 19
