REMARK SMILES O=C(NCCCCNC(=O)c1cccc(NC(=S)N/N=C\c2c[nH]c3ccccc23)c1)c1ccc(-c2c3nc(c(-c4ccc(S(=O)(=O)[O-])cc4)c4ccc([nH]4)c(-c4ccc(S(=O)(=O)[O-])cc4)c4nc(c(-c5ccc(S(=O)(=O)[O-])cc5)c5ccc2[nH]5)C=C4)C=C3)cc1
REMARK SMILES IDX 6 1 5 2 4 3 3 4 1 5 2 6 32 8 33 9 91 10 34 11 90 12 35 13
REMARK SMILES IDX 36 14 37 15 84 16 38 17 89 18 83 19 85 20 39 21 88 22 82 23
REMARK SMILES IDX 81 24 40 26 70 27 51 28 69 29 52 30 55 31 68 32 86 33 53 34
REMARK SMILES IDX 54 35 67 37 87 38 56 39 41 40 42 41 50 42 43 43 49 44 44 45
REMARK SMILES IDX 45 46 46 47 47 48 48 49 71 50 72 51 80 52 73 53 79 54 74 55
REMARK SMILES IDX 75 56 76 57 77 58 78 59 57 60 58 61 66 62 59 63 65 64 60 65
REMARK SMILES IDX 61 66 62 67 63 68 64 69 7 70 8 71 9 72 10 74 11 75 12 76
REMARK SMILES IDX 31 77 13 78 15 79 14 80 16 81 17 83 18 84 19 85 20 87 21 88
REMARK SMILES IDX 22 89 23 90 30 91 24 92 25 93 29 94 26 96 28 97 27 98
REMARK H PARENT 3 7 85 25 55 36 8 73 16 82 19 86 24 95
REMARK Flexibility Score: inf
ROOT
ATOM      1  C   UNL     1       4.700   3.690   0.743  1.00  0.00     0.023 C 
ENDROOT
BRANCH   1   2
ATOM      2  C   UNL     1       5.127   2.559  -0.181  1.00  0.00     0.023 C 
BRANCH   2   3
ATOM      3  C   UNL     1       4.713   1.167   0.268  1.00  0.00     0.116 C 
BRANCH   3   4
ATOM      4  N   UNL     1       3.271   0.998   0.356  1.00  0.00    -0.352 N 
ATOM      5  O   UNL     1       1.272   0.067  -0.133  1.00  0.00    -0.269 OA
ATOM      6  C   UNL     1       2.495   0.004  -0.194  1.00  0.00     0.251 C 
ATOM      7  H   UNL     1       2.789   1.683   0.874  1.00  0.00     0.163 HD
BRANCH   6   8
ATOM      8  C   UNL     1       3.159  -1.122  -0.883  1.00  0.00     0.039 A 
ATOM      9  C   UNL     1       4.226  -1.787  -0.272  1.00  0.00     0.014 A 
ATOM     10  C   UNL     1       2.733  -1.490  -2.161  1.00  0.00     0.014 A 
ATOM     11  C   UNL     1       4.948  -2.732  -0.989  1.00  0.00     0.010 A 
ATOM     12  C   UNL     1       3.408  -2.503  -2.848  1.00  0.00     0.010 A 
ATOM     13  C   UNL     1       4.529  -3.120  -2.273  1.00  0.00    -0.014 A 
BRANCH  13  14
ATOM     14  C   UNL     1       5.204  -4.262  -2.935  1.00  0.00     0.031 A 
ATOM     15  C   UNL     1       5.993  -4.089  -4.201  1.00  0.00     0.074 A 
ATOM     16  C   UNL     1       5.090  -5.476  -2.358  1.00  0.00     0.049 A 
ATOM     17  N   UNL     1       6.632  -4.997  -4.894  1.00  0.00    -0.248 NA
ATOM     18  C   UNL     1       6.075  -2.733  -4.770  1.00  0.00     0.031 C 
ATOM     19  C   UNL     1       4.330  -5.758  -1.135  1.00  0.00     0.029 A 
ATOM     20  N   UNL     1       5.612  -6.692  -2.710  1.00  0.00    -0.354 N 
ATOM     21  C   UNL     1       7.170  -4.334  -5.991  1.00  0.00     0.074 A 
ATOM     22  C   UNL     1       6.779  -2.945  -5.876  1.00  0.00     0.031 C 
ATOM     23  C   UNL     1       4.462  -7.055  -0.823  1.00  0.00     0.029 A 
ATOM     24  C   UNL     1       5.256  -7.708  -1.855  1.00  0.00     0.049 A 
ATOM     25  H   UNL     1       6.186  -6.826  -3.499  1.00  0.00     0.167 HD
ATOM     26  C   UNL     1       7.920  -4.845  -6.997  1.00  0.00     0.031 A 
ATOM     27  C   UNL     1       5.508  -9.028  -1.909  1.00  0.00     0.031 A 
ATOM     28  C   UNL     1       8.312  -6.228  -7.090  1.00  0.00     0.049 A 
ATOM     29  C   UNL     1       6.316  -9.564  -3.052  1.00  0.00     0.074 A 
ATOM     30  C   UNL     1       9.130  -6.825  -8.035  1.00  0.00     0.029 A 
ATOM     31  N   UNL     1       7.909  -7.230  -6.222  1.00  0.00    -0.354 N 
ATOM     32  N   UNL     1       6.873  -8.907  -4.041  1.00  0.00    -0.248 NA
ATOM     33  C   UNL     1       6.523 -11.016  -3.093  1.00  0.00     0.031 C 
ATOM     34  C   UNL     1       9.172  -8.198  -7.772  1.00  0.00     0.029 A 
ATOM     35  C   UNL     1       8.423  -8.448  -6.634  1.00  0.00     0.049 A 
ATOM     36  H   UNL     1       7.340  -7.095  -5.430  1.00  0.00     0.167 HD
ATOM     37  C   UNL     1       7.497  -9.868  -4.824  1.00  0.00     0.074 A 
ATOM     38  C   UNL     1       7.278 -11.145  -4.176  1.00  0.00     0.031 C 
ATOM     39  C   UNL     1       8.181  -9.709  -5.983  1.00  0.00     0.031 A 
BRANCH  26  40
ATOM     40  C   UNL     1       8.356  -3.923  -8.105  1.00  0.00    -0.014 A 
ATOM     41  C   UNL     1       9.410  -3.011  -7.922  1.00  0.00     0.010 A 
ATOM     42  C   UNL     1       7.780  -4.057  -9.382  1.00  0.00     0.010 A 
ATOM     43  C   UNL     1       9.875  -2.245  -8.996  1.00  0.00     0.020 A 
ATOM     44  C   UNL     1       8.253  -3.306 -10.462  1.00  0.00     0.020 A 
ATOM     45  C   UNL     1       9.296  -2.400 -10.260  1.00  0.00     0.054 A 
BRANCH  45  46
ATOM     46  S   UNL     1       9.967  -1.444 -11.650  1.00  0.00     0.124 S 
ATOM     47  O   UNL     1       9.478  -0.100 -11.354  1.00  0.00    -0.237 OA
ATOM     48  O   UNL     1      11.408  -1.634 -11.504  1.00  0.00    -0.237 OA
ATOM     49  O   UNL     1       9.374  -2.077 -12.826  1.00  0.00    -0.744 OA
ENDBRANCH  45  46
ENDBRANCH  26  40
BRANCH  27  50
ATOM     50  C   UNL     1       4.933  -9.934  -0.880  1.00  0.00    -0.014 A 
ATOM     51  C   UNL     1       5.759 -10.581   0.054  1.00  0.00     0.010 A 
ATOM     52  C   UNL     1       3.542 -10.146  -0.830  1.00  0.00     0.010 A 
ATOM     53  C   UNL     1       5.206 -11.446   1.003  1.00  0.00     0.020 A 
ATOM     54  C   UNL     1       2.984 -10.985   0.136  1.00  0.00     0.020 A 
ATOM     55  C   UNL     1       3.822 -11.645   1.035  1.00  0.00     0.054 A 
BRANCH  55  56
ATOM     56  S   UNL     1       3.119 -12.748   2.291  1.00  0.00     0.124 S 
ATOM     57  O   UNL     1       3.400 -14.064   1.727  1.00  0.00    -0.237 OA
ATOM     58  O   UNL     1       3.879 -12.395   3.487  1.00  0.00    -0.237 OA
ATOM     59  O   UNL     1       1.708 -12.367   2.325  1.00  0.00    -0.744 OA
ENDBRANCH  55  56
ENDBRANCH  27  50
BRANCH  39  60
ATOM     60  C   UNL     1       8.737 -10.951  -6.620  1.00  0.00    -0.014 A 
ATOM     61  C   UNL     1       7.890 -11.861  -7.278  1.00  0.00     0.010 A 
ATOM     62  C   UNL     1      10.122 -11.193  -6.593  1.00  0.00     0.010 A 
ATOM     63  C   UNL     1       8.417 -13.008  -7.874  1.00  0.00     0.020 A 
ATOM     64  C   UNL     1      10.655 -12.326  -7.211  1.00  0.00     0.020 A 
ATOM     65  C   UNL     1       9.796 -13.234  -7.836  1.00  0.00     0.054 A 
BRANCH  65  66
ATOM     66  S   UNL     1      10.461 -14.709  -8.655  1.00  0.00     0.124 S 
ATOM     67  O   UNL     1      10.097 -15.767  -7.716  1.00  0.00    -0.237 OA
ATOM     68  O   UNL     1       9.744 -14.723  -9.927  1.00  0.00    -0.237 OA
ATOM     69  O   UNL     1      11.893 -14.432  -8.757  1.00  0.00    -0.744 OA
ENDBRANCH  65  66
ENDBRANCH  39  60
ENDBRANCH  13  14
ENDBRANCH   6   8
ENDBRANCH   3   4
ENDBRANCH   2   3
ENDBRANCH   1   2
BRANCH   1  70
ATOM     70  C   UNL     1       5.011   3.474   2.219  1.00  0.00     0.116 C 
BRANCH  70  71
ATOM     71  N   UNL     1       6.423   3.277   2.498  1.00  0.00    -0.352 N 
ATOM     72  C   UNL     1       7.344   4.055   3.177  1.00  0.00     0.251 C 
ATOM     73  H   UNL     1       6.791   2.437   2.139  1.00  0.00     0.163 HD
ATOM     74  O   UNL     1       8.511   3.721   3.206  1.00  0.00    -0.269 OA
BRANCH  72  75
ATOM     75  C   UNL     1       6.921   5.309   3.840  1.00  0.00     0.041 A 
ATOM     76  C   UNL     1       7.744   6.435   3.737  1.00  0.00     0.014 A 
ATOM     77  C   UNL     1       5.723   5.393   4.543  1.00  0.00     0.040 A 
ATOM     78  C   UNL     1       7.335   7.651   4.292  1.00  0.00     0.003 A 
ATOM     79  C   UNL     1       5.273   6.625   5.005  1.00  0.00     0.041 A 
ATOM     80  C   UNL     1       6.092   7.748   4.918  1.00  0.00     0.026 A 
BRANCH  79  81
ATOM     81  N   UNL     1       3.921   6.726   5.349  1.00  0.00    -0.331 N 
ATOM     82  H   UNL     1       3.329   6.042   4.961  1.00  0.00     0.169 HD
BRANCH  81  83
ATOM     83  C   UNL     1       3.318   7.643   6.147  1.00  0.00     0.191 C 
ATOM     84  S   UNL     1       1.777   8.173   5.758  1.00  0.00    -0.039 S 
BRANCH  83  85
ATOM     85  N   UNL     1       3.893   8.007   7.335  1.00  0.00    -0.254 N 
ATOM     86  H   UNL     1       3.501   8.778   7.803  1.00  0.00     0.193 HD
BRANCH  85  87
ATOM     87  N   UNL     1       4.975   7.390   7.939  1.00  0.00    -0.181 NA
ATOM     88  C   UNL     1       4.779   6.284   8.614  1.00  0.00     0.143 C 
BRANCH  88  89
ATOM     89  C   UNL     1       3.498   5.616   8.681  1.00  0.00     0.020 A 
ATOM     90  C   UNL     1       2.894   4.977   7.615  1.00  0.00     0.093 A 
ATOM     91  C   UNL     1       2.545   5.576   9.734  1.00  0.00     0.008 A 
ATOM     92  N   UNL     1       1.549   5.160   7.792  1.00  0.00    -0.361 N 
ATOM     93  C   UNL     1       1.311   5.567   9.081  1.00  0.00     0.046 A 
ATOM     94  C   UNL     1       2.559   5.694  11.135  1.00  0.00     0.011 A 
ATOM     95  H   UNL     1       0.860   5.022   7.102  1.00  0.00     0.166 HD
ATOM     96  C   UNL     1       0.120   5.930   9.709  1.00  0.00     0.027 A 
ATOM     97  C   UNL     1       1.342   5.872  11.807  1.00  0.00     0.001 A 
ATOM     98  C   UNL     1       0.158   6.069  11.096  1.00  0.00     0.002 A 
ENDBRANCH  88  89
ENDBRANCH  85  87
ENDBRANCH  83  85
ENDBRANCH  81  83
ENDBRANCH  79  81
ENDBRANCH  72  75
ENDBRANCH  70  71
ENDBRANCH   1  70
TORSDOF 19
