REMARK SMILES C[NH+]1CCC2(CC1)OC[C@H](C(=O)NCCCCNC(=O)c1ccc(-c3c4nc(c(-c5ccc(S(=O)(=O)[O-])cc5)c5ccc([nH]5)c(-c5ccc(S(=O)(=O)[O-])cc5)c5nc(c(-c6ccc(S(=O)(=O)[O-])cc6)c6ccc3[nH]6)C=C5)C=C4)cc1)N2C(=O)c1cc(C(F)(F)F)cc(C(F)(F)F)c1
REMARK SMILES IDX 15 1 14 2 13 3 11 4 12 5 10 7 1 8 2 9 3 10 7 11 4 13 6 14
REMARK SMILES IDX 5 15 8 16 81 17 9 18 82 19 83 20 84 21 85 22 97 23 86 24
REMARK SMILES IDX 92 25 91 26 87 27 88 28 89 29 90 30 93 31 94 32 95 33 96 34
REMARK SMILES IDX 16 35 17 36 18 37 19 38 20 40 21 41 22 42 80 43 23 44 79 45
REMARK SMILES IDX 24 46 25 47 26 48 73 49 27 50 78 51 72 52 74 53 28 54 77 55
REMARK SMILES IDX 71 56 70 57 29 59 59 60 40 61 58 62 41 63 44 64 57 65 75 66
REMARK SMILES IDX 42 67 43 68 56 70 76 71 45 72 30 73 31 74 39 75 32 76 38 77
REMARK SMILES IDX 33 78 34 79 35 80 36 81 37 82 60 83 61 84 69 85 62 86 68 87
REMARK SMILES IDX 63 88 64 89 65 90 66 91 67 92 46 93 47 94 55 95 48 96 54 97
REMARK SMILES IDX 49 98 50 99 51 100 52 101 53 102
REMARK H PARENT 13 6 2 12 18 39 74 58 44 69
REMARK Flexibility Score: inf
ROOT
ATOM      1  C   UNL     1       3.654  -3.877   7.618  1.00  0.00     0.023 C 
ENDROOT
BRANCH   1   2
ATOM      2  C   UNL     1       3.737  -2.399   7.234  1.00  0.00     0.116 C 
BRANCH   2   3
ATOM      3  N   UNL     1       4.444  -2.226   5.984  1.00  0.00    -0.354 N 
ATOM      4  C   UNL     1       4.326  -1.276   5.023  1.00  0.00     0.245 C 
ATOM      5  O   UNL     1       5.048  -1.432   4.035  1.00  0.00    -0.273 OA
ATOM      6  H   UNL     1       5.124  -2.914   5.800  1.00  0.00     0.163 HD
BRANCH   4   7
ATOM      7  C   UNL     1       3.344  -0.090   5.168  1.00  0.00     0.203 C 
ATOM      8  C   UNL     1       1.200   0.315  -0.852  1.00  0.00     0.332 C 
ATOM      9  N   UNL     1       0.924  -0.015   0.540  1.00  0.00    -0.337 N 
ATOM     10  C   UNL     1       1.850  -1.023   1.046  1.00  0.00     0.267 C 
ATOM     11  C   UNL     1       0.695   1.164   1.373  1.00  0.00     0.267 C 
ATOM     12  H   UNL     1       0.018  -0.480   0.593  1.00  0.00     0.347 HD
ATOM     13  C   UNL     1       3.013  -0.510   1.860  1.00  0.00     0.120 C 
ATOM     14  C   UNL     1       1.782   1.603   2.340  1.00  0.00     0.120 C 
ATOM     15  C   UNL     1       2.619   0.484   2.956  1.00  0.00     0.155 C 
ATOM     16  O   UNL     1       3.872   1.180   3.284  1.00  0.00    -0.352 OA
ATOM     17  N   UNL     1       2.195  -0.108   4.255  1.00  0.00    -0.295 N 
ATOM     18  C   UNL     1       4.069   1.148   4.701  1.00  0.00     0.198 C 
BRANCH  17  19
ATOM     19  C   UNL     1       0.984  -0.536   4.795  1.00  0.00     0.256 C 
ATOM     20  O   UNL     1       0.882  -0.930   5.958  1.00  0.00    -0.269 OA
BRANCH  19  21
ATOM     21  C   UNL     1      -0.296  -0.477   4.068  1.00  0.00     0.041 A 
ATOM     22  C   UNL     1      -1.247   0.502   4.398  1.00  0.00     0.027 A 
ATOM     23  C   UNL     1      -0.628  -1.470   3.150  1.00  0.00     0.027 A 
ATOM     24  C   UNL     1      -2.471   0.570   3.702  1.00  0.00     0.057 A 
ATOM     25  C   UNL     1      -1.770  -1.340   2.345  1.00  0.00     0.057 A 
ATOM     26  C   UNL     1      -2.697  -0.328   2.644  1.00  0.00     0.026 A 
BRANCH  24  27
ATOM     27  C   UNL     1      -3.517   1.596   4.072  1.00  0.00     0.416 C 
ATOM     28  F   UNL     1      -4.062   1.365   5.297  1.00  0.00    -0.166 F 
ATOM     29  F   UNL     1      -3.019   2.861   4.111  1.00  0.00    -0.166 F 
ATOM     30  F   UNL     1      -4.566   1.636   3.202  1.00  0.00    -0.166 F 
ENDBRANCH  24  27
BRANCH  25  31
ATOM     31  C   UNL     1      -1.959  -2.201   1.116  1.00  0.00     0.416 C 
ATOM     32  F   UNL     1      -3.089  -2.957   1.181  1.00  0.00    -0.166 F 
ATOM     33  F   UNL     1      -2.080  -1.458  -0.021  1.00  0.00    -0.166 F 
ATOM     34  F   UNL     1      -0.936  -3.070   0.890  1.00  0.00    -0.166 F 
ENDBRANCH  25  31
ENDBRANCH  19  21
ENDBRANCH  17  19
ENDBRANCH   4   7
ENDBRANCH   2   3
ENDBRANCH   1   2
BRANCH   1  35
ATOM     35  C   UNL     1       5.002  -4.585   7.809  1.00  0.00     0.023 C 
BRANCH  35  36
ATOM     36  C   UNL     1       5.926  -3.958   8.847  1.00  0.00     0.116 C 
BRANCH  36  37
ATOM     37  N   UNL     1       5.364  -4.013  10.186  1.00  0.00    -0.352 N 
ATOM     38  C   UNL     1       5.898  -4.538  11.339  1.00  0.00     0.251 C 
ATOM     39  H   UNL     1       4.469  -3.614  10.281  1.00  0.00     0.163 HD
ATOM     40  O   UNL     1       5.190  -4.660  12.332  1.00  0.00    -0.269 OA
BRANCH  38  41
ATOM     41  C   UNL     1       7.313  -4.976  11.377  1.00  0.00     0.039 A 
ATOM     42  C   UNL     1       7.627  -6.180  12.015  1.00  0.00     0.014 A 
ATOM     43  C   UNL     1       8.329  -4.204  10.808  1.00  0.00     0.014 A 
ATOM     44  C   UNL     1       8.948  -6.636  12.028  1.00  0.00     0.010 A 
ATOM     45  C   UNL     1       9.633  -4.697  10.756  1.00  0.00     0.010 A 
ATOM     46  C   UNL     1       9.958  -5.917  11.368  1.00  0.00    -0.014 A 
BRANCH  46  47
ATOM     47  C   UNL     1      11.352  -6.433  11.302  1.00  0.00     0.031 A 
ATOM     48  C   UNL     1      12.482  -5.666  11.938  1.00  0.00     0.074 A 
ATOM     49  C   UNL     1      11.611  -7.569  10.623  1.00  0.00     0.049 A 
ATOM     50  N   UNL     1      13.762  -5.941  11.949  1.00  0.00    -0.248 NA
ATOM     51  C   UNL     1      12.132  -4.417  12.634  1.00  0.00     0.031 C 
ATOM     52  C   UNL     1      10.613  -8.388   9.930  1.00  0.00     0.029 A 
ATOM     53  N   UNL     1      12.793  -8.232  10.401  1.00  0.00    -0.354 N 
ATOM     54  C   UNL     1      14.369  -4.897  12.639  1.00  0.00     0.074 A 
ATOM     55  C   UNL     1      13.325  -3.958  12.984  1.00  0.00     0.031 C 
ATOM     56  C   UNL     1      11.220  -9.456   9.388  1.00  0.00     0.029 A 
ATOM     57  C   UNL     1      12.653  -9.378   9.653  1.00  0.00     0.049 A 
ATOM     58  H   UNL     1      13.660  -7.916  10.745  1.00  0.00     0.167 HD
ATOM     59  C   UNL     1      15.674  -4.743  12.972  1.00  0.00     0.031 A 
ATOM     60  C   UNL     1      13.571 -10.264   9.221  1.00  0.00     0.031 A 
ATOM     61  C   UNL     1      16.711  -5.681  12.629  1.00  0.00     0.049 A 
ATOM     62  C   UNL     1      15.017 -10.059   9.584  1.00  0.00     0.074 A 
ATOM     63  C   UNL     1      18.054  -5.638  12.964  1.00  0.00     0.029 A 
ATOM     64  N   UNL     1      16.527  -6.827  11.870  1.00  0.00    -0.354 N 
ATOM     65  N   UNL     1      15.561  -9.099  10.293  1.00  0.00    -0.248 NA
ATOM     66  C   UNL     1      15.971 -11.066   9.100  1.00  0.00     0.031 C 
ATOM     67  C   UNL     1      18.692  -6.724  12.357  1.00  0.00     0.029 A 
ATOM     68  C   UNL     1      17.735  -7.484  11.703  1.00  0.00     0.049 A 
ATOM     69  H   UNL     1      15.665  -7.129  11.504  1.00  0.00     0.167 HD
ATOM     70  C   UNL     1      16.916  -9.403  10.366  1.00  0.00     0.074 A 
ATOM     71  C   UNL     1      17.105 -10.644   9.643  1.00  0.00     0.031 C 
ATOM     72  C   UNL     1      17.913  -8.717  10.978  1.00  0.00     0.031 A 
BRANCH  59  73
ATOM     73  C   UNL     1      16.056  -3.504  13.742  1.00  0.00    -0.014 A 
ATOM     74  C   UNL     1      15.644  -3.318  15.074  1.00  0.00     0.010 A 
ATOM     75  C   UNL     1      16.878  -2.533  13.141  1.00  0.00     0.010 A 
ATOM     76  C   UNL     1      16.008  -2.165  15.775  1.00  0.00     0.020 A 
ATOM     77  C   UNL     1      17.272  -1.393  13.849  1.00  0.00     0.020 A 
ATOM     78  C   UNL     1      16.819  -1.208  15.156  1.00  0.00     0.054 A 
BRANCH  78  79
ATOM     79  S   UNL     1      17.294   0.267  16.099  1.00  0.00     0.124 S 
ATOM     80  O   UNL     1      16.033   1.001  16.163  1.00  0.00    -0.237 OA
ATOM     81  O   UNL     1      17.757  -0.297  17.364  1.00  0.00    -0.237 OA
ATOM     82  O   UNL     1      18.332   0.885  15.278  1.00  0.00    -0.744 OA
ENDBRANCH  78  79
ENDBRANCH  59  73
BRANCH  60  83
ATOM     83  C   UNL     1      13.148 -11.437   8.405  1.00  0.00    -0.014 A 
ATOM     84  C   UNL     1      13.217 -12.738   8.932  1.00  0.00     0.010 A 
ATOM     85  C   UNL     1      12.667 -11.255   7.095  1.00  0.00     0.010 A 
ATOM     86  C   UNL     1      12.832 -13.838   8.158  1.00  0.00     0.020 A 
ATOM     87  C   UNL     1      12.252 -12.349   6.330  1.00  0.00     0.020 A 
ATOM     88  C   UNL     1      12.349 -13.636   6.863  1.00  0.00     0.054 A 
BRANCH  88  89
ATOM     89  S   UNL     1      11.810 -15.073   5.896  1.00  0.00     0.124 S 
ATOM     90  O   UNL     1      13.080 -15.718   5.577  1.00  0.00    -0.237 OA
ATOM     91  O   UNL     1      10.957 -15.787   6.843  1.00  0.00    -0.237 OA
ATOM     92  O   UNL     1      11.107 -14.478   4.761  1.00  0.00    -0.744 OA
ENDBRANCH  88  89
ENDBRANCH  60  83
BRANCH  72  93
ATOM     93  C   UNL     1      19.297  -9.313  10.930  1.00  0.00    -0.014 A 
ATOM     94  C   UNL     1      20.038  -9.355   9.736  1.00  0.00     0.010 A 
ATOM     95  C   UNL     1      19.882  -9.798  12.115  1.00  0.00     0.010 A 
ATOM     96  C   UNL     1      21.322  -9.907   9.719  1.00  0.00     0.020 A 
ATOM     97  C   UNL     1      21.178 -10.320  12.109  1.00  0.00     0.020 A 
ATOM     98  C   UNL     1      21.884 -10.386  10.907  1.00  0.00     0.054 A 
BRANCH  98  99
ATOM     99  S   UNL     1      23.566 -11.066  10.865  1.00  0.00     0.124 S 
ATOM    100  O   UNL     1      23.363 -12.336  10.175  1.00  0.00    -0.237 OA
ATOM    101  O   UNL     1      24.301 -10.052  10.113  1.00  0.00    -0.237 OA
ATOM    102  O   UNL     1      23.931 -11.174  12.276  1.00  0.00    -0.744 OA
ENDBRANCH  98  99
ENDBRANCH  72  93
ENDBRANCH  46  47
ENDBRANCH  38  41
ENDBRANCH  36  37
ENDBRANCH  35  36
ENDBRANCH   1  35
TORSDOF 18
