REMARK SMILES C[C@H](O)C[C@@]1(C(=O)NCCCCNC(=O)c2ccc(-c3c4nc(c(-c5ccc(S(=O)(=O)[O-])cc5)c5ccc([nH]5)c(-c5ccc(S(=O)(=O)[O-])cc5)c5nc(c(-c6ccc(S(=O)(=O)[O-])cc6)c6ccc3[nH]6)C=C5)C=C4)cc2)CCN(C(=O)OC(C)(C)C)C1
REMARK SMILES IDX 10 1 9 2 8 3 6 4 7 5 5 7 76 8 86 9 77 10 78 11 4 12 2 13
REMARK SMILES IDX 1 14 3 15 79 17 80 18 81 19 82 20 83 21 84 22 85 23 11 24
REMARK SMILES IDX 12 25 13 26 14 27 15 29 16 30 17 31 75 32 18 33 74 34 19 35
REMARK SMILES IDX 20 36 21 37 68 38 22 39 73 40 67 41 69 42 23 43 72 44 66 45
REMARK SMILES IDX 65 46 24 48 54 49 35 50 53 51 36 52 39 53 52 54 70 55 37 56
REMARK SMILES IDX 38 57 51 59 71 60 40 61 25 62 26 63 34 64 27 65 33 66 28 67
REMARK SMILES IDX 29 68 30 69 31 70 32 71 55 72 56 73 64 74 57 75 63 76 58 77
REMARK SMILES IDX 59 78 60 79 61 80 62 81 41 82 42 83 50 84 43 85 49 86 44 87
REMARK SMILES IDX 45 88 46 89 47 90 48 91
REMARK H PARENT 8 6 3 16 13 28 69 47 39 58
REMARK Flexibility Score: inf
ROOT
ATOM      1  C   UNL     1       2.275   2.388  -1.711  1.00  0.00     0.023 C 
ENDROOT
BRANCH   1   2
ATOM      2  C   UNL     1       0.767   2.503  -1.545  1.00  0.00     0.116 C 
BRANCH   2   3
ATOM      3  N   UNL     1       0.034   1.273  -1.807  1.00  0.00    -0.356 N 
ATOM      4  C   UNL     1      -1.167   0.835  -1.321  1.00  0.00     0.228 C 
ATOM      5  O   UNL     1      -1.640  -0.174  -1.851  1.00  0.00    -0.274 OA
ATOM      6  H   UNL     1       0.475   0.656  -2.436  1.00  0.00     0.163 HD
BRANCH   4   7
ATOM      7  C   UNL     1      -1.835   1.481  -0.085  1.00  0.00     0.071 C 
ATOM      8  C   UNL     1      -3.336   1.056  -0.004  1.00  0.00     0.040 C 
ATOM      9  C   UNL     1      -1.920   3.002  -0.245  1.00  0.00     0.140 C 
ATOM     10  C   UNL     1      -4.113   2.195  -0.657  1.00  0.00     0.124 C 
ATOM     11  N   UNL     1      -3.307   3.352  -0.360  1.00  0.00    -0.307 N 
BRANCH   7  12
ATOM     12  C   UNL     1      -1.012   0.989   1.147  1.00  0.00     0.050 C 
BRANCH  12  13
ATOM     13  C   UNL     1      -1.218   1.693   2.501  1.00  0.00     0.112 C 
ATOM     14  C   UNL     1      -0.259   1.165   3.568  1.00  0.00     0.038 C 
BRANCH  13  15
ATOM     15  O   UNL     1      -2.546   1.529   2.977  1.00  0.00    -0.393 OA
ATOM     16  H   UNL     1      -2.719   0.587   3.134  1.00  0.00     0.210 HD
ENDBRANCH  13  15
ENDBRANCH  12  13
ENDBRANCH   7  12
BRANCH  11  17
ATOM     17  C   UNL     1      -3.654   4.677  -0.367  1.00  0.00     0.410 C 
ATOM     18  O   UNL     1      -2.832   5.561  -0.164  1.00  0.00    -0.224 OA
BRANCH  17  19
ATOM     19  O   UNL     1      -4.967   4.885  -0.633  1.00  0.00    -0.444 OA
BRANCH  19  20
ATOM     20  C   UNL     1      -5.456   6.252  -0.655  1.00  0.00     0.106 C 
ATOM     21  C   UNL     1      -5.311   6.911   0.725  1.00  0.00     0.056 C 
ATOM     22  C   UNL     1      -4.785   7.081  -1.760  1.00  0.00     0.056 C 
ATOM     23  C   UNL     1      -6.951   6.137  -0.982  1.00  0.00     0.056 C 
ENDBRANCH  19  20
ENDBRANCH  17  19
ENDBRANCH  11  17
ENDBRANCH   4   7
ENDBRANCH   2   3
ENDBRANCH   1   2
BRANCH   1  24
ATOM     24  C   UNL     1       2.758   1.973  -3.098  1.00  0.00     0.023 C 
BRANCH  24  25
ATOM     25  C   UNL     1       2.205   2.785  -4.265  1.00  0.00     0.116 C 
BRANCH  25  26
ATOM     26  N   UNL     1       2.543   4.198  -4.194  1.00  0.00    -0.352 N 
ATOM     27  C   UNL     1       3.283   4.974  -5.055  1.00  0.00     0.251 C 
ATOM     28  H   UNL     1       2.187   4.672  -3.408  1.00  0.00     0.163 HD
ATOM     29  O   UNL     1       3.580   6.122  -4.735  1.00  0.00    -0.269 OA
BRANCH  27  30
ATOM     30  C   UNL     1       3.751   4.423  -6.347  1.00  0.00     0.039 A 
ATOM     31  C   UNL     1       5.067   4.666  -6.748  1.00  0.00     0.014 A 
ATOM     32  C   UNL     1       2.904   3.666  -7.159  1.00  0.00     0.014 A 
ATOM     33  C   UNL     1       5.553   4.082  -7.921  1.00  0.00     0.010 A 
ATOM     34  C   UNL     1       3.417   3.009  -8.276  1.00  0.00     0.010 A 
ATOM     35  C   UNL     1       4.747   3.211  -8.672  1.00  0.00    -0.014 A 
BRANCH  35  36
ATOM     36  C   UNL     1       5.284   2.500  -9.863  1.00  0.00     0.031 A 
ATOM     37  C   UNL     1       4.683   2.730 -11.225  1.00  0.00     0.074 A 
ATOM     38  C   UNL     1       6.282   1.605  -9.712  1.00  0.00     0.049 A 
ATOM     39  N   UNL     1       5.004   2.184 -12.371  1.00  0.00    -0.248 NA
ATOM     40  C   UNL     1       3.560   3.679 -11.309  1.00  0.00     0.031 C 
ATOM     41  C   UNL     1       6.920   1.255  -8.440  1.00  0.00     0.029 A 
ATOM     42  N   UNL     1       6.937   0.827 -10.634  1.00  0.00    -0.354 N 
ATOM     43  C   UNL     1       4.120   2.712 -13.305  1.00  0.00     0.074 A 
ATOM     44  C   UNL     1       3.211   3.575 -12.583  1.00  0.00     0.031 C 
ATOM     45  C   UNL     1       7.898   0.364  -8.668  1.00  0.00     0.029 A 
ATOM     46  C   UNL     1       7.928   0.041 -10.091  1.00  0.00     0.049 A 
ATOM     47  H   UNL     1       6.719   0.830 -11.594  1.00  0.00     0.167 HD
ATOM     48  C   UNL     1       4.080   2.516 -14.645  1.00  0.00     0.031 A 
ATOM     49  C   UNL     1       8.765  -0.843 -10.669  1.00  0.00     0.031 A 
ATOM     50  C   UNL     1       4.987   1.658 -15.361  1.00  0.00     0.049 A 
ATOM     51  C   UNL     1       8.689  -1.058 -12.156  1.00  0.00     0.074 A 
ATOM     52  C   UNL     1       5.062   1.433 -16.724  1.00  0.00     0.029 A 
ATOM     53  N   UNL     1       5.973   0.879 -14.774  1.00  0.00    -0.354 N 
ATOM     54  N   UNL     1       7.892  -0.493 -13.031  1.00  0.00    -0.248 NA
ATOM     55  C   UNL     1       9.636  -2.020 -12.735  1.00  0.00     0.031 C 
ATOM     56  C   UNL     1       6.049   0.470 -16.955  1.00  0.00     0.029 A 
ATOM     57  C   UNL     1       6.641   0.150 -15.744  1.00  0.00     0.049 A 
ATOM     58  H   UNL     1       6.169   0.848 -13.809  1.00  0.00     0.167 HD
ATOM     59  C   UNL     1       8.261  -1.010 -14.269  1.00  0.00     0.074 A 
ATOM     60  C   UNL     1       9.366  -1.916 -14.029  1.00  0.00     0.031 C 
ATOM     61  C   UNL     1       7.735  -0.755 -15.493  1.00  0.00     0.031 A 
BRANCH  48  62
ATOM     62  C   UNL     1       3.011   3.240 -15.425  1.00  0.00    -0.014 A 
ATOM     63  C   UNL     1       3.037   4.639 -15.572  1.00  0.00     0.010 A 
ATOM     64  C   UNL     1       1.991   2.507 -16.059  1.00  0.00     0.010 A 
ATOM     65  C   UNL     1       2.040   5.295 -16.299  1.00  0.00     0.020 A 
ATOM     66  C   UNL     1       1.010   3.156 -16.816  1.00  0.00     0.020 A 
ATOM     67  C   UNL     1       1.032   4.548 -16.916  1.00  0.00     0.054 A 
BRANCH  67  68
ATOM     68  S   UNL     1      -0.233   5.426 -17.875  1.00  0.00     0.124 S 
ATOM     69  O   UNL     1      -0.999   6.093 -16.825  1.00  0.00    -0.237 OA
ATOM     70  O   UNL     1       0.564   6.305 -18.726  1.00  0.00    -0.237 OA
ATOM     71  O   UNL     1      -0.941   4.358 -18.577  1.00  0.00    -0.744 OA
ENDBRANCH  67  68
ENDBRANCH  48  62
BRANCH  49  72
ATOM     72  C   UNL     1       9.759  -1.581  -9.839  1.00  0.00    -0.014 A 
ATOM     73  C   UNL     1      11.136  -1.324  -9.970  1.00  0.00     0.010 A 
ATOM     74  C   UNL     1       9.332  -2.543  -8.906  1.00  0.00     0.010 A 
ATOM     75  C   UNL     1      12.066  -2.029  -9.201  1.00  0.00     0.020 A 
ATOM     76  C   UNL     1      10.257  -3.227  -8.111  1.00  0.00     0.020 A 
ATOM     77  C   UNL     1      11.620  -2.974  -8.273  1.00  0.00     0.054 A 
BRANCH  77  78
ATOM     78  S   UNL     1      12.842  -3.841  -7.250  1.00  0.00     0.124 S 
ATOM     79  O   UNL     1      13.476  -4.728  -8.220  1.00  0.00    -0.237 OA
ATOM     80  O   UNL     1      13.672  -2.745  -6.756  1.00  0.00    -0.237 OA
ATOM     81  O   UNL     1      12.029  -4.504  -6.233  1.00  0.00    -0.744 OA
ENDBRANCH  77  78
ENDBRANCH  49  72
BRANCH  61  82
ATOM     82  C   UNL     1       8.371  -1.438 -16.677  1.00  0.00    -0.014 A 
ATOM     83  C   UNL     1       8.247  -2.824 -16.879  1.00  0.00     0.010 A 
ATOM     84  C   UNL     1       9.072  -0.668 -17.624  1.00  0.00     0.010 A 
ATOM     85  C   UNL     1       8.849  -3.433 -17.984  1.00  0.00     0.020 A 
ATOM     86  C   UNL     1       9.645  -1.268 -18.748  1.00  0.00     0.020 A 
ATOM     87  C   UNL     1       9.545  -2.651 -18.911  1.00  0.00     0.054 A 
BRANCH  87  88
ATOM     88  S   UNL     1      10.291  -3.462 -20.351  1.00  0.00     0.124 S 
ATOM     89  O   UNL     1      11.413  -4.178 -19.749  1.00  0.00    -0.237 OA
ATOM     90  O   UNL     1       9.202  -4.301 -20.845  1.00  0.00    -0.237 OA
ATOM     91  O   UNL     1      10.660  -2.350 -21.225  1.00  0.00    -0.744 OA
ENDBRANCH  87  88
ENDBRANCH  61  82
ENDBRANCH  35  36
ENDBRANCH  27  30
ENDBRANCH  25  26
ENDBRANCH  24  25
ENDBRANCH   1  24
TORSDOF 20
