REMARK SMILES Cc1cccc(C[N@@H+]2CCn3nc(CCC(=O)NCCCCNC(=O)c4ccc(-c5c6nc(c(-c7ccc(S(=O)(=O)[O-])cc7)c7ccc([nH]7)c(-c7ccc(S(=O)(=O)[O-])cc7)c7nc(c(-c8ccc(S(=O)(=O)[O-])cc8)c8ccc5[nH]8)C=C7)C=C6)cc4)cc3C2)c1
REMARK SMILES IDX 20 1 19 2 18 3 16 4 17 5 15 7 14 8 13 9 8 10 9 11 88 12
REMARK SMILES IDX 10 14 87 15 11 16 86 17 12 18 7 19 6 20 1 21 2 22 3 23 89 24
REMARK SMILES IDX 4 25 5 26 21 27 22 28 23 29 24 30 25 32 26 33 27 34 85 35
REMARK SMILES IDX 28 36 84 37 29 38 30 39 31 40 78 41 32 42 83 43 77 44 79 45
REMARK SMILES IDX 33 46 82 47 76 48 75 49 34 51 64 52 45 53 63 54 46 55 49 56
REMARK SMILES IDX 62 57 80 58 47 59 48 60 61 62 81 63 50 64 35 65 36 66 44 67
REMARK SMILES IDX 37 68 43 69 38 70 39 71 40 72 41 73 42 74 65 75 66 76 74 77
REMARK SMILES IDX 67 78 73 79 68 80 69 81 70 82 71 83 72 84 51 85 52 86 60 87
REMARK SMILES IDX 53 88 59 89 54 90 55 91 56 92 57 93 58 94
REMARK H PARENT 18 6 8 13 23 31 79 50 49 61
REMARK Flexibility Score: inf
ROOT
ATOM      1  C   UNL     1      -3.586  -0.866  -3.765  1.00  0.00     0.023 C 
ENDROOT
BRANCH   1   2
ATOM      2  C   UNL     1      -2.475  -1.914  -3.812  1.00  0.00     0.116 C 
BRANCH   2   3
ATOM      3  N   UNL     1      -2.431  -2.574  -5.105  1.00  0.00    -0.356 N 
ATOM      4  C   UNL     1      -1.775  -2.183  -6.234  1.00  0.00     0.220 C 
ATOM      5  O   UNL     1      -1.981  -2.805  -7.280  1.00  0.00    -0.275 OA
ATOM      6  H   UNL     1      -2.942  -3.413  -5.176  1.00  0.00     0.163 HD
BRANCH   4   7
ATOM      7  C   UNL     1      -0.792  -1.028  -6.207  1.00  0.00     0.106 C 
BRANCH   7   8
ATOM      8  C   UNL     1      -1.380   0.256  -6.796  1.00  0.00     0.068 C 
BRANCH   8   9
ATOM      9  C   UNL     1      -1.682   1.301  -5.769  1.00  0.00     0.063 A 
ATOM     10  N   UNL     1      -2.126   3.595  -1.937  1.00  0.00    -0.325 N 
ATOM     11  C   UNL     1      -3.495   3.096  -2.136  1.00  0.00     0.286 C 
ATOM     12  C   UNL     1      -1.314   3.832  -3.117  1.00  0.00     0.319 C 
ATOM     13  H   UNL     1      -2.304   4.559  -1.654  1.00  0.00     0.348 HD
ATOM     14  C   UNL     1      -3.950   2.812  -3.581  1.00  0.00     0.206 C 
ATOM     15  C   UNL     1      -1.550   2.820  -4.164  1.00  0.00     0.093 A 
ATOM     16  N   UNL     1      -2.829   2.437  -4.416  1.00  0.00    -0.258 N 
ATOM     17  C   UNL     1      -0.764   2.062  -4.998  1.00  0.00     0.055 A 
ATOM     18  N   UNL     1      -2.951   1.642  -5.492  1.00  0.00    -0.177 NA
BRANCH  10  19
ATOM     19  C   UNL     1      -1.422   2.996  -0.797  1.00  0.00     0.299 C 
BRANCH  19  20
ATOM     20  C   UNL     1      -0.845   1.610  -1.012  1.00  0.00     0.006 A 
ATOM     21  C   UNL     1       2.493  -0.014  -1.923  1.00  0.00     0.044 C 
ATOM     22  C   UNL     1       1.048   0.159  -1.565  1.00  0.00    -0.051 A 
ATOM     23  C   UNL     1       0.235  -0.958  -1.372  1.00  0.00     0.003 A 
ATOM     24  C   UNL     1       0.493   1.438  -1.414  1.00  0.00     0.013 A 
ATOM     25  C   UNL     1      -1.088  -0.800  -0.962  1.00  0.00     0.001 A 
ATOM     26  C   UNL     1      -1.619   0.472  -0.761  1.00  0.00     0.009 A 
ENDBRANCH  19  20
ENDBRANCH  10  19
ENDBRANCH   8   9
ENDBRANCH   7   8
ENDBRANCH   4   7
ENDBRANCH   2   3
ENDBRANCH   1   2
BRANCH   1  27
ATOM     27  C   UNL     1      -4.967  -1.371  -3.368  1.00  0.00     0.023 C 
BRANCH  27  28
ATOM     28  C   UNL     1      -5.094  -1.622  -1.875  1.00  0.00     0.116 C 
BRANCH  28  29
ATOM     29  N   UNL     1      -5.897  -0.647  -1.144  1.00  0.00    -0.352 N 
ATOM     30  C   UNL     1      -6.101  -0.540   0.232  1.00  0.00     0.251 C 
ATOM     31  H   UNL     1      -6.356   0.026  -1.696  1.00  0.00     0.163 HD
ATOM     32  O   UNL     1      -6.920   0.237   0.673  1.00  0.00    -0.269 OA
BRANCH  30  33
ATOM     33  C   UNL     1      -5.256  -1.366   1.135  1.00  0.00     0.039 A 
ATOM     34  C   UNL     1      -4.575  -0.761   2.198  1.00  0.00     0.014 A 
ATOM     35  C   UNL     1      -4.991  -2.685   0.801  1.00  0.00     0.014 A 
ATOM     36  C   UNL     1      -3.479  -1.410   2.775  1.00  0.00     0.010 A 
ATOM     37  C   UNL     1      -3.823  -3.253   1.248  1.00  0.00     0.010 A 
ATOM     38  C   UNL     1      -3.050  -2.615   2.228  1.00  0.00    -0.014 A 
BRANCH  38  39
ATOM     39  C   UNL     1      -1.810  -3.317   2.549  1.00  0.00     0.031 A 
ATOM     40  C   UNL     1      -1.879  -4.678   3.137  1.00  0.00     0.074 A 
ATOM     41  C   UNL     1      -0.655  -2.858   2.023  1.00  0.00     0.049 A 
ATOM     42  N   UNL     1      -0.866  -5.365   3.540  1.00  0.00    -0.248 NA
ATOM     43  C   UNL     1      -3.152  -5.365   3.348  1.00  0.00     0.031 C 
ATOM     44  C   UNL     1       0.539  -3.632   1.685  1.00  0.00     0.029 A 
ATOM     45  N   UNL     1      -0.263  -1.540   1.825  1.00  0.00    -0.354 N 
ATOM     46  C   UNL     1      -1.304  -6.649   3.786  1.00  0.00     0.074 A 
ATOM     47  C   UNL     1      -2.742  -6.584   3.700  1.00  0.00     0.031 C 
ATOM     48  C   UNL     1       1.579  -2.790   1.561  1.00  0.00     0.029 A 
ATOM     49  C   UNL     1       1.121  -1.485   2.015  1.00  0.00     0.049 A 
ATOM     50  H   UNL     1      -0.851  -0.785   1.594  1.00  0.00     0.167 HD
ATOM     51  C   UNL     1      -0.400  -7.662   3.907  1.00  0.00     0.031 A 
ATOM     52  C   UNL     1       1.722  -0.744   2.991  1.00  0.00     0.031 A 
ATOM     53  C   UNL     1       0.971  -7.154   3.887  1.00  0.00     0.049 A 
ATOM     54  C   UNL     1       2.537  -1.613   3.915  1.00  0.00     0.074 A 
ATOM     55  C   UNL     1       1.924  -7.072   2.887  1.00  0.00     0.029 A 
ATOM     56  N   UNL     1       1.410  -6.331   4.922  1.00  0.00    -0.354 N 
ATOM     57  N   UNL     1       2.327  -2.891   4.075  1.00  0.00    -0.248 NA
ATOM     58  C   UNL     1       3.620  -1.106   4.749  1.00  0.00     0.031 C 
ATOM     59  C   UNL     1       2.886  -6.106   3.284  1.00  0.00     0.029 A 
ATOM     60  C   UNL     1       2.542  -5.636   4.541  1.00  0.00     0.049 A 
ATOM     61  H   UNL     1       0.975  -6.256   5.802  1.00  0.00     0.167 HD
ATOM     62  C   UNL     1       3.188  -3.371   5.016  1.00  0.00     0.074 A 
ATOM     63  C   UNL     1       3.985  -2.220   5.405  1.00  0.00     0.031 C 
ATOM     64  C   UNL     1       3.164  -4.668   5.432  1.00  0.00     0.031 A 
BRANCH  51  65
ATOM     65  C   UNL     1      -0.764  -9.125   3.751  1.00  0.00    -0.014 A 
ATOM     66  C   UNL     1       0.202 -10.036   3.276  1.00  0.00     0.010 A 
ATOM     67  C   UNL     1      -2.047  -9.658   3.986  1.00  0.00     0.010 A 
ATOM     68  C   UNL     1      -0.117 -11.368   2.964  1.00  0.00     0.020 A 
ATOM     69  C   UNL     1      -2.393 -10.973   3.639  1.00  0.00     0.020 A 
ATOM     70  C   UNL     1      -1.424 -11.822   3.121  1.00  0.00     0.054 A 
BRANCH  70  71
ATOM     71  S   UNL     1      -1.842 -13.520   2.646  1.00  0.00     0.124 S 
ATOM     72  O   UNL     1      -1.392 -13.580   1.257  1.00  0.00    -0.237 OA
ATOM     73  O   UNL     1      -1.065 -14.309   3.596  1.00  0.00    -0.237 OA
ATOM     74  O   UNL     1      -3.292 -13.584   2.825  1.00  0.00    -0.744 OA
ENDBRANCH  70  71
ENDBRANCH  51  65
BRANCH  52  75
ATOM     75  C   UNL     1       0.935   0.433   3.457  1.00  0.00    -0.014 A 
ATOM     76  C   UNL     1       0.888   1.571   2.630  1.00  0.00     0.010 A 
ATOM     77  C   UNL     1      -0.062   0.256   4.436  1.00  0.00     0.010 A 
ATOM     78  C   UNL     1      -0.220   2.422   2.666  1.00  0.00     0.020 A 
ATOM     79  C   UNL     1      -1.181   1.097   4.459  1.00  0.00     0.020 A 
ATOM     80  C   UNL     1      -1.283   2.126   3.520  1.00  0.00     0.054 A 
BRANCH  80  81
ATOM     81  S   UNL     1      -2.871   2.967   3.254  1.00  0.00     0.124 S 
ATOM     82  O   UNL     1      -2.470   4.351   3.021  1.00  0.00    -0.237 OA
ATOM     83  O   UNL     1      -3.379   2.258   2.083  1.00  0.00    -0.237 OA
ATOM     84  O   UNL     1      -3.598   2.721   4.495  1.00  0.00    -0.744 OA
ENDBRANCH  80  81
ENDBRANCH  52  75
BRANCH  64  85
ATOM     85  C   UNL     1       3.813  -5.123   6.705  1.00  0.00    -0.014 A 
ATOM     86  C   UNL     1       3.980  -4.272   7.812  1.00  0.00     0.010 A 
ATOM     87  C   UNL     1       4.145  -6.484   6.871  1.00  0.00     0.010 A 
ATOM     88  C   UNL     1       4.544  -4.733   9.003  1.00  0.00     0.020 A 
ATOM     89  C   UNL     1       4.666  -6.965   8.075  1.00  0.00     0.020 A 
ATOM     90  C   UNL     1       4.894  -6.077   9.123  1.00  0.00     0.054 A 
BRANCH  90  91
ATOM     91  S   UNL     1       5.593  -6.671  10.681  1.00  0.00     0.124 S 
ATOM     92  O   UNL     1       7.020  -6.436  10.476  1.00  0.00    -0.237 OA
ATOM     93  O   UNL     1       4.956  -5.813  11.678  1.00  0.00    -0.237 OA
ATOM     94  O   UNL     1       5.185  -8.072  10.724  1.00  0.00    -0.744 OA
ENDBRANCH  90  91
ENDBRANCH  64  85
ENDBRANCH  38  39
ENDBRANCH  30  33
ENDBRANCH  28  29
ENDBRANCH  27  28
ENDBRANCH   1  27
TORSDOF 18
