REMARK SMILES O=C(NCCCCNC(=O)c1ccc(-c2c3nc(c(-c4ccc(S(=O)(=O)[O-])cc4)c4ccc([nH]4)c(-c4ccc(S(=O)(=O)[O-])cc4)c4nc(c(-c5ccc(S(=O)(=O)[O-])cc5)c5ccc2[nH]5)C=C4)C=C3)cc1)c1ccc(/N=C\c2ccccc2O)cc1
REMARK SMILES IDX 5 1 4 2 3 3 1 4 2 5 71 7 72 8 85 9 73 10 84 11 74 12 75 13
REMARK SMILES IDX 76 14 77 15 78 16 82 17 79 18 81 19 80 20 83 21 6 23 7 24
REMARK SMILES IDX 8 25 9 26 10 28 11 29 12 30 70 31 13 32 69 33 14 34 15 35
REMARK SMILES IDX 16 36 63 37 17 38 68 39 62 40 64 41 18 42 67 43 61 44 60 45
REMARK SMILES IDX 19 47 49 48 30 49 48 50 31 51 34 52 47 53 65 54 32 55 33 56
REMARK SMILES IDX 46 58 66 59 35 60 20 61 21 62 29 63 22 64 28 65 23 66 24 67
REMARK SMILES IDX 25 68 26 69 27 70 50 71 51 72 59 73 52 74 58 75 53 76 54 77
REMARK SMILES IDX 55 78 56 79 57 80 36 81 37 82 45 83 38 84 44 85 39 86 40 87
REMARK SMILES IDX 41 88 42 89 43 90
REMARK H PARENT 3 6 83 22 8 27 64 46 34 57
REMARK Flexibility Score: inf
ROOT
ATOM      1  C   UNL     1       5.035  -0.120   2.357  1.00  0.00     0.023 C 
ENDROOT
BRANCH   1   2
ATOM      2  C   UNL     1       4.718  -0.599   0.944  1.00  0.00     0.116 C 
BRANCH   2   3
ATOM      3  N   UNL     1       3.299  -0.820   0.719  1.00  0.00    -0.352 N 
ATOM      4  O   UNL     1       1.244  -0.517  -0.137  1.00  0.00    -0.269 OA
ATOM      5  C   UNL     1       2.447  -0.281  -0.211  1.00  0.00     0.251 C 
ATOM      6  H   UNL     1       2.880  -1.461   1.337  1.00  0.00     0.163 HD
BRANCH   5   7
ATOM      7  C   UNL     1       2.946   0.622  -1.274  1.00  0.00     0.039 A 
ATOM      8  C   UNL     1       4.126   0.382  -1.977  1.00  0.00     0.016 A 
ATOM      9  C   UNL     1       2.172   1.735  -1.603  1.00  0.00     0.016 A 
ATOM     10  C   UNL     1       4.617   1.348  -2.860  1.00  0.00     0.029 A 
ATOM     11  C   UNL     1       2.635   2.652  -2.550  1.00  0.00     0.029 A 
ATOM     12  C   UNL     1       3.908   2.527  -3.115  1.00  0.00     0.063 A 
BRANCH  12  13
ATOM     13  N   UNL     1       4.536   3.470  -3.948  1.00  0.00    -0.256 NA
ATOM     14  C   UNL     1       4.348   4.755  -3.920  1.00  0.00     0.123 C 
BRANCH  14  15
ATOM     15  C   UNL     1       3.474   5.539  -3.038  1.00  0.00     0.035 A 
ATOM     16  C   UNL     1       2.399   6.190  -3.654  1.00  0.00     0.013 A 
ATOM     17  C   UNL     1       3.617   5.562  -1.648  1.00  0.00     0.124 A 
ATOM     18  C   UNL     1       1.425   6.803  -2.868  1.00  0.00     0.001 A 
ATOM     19  C   UNL     1       2.647   6.186  -0.868  1.00  0.00     0.047 A 
ATOM     20  C   UNL     1       1.542   6.788  -1.477  1.00  0.00     0.004 A 
BRANCH  17  21
ATOM     21  O   UNL     1       4.652   4.965  -0.986  1.00  0.00    -0.507 OA
ATOM     22  H   UNL     1       5.329   4.533  -1.468  1.00  0.00     0.293 HD
ENDBRANCH  17  21
ENDBRANCH  14  15
ENDBRANCH  12  13
ENDBRANCH   5   7
ENDBRANCH   2   3
ENDBRANCH   1   2
BRANCH   1  23
ATOM     23  C   UNL     1       4.575  -1.039   3.485  1.00  0.00     0.023 C 
BRANCH  23  24
ATOM     24  C   UNL     1       4.981  -2.500   3.346  1.00  0.00     0.116 C 
BRANCH  24  25
ATOM     25  N   UNL     1       6.421  -2.688   3.293  1.00  0.00    -0.352 N 
ATOM     26  C   UNL     1       7.209  -3.567   3.998  1.00  0.00     0.251 C 
ATOM     27  H   UNL     1       6.900  -2.104   2.662  1.00  0.00     0.163 HD
ATOM     28  O   UNL     1       8.430  -3.486   3.918  1.00  0.00    -0.269 OA
BRANCH  26  29
ATOM     29  C   UNL     1       6.585  -4.589   4.872  1.00  0.00     0.039 A 
ATOM     30  C   UNL     1       7.143  -4.830   6.130  1.00  0.00     0.014 A 
ATOM     31  C   UNL     1       5.466  -5.314   4.454  1.00  0.00     0.014 A 
ATOM     32  C   UNL     1       6.551  -5.766   6.982  1.00  0.00     0.010 A 
ATOM     33  C   UNL     1       4.826  -6.178   5.339  1.00  0.00     0.010 A 
ATOM     34  C   UNL     1       5.374  -6.433   6.604  1.00  0.00    -0.014 A 
BRANCH  34  35
ATOM     35  C   UNL     1       4.740  -7.440   7.495  1.00  0.00     0.031 A 
ATOM     36  C   UNL     1       4.638  -8.877   7.047  1.00  0.00     0.074 A 
ATOM     37  C   UNL     1       4.235  -7.068   8.688  1.00  0.00     0.049 A 
ATOM     38  N   UNL     1       4.090  -9.896   7.659  1.00  0.00    -0.248 NA
ATOM     39  C   UNL     1       5.206  -9.209   5.728  1.00  0.00     0.031 C 
ATOM     40  C   UNL     1       4.233  -5.704   9.223  1.00  0.00     0.029 A 
ATOM     41  N   UNL     1       3.622  -7.807   9.670  1.00  0.00    -0.354 N 
ATOM     42  C   UNL     1       4.244 -10.980   6.802  1.00  0.00     0.074 A 
ATOM     43  C   UNL     1       4.871 -10.483   5.598  1.00  0.00     0.031 C 
ATOM     44  C   UNL     1       3.673  -5.709  10.444  1.00  0.00     0.029 A 
ATOM     45  C   UNL     1       3.242  -7.066  10.765  1.00  0.00     0.049 A 
ATOM     46  H   UNL     1       3.470  -8.777   9.597  1.00  0.00     0.167 HD
ATOM     47  C   UNL     1       3.928 -12.281   7.008  1.00  0.00     0.031 A 
ATOM     48  C   UNL     1       2.613  -7.437  11.898  1.00  0.00     0.031 A 
ATOM     49  C   UNL     1       3.315 -12.780   8.210  1.00  0.00     0.049 A 
ATOM     50  C   UNL     1       2.259  -8.888  12.097  1.00  0.00     0.074 A 
ATOM     51  C   UNL     1       2.971 -14.083   8.524  1.00  0.00     0.029 A 
ATOM     52  N   UNL     1       2.965 -12.000   9.301  1.00  0.00    -0.354 N 
ATOM     53  N   UNL     1       2.452  -9.904  11.288  1.00  0.00    -0.248 NA
ATOM     54  C   UNL     1       1.627  -9.247  13.373  1.00  0.00     0.031 C 
ATOM     55  C   UNL     1       2.376 -14.085   9.789  1.00  0.00     0.029 A 
ATOM     56  C   UNL     1       2.410 -12.794  10.290  1.00  0.00     0.049 A 
ATOM     57  H   UNL     1       3.094 -11.026   9.364  1.00  0.00     0.167 HD
ATOM     58  C   UNL     1       2.005 -11.027  11.979  1.00  0.00     0.074 A 
ATOM     59  C   UNL     1       1.550 -10.566  13.274  1.00  0.00     0.031 C 
ATOM     60  C   UNL     1       1.975 -12.323  11.580  1.00  0.00     0.031 A 
BRANCH  47  61
ATOM     61  C   UNL     1       4.265 -13.263   5.916  1.00  0.00    -0.014 A 
ATOM     62  C   UNL     1       5.605 -13.586   5.628  1.00  0.00     0.010 A 
ATOM     63  C   UNL     1       3.239 -13.915   5.209  1.00  0.00     0.010 A 
ATOM     64  C   UNL     1       5.912 -14.520   4.636  1.00  0.00     0.020 A 
ATOM     65  C   UNL     1       3.541 -14.873   4.237  1.00  0.00     0.020 A 
ATOM     66  C   UNL     1       4.877 -15.161   3.950  1.00  0.00     0.054 A 
BRANCH  66  67
ATOM     67  S   UNL     1       5.308 -16.409   2.705  1.00  0.00     0.124 S 
ATOM     68  O   UNL     1       5.869 -15.586   1.636  1.00  0.00    -0.237 OA
ATOM     69  O   UNL     1       6.266 -17.251   3.417  1.00  0.00    -0.237 OA
ATOM     70  O   UNL     1       4.031 -17.046   2.395  1.00  0.00    -0.744 OA
ENDBRANCH  66  67
ENDBRANCH  47  61
BRANCH  48  71
ATOM     71  C   UNL     1       2.276  -6.426  12.941  1.00  0.00    -0.014 A 
ATOM     72  C   UNL     1       2.892  -6.458  14.206  1.00  0.00     0.010 A 
ATOM     73  C   UNL     1       1.300  -5.445  12.686  1.00  0.00     0.010 A 
ATOM     74  C   UNL     1       2.502  -5.566  15.209  1.00  0.00     0.020 A 
ATOM     75  C   UNL     1       0.934  -4.527  13.674  1.00  0.00     0.020 A 
ATOM     76  C   UNL     1       1.521  -4.609  14.938  1.00  0.00     0.054 A 
BRANCH  76  77
ATOM     77  S   UNL     1       1.028  -3.460  16.253  1.00  0.00     0.124 S 
ATOM     78  O   UNL     1       0.250  -4.324  17.134  1.00  0.00    -0.237 OA
ATOM     79  O   UNL     1       2.315  -3.011  16.779  1.00  0.00    -0.237 OA
ATOM     80  O   UNL     1       0.263  -2.437  15.543  1.00  0.00    -0.744 OA
ENDBRANCH  76  77
ENDBRANCH  48  71
BRANCH  60  81
ATOM     81  C   UNL     1       1.504 -13.345  12.582  1.00  0.00    -0.014 A 
ATOM     82  C   UNL     1       0.163 -13.410  13.001  1.00  0.00     0.010 A 
ATOM     83  C   UNL     1       2.427 -14.274  13.098  1.00  0.00     0.010 A 
ATOM     84  C   UNL     1      -0.232 -14.344  13.962  1.00  0.00     0.020 A 
ATOM     85  C   UNL     1       2.029 -15.233  14.032  1.00  0.00     0.020 A 
ATOM     86  C   UNL     1       0.706 -15.245  14.476  1.00  0.00     0.054 A 
BRANCH  86  87
ATOM     87  S   UNL     1       0.169 -16.450  15.721  1.00  0.00     0.124 S 
ATOM     88  O   UNL     1       0.010 -15.611  16.906  1.00  0.00    -0.237 OA
ATOM     89  O   UNL     1      -1.070 -16.972  15.149  1.00  0.00    -0.237 OA
ATOM     90  O   UNL     1       1.273 -17.405  15.778  1.00  0.00    -0.744 OA
ENDBRANCH  86  87
ENDBRANCH  60  81
ENDBRANCH  34  35
ENDBRANCH  26  29
ENDBRANCH  24  25
ENDBRANCH  23  24
ENDBRANCH   1  23
TORSDOF 17
