REMARK SMILES O=C(NCCCCNC(=O)c1ccnc(-n2cnnn2)c1)c1ccc(-c2c3nc(c(-c4ccc(S(=O)(=O)[O-])cc4)c4ccc([nH]4)c(-c4ccc(S(=O)(=O)[O-])cc4)c4nc(c(-c5ccc(S(=O)(=O)[O-])cc5)c5ccc2[nH]5)C=C4)C=C3)cc1
REMARK SMILES IDX 4 1 3 2 1 3 2 4 22 6 23 7 81 8 24 9 80 10 25 11 26 12 27 13
REMARK SMILES IDX 74 14 28 15 79 16 73 17 75 18 29 19 78 20 72 21 71 22 30 24
REMARK SMILES IDX 60 25 41 26 59 27 42 28 45 29 58 30 76 31 43 32 44 33 57 35
REMARK SMILES IDX 77 36 46 37 31 38 32 39 40 40 33 41 39 42 34 43 35 44 36 45
REMARK SMILES IDX 37 46 38 47 61 48 62 49 70 50 63 51 69 52 64 53 65 54 66 55
REMARK SMILES IDX 67 56 68 57 47 58 48 59 56 60 49 61 55 62 50 63 51 64 52 65
REMARK SMILES IDX 53 66 54 67 5 68 6 69 7 70 8 71 9 72 10 74 11 75 12 76 21 77
REMARK SMILES IDX 13 78 15 79 14 80 16 81 17 82 20 83 18 84 19 85
REMARK H PARENT 3 5 75 23 45 34 8 73
REMARK Flexibility Score: inf
ROOT
ATOM      1  C   UNL     1       4.732   0.909   0.581  1.00  0.00     0.116 C 
ENDROOT
BRANCH   1   2
ATOM      2  N   UNL     1       3.326   0.637   0.799  1.00  0.00    -0.352 N 
ATOM      3  O   UNL     1       1.250  -0.078   0.627  1.00  0.00    -0.269 OA
ATOM      4  C   UNL     1       2.309   0.142   0.031  1.00  0.00     0.251 C 
ATOM      5  H   UNL     1       3.035   0.861   1.712  1.00  0.00     0.163 HD
BRANCH   4   6
ATOM      6  C   UNL     1       2.365  -0.087  -1.440  1.00  0.00     0.039 A 
ATOM      7  C   UNL     1       3.518  -0.105  -2.226  1.00  0.00     0.014 A 
ATOM      8  C   UNL     1       1.122  -0.285  -2.074  1.00  0.00     0.014 A 
ATOM      9  C   UNL     1       3.427  -0.239  -3.611  1.00  0.00     0.010 A 
ATOM     10  C   UNL     1       1.026  -0.431  -3.454  1.00  0.00     0.010 A 
ATOM     11  C   UNL     1       2.180  -0.374  -4.229  1.00  0.00    -0.014 A 
BRANCH  11  12
ATOM     12  C   UNL     1       2.139  -0.591  -5.675  1.00  0.00     0.031 A 
ATOM     13  C   UNL     1       2.770  -1.862  -6.143  1.00  0.00     0.074 A 
ATOM     14  C   UNL     1       1.462   0.194  -6.537  1.00  0.00     0.049 A 
ATOM     15  N   UNL     1       3.766  -2.015  -6.955  1.00  0.00    -0.248 NA
ATOM     16  C   UNL     1       2.278  -3.121  -5.559  1.00  0.00     0.031 C 
ATOM     17  C   UNL     1       0.546   1.296  -6.235  1.00  0.00     0.029 A 
ATOM     18  N   UNL     1       1.377   0.090  -7.894  1.00  0.00    -0.354 N 
ATOM     19  C   UNL     1       3.931  -3.391  -7.117  1.00  0.00     0.074 A 
ATOM     20  C   UNL     1       3.065  -4.020  -6.150  1.00  0.00     0.031 C 
ATOM     21  C   UNL     1      -0.168   1.601  -7.345  1.00  0.00     0.029 A 
ATOM     22  C   UNL     1       0.342   0.823  -8.462  1.00  0.00     0.049 A 
ATOM     23  H   UNL     1       1.997  -0.459  -8.427  1.00  0.00     0.167 HD
ATOM     24  C   UNL     1       4.645  -3.935  -8.142  1.00  0.00     0.031 A 
ATOM     25  C   UNL     1      -0.098   0.753  -9.745  1.00  0.00     0.031 A 
ATOM     26  C   UNL     1       5.498  -2.972  -8.781  1.00  0.00     0.049 A 
ATOM     27  C   UNL     1       0.992   0.159 -10.555  1.00  0.00     0.074 A 
ATOM     28  C   UNL     1       6.576  -2.211  -8.373  1.00  0.00     0.029 A 
ATOM     29  N   UNL     1       5.052  -2.394  -9.945  1.00  0.00    -0.354 N 
ATOM     30  N   UNL     1       2.135   0.748 -10.764  1.00  0.00    -0.248 NA
ATOM     31  C   UNL     1       0.981  -1.278 -10.773  1.00  0.00     0.031 C 
ATOM     32  C   UNL     1       6.398  -0.952  -9.018  1.00  0.00     0.029 A 
ATOM     33  C   UNL     1       5.263  -1.043  -9.827  1.00  0.00     0.049 A 
ATOM     34  H   UNL     1       4.657  -2.860 -10.717  1.00  0.00     0.167 HD
ATOM     35  C   UNL     1       3.075  -0.271 -10.720  1.00  0.00     0.074 A 
ATOM     36  C   UNL     1       2.297  -1.504 -10.818  1.00  0.00     0.031 C 
ATOM     37  C   UNL     1       4.365  -0.030 -10.342  1.00  0.00     0.031 A 
BRANCH  24  38
ATOM     38  C   UNL     1       4.339  -5.276  -8.759  1.00  0.00    -0.014 A 
ATOM     39  C   UNL     1       5.218  -5.824  -9.715  1.00  0.00     0.010 A 
ATOM     40  C   UNL     1       3.081  -5.899  -8.617  1.00  0.00     0.010 A 
ATOM     41  C   UNL     1       4.838  -6.912 -10.516  1.00  0.00     0.020 A 
ATOM     42  C   UNL     1       2.708  -7.008  -9.380  1.00  0.00     0.020 A 
ATOM     43  C   UNL     1       3.579  -7.490 -10.348  1.00  0.00     0.054 A 
BRANCH  43  44
ATOM     44  S   UNL     1       3.060  -8.831 -11.449  1.00  0.00     0.124 S 
ATOM     45  O   UNL     1       2.988  -8.152 -12.739  1.00  0.00    -0.237 OA
ATOM     46  O   UNL     1       4.148  -9.794 -11.299  1.00  0.00    -0.237 OA
ATOM     47  O   UNL     1       1.778  -9.256 -10.892  1.00  0.00    -0.744 OA
ENDBRANCH  43  44
ENDBRANCH  24  38
BRANCH  25  48
ATOM     48  C   UNL     1      -1.495   0.844 -10.240  1.00  0.00    -0.014 A 
ATOM     49  C   UNL     1      -1.778   1.022 -11.608  1.00  0.00     0.010 A 
ATOM     50  C   UNL     1      -2.557   0.455  -9.398  1.00  0.00     0.010 A 
ATOM     51  C   UNL     1      -3.062   0.763 -12.122  1.00  0.00     0.020 A 
ATOM     52  C   UNL     1      -3.838   0.200  -9.902  1.00  0.00     0.020 A 
ATOM     53  C   UNL     1      -4.079   0.333 -11.267  1.00  0.00     0.054 A 
BRANCH  53  54
ATOM     54  S   UNL     1      -5.682  -0.175 -11.961  1.00  0.00     0.124 S 
ATOM     55  O   UNL     1      -6.255   1.099 -12.384  1.00  0.00    -0.237 OA
ATOM     56  O   UNL     1      -5.290  -1.080 -13.038  1.00  0.00    -0.237 OA
ATOM     57  O   UNL     1      -6.358  -0.816 -10.834  1.00  0.00    -0.744 OA
ENDBRANCH  53  54
ENDBRANCH  25  48
BRANCH  37  58
ATOM     58  C   UNL     1       4.820   1.408 -10.210  1.00  0.00    -0.014 A 
ATOM     59  C   UNL     1       4.237   2.333  -9.319  1.00  0.00     0.010 A 
ATOM     60  C   UNL     1       5.978   1.796 -10.906  1.00  0.00     0.010 A 
ATOM     61  C   UNL     1       4.782   3.616  -9.153  1.00  0.00     0.020 A 
ATOM     62  C   UNL     1       6.537   3.065 -10.731  1.00  0.00     0.020 A 
ATOM     63  C   UNL     1       5.932   3.973  -9.863  1.00  0.00     0.054 A 
BRANCH  63  64
ATOM     64  S   UNL     1       6.663   5.615  -9.609  1.00  0.00     0.124 S 
ATOM     65  O   UNL     1       5.674   6.502 -10.216  1.00  0.00    -0.237 OA
ATOM     66  O   UNL     1       6.774   5.700  -8.154  1.00  0.00    -0.237 OA
ATOM     67  O   UNL     1       7.942   5.540 -10.314  1.00  0.00    -0.744 OA
ENDBRANCH  63  64
ENDBRANCH  37  58
ENDBRANCH  11  12
ENDBRANCH   4   6
ENDBRANCH   1   2
BRANCH   1  68
ATOM     68  C   UNL     1       5.019   2.281  -0.025  1.00  0.00     0.023 C 
BRANCH  68  69
ATOM     69  C   UNL     1       4.496   3.474   0.785  1.00  0.00     0.023 C 
BRANCH  69  70
ATOM     70  C   UNL     1       4.893   3.499   2.260  1.00  0.00     0.116 C 
BRANCH  70  71
ATOM     71  N   UNL     1       6.328   3.627   2.448  1.00  0.00    -0.352 N 
ATOM     72  C   UNL     1       7.023   4.580   3.147  1.00  0.00     0.251 C 
ATOM     73  H   UNL     1       6.876   2.935   2.014  1.00  0.00     0.163 HD
ATOM     74  O   UNL     1       8.242   4.639   3.103  1.00  0.00    -0.269 OA
BRANCH  72  75
ATOM     75  C   UNL     1       6.292   5.566   3.963  1.00  0.00     0.045 A 
ATOM     76  C   UNL     1       5.467   5.151   5.004  1.00  0.00     0.034 A 
ATOM     77  C   UNL     1       6.507   6.922   3.713  1.00  0.00     0.063 A 
ATOM     78  C   UNL     1       4.867   6.131   5.764  1.00  0.00     0.114 A 
ATOM     79  C   UNL     1       5.866   7.838   4.536  1.00  0.00     0.157 A 
ATOM     80  N   UNL     1       5.059   7.452   5.563  1.00  0.00    -0.237 NA
BRANCH  79  81
ATOM     81  N   UNL     1       6.054   9.227   4.321  1.00  0.00    -0.182 N 
ATOM     82  C   UNL     1       6.536   9.879   3.213  1.00  0.00     0.254 A 
ATOM     83  N   UNL     1       5.755  10.161   5.255  1.00  0.00    -0.039 NA
ATOM     84  N   UNL     1       6.603  11.166   3.462  1.00  0.00    -0.117 NA
ATOM     85  N   UNL     1       6.127  11.323   4.737  1.00  0.00    -0.024 NA
ENDBRANCH  79  81
ENDBRANCH  72  75
ENDBRANCH  70  71
ENDBRANCH  69  70
ENDBRANCH  68  69
ENDBRANCH   1  68
TORSDOF 15
