REMARK SMILES CCCN1CCC[C@@]2(CCN(c3ccc(C(=O)NCCCCNC(=O)c4ccc(-c5c6nc(c(-c7ccc(S(=O)(=O)[O-])cc7)c7ccc([nH]7)c(-c7ccc(S(=O)(=O)[O-])cc7)c7nc(c(-c8ccc(S(=O)(=O)[O-])cc8)c8ccc5[nH]8)C=C7)C=C6)cc4)cn3)C2)C1=O
REMARK SMILES IDX 20 1 19 2 18 3 16 4 17 5 15 7 12 8 13 9 87 10 14 11 86 12
REMARK SMILES IDX 11 13 4 14 5 15 89 16 6 17 8 18 90 19 7 20 9 21 88 22 10 23
REMARK SMILES IDX 3 24 2 25 1 26 21 27 22 28 23 29 24 30 25 32 26 33 27 34
REMARK SMILES IDX 85 35 28 36 84 37 29 38 30 39 31 40 78 41 32 42 83 43 77 44
REMARK SMILES IDX 79 45 33 46 82 47 76 48 75 49 34 51 64 52 45 53 63 54 46 55
REMARK SMILES IDX 49 56 62 57 80 58 47 59 48 60 61 62 81 63 50 64 35 65 36 66
REMARK SMILES IDX 44 67 37 68 43 69 38 70 39 71 40 72 41 73 42 74 65 75 66 76
REMARK SMILES IDX 74 77 67 78 73 79 68 80 69 81 70 82 71 83 72 84 51 85 52 86
REMARK SMILES IDX 60 87 53 88 59 89 54 90 55 91 56 92 57 93 58 94
REMARK H PARENT 18 6 23 31 79 50 49 61
REMARK Flexibility Score: inf
ROOT
ATOM      1  C   UNL     1      -9.502  -3.311  -2.971  1.00  0.00     0.023 C 
ENDROOT
BRANCH   1   2
ATOM      2  C   UNL     1      -8.410  -2.707  -3.859  1.00  0.00     0.116 C 
BRANCH   2   3
ATOM      3  N   UNL     1      -8.349  -1.264  -3.714  1.00  0.00    -0.352 N 
ATOM      4  C   UNL     1      -7.588  -0.446  -2.913  1.00  0.00     0.252 C 
ATOM      5  O   UNL     1      -7.704   0.770  -3.068  1.00  0.00    -0.269 OA
ATOM      6  H   UNL     1      -8.972  -0.778  -4.301  1.00  0.00     0.163 HD
BRANCH   4   7
ATOM      7  C   UNL     1      -6.621  -0.946  -1.902  1.00  0.00     0.058 A 
ATOM      8  C   UNL     1      -4.670  -1.651  -0.045  1.00  0.00     0.128 A 
ATOM      9  C   UNL     1      -5.628  -2.575  -0.440  1.00  0.00     0.048 A 
ATOM     10  N   UNL     1      -4.688  -0.390  -0.510  1.00  0.00    -0.239 NA
ATOM     11  C   UNL     1      -6.626  -2.212  -1.336  1.00  0.00     0.019 A 
ATOM     12  C   UNL     1      -5.642  -0.072  -1.435  1.00  0.00     0.127 A 
BRANCH   8  13
ATOM     13  N   UNL     1      -3.714  -2.059   0.842  1.00  0.00    -0.356 N 
ATOM     14  N   UNL     1       0.317  -2.842   0.223  1.00  0.00    -0.342 N 
ATOM     15  C   UNL     1       0.660  -4.250   0.387  1.00  0.00     0.119 C 
ATOM     16  C   UNL     1      -0.456  -2.252   1.221  1.00  0.00     0.230 C 
ATOM     17  C   UNL     1      -0.515  -5.119   0.816  1.00  0.00     0.023 C 
ATOM     18  C   UNL     1      -1.699  -3.050   1.612  1.00  0.00     0.069 C 
ATOM     19  O   UNL     1      -0.188  -1.163   1.721  1.00  0.00    -0.274 OA
ATOM     20  C   UNL     1      -1.275  -4.476   1.976  1.00  0.00     0.021 C 
ATOM     21  C   UNL     1      -2.466  -2.333   2.742  1.00  0.00     0.040 C 
ATOM     22  C   UNL     1      -2.712  -3.033   0.440  1.00  0.00     0.135 C 
ATOM     23  C   UNL     1      -3.299  -1.286   1.988  1.00  0.00     0.119 C 
BRANCH  14  24
ATOM     24  C   UNL     1       1.254  -2.016  -0.544  1.00  0.00     0.119 C 
BRANCH  24  25
ATOM     25  C   UNL     1       0.667  -0.693  -1.068  1.00  0.00     0.018 C 
ATOM     26  C   UNL     1       1.307   0.525  -0.411  1.00  0.00     0.006 C 
ENDBRANCH  24  25
ENDBRANCH  14  24
ENDBRANCH   8  13
ENDBRANCH   4   7
ENDBRANCH   2   3
ENDBRANCH   1   2
BRANCH   1  27
ATOM     27  C   UNL     1     -10.913  -3.232  -3.558  1.00  0.00     0.023 C 
BRANCH  27  28
ATOM     28  C   UNL     1     -11.120  -4.026  -4.844  1.00  0.00     0.116 C 
BRANCH  28  29
ATOM     29  N   UNL     1     -10.824  -5.443  -4.704  1.00  0.00    -0.352 N 
ATOM     30  C   UNL     1     -11.383  -6.503  -5.384  1.00  0.00     0.251 C 
ATOM     31  H   UNL     1     -10.136  -5.675  -4.038  1.00  0.00     0.163 HD
ATOM     32  O   UNL     1     -11.097  -7.649  -5.088  1.00  0.00    -0.269 OA
BRANCH  30  33
ATOM     33  C   UNL     1     -12.375  -6.221  -6.445  1.00  0.00     0.039 A 
ATOM     34  C   UNL     1     -13.619  -6.852  -6.385  1.00  0.00     0.014 A 
ATOM     35  C   UNL     1     -12.095  -5.298  -7.456  1.00  0.00     0.014 A 
ATOM     36  C   UNL     1     -14.615  -6.498  -7.297  1.00  0.00     0.010 A 
ATOM     37  C   UNL     1     -13.107  -4.904  -8.327  1.00  0.00     0.010 A 
ATOM     38  C   UNL     1     -14.379  -5.491  -8.248  1.00  0.00    -0.014 A 
BRANCH  38  39
ATOM     39  C   UNL     1     -15.455  -5.018  -9.153  1.00  0.00     0.031 A 
ATOM     40  C   UNL     1     -15.341  -5.232 -10.636  1.00  0.00     0.074 A 
ATOM     41  C   UNL     1     -16.498  -4.332  -8.643  1.00  0.00     0.049 A 
ATOM     42  N   UNL     1     -16.132  -4.814 -11.591  1.00  0.00    -0.248 NA
ATOM     43  C   UNL     1     -14.175  -5.995 -11.111  1.00  0.00     0.031 C 
ATOM     44  C   UNL     1     -16.703  -4.028  -7.224  1.00  0.00     0.029 A 
ATOM     45  N   UNL     1     -17.578  -3.756  -9.264  1.00  0.00    -0.354 N 
ATOM     46  C   UNL     1     -15.556  -5.252 -12.777  1.00  0.00     0.074 A 
ATOM     47  C   UNL     1     -14.327  -5.929 -12.426  1.00  0.00     0.031 C 
ATOM     48  C   UNL     1     -17.849  -3.340  -7.083  1.00  0.00     0.029 A 
ATOM     49  C   UNL     1     -18.438  -3.120  -8.399  1.00  0.00     0.049 A 
ATOM     50  H   UNL     1     -17.724  -3.794 -10.237  1.00  0.00     0.167 HD
ATOM     51  C   UNL     1     -16.019  -5.118 -14.043  1.00  0.00     0.031 A 
ATOM     52  C   UNL     1     -19.569  -2.429  -8.640  1.00  0.00     0.031 A 
ATOM     53  C   UNL     1     -17.248  -4.457 -14.389  1.00  0.00     0.049 A 
ATOM     54  C   UNL     1     -20.052  -2.282 -10.057  1.00  0.00     0.074 A 
ATOM     55  C   UNL     1     -17.822  -4.308 -15.639  1.00  0.00     0.029 A 
ATOM     56  N   UNL     1     -18.095  -3.837 -13.483  1.00  0.00    -0.354 N 
ATOM     57  N   UNL     1     -19.517  -2.747 -11.161  1.00  0.00    -0.248 NA
ATOM     58  C   UNL     1     -21.295  -1.524 -10.260  1.00  0.00     0.031 C 
ATOM     59  C   UNL     1     -18.999  -3.566 -15.494  1.00  0.00     0.029 A 
ATOM     60  C   UNL     1     -19.180  -3.293 -14.148  1.00  0.00     0.049 A 
ATOM     61  H   UNL     1     -17.947  -3.792 -12.511  1.00  0.00     0.167 HD
ATOM     62  C   UNL     1     -20.372  -2.358 -12.186  1.00  0.00     0.074 A 
ATOM     63  C   UNL     1     -21.465  -1.634 -11.570  1.00  0.00     0.031 C 
ATOM     64  C   UNL     1     -20.262  -2.581 -13.518  1.00  0.00     0.031 A 
BRANCH  51  65
ATOM     65  C   UNL     1     -15.191  -5.711 -15.151  1.00  0.00    -0.014 A 
ATOM     66  C   UNL     1     -15.122  -7.104 -15.330  1.00  0.00     0.010 A 
ATOM     67  C   UNL     1     -14.518  -4.868 -16.054  1.00  0.00     0.010 A 
ATOM     68  C   UNL     1     -14.367  -7.645 -16.373  1.00  0.00     0.020 A 
ATOM     69  C   UNL     1     -13.782  -5.405 -17.113  1.00  0.00     0.020 A 
ATOM     70  C   UNL     1     -13.699  -6.792 -17.257  1.00  0.00     0.054 A 
BRANCH  70  71
ATOM     71  S   UNL     1     -12.753  -7.523 -18.622  1.00  0.00     0.124 S 
ATOM     72  O   UNL     1     -11.575  -8.037 -17.928  1.00  0.00    -0.237 OA
ATOM     73  O   UNL     1     -13.668  -8.536 -19.141  1.00  0.00    -0.237 OA
ATOM     74  O   UNL     1     -12.507  -6.394 -19.516  1.00  0.00    -0.744 OA
ENDBRANCH  70  71
ENDBRANCH  51  65
BRANCH  52  75
ATOM     75  C   UNL     1     -20.331  -1.823  -7.514  1.00  0.00    -0.014 A 
ATOM     76  C   UNL     1     -21.573  -2.357  -7.129  1.00  0.00     0.010 A 
ATOM     77  C   UNL     1     -19.826  -0.703  -6.831  1.00  0.00     0.010 A 
ATOM     78  C   UNL     1     -22.310  -1.765  -6.099  1.00  0.00     0.020 A 
ATOM     79  C   UNL     1     -20.548  -0.123  -5.784  1.00  0.00     0.020 A 
ATOM     80  C   UNL     1     -21.794  -0.648  -5.436  1.00  0.00     0.054 A 
BRANCH  80  81
ATOM     81  S   UNL     1     -22.752   0.089  -4.082  1.00  0.00     0.124 S 
ATOM     82  O   UNL     1     -23.776   0.833  -4.808  1.00  0.00    -0.237 OA
ATOM     83  O   UNL     1     -23.221  -1.084  -3.349  1.00  0.00    -0.237 OA
ATOM     84  O   UNL     1     -21.766   0.903  -3.374  1.00  0.00    -0.744 OA
ENDBRANCH  80  81
ENDBRANCH  52  75
BRANCH  64  85
ATOM     85  C   UNL     1     -21.366  -2.066 -14.399  1.00  0.00    -0.014 A 
ATOM     86  C   UNL     1     -21.479  -0.696 -14.695  1.00  0.00     0.010 A 
ATOM     87  C   UNL     1     -22.264  -2.974 -14.989  1.00  0.00     0.010 A 
ATOM     88  C   UNL     1     -22.488  -0.240 -15.547  1.00  0.00     0.020 A 
ATOM     89  C   UNL     1     -23.259  -2.524 -15.860  1.00  0.00     0.020 A 
ATOM     90  C   UNL     1     -23.372  -1.157 -16.124  1.00  0.00     0.054 A 
BRANCH  90  91
ATOM     91  S   UNL     1     -24.638  -0.548 -17.271  1.00  0.00     0.124 S 
ATOM     92  O   UNL     1     -25.612   0.046 -16.360  1.00  0.00    -0.237 OA
ATOM     93  O   UNL     1     -23.894   0.397 -18.100  1.00  0.00    -0.237 OA
ATOM     94  O   UNL     1     -25.087  -1.755 -17.963  1.00  0.00    -0.744 OA
ENDBRANCH  90  91
ENDBRANCH  64  85
ENDBRANCH  38  39
ENDBRANCH  30  33
ENDBRANCH  28  29
ENDBRANCH  27  28
ENDBRANCH   1  27
TORSDOF 17
