REMARK SMILES Cc1c(C(=O)NCCCCNC(=O)c2ccc(-c3c4nc(c(-c5ccc(S(=O)(=O)[O-])cc5)c5ccc([nH]5)c(-c5ccc(S(=O)(=O)[O-])cc5)c5nc(c(-c6ccc(S(=O)(=O)[O-])cc6)c6ccc3[nH]6)C=C5)C=C4)cc2)sc2c1=C(CSc1nncn1-c1ccccc1)CC(=O)N=2
REMARK SMILES IDX 8 1 7 2 6 3 4 4 5 5 3 7 1 8 2 9 76 10 74 11 75 12 77 13
REMARK SMILES IDX 94 14 91 15 92 16 93 17 78 18 79 19 80 20 81 21 84 22 82 23
REMARK SMILES IDX 83 24 85 25 86 26 90 27 87 28 89 29 88 30 9 31 10 32 11 33
REMARK SMILES IDX 12 34 13 36 14 37 15 38 73 39 16 40 72 41 17 42 18 43 19 44
REMARK SMILES IDX 66 45 20 46 71 47 65 48 67 49 21 50 70 51 64 52 63 53 22 55
REMARK SMILES IDX 52 56 33 57 51 58 34 59 37 60 50 61 68 62 35 63 36 64 49 66
REMARK SMILES IDX 69 67 38 68 23 69 24 70 32 71 25 72 31 73 26 74 27 75 28 76
REMARK SMILES IDX 29 77 30 78 53 79 54 80 62 81 55 82 61 83 56 84 57 85 58 86
REMARK SMILES IDX 59 87 60 88 39 89 40 90 48 91 41 92 47 93 42 94 43 95 44 96
REMARK SMILES IDX 45 97 46 98
REMARK H PARENT 6 6 11 35 67 54 37 65
REMARK Flexibility Score: inf
ROOT
ATOM      1  C   UNL     1       1.874  -1.303   3.836  1.00  0.00     0.023 C 
ENDROOT
BRANCH   1   2
ATOM      2  C   UNL     1       2.592  -1.997   2.634  1.00  0.00     0.116 C 
BRANCH   2   3
ATOM      3  N   UNL     1       1.725  -3.040   2.032  1.00  0.00    -0.351 N 
ATOM      4  C   UNL     1       1.006  -3.540   1.004  1.00  0.00     0.261 C 
ATOM      5  O   UNL     1       0.521  -4.633   1.362  1.00  0.00    -0.268 OA
ATOM      6  H   UNL     1       1.621  -3.709   2.747  1.00  0.00     0.163 HD
BRANCH   4   7
ATOM      7  C   UNL     1       0.700  -3.110  -0.439  1.00  0.00     0.098 A 
ATOM      8  C   UNL     1      -0.524  -0.861  -0.484  1.00  0.00     0.047 C 
ATOM      9  C   UNL     1       0.175  -2.031  -1.089  1.00  0.00    -0.018 A 
ATOM     10  C   UNL     1      -0.372  -2.320  -2.423  1.00  0.00     0.016 A 
ATOM     11  S   UNL     1       0.327  -4.591  -1.468  1.00  0.00    -0.110 S 
ATOM     12  C   UNL     1      -0.797  -3.726  -2.493  1.00  0.00     0.128 A 
ATOM     13  C   UNL     1      -0.783  -1.559  -3.457  1.00  0.00    -0.040 C 
ATOM     14  N   UNL     1      -1.774  -4.251  -3.138  1.00  0.00    -0.202 NA
ATOM     15  C   UNL     1      -2.161  -1.922  -3.985  1.00  0.00     0.135 C 
ATOM     16  C   UNL     1      -2.558  -3.394  -3.880  1.00  0.00     0.251 C 
ATOM     17  O   UNL     1      -3.607  -3.757  -4.414  1.00  0.00    -0.272 OA
BRANCH  13  18
ATOM     18  C   UNL     1      -0.258  -0.295  -4.104  1.00  0.00     0.110 C 
BRANCH  18  19
ATOM     19  S   UNL     1       1.401   0.213  -3.655  1.00  0.00    -0.081 SA
BRANCH  19  20
ATOM     20  C   UNL     1       1.212   1.950  -3.606  1.00  0.00     0.195 A 
ATOM     21  N   UNL     1       0.676   2.672  -4.567  1.00  0.00    -0.123 NA
ATOM     22  N   UNL     1       1.358   2.729  -2.468  1.00  0.00    -0.277 N 
ATOM     23  N   UNL     1       0.455   3.938  -4.072  1.00  0.00    -0.138 NA
ATOM     24  C   UNL     1       0.847   3.950  -2.820  1.00  0.00     0.231 A 
BRANCH  22  25
ATOM     25  C   UNL     1       1.675   2.304  -1.163  1.00  0.00     0.049 A 
ATOM     26  C   UNL     1       2.623   1.293  -1.007  1.00  0.00     0.027 A 
ATOM     27  C   UNL     1       0.807   2.673  -0.120  1.00  0.00     0.027 A 
ATOM     28  C   UNL     1       2.522   0.465   0.084  1.00  0.00     0.002 A 
ATOM     29  C   UNL     1       0.743   1.866   0.999  1.00  0.00     0.002 A 
ATOM     30  C   UNL     1       1.548   0.736   1.041  1.00  0.00     0.000 A 
ENDBRANCH  22  25
ENDBRANCH  19  20
ENDBRANCH  18  19
ENDBRANCH  13  18
ENDBRANCH   4   7
ENDBRANCH   2   3
ENDBRANCH   1   2
BRANCH   1  31
ATOM     31  C   UNL     1       2.725  -0.805   5.019  1.00  0.00     0.023 C 
BRANCH  31  32
ATOM     32  C   UNL     1       3.759   0.269   4.715  1.00  0.00     0.116 C 
BRANCH  32  33
ATOM     33  N   UNL     1       3.242   1.638   4.592  1.00  0.00    -0.352 N 
ATOM     34  C   UNL     1       4.009   2.804   4.443  1.00  0.00     0.251 C 
ATOM     35  H   UNL     1       2.264   1.748   4.615  1.00  0.00     0.163 HD
ATOM     36  O   UNL     1       3.569   3.903   4.662  1.00  0.00    -0.269 OA
BRANCH  34  37
ATOM     37  C   UNL     1       5.397   2.609   3.965  1.00  0.00     0.039 A 
ATOM     38  C   UNL     1       6.522   3.136   4.610  1.00  0.00     0.014 A 
ATOM     39  C   UNL     1       5.524   1.723   2.906  1.00  0.00     0.014 A 
ATOM     40  C   UNL     1       7.787   2.669   4.238  1.00  0.00     0.010 A 
ATOM     41  C   UNL     1       6.726   1.110   2.711  1.00  0.00     0.010 A 
ATOM     42  C   UNL     1       7.876   1.633   3.303  1.00  0.00    -0.014 A 
BRANCH  42  43
ATOM     43  C   UNL     1       9.137   1.030   2.882  1.00  0.00     0.031 A 
ATOM     44  C   UNL     1       9.921   0.276   3.906  1.00  0.00     0.074 A 
ATOM     45  C   UNL     1       9.373   0.879   1.557  1.00  0.00     0.049 A 
ATOM     46  N   UNL     1      11.157   0.452   4.242  1.00  0.00    -0.248 NA
ATOM     47  C   UNL     1       9.247  -0.767   4.697  1.00  0.00     0.031 C 
ATOM     48  C   UNL     1       8.510   1.274   0.429  1.00  0.00     0.029 A 
ATOM     49  N   UNL     1      10.336   0.150   0.943  1.00  0.00    -0.354 N 
ATOM     50  C   UNL     1      11.473  -0.538   5.174  1.00  0.00     0.074 A 
ATOM     51  C   UNL     1      10.226  -1.179   5.508  1.00  0.00     0.031 C 
ATOM     52  C   UNL     1       8.822   0.535  -0.655  1.00  0.00     0.029 A 
ATOM     53  C   UNL     1      10.021  -0.223  -0.359  1.00  0.00     0.049 A 
ATOM     54  H   UNL     1      11.183  -0.095   1.380  1.00  0.00     0.167 HD
ATOM     55  C   UNL     1      12.763  -0.865   5.481  1.00  0.00     0.031 A 
ATOM     56  C   UNL     1      10.672  -1.133  -1.124  1.00  0.00     0.031 A 
ATOM     57  C   UNL     1      13.694   0.061   4.891  1.00  0.00     0.049 A 
ATOM     58  C   UNL     1      12.029  -1.282  -0.538  1.00  0.00     0.074 A 
ATOM     59  C   UNL     1      13.948   1.407   5.049  1.00  0.00     0.029 A 
ATOM     60  N   UNL     1      14.257  -0.299   3.688  1.00  0.00    -0.354 N 
ATOM     61  N   UNL     1      12.891  -0.302  -0.491  1.00  0.00    -0.248 NA
ATOM     62  C   UNL     1      12.251  -2.345   0.431  1.00  0.00     0.031 C 
ATOM     63  C   UNL     1      14.192   1.881   3.727  1.00  0.00     0.029 A 
ATOM     64  C   UNL     1      14.155   0.787   2.857  1.00  0.00     0.049 A 
ATOM     65  H   UNL     1      14.658  -1.171   3.466  1.00  0.00     0.167 HD
ATOM     66  C   UNL     1      13.476  -0.397   0.765  1.00  0.00     0.074 A 
ATOM     67  C   UNL     1      13.124  -1.735   1.242  1.00  0.00     0.031 C 
ATOM     68  C   UNL     1      13.938   0.709   1.425  1.00  0.00     0.031 A 
BRANCH  55  69
ATOM     69  C   UNL     1      13.240  -2.178   6.049  1.00  0.00    -0.014 A 
ATOM     70  C   UNL     1      14.592  -2.299   6.444  1.00  0.00     0.010 A 
ATOM     71  C   UNL     1      12.490  -3.366   5.968  1.00  0.00     0.010 A 
ATOM     72  C   UNL     1      15.182  -3.551   6.666  1.00  0.00     0.020 A 
ATOM     73  C   UNL     1      13.059  -4.618   6.228  1.00  0.00     0.020 A 
ATOM     74  C   UNL     1      14.412  -4.705   6.535  1.00  0.00     0.054 A 
BRANCH  74  75
ATOM     75  S   UNL     1      15.214  -6.323   6.683  1.00  0.00     0.124 S 
ATOM     76  O   UNL     1      16.096  -6.329   5.520  1.00  0.00    -0.237 OA
ATOM     77  O   UNL     1      15.877  -6.226   7.981  1.00  0.00    -0.237 OA
ATOM     78  O   UNL     1      14.098  -7.264   6.626  1.00  0.00    -0.744 OA
ENDBRANCH  74  75
ENDBRANCH  55  69
BRANCH  56  79
ATOM     79  C   UNL     1      10.066  -2.069  -2.104  1.00  0.00    -0.014 A 
ATOM     80  C   UNL     1      10.846  -2.755  -3.051  1.00  0.00     0.010 A 
ATOM     81  C   UNL     1       8.721  -2.475  -1.950  1.00  0.00     0.010 A 
ATOM     82  C   UNL     1      10.317  -3.840  -3.775  1.00  0.00     0.020 A 
ATOM     83  C   UNL     1       8.185  -3.548  -2.672  1.00  0.00     0.020 A 
ATOM     84  C   UNL     1       8.994  -4.242  -3.565  1.00  0.00     0.054 A 
BRANCH  84  85
ATOM     85  S   UNL     1       8.373  -5.753  -4.364  1.00  0.00     0.124 S 
ATOM     86  O   UNL     1       8.276  -5.348  -5.763  1.00  0.00    -0.237 OA
ATOM     87  O   UNL     1       9.419  -6.725  -4.056  1.00  0.00    -0.237 OA
ATOM     88  O   UNL     1       7.095  -5.992  -3.696  1.00  0.00    -0.744 OA
ENDBRANCH  84  85
ENDBRANCH  56  79
BRANCH  68  89
ATOM     89  C   UNL     1      13.978   2.033   0.689  1.00  0.00    -0.014 A 
ATOM     90  C   UNL     1      12.822   2.689   0.216  1.00  0.00     0.010 A 
ATOM     91  C   UNL     1      15.193   2.739   0.676  1.00  0.00     0.010 A 
ATOM     92  C   UNL     1      12.883   4.007  -0.261  1.00  0.00     0.020 A 
ATOM     93  C   UNL     1      15.258   4.059   0.220  1.00  0.00     0.020 A 
ATOM     94  C   UNL     1      14.103   4.686  -0.251  1.00  0.00     0.054 A 
BRANCH  94  95
ATOM     95  S   UNL     1      14.163   6.418  -0.791  1.00  0.00     0.124 S 
ATOM     96  O   UNL     1      13.964   6.306  -2.233  1.00  0.00    -0.237 OA
ATOM     97  O   UNL     1      13.062   7.030  -0.050  1.00  0.00    -0.237 OA
ATOM     98  O   UNL     1      15.494   6.864  -0.382  1.00  0.00    -0.744 OA
ENDBRANCH  94  95
ENDBRANCH  68  89
ENDBRANCH  42  43
ENDBRANCH  34  37
ENDBRANCH  32  33
ENDBRANCH  31  32
ENDBRANCH   1  31
TORSDOF 18
