REMARK SMILES C[C@H](CCC(=O)NCCCCNC(=O)c1ccc(-c2c3nc(c(-c4ccc(S(=O)(=O)[O-])cc4)c4ccc([nH]4)c(-c4ccc(S(=O)(=O)[O-])cc4)c4nc(c(-c5ccc(S(=O)(=O)[O-])cc5)c5ccc2[nH]5)C=C4)C=C3)cc1)NC(=O)c1ccc(C[NH3+])o1
REMARK SMILES IDX 8 1 7 2 5 3 6 4 4 6 3 7 2 8 1 9 75 10 76 11 77 13 78 14
REMARK SMILES IDX 79 15 84 16 80 17 81 18 82 19 83 20 9 24 10 25 11 26 12 27
REMARK SMILES IDX 13 28 14 30 15 31 16 32 74 33 17 34 73 35 18 36 19 37 20 38
REMARK SMILES IDX 67 39 21 40 72 41 66 42 68 43 22 44 71 45 65 46 64 47 23 49
REMARK SMILES IDX 53 50 34 51 52 52 35 53 38 54 51 55 69 56 36 57 37 58 50 60
REMARK SMILES IDX 70 61 39 62 24 63 25 64 33 65 26 66 32 67 27 68 28 69 29 70
REMARK SMILES IDX 30 71 31 72 54 73 55 74 63 75 56 76 62 77 57 78 58 79 59 80
REMARK SMILES IDX 60 81 61 82 40 83 41 84 49 85 42 86 48 87 43 88 44 89 45 90
REMARK SMILES IDX 46 91 47 92
REMARK H PARENT 7 5 75 12 83 21 83 22 83 23 12 29 68 48 38 59
REMARK Flexibility Score: inf
ROOT
ATOM      1  C   UNL     1       2.015   3.447  -1.250  1.00  0.00     0.116 C 
ENDROOT
BRANCH   1   2
ATOM      2  N   UNL     1       3.091   2.498  -1.027  1.00  0.00    -0.356 N 
ATOM      3  C   UNL     1       3.056   1.138  -0.951  1.00  0.00     0.220 C 
ATOM      4  O   UNL     1       4.053   0.548  -0.533  1.00  0.00    -0.275 OA
ATOM      5  H   UNL     1       3.983   2.899  -0.913  1.00  0.00     0.163 HD
BRANCH   3   6
ATOM      6  C   UNL     1       1.837   0.362  -1.418  1.00  0.00     0.102 C 
BRANCH   6   7
ATOM      7  C   UNL     1       1.024  -0.306  -0.299  1.00  0.00     0.034 C 
BRANCH   7   8
ATOM      8  C   UNL     1      -0.042   0.563   0.397  1.00  0.00     0.079 C 
ATOM      9  C   UNL     1      -0.982   1.278  -0.574  1.00  0.00     0.031 C 
BRANCH   8  10
ATOM     10  N   UNL     1      -0.898  -0.252   1.254  1.00  0.00    -0.347 N 
ATOM     11  C   UNL     1      -1.464  -0.013   2.485  1.00  0.00     0.287 C 
ATOM     12  H   UNL     1      -1.109  -1.139   0.881  1.00  0.00     0.164 HD
ATOM     13  O   UNL     1      -2.375  -0.783   2.803  1.00  0.00    -0.266 OA
BRANCH  11  14
ATOM     14  C   UNL     1      -0.967   1.018   3.373  1.00  0.00     0.191 A 
ATOM     15  C   UNL     1      -0.432   2.288   3.236  1.00  0.00     0.057 A 
ATOM     16  O   UNL     1      -1.016   0.715   4.711  1.00  0.00    -0.450 OA
ATOM     17  C   UNL     1      -0.070   2.736   4.534  1.00  0.00     0.052 A 
ATOM     18  C   UNL     1      -0.455   1.741   5.404  1.00  0.00     0.159 A 
BRANCH  18  19
ATOM     19  C   UNL     1      -0.362   1.560   6.873  1.00  0.00     0.335 C 
BRANCH  19  20
ATOM     20  N   UNL     1       0.926   0.972   7.227  1.00  0.00    -0.351 N 
ATOM     21  H   UNL     1       1.019   0.061   6.776  1.00  0.00     0.344 HD
ATOM     22  H   UNL     1       0.980   0.857   8.239  1.00  0.00     0.344 HD
ATOM     23  H   UNL     1       1.678   1.585   6.913  1.00  0.00     0.344 HD
ENDBRANCH  19  20
ENDBRANCH  18  19
ENDBRANCH  11  14
ENDBRANCH   8  10
ENDBRANCH   7   8
ENDBRANCH   6   7
ENDBRANCH   3   6
ENDBRANCH   1   2
BRANCH   1  24
ATOM     24  C   UNL     1       1.303   3.739   0.070  1.00  0.00     0.023 C 
BRANCH  24  25
ATOM     25  C   UNL     1       1.650   5.074   0.710  1.00  0.00     0.023 C 
BRANCH  25  26
ATOM     26  C   UNL     1       0.966   6.261   0.053  1.00  0.00     0.116 C 
BRANCH  26  27
ATOM     27  N   UNL     1      -0.487   6.263   0.196  1.00  0.00    -0.352 N 
ATOM     28  C   UNL     1      -1.327   7.340   0.418  1.00  0.00     0.251 C 
ATOM     29  H   UNL     1      -0.926   5.385   0.125  1.00  0.00     0.163 HD
ATOM     30  O   UNL     1      -2.523   7.175   0.573  1.00  0.00    -0.269 OA
BRANCH  28  31
ATOM     31  C   UNL     1      -0.724   8.689   0.522  1.00  0.00     0.039 A 
ATOM     32  C   UNL     1      -1.015   9.479   1.635  1.00  0.00     0.014 A 
ATOM     33  C   UNL     1       0.225   9.101  -0.413  1.00  0.00     0.014 A 
ATOM     34  C   UNL     1      -0.263  10.634   1.869  1.00  0.00     0.010 A 
ATOM     35  C   UNL     1       1.046  10.179  -0.116  1.00  0.00     0.010 A 
ATOM     36  C   UNL     1       0.818  10.956   1.031  1.00  0.00    -0.014 A 
BRANCH  36  37
ATOM     37  C   UNL     1       1.735  12.089   1.323  1.00  0.00     0.031 A 
ATOM     38  C   UNL     1       1.924  13.176   0.298  1.00  0.00     0.074 A 
ATOM     39  C   UNL     1       2.478  12.085   2.449  1.00  0.00     0.049 A 
ATOM     40  N   UNL     1       2.782  14.163   0.289  1.00  0.00    -0.248 NA
ATOM     41  C   UNL     1       1.072  13.113  -0.902  1.00  0.00     0.031 C 
ATOM     42  C   UNL     1       2.444  11.056   3.493  1.00  0.00     0.029 A 
ATOM     43  N   UNL     1       3.419  12.977   2.901  1.00  0.00    -0.354 N 
ATOM     44  C   UNL     1       2.607  14.802  -0.933  1.00  0.00     0.074 A 
ATOM     45  C   UNL     1       1.602  14.060  -1.660  1.00  0.00     0.031 C 
ATOM     46  C   UNL     1       3.290  11.398   4.479  1.00  0.00     0.029 A 
ATOM     47  C   UNL     1       3.958  12.644   4.122  1.00  0.00     0.049 A 
ATOM     48  H   UNL     1       3.683  13.781   2.398  1.00  0.00     0.167 HD
ATOM     49  C   UNL     1       3.208  15.922  -1.400  1.00  0.00     0.031 A 
ATOM     50  C   UNL     1       4.886  13.273   4.871  1.00  0.00     0.031 A 
ATOM     51  C   UNL     1       4.156  16.695  -0.647  1.00  0.00     0.049 A 
ATOM     52  C   UNL     1       5.487  14.555   4.364  1.00  0.00     0.074 A 
ATOM     53  C   UNL     1       4.755  17.894  -0.990  1.00  0.00     0.029 A 
ATOM     54  N   UNL     1       4.627  16.355   0.612  1.00  0.00    -0.354 N 
ATOM     55  N   UNL     1       5.264  15.176   3.230  1.00  0.00    -0.248 NA
ATOM     56  C   UNL     1       6.455  15.227   5.241  1.00  0.00     0.031 C 
ATOM     57  C   UNL     1       5.609  18.267   0.053  1.00  0.00     0.029 A 
ATOM     58  C   UNL     1       5.511  17.320   1.060  1.00  0.00     0.049 A 
ATOM     59  H   UNL     1       4.369  15.548   1.113  1.00  0.00     0.167 HD
ATOM     60  C   UNL     1       6.044  16.325   3.270  1.00  0.00     0.074 A 
ATOM     61  C   UNL     1       6.735  16.319   4.543  1.00  0.00     0.031 C 
ATOM     62  C   UNL     1       6.178  17.299   2.336  1.00  0.00     0.031 A 
BRANCH  49  63
ATOM     63  C   UNL     1       2.840  16.377  -2.787  1.00  0.00    -0.014 A 
ATOM     64  C   UNL     1       1.563  16.898  -3.064  1.00  0.00     0.010 A 
ATOM     65  C   UNL     1       3.785  16.293  -3.825  1.00  0.00     0.010 A 
ATOM     66  C   UNL     1       1.218  17.272  -4.365  1.00  0.00     0.020 A 
ATOM     67  C   UNL     1       3.454  16.695  -5.122  1.00  0.00     0.020 A 
ATOM     68  C   UNL     1       2.164  17.160  -5.388  1.00  0.00     0.054 A 
BRANCH  68  69
ATOM     69  S   UNL     1       1.693  17.657  -7.067  1.00  0.00     0.124 S 
ATOM     70  O   UNL     1       0.880  16.522  -7.497  1.00  0.00    -0.237 OA
ATOM     71  O   UNL     1       0.963  18.902  -6.843  1.00  0.00    -0.237 OA
ATOM     72  O   UNL     1       2.973  17.804  -7.756  1.00  0.00    -0.744 OA
ENDBRANCH  68  69
ENDBRANCH  49  63
BRANCH  50  73
ATOM     73  C   UNL     1       5.271  12.726   6.200  1.00  0.00    -0.014 A 
ATOM     74  C   UNL     1       4.834  13.361   7.377  1.00  0.00     0.010 A 
ATOM     75  C   UNL     1       6.065  11.570   6.303  1.00  0.00     0.010 A 
ATOM     76  C   UNL     1       5.200  12.864   8.631  1.00  0.00     0.020 A 
ATOM     77  C   UNL     1       6.414  11.056   7.556  1.00  0.00     0.020 A 
ATOM     78  C   UNL     1       5.990  11.714   8.712  1.00  0.00     0.054 A 
BRANCH  78  79
ATOM     79  S   UNL     1       6.415  11.059  10.351  1.00  0.00     0.124 S 
ATOM     80  O   UNL     1       7.458  11.982  10.785  1.00  0.00    -0.237 OA
ATOM     81  O   UNL     1       5.146  11.154  11.069  1.00  0.00    -0.237 OA
ATOM     82  O   UNL     1       6.859   9.697  10.067  1.00  0.00    -0.744 OA
ENDBRANCH  78  79
ENDBRANCH  50  73
BRANCH  62  83
ATOM     83  C   UNL     1       7.073  18.459   2.670  1.00  0.00    -0.014 A 
ATOM     84  C   UNL     1       8.472  18.328   2.638  1.00  0.00     0.010 A 
ATOM     85  C   UNL     1       6.503  19.713   2.955  1.00  0.00     0.010 A 
ATOM     86  C   UNL     1       9.287  19.429   2.909  1.00  0.00     0.020 A 
ATOM     87  C   UNL     1       7.315  20.821   3.204  1.00  0.00     0.020 A 
ATOM     88  C   UNL     1       8.703  20.669   3.190  1.00  0.00     0.054 A 
BRANCH  88  89
ATOM     89  S   UNL     1       9.781  22.098   3.483  1.00  0.00     0.124 S 
ATOM     90  O   UNL     1      10.241  21.855   4.848  1.00  0.00    -0.237 OA
ATOM     91  O   UNL     1      10.797  21.954   2.443  1.00  0.00    -0.237 OA
ATOM     92  O   UNL     1       8.889  23.243   3.319  1.00  0.00    -0.744 OA
ENDBRANCH  88  89
ENDBRANCH  62  83
ENDBRANCH  36  37
ENDBRANCH  28  31
ENDBRANCH  26  27
ENDBRANCH  25  26
ENDBRANCH  24  25
ENDBRANCH   1  24
TORSDOF 20
