REMARK SMILES O=C(NCCCCNC(=O)c1cccc(/C=N/NC(=S)Nc2ccccc2)c1O)c1ccc(-c2c3nc(c(-c4ccc(S(=O)(=O)[O-])cc4)c4ccc([nH]4)c(-c4ccc(S(=O)(=O)[O-])cc4)c4nc(c(-c5ccc(S(=O)(=O)[O-])cc5)c5ccc2[nH]5)C=C4)C=C3)cc1
REMARK SMILES IDX 6 1 5 2 4 3 3 4 1 5 2 6 30 8 31 9 89 10 32 11 88 12 33 13
REMARK SMILES IDX 34 14 35 15 82 16 36 17 87 18 81 19 83 20 37 21 86 22 80 23
REMARK SMILES IDX 79 24 38 26 68 27 49 28 67 29 50 30 53 31 66 32 84 33 51 34
REMARK SMILES IDX 52 35 65 37 85 38 54 39 39 40 40 41 48 42 41 43 47 44 42 45
REMARK SMILES IDX 43 46 44 47 45 48 46 49 69 50 70 51 78 52 71 53 77 54 72 55
REMARK SMILES IDX 73 56 74 57 75 58 76 59 55 60 56 61 64 62 57 63 63 64 58 65
REMARK SMILES IDX 59 66 60 67 61 68 62 69 7 70 8 71 9 72 10 74 11 75 12 76
REMARK SMILES IDX 28 77 13 78 15 79 14 80 29 81 16 83 17 84 18 85 19 87 20 88
REMARK SMILES IDX 21 89 22 91 23 92 27 93 24 94 26 95 25 96
REMARK H PARENT 3 7 83 25 53 36 8 73 29 82 18 86 21 90
REMARK Flexibility Score: inf
ROOT
ATOM      1  C   UNL     1       4.506   3.533   1.414  1.00  0.00     0.023 C 
ENDROOT
BRANCH   1   2
ATOM      2  C   UNL     1       4.998   2.416   0.493  1.00  0.00     0.023 C 
BRANCH   2   3
ATOM      3  C   UNL     1       4.587   1.004   0.896  1.00  0.00     0.116 C 
BRANCH   3   4
ATOM      4  N   UNL     1       3.144   0.804   0.868  1.00  0.00    -0.352 N 
ATOM      5  O   UNL     1       1.148   0.206   0.002  1.00  0.00    -0.269 OA
ATOM      6  C   UNL     1       2.374   0.122  -0.044  1.00  0.00     0.251 C 
ATOM      7  H   UNL     1       2.649   1.216   1.612  1.00  0.00     0.163 HD
BRANCH   6   8
ATOM      8  C   UNL     1       3.025  -0.693  -1.090  1.00  0.00     0.039 A 
ATOM      9  C   UNL     1       4.052  -1.575  -0.752  1.00  0.00     0.014 A 
ATOM     10  C   UNL     1       2.602  -0.582  -2.418  1.00  0.00     0.014 A 
ATOM     11  C   UNL     1       4.760  -2.227  -1.753  1.00  0.00     0.010 A 
ATOM     12  C   UNL     1       3.251  -1.319  -3.414  1.00  0.00     0.010 A 
ATOM     13  C   UNL     1       4.347  -2.133  -3.091  1.00  0.00    -0.014 A 
BRANCH  13  14
ATOM     14  C   UNL     1       4.993  -3.000  -4.109  1.00  0.00     0.031 A 
ATOM     15  C   UNL     1       5.761  -2.423  -5.265  1.00  0.00     0.074 A 
ATOM     16  C   UNL     1       4.864  -4.336  -3.971  1.00  0.00     0.049 A 
ATOM     17  N   UNL     1       6.351  -3.054  -6.247  1.00  0.00    -0.248 NA
ATOM     18  C   UNL     1       5.882  -0.958  -5.336  1.00  0.00     0.031 C 
ATOM     19  C   UNL     1       4.130  -5.004  -2.889  1.00  0.00     0.029 A 
ATOM     20  N   UNL     1       5.339  -5.372  -4.732  1.00  0.00    -0.354 N 
ATOM     21  C   UNL     1       6.886  -2.069  -7.070  1.00  0.00     0.074 A 
ATOM     22  C   UNL     1       6.549  -0.794  -6.472  1.00  0.00     0.031 C 
ATOM     23  C   UNL     1       4.228  -6.331  -3.041  1.00  0.00     0.029 A 
ATOM     24  C   UNL     1       4.956  -6.610  -4.271  1.00  0.00     0.049 A 
ATOM     25  H   UNL     1       5.899  -5.243  -5.531  1.00  0.00     0.167 HD
ATOM     26  C   UNL     1       7.586  -2.223  -8.219  1.00  0.00     0.031 A 
ATOM     27  C   UNL     1       5.126  -7.836  -4.799  1.00  0.00     0.031 A 
ATOM     28  C   UNL     1       7.919  -3.501  -8.795  1.00  0.00     0.049 A 
ATOM     29  C   UNL     1       5.864  -7.965  -6.099  1.00  0.00     0.074 A 
ATOM     30  C   UNL     1       8.686  -3.760  -9.919  1.00  0.00     0.029 A 
ATOM     31  N   UNL     1       7.492  -4.729  -8.312  1.00  0.00    -0.354 N 
ATOM     32  N   UNL     1       6.434  -7.026  -6.815  1.00  0.00    -0.248 NA
ATOM     33  C   UNL     1       5.977  -9.315  -6.667  1.00  0.00     0.031 C 
ATOM     34  C   UNL     1       8.656  -5.137 -10.160  1.00  0.00     0.029 A 
ATOM     35  C   UNL     1       7.932  -5.743  -9.147  1.00  0.00     0.049 A 
ATOM     36  H   UNL     1       6.956  -4.860  -7.497  1.00  0.00     0.167 HD
ATOM     37  C   UNL     1       6.981  -7.674  -7.915  1.00  0.00     0.074 A 
ATOM     38  C   UNL     1       6.703  -9.086  -7.752  1.00  0.00     0.031 C 
ATOM     39  C   UNL     1       7.644  -7.144  -8.971  1.00  0.00     0.031 A 
BRANCH  26  40
ATOM     40  C   UNL     1       8.018  -0.990  -8.972  1.00  0.00    -0.014 A 
ATOM     41  C   UNL     1       9.073  -0.182  -8.516  1.00  0.00     0.010 A 
ATOM     42  C   UNL     1       7.434  -0.710 -10.223  1.00  0.00     0.010 A 
ATOM     43  C   UNL     1       9.529   0.890  -9.292  1.00  0.00     0.020 A 
ATOM     44  C   UNL     1       7.902   0.345 -11.012  1.00  0.00     0.020 A 
ATOM     45  C   UNL     1       8.945   1.142 -10.538  1.00  0.00     0.054 A 
BRANCH  45  46
ATOM     46  S   UNL     1       9.604   2.496 -11.551  1.00  0.00     0.124 S 
ATOM     47  O   UNL     1       9.170   3.672 -10.800  1.00  0.00    -0.237 OA
ATOM     48  O   UNL     1      11.041   2.236 -11.534  1.00  0.00    -0.237 OA
ATOM     49  O   UNL     1       8.954   2.312 -12.846  1.00  0.00    -0.744 OA
ENDBRANCH  45  46
ENDBRANCH  26  40
BRANCH  27  50
ATOM     50  C   UNL     1       4.518  -9.022  -4.136  1.00  0.00    -0.014 A 
ATOM     51  C   UNL     1       5.321 -10.037  -3.590  1.00  0.00     0.010 A 
ATOM     52  C   UNL     1       3.117  -9.141  -4.056  1.00  0.00     0.010 A 
ATOM     53  C   UNL     1       4.734 -11.164  -3.008  1.00  0.00     0.020 A 
ATOM     54  C   UNL     1       2.527 -10.247  -3.442  1.00  0.00     0.020 A 
ATOM     55  C   UNL     1       3.341 -11.263  -2.941  1.00  0.00     0.054 A 
BRANCH  55  56
ATOM     56  S   UNL     1       2.602 -12.729  -2.173  1.00  0.00     0.124 S 
ATOM     57  O   UNL     1       2.844 -13.753  -3.184  1.00  0.00    -0.237 OA
ATOM     58  O   UNL     1       3.373 -12.861  -0.939  1.00  0.00    -0.237 OA
ATOM     59  O   UNL     1       1.203 -12.350  -1.987  1.00  0.00    -0.744 OA
ENDBRANCH  55  56
ENDBRANCH  27  50
BRANCH  39  60
ATOM     60  C   UNL     1       8.127  -8.097 -10.030  1.00  0.00    -0.014 A 
ATOM     61  C   UNL     1       7.223  -8.710 -10.916  1.00  0.00     0.010 A 
ATOM     62  C   UNL     1       9.506  -8.328 -10.185  1.00  0.00     0.010 A 
ATOM     63  C   UNL     1       7.689  -9.550 -11.929  1.00  0.00     0.020 A 
ATOM     64  C   UNL     1       9.978  -9.142 -11.217  1.00  0.00     0.020 A 
ATOM     65  C   UNL     1       9.065  -9.755 -12.078  1.00  0.00     0.054 A 
BRANCH  65  66
ATOM     66  S   UNL     1       9.645 -10.791 -13.448  1.00  0.00     0.124 S 
ATOM     67  O   UNL     1       9.237 -12.124 -13.016  1.00  0.00    -0.237 OA
ATOM     68  O   UNL     1       8.914 -10.248 -14.590  1.00  0.00    -0.237 OA
ATOM     69  O   UNL     1      11.088 -10.559 -13.471  1.00  0.00    -0.744 OA
ENDBRANCH  65  66
ENDBRANCH  39  60
ENDBRANCH  13  14
ENDBRANCH   6   8
ENDBRANCH   3   4
ENDBRANCH   2   3
ENDBRANCH   1   2
BRANCH   1  70
ATOM     70  C   UNL     1       4.816   3.350   2.896  1.00  0.00     0.116 C 
BRANCH  70  71
ATOM     71  N   UNL     1       6.236   3.318   3.202  1.00  0.00    -0.352 N 
ATOM     72  C   UNL     1       6.931   3.832   4.270  1.00  0.00     0.255 C 
ATOM     73  H   UNL     1       6.791   2.851   2.535  1.00  0.00     0.163 HD
ATOM     74  O   UNL     1       8.160   3.770   4.250  1.00  0.00    -0.269 OA
BRANCH  72  75
ATOM     75  C   UNL     1       6.268   4.459   5.448  1.00  0.00     0.082 A 
ATOM     76  C   UNL     1       6.940   5.544   6.035  1.00  0.00     0.018 A 
ATOM     77  C   UNL     1       5.098   3.983   6.058  1.00  0.00     0.137 A 
ATOM     78  C   UNL     1       6.444   6.155   7.190  1.00  0.00     0.002 A 
ATOM     79  C   UNL     1       4.582   4.613   7.201  1.00  0.00     0.037 A 
ATOM     80  C   UNL     1       5.265   5.691   7.772  1.00  0.00     0.014 A 
BRANCH  77  81
ATOM     81  O   UNL     1       4.466   2.856   5.620  1.00  0.00    -0.506 OA
ATOM     82  H   UNL     1       4.781   2.408   4.860  1.00  0.00     0.293 HD
ENDBRANCH  77  81
BRANCH  79  83
ATOM     83  C   UNL     1       3.346   4.099   7.843  1.00  0.00     0.145 C 
ATOM     84  N   UNL     1       3.123   4.296   9.105  1.00  0.00    -0.181 NA
BRANCH  84  85
ATOM     85  N   UNL     1       2.018   3.752   9.701  1.00  0.00    -0.254 N 
ATOM     86  H   UNL     1       1.694   4.270  10.473  1.00  0.00     0.193 HD
BRANCH  85  87
ATOM     87  C   UNL     1       1.277   2.642   9.446  1.00  0.00     0.191 C 
ATOM     88  S   UNL     1      -0.262   2.566  10.116  1.00  0.00    -0.039 S 
BRANCH  87  89
ATOM     89  N   UNL     1       1.674   1.612   8.665  1.00  0.00    -0.331 N 
ATOM     90  H   UNL     1       0.939   1.112   8.242  1.00  0.00     0.169 HD
BRANCH  89  91
ATOM     91  C   UNL     1       2.958   1.135   8.354  1.00  0.00     0.040 A 
ATOM     92  C   UNL     1       3.108   0.399   7.174  1.00  0.00     0.026 A 
ATOM     93  C   UNL     1       4.074   1.388   9.152  1.00  0.00     0.026 A 
ATOM     94  C   UNL     1       4.382   0.028   6.737  1.00  0.00     0.002 A 
ATOM     95  C   UNL     1       5.346   1.018   8.717  1.00  0.00     0.002 A 
ATOM     96  C   UNL     1       5.503   0.362   7.497  1.00  0.00     0.000 A 
ENDBRANCH  89  91
ENDBRANCH  87  89
ENDBRANCH  85  87
ENDBRANCH  84  85
ENDBRANCH  79  83
ENDBRANCH  72  75
ENDBRANCH  70  71
ENDBRANCH   1  70
TORSDOF 20
