REMARK SMILES C=CCCC[C@@]1(C(=O)NCCCCNC(=O)c2ccc(-c3c4nc(c(-c5ccc(S(=O)(=O)[O-])cc5)c5ccc([nH]5)c(-c5ccc(S(=O)(=O)[O-])cc5)c5nc(c(-c6ccc(S(=O)(=O)[O-])cc6)c6ccc3[nH]6)C=C5)C=C4)cc2)CCCN(C(=O)OC(C)(C)C)C1
REMARK SMILES IDX 11 1 10 2 9 3 7 4 8 5 6 7 77 8 88 9 78 10 80 11 79 12 5 13
REMARK SMILES IDX 4 14 3 15 2 16 1 17 81 18 82 19 83 20 84 21 85 22 86 23
REMARK SMILES IDX 87 24 12 25 13 26 14 27 15 28 16 30 17 31 18 32 76 33 19 34
REMARK SMILES IDX 75 35 20 36 21 37 22 38 69 39 23 40 74 41 68 42 70 43 24 44
REMARK SMILES IDX 73 45 67 46 66 47 25 49 55 50 36 51 54 52 37 53 40 54 53 55
REMARK SMILES IDX 71 56 38 57 39 58 52 60 72 61 41 62 26 63 27 64 35 65 28 66
REMARK SMILES IDX 34 67 29 68 30 69 31 70 32 71 33 72 56 73 57 74 65 75 58 76
REMARK SMILES IDX 64 77 59 78 60 79 61 80 62 81 63 82 42 83 43 84 51 85 44 86
REMARK SMILES IDX 50 87 45 88 46 89 47 90 48 91 49 92
REMARK H PARENT 9 6 14 29 70 48 40 59
REMARK Flexibility Score: inf
ROOT
ATOM      1  C   UNL     1      -2.569   2.742   5.620  1.00  0.00     0.023 C 
ENDROOT
BRANCH   1   2
ATOM      2  C   UNL     1      -1.328   3.239   4.893  1.00  0.00     0.116 C 
BRANCH   2   3
ATOM      3  N   UNL     1      -1.021   2.431   3.735  1.00  0.00    -0.356 N 
ATOM      4  C   UNL     1      -1.190   2.572   2.401  1.00  0.00     0.228 C 
ATOM      5  O   UNL     1      -0.701   1.647   1.734  1.00  0.00    -0.274 OA
ATOM      6  H   UNL     1      -0.588   1.579   3.972  1.00  0.00     0.163 HD
BRANCH   4   7
ATOM      7  C   UNL     1      -1.972   3.704   1.673  1.00  0.00     0.067 C 
ATOM      8  C   UNL     1      -2.104   5.078   2.373  1.00  0.00     0.020 C 
ATOM      9  C   UNL     1      -3.377   3.160   1.396  1.00  0.00     0.140 C 
ATOM     10  C   UNL     1      -3.351   5.341   3.246  1.00  0.00     0.023 C 
ATOM     11  N   UNL     1      -4.176   3.057   2.599  1.00  0.00    -0.307 N 
ATOM     12  C   UNL     1      -4.485   4.306   3.265  1.00  0.00     0.123 C 
BRANCH   7  13
ATOM     13  C   UNL     1      -1.145   3.957   0.339  1.00  0.00     0.019 C 
BRANCH  13  14
ATOM     14  C   UNL     1      -1.546   3.217  -0.955  1.00  0.00     0.005 C 
BRANCH  14  15
ATOM     15  C   UNL     1      -2.842   3.648  -1.668  1.00  0.00     0.027 C 
BRANCH  15  16
ATOM     16  C   UNL     1      -3.111   5.128  -1.701  1.00  0.00    -0.035 C 
ATOM     17  C   UNL     1      -3.560   5.785  -2.777  1.00  0.00     0.004 C 
ENDBRANCH  15  16
ENDBRANCH  14  15
ENDBRANCH  13  14
ENDBRANCH   7  13
BRANCH  11  18
ATOM     18  C   UNL     1      -4.734   1.824   2.919  1.00  0.00     0.410 C 
ATOM     19  O   UNL     1      -4.608   0.834   2.208  1.00  0.00    -0.224 OA
BRANCH  18  20
ATOM     20  O   UNL     1      -5.379   1.815   4.118  1.00  0.00    -0.444 OA
BRANCH  20  21
ATOM     21  C   UNL     1      -5.809   0.547   4.696  1.00  0.00     0.106 C 
ATOM     22  C   UNL     1      -6.929  -0.085   3.865  1.00  0.00     0.056 C 
ATOM     23  C   UNL     1      -4.646  -0.441   4.897  1.00  0.00     0.056 C 
ATOM     24  C   UNL     1      -6.367   0.905   6.083  1.00  0.00     0.056 C 
ENDBRANCH  20  21
ENDBRANCH  18  20
ENDBRANCH  11  18
ENDBRANCH   4   7
ENDBRANCH   2   3
ENDBRANCH   1   2
BRANCH   1  25
ATOM     25  C   UNL     1      -2.286   1.862   6.824  1.00  0.00     0.023 C 
BRANCH  25  26
ATOM     26  C   UNL     1      -1.503   2.551   7.919  1.00  0.00     0.116 C 
BRANCH  26  27
ATOM     27  N   UNL     1      -2.187   3.707   8.488  1.00  0.00    -0.352 N 
ATOM     28  C   UNL     1      -2.321   4.027   9.822  1.00  0.00     0.251 C 
ATOM     29  H   UNL     1      -2.600   4.329   7.847  1.00  0.00     0.163 HD
ATOM     30  O   UNL     1      -3.008   4.975  10.181  1.00  0.00    -0.269 OA
BRANCH  28  31
ATOM     31  C   UNL     1      -1.650   3.151  10.803  1.00  0.00     0.039 A 
ATOM     32  C   UNL     1      -2.406   2.548  11.807  1.00  0.00     0.014 A 
ATOM     33  C   UNL     1      -0.316   2.794  10.596  1.00  0.00     0.014 A 
ATOM     34  C   UNL     1      -1.841   1.512  12.551  1.00  0.00     0.010 A 
ATOM     35  C   UNL     1       0.190   1.675  11.240  1.00  0.00     0.010 A 
ATOM     36  C   UNL     1      -0.558   1.030  12.236  1.00  0.00    -0.014 A 
BRANCH  36  37
ATOM     37  C   UNL     1       0.043  -0.127  12.948  1.00  0.00     0.031 A 
ATOM     38  C   UNL     1       1.359   0.051  13.659  1.00  0.00     0.074 A 
ATOM     39  C   UNL     1      -0.542  -1.342  12.892  1.00  0.00     0.049 A 
ATOM     40  N   UNL     1       2.101  -0.844  14.258  1.00  0.00    -0.248 NA
ATOM     41  C   UNL     1       1.942   1.406  13.661  1.00  0.00     0.031 C 
ATOM     42  C   UNL     1      -1.786  -1.659  12.183  1.00  0.00     0.029 A 
ATOM     43  N   UNL     1      -0.162  -2.543  13.438  1.00  0.00    -0.354 N 
ATOM     44  C   UNL     1       3.243  -0.168  14.672  1.00  0.00     0.074 A 
ATOM     45  C   UNL     1       3.131   1.192  14.201  1.00  0.00     0.031 C 
ATOM     46  C   UNL     1      -2.082  -2.957  12.368  1.00  0.00     0.029 A 
ATOM     47  C   UNL     1      -1.029  -3.577  13.166  1.00  0.00     0.049 A 
ATOM     48  H   UNL     1       0.656  -2.655  13.973  1.00  0.00     0.167 HD
ATOM     49  C   UNL     1       4.279  -0.629  15.409  1.00  0.00     0.031 A 
ATOM     50  C   UNL     1      -0.979  -4.878  13.515  1.00  0.00     0.031 A 
ATOM     51  C   UNL     1       4.364  -1.970  15.914  1.00  0.00     0.049 A 
ATOM     52  C   UNL     1       0.177  -5.362  14.351  1.00  0.00     0.074 A 
ATOM     53  C   UNL     1       5.331  -2.516  16.739  1.00  0.00     0.029 A 
ATOM     54  N   UNL     1       3.447  -2.974  15.647  1.00  0.00    -0.354 N 
ATOM     55  N   UNL     1       1.206  -4.685  14.805  1.00  0.00    -0.248 NA
ATOM     56  C   UNL     1       0.173  -6.781  14.734  1.00  0.00     0.031 C 
ATOM     57  C   UNL     1       5.029  -3.868  16.923  1.00  0.00     0.029 A 
ATOM     58  C   UNL     1       3.839  -4.145  16.269  1.00  0.00     0.049 A 
ATOM     59  H   UNL     1       2.638  -2.870  15.096  1.00  0.00     0.167 HD
ATOM     60  C   UNL     1       1.954  -5.590  15.551  1.00  0.00     0.074 A 
ATOM     61  C   UNL     1       1.252  -6.855  15.502  1.00  0.00     0.031 C 
ATOM     62  C   UNL     1       3.119  -5.392  16.216  1.00  0.00     0.031 A 
BRANCH  49  63
ATOM     63  C   UNL     1       5.399   0.328  15.720  1.00  0.00    -0.014 A 
ATOM     64  C   UNL     1       5.208   1.417  16.590  1.00  0.00     0.010 A 
ATOM     65  C   UNL     1       6.676   0.105  15.173  1.00  0.00     0.010 A 
ATOM     66  C   UNL     1       6.263   2.284  16.881  1.00  0.00     0.020 A 
ATOM     67  C   UNL     1       7.743   0.951  15.488  1.00  0.00     0.020 A 
ATOM     68  C   UNL     1       7.526   2.043  16.331  1.00  0.00     0.054 A 
BRANCH  68  69
ATOM     69  S   UNL     1       8.889   3.156  16.770  1.00  0.00     0.124 S 
ATOM     70  O   UNL     1       8.527   4.373  16.048  1.00  0.00    -0.237 OA
ATOM     71  O   UNL     1       8.781   3.233  18.224  1.00  0.00    -0.237 OA
ATOM     72  O   UNL     1      10.075   2.466  16.270  1.00  0.00    -0.744 OA
ENDBRANCH  68  69
ENDBRANCH  49  63
BRANCH  50  73
ATOM     73  C   UNL     1      -2.054  -5.816  13.083  1.00  0.00    -0.014 A 
ATOM     74  C   UNL     1      -2.938  -6.378  14.022  1.00  0.00     0.010 A 
ATOM     75  C   UNL     1      -2.193  -6.163  11.726  1.00  0.00     0.010 A 
ATOM     76  C   UNL     1      -3.919  -7.290  13.618  1.00  0.00     0.020 A 
ATOM     77  C   UNL     1      -3.193  -7.049  11.314  1.00  0.00     0.020 A 
ATOM     78  C   UNL     1      -4.040  -7.619  12.265  1.00  0.00     0.054 A 
BRANCH  78  79
ATOM     79  S   UNL     1      -5.341  -8.780  11.760  1.00  0.00     0.124 S 
ATOM     80  O   UNL     1      -4.823 -10.050  12.257  1.00  0.00    -0.237 OA
ATOM     81  O   UNL     1      -6.515  -8.258  12.454  1.00  0.00    -0.237 OA
ATOM     82  O   UNL     1      -5.375  -8.642  10.305  1.00  0.00    -0.744 OA
ENDBRANCH  78  79
ENDBRANCH  50  73
BRANCH  62  83
ATOM     83  C   UNL     1       3.690  -6.553  16.984  1.00  0.00    -0.014 A 
ATOM     84  C   UNL     1       4.269  -7.651  16.326  1.00  0.00     0.010 A 
ATOM     85  C   UNL     1       3.713  -6.504  18.391  1.00  0.00     0.010 A 
ATOM     86  C   UNL     1       4.837  -8.694  17.062  1.00  0.00     0.020 A 
ATOM     87  C   UNL     1       4.309  -7.528  19.129  1.00  0.00     0.020 A 
ATOM     88  C   UNL     1       4.856  -8.624  18.459  1.00  0.00     0.054 A 
BRANCH  88  89
ATOM     89  S   UNL     1       5.649  -9.964  19.388  1.00  0.00     0.124 S 
ATOM     90  O   UNL     1       4.691 -11.054  19.226  1.00  0.00    -0.237 OA
ATOM     91  O   UNL     1       6.918 -10.133  18.685  1.00  0.00    -0.237 OA
ATOM     92  O   UNL     1       5.760  -9.429  20.743  1.00  0.00    -0.744 OA
ENDBRANCH  88  89
ENDBRANCH  62  83
ENDBRANCH  36  37
ENDBRANCH  28  31
ENDBRANCH  26  27
ENDBRANCH  25  26
ENDBRANCH   1  25
TORSDOF 21
