REMARK SMILES COc1cc([C@@H]2CC(=O)Nc3c(C(=O)NCCCCNC(=O)c4ccc(-c5c6nc(c(-c7ccc(S(=O)(=O)[O-])cc7)c7ccc([nH]7)c(-c7ccc(S(=O)(=O)[O-])cc7)c7nc(c(-c8ccc(S(=O)(=O)[O-])cc8)c8ccc5[nH]8)C=C7)C=C6)cc4)cn(-c4ccccc4)c32)ccc1O
REMARK SMILES IDX 18 1 17 2 16 3 15 4 13 5 14 6 12 8 6 9 7 10 91 11 8 12 11 13
REMARK SMILES IDX 84 14 9 15 10 16 83 17 5 19 3 20 4 21 94 22 93 23 92 24 2 25
REMARK SMILES IDX 1 26 95 27 85 29 86 30 90 31 87 32 89 33 88 34 19 35 20 36
REMARK SMILES IDX 21 37 22 39 23 40 24 41 82 42 25 43 81 44 26 45 27 46 28 47
REMARK SMILES IDX 75 48 29 49 80 50 74 51 76 52 30 53 79 54 73 55 72 56 31 58
REMARK SMILES IDX 61 59 42 60 60 61 43 62 46 63 59 64 77 65 44 66 45 67 58 69
REMARK SMILES IDX 78 70 47 71 32 72 33 73 41 74 34 75 40 76 35 77 36 78 37 79
REMARK SMILES IDX 38 80 39 81 62 82 63 83 71 84 64 85 70 86 65 87 66 88 67 89
REMARK SMILES IDX 68 90 69 91 48 92 49 93 57 94 50 95 56 96 51 97 52 98 53 99
REMARK SMILES IDX 54 100 55 101
REMARK H PARENT 15 7 10 18 95 28 20 38 76 57 46 68
REMARK Flexibility Score: inf
ROOT
ATOM      1  C   UNL     1      -4.423   2.224  11.310  1.00  0.00     0.023 C 
ENDROOT
BRANCH   1   2
ATOM      2  C   UNL     1      -3.880   2.029   9.890  1.00  0.00     0.023 C 
BRANCH   2   3
ATOM      3  C   UNL     1      -4.801   1.263   8.926  1.00  0.00     0.116 C 
BRANCH   3   4
ATOM      4  N   UNL     1      -5.737   2.150   8.283  1.00  0.00    -0.352 N 
ATOM      5  C   UNL     1      -5.682   2.948   7.173  1.00  0.00     0.254 C 
ATOM      6  O   UNL     1      -6.713   3.594   6.958  1.00  0.00    -0.269 OA
ATOM      7  H   UNL     1      -6.606   2.191   8.743  1.00  0.00     0.163 HD
BRANCH   5   8
ATOM      8  C   UNL     1      -4.537   3.066   6.255  1.00  0.00     0.081 A 
ATOM      9  C   UNL     1      -1.194   2.876   4.590  1.00  0.00     0.078 C 
ATOM     10  C   UNL     1      -0.320   2.873   5.848  1.00  0.00     0.115 C 
ATOM     11  C   UNL     1      -2.628   3.072   4.990  1.00  0.00     0.055 A 
ATOM     12  C   UNL     1      -0.933   2.075   6.976  1.00  0.00     0.225 C 
ATOM     13  C   UNL     1      -3.151   2.717   6.219  1.00  0.00     0.076 A 
ATOM     14  N   UNL     1      -3.598   3.736   4.278  1.00  0.00    -0.317 N 
ATOM     15  O   UNL     1      -0.246   1.494   7.815  1.00  0.00    -0.275 OA
ATOM     16  N   UNL     1      -2.295   2.132   7.123  1.00  0.00    -0.324 N 
ATOM     17  C   UNL     1      -4.726   3.766   5.058  1.00  0.00     0.107 A 
ATOM     18  H   UNL     1      -2.687   1.727   7.931  1.00  0.00     0.170 HD
BRANCH   9  19
ATOM     19  C   UNL     1      -0.945   1.616   3.772  1.00  0.00    -0.034 A 
ATOM     20  C   UNL     1       0.084   0.603   1.785  1.00  0.00     0.160 A 
ATOM     21  C   UNL     1      -0.169   1.710   2.604  1.00  0.00     0.054 A 
ATOM     22  C   UNL     1      -0.445  -0.630   2.163  1.00  0.00     0.157 A 
ATOM     23  C   UNL     1      -1.176  -0.759   3.345  1.00  0.00     0.050 A 
ATOM     24  C   UNL     1      -1.437   0.357   4.138  1.00  0.00     0.008 A 
BRANCH  20  25
ATOM     25  O   UNL     1       0.818   0.932   0.684  1.00  0.00    -0.493 OA
ATOM     26  C   UNL     1       1.423  -0.077  -0.104  1.00  0.00     0.278 C 
ENDBRANCH  20  25
BRANCH  22  27
ATOM     27  O   UNL     1      -0.346  -1.764   1.411  1.00  0.00    -0.504 OA
ATOM     28  H   UNL     1       0.131  -1.752   0.605  1.00  0.00     0.293 HD
ENDBRANCH  22  27
ENDBRANCH   9  19
BRANCH  14  29
ATOM     29  C   UNL     1      -3.461   4.372   3.023  1.00  0.00     0.045 A 
ATOM     30  C   UNL     1      -2.946   3.667   1.933  1.00  0.00     0.026 A 
ATOM     31  C   UNL     1      -3.817   5.718   2.891  1.00  0.00     0.026 A 
ATOM     32  C   UNL     1      -2.729   4.324   0.723  1.00  0.00     0.002 A 
ATOM     33  C   UNL     1      -3.582   6.373   1.681  1.00  0.00     0.002 A 
ATOM     34  C   UNL     1      -3.030   5.679   0.602  1.00  0.00     0.000 A 
ENDBRANCH  14  29
ENDBRANCH   5   8
ENDBRANCH   3   4
ENDBRANCH   2   3
ENDBRANCH   1   2
BRANCH   1  35
ATOM     35  C   UNL     1      -4.411   0.960  12.164  1.00  0.00     0.116 C 
BRANCH  35  36
ATOM     36  N   UNL     1      -3.062   0.432  12.406  1.00  0.00    -0.352 N 
ATOM     37  C   UNL     1      -2.710  -0.849  12.813  1.00  0.00     0.251 C 
ATOM     38  H   UNL     1      -2.318   1.061  12.262  1.00  0.00     0.163 HD
ATOM     39  O   UNL     1      -1.660  -1.079  13.380  1.00  0.00    -0.269 OA
BRANCH  37  40
ATOM     40  C   UNL     1      -3.656  -1.933  12.494  1.00  0.00     0.039 A 
ATOM     41  C   UNL     1      -4.047  -2.899  13.425  1.00  0.00     0.014 A 
ATOM     42  C   UNL     1      -4.229  -1.870  11.231  1.00  0.00     0.014 A 
ATOM     43  C   UNL     1      -5.094  -3.757  13.089  1.00  0.00     0.010 A 
ATOM     44  C   UNL     1      -5.384  -2.557  10.998  1.00  0.00     0.010 A 
ATOM     45  C   UNL     1      -5.769  -3.564  11.874  1.00  0.00    -0.014 A 
BRANCH  45  46
ATOM     46  C   UNL     1      -6.936  -4.347  11.493  1.00  0.00     0.031 A 
ATOM     47  C   UNL     1      -8.069  -4.322  12.458  1.00  0.00     0.074 A 
ATOM     48  C   UNL     1      -7.085  -4.827  10.238  1.00  0.00     0.049 A 
ATOM     49  N   UNL     1      -8.494  -5.293  13.194  1.00  0.00    -0.248 NA
ATOM     50  C   UNL     1      -8.731  -3.035  12.735  1.00  0.00     0.031 C 
ATOM     51  C   UNL     1      -6.214  -4.641   9.066  1.00  0.00     0.029 A 
ATOM     52  N   UNL     1      -8.149  -5.471   9.700  1.00  0.00    -0.354 N 
ATOM     53  C   UNL     1      -9.619  -4.813  13.857  1.00  0.00     0.074 A 
ATOM     54  C   UNL     1      -9.598  -3.381  13.691  1.00  0.00     0.031 C 
ATOM     55  C   UNL     1      -6.910  -4.899   7.937  1.00  0.00     0.029 A 
ATOM     56  C   UNL     1      -8.195  -5.456   8.311  1.00  0.00     0.049 A 
ATOM     57  H   UNL     1      -8.835  -5.913  10.250  1.00  0.00     0.167 HD
ATOM     58  C   UNL     1     -10.614  -5.647  14.276  1.00  0.00     0.031 A 
ATOM     59  C   UNL     1      -9.240  -5.839   7.534  1.00  0.00     0.031 A 
ATOM     60  C   UNL     1     -10.222  -7.031  14.184  1.00  0.00     0.049 A 
ATOM     61  C   UNL     1     -10.088  -6.722   8.379  1.00  0.00     0.074 A 
ATOM     62  C   UNL     1      -9.186  -7.782  14.707  1.00  0.00     0.029 A 
ATOM     63  N   UNL     1     -10.694  -7.746  13.105  1.00  0.00    -0.354 N 
ATOM     64  N   UNL     1      -9.675  -7.873   8.839  1.00  0.00    -0.248 NA
ATOM     65  C   UNL     1     -11.176  -6.108   9.126  1.00  0.00     0.031 C 
ATOM     66  C   UNL     1      -8.756  -8.602  13.622  1.00  0.00     0.029 A 
ATOM     67  C   UNL     1      -9.612  -8.375  12.541  1.00  0.00     0.049 A 
ATOM     68  H   UNL     1     -11.628  -7.797  12.797  1.00  0.00     0.167 HD
ATOM     69  C   UNL     1     -10.130  -7.917  10.151  1.00  0.00     0.074 A 
ATOM     70  C   UNL     1     -11.120  -6.842  10.243  1.00  0.00     0.031 C 
ATOM     71  C   UNL     1      -9.463  -8.615  11.120  1.00  0.00     0.031 A 
BRANCH  58  72
ATOM     72  C   UNL     1     -12.065  -5.249  14.384  1.00  0.00    -0.014 A 
ATOM     73  C   UNL     1     -12.981  -6.165  14.940  1.00  0.00     0.010 A 
ATOM     74  C   UNL     1     -12.602  -4.133  13.711  1.00  0.00     0.010 A 
ATOM     75  C   UNL     1     -14.362  -6.009  14.765  1.00  0.00     0.020 A 
ATOM     76  C   UNL     1     -13.978  -3.943  13.570  1.00  0.00     0.020 A 
ATOM     77  C   UNL     1     -14.849  -4.904  14.067  1.00  0.00     0.054 A 
BRANCH  77  78
ATOM     78  S   UNL     1     -16.625  -4.770  13.748  1.00  0.00     0.124 S 
ATOM     79  O   UNL     1     -16.855  -5.902  12.856  1.00  0.00    -0.237 OA
ATOM     80  O   UNL     1     -17.189  -4.894  15.090  1.00  0.00    -0.237 OA
ATOM     81  O   UNL     1     -16.765  -3.450  13.138  1.00  0.00    -0.744 OA
ENDBRANCH  77  78
ENDBRANCH  58  72
BRANCH  59  82
ATOM     82  C   UNL     1      -9.715  -5.204   6.276  1.00  0.00    -0.014 A 
ATOM     83  C   UNL     1     -10.693  -5.822   5.473  1.00  0.00     0.010 A 
ATOM     84  C   UNL     1      -9.411  -3.853   6.005  1.00  0.00     0.010 A 
ATOM     85  C   UNL     1     -11.391  -5.095   4.490  1.00  0.00     0.020 A 
ATOM     86  C   UNL     1     -10.097  -3.124   5.024  1.00  0.00     0.020 A 
ATOM     87  C   UNL     1     -11.105  -3.742   4.290  1.00  0.00     0.054 A 
BRANCH  87  88
ATOM     88  S   UNL     1     -12.145  -2.760   3.164  1.00  0.00     0.124 S 
ATOM     89  O   UNL     1     -11.762  -3.279   1.854  1.00  0.00    -0.237 OA
ATOM     90  O   UNL     1     -13.495  -3.094   3.607  1.00  0.00    -0.237 OA
ATOM     91  O   UNL     1     -11.733  -1.383   3.429  1.00  0.00    -0.744 OA
ENDBRANCH  87  88
ENDBRANCH  59  82
BRANCH  71  92
ATOM     92  C   UNL     1      -8.327  -9.533  10.718  1.00  0.00    -0.014 A 
ATOM     93  C   UNL     1      -7.155  -9.098  10.066  1.00  0.00     0.010 A 
ATOM     94  C   UNL     1      -8.373 -10.858  11.184  1.00  0.00     0.010 A 
ATOM     95  C   UNL     1      -6.074  -9.974   9.865  1.00  0.00     0.020 A 
ATOM     96  C   UNL     1      -7.297 -11.730  11.004  1.00  0.00     0.020 A 
ATOM     97  C   UNL     1      -6.155 -11.288  10.336  1.00  0.00     0.054 A 
BRANCH  97  98
ATOM     98  S   UNL     1      -4.746 -12.411  10.108  1.00  0.00     0.124 S 
ATOM     99  O   UNL     1      -4.723 -12.601   8.661  1.00  0.00    -0.237 OA
ATOM    100  O   UNL     1      -3.629 -11.649  10.662  1.00  0.00    -0.237 OA
ATOM    101  O   UNL     1      -5.118 -13.597  10.880  1.00  0.00    -0.744 OA
ENDBRANCH  97  98
ENDBRANCH  71  92
ENDBRANCH  45  46
ENDBRANCH  37  40
ENDBRANCH  35  36
ENDBRANCH   1  35
TORSDOF 18
