REMARK SMILES O=C(C[C@@H](C(=O)NCCCCNC(=O)c1ccc(-c2c3nc(c(-c4ccc(S(=O)(=O)[O-])cc4)c4ccc([nH]4)c(-c4ccc(S(=O)(=O)[O-])cc4)c4nc(c(-c5ccc(S(=O)(=O)[O-])cc5)c5ccc2[nH]5)C=C4)C=C3)cc1)c1ccccc1)Nc1cc(C(F)(F)F)ccc1-n1cncn1
REMARK SMILES IDX 9 1 8 2 7 3 5 4 6 5 4 7 3 8 2 9 1 10 81 11 82 13 83 14 91 15
REMARK SMILES IDX 84 16 90 17 89 18 92 19 93 20 96 21 94 22 95 23 85 24 86 25
REMARK SMILES IDX 87 26 88 27 75 28 76 29 80 30 77 31 79 32 78 33 10 34 11 35
REMARK SMILES IDX 12 36 13 37 14 39 15 40 16 41 74 42 17 43 73 44 18 45 19 46
REMARK SMILES IDX 20 47 67 48 21 49 72 50 66 51 68 52 22 53 71 54 65 55 64 56
REMARK SMILES IDX 23 58 53 59 34 60 52 61 35 62 38 63 51 64 69 65 36 66 37 67
REMARK SMILES IDX 50 69 70 70 39 71 24 72 25 73 33 74 26 75 32 76 27 77 28 78
REMARK SMILES IDX 29 79 30 80 31 81 54 82 55 83 63 84 56 85 62 86 57 87 58 88
REMARK SMILES IDX 59 89 60 90 61 91 40 92 41 93 49 94 42 95 48 96 43 97 44 98
REMARK SMILES IDX 45 99 46 100 47 101
REMARK H PARENT 7 6 81 12 12 38 68 57 38 68
REMARK Flexibility Score: inf
ROOT
ATOM      1  C   UNL     1       4.549  -0.731  -2.751  1.00  0.00     0.023 C 
ENDROOT
BRANCH   1   2
ATOM      2  C   UNL     1       4.269  -2.013  -1.964  1.00  0.00     0.116 C 
BRANCH   2   3
ATOM      3  N   UNL     1       5.112  -2.022  -0.783  1.00  0.00    -0.356 N 
ATOM      4  C   UNL     1       4.942  -1.125   0.236  1.00  0.00     0.228 C 
ATOM      5  O   UNL     1       5.831  -0.298   0.443  1.00  0.00    -0.274 OA
ATOM      6  H   UNL     1       5.828  -2.694  -0.713  1.00  0.00     0.163 HD
BRANCH   4   7
ATOM      7  C   UNL     1       3.695  -1.251   1.123  1.00  0.00     0.118 C 
BRANCH   7   8
ATOM      8  C   UNL     1       2.923   0.080   1.142  1.00  0.00     0.118 C 
BRANCH   8   9
ATOM      9  C   UNL     1       1.928   0.264   0.002  1.00  0.00     0.225 C 
ATOM     10  O   UNL     1       0.931  -0.436  -0.119  1.00  0.00    -0.275 OA
ATOM     11  N   UNL     1       2.277   1.298  -0.856  1.00  0.00    -0.324 N 
ATOM     12  H   UNL     1       3.180   1.678  -0.756  1.00  0.00     0.170 HD
BRANCH  11  13
ATOM     13  C   UNL     1       1.449   1.855  -1.861  1.00  0.00     0.067 A 
ATOM     14  C   UNL     1       2.018   1.961  -3.127  1.00  0.00     0.041 A 
ATOM     15  C   UNL     1       0.181   2.423  -1.660  1.00  0.00     0.090 A 
ATOM     16  C   UNL     1       1.362   2.584  -4.197  1.00  0.00     0.058 A 
ATOM     17  C   UNL     1      -0.542   2.952  -2.752  1.00  0.00     0.031 A 
ATOM     18  C   UNL     1       0.057   3.044  -4.014  1.00  0.00     0.015 A 
BRANCH  15  19
ATOM     19  N   UNL     1      -0.266   2.763  -0.363  1.00  0.00    -0.219 N 
ATOM     20  C   UNL     1       0.515   3.197   0.686  1.00  0.00     0.226 A 
ATOM     21  N   UNL     1      -1.571   2.947  -0.042  1.00  0.00    -0.155 NA
ATOM     22  N   UNL     1      -0.227   3.488   1.727  1.00  0.00    -0.223 NA
ATOM     23  C   UNL     1      -1.486   3.297   1.244  1.00  0.00     0.246 A 
ENDBRANCH  15  19
BRANCH  16  24
ATOM     24  C   UNL     1       2.169   2.858  -5.439  1.00  0.00     0.416 C 
ATOM     25  F   UNL     1       3.076   3.850  -5.219  1.00  0.00    -0.166 F 
ATOM     26  F   UNL     1       2.911   1.788  -5.824  1.00  0.00    -0.166 F 
ATOM     27  F   UNL     1       1.436   3.244  -6.513  1.00  0.00    -0.166 F 
ENDBRANCH  16  24
ENDBRANCH  11  13
ENDBRANCH   8   9
ENDBRANCH   7   8
BRANCH   7  28
ATOM     28  C   UNL     1       4.226  -1.634   2.520  1.00  0.00    -0.035 A 
ATOM     29  C   UNL     1       4.326  -2.984   2.892  1.00  0.00     0.004 A 
ATOM     30  C   UNL     1       4.791  -0.668   3.376  1.00  0.00     0.004 A 
ATOM     31  C   UNL     1       4.976  -3.352   4.076  1.00  0.00     0.000 A 
ATOM     32  C   UNL     1       5.439  -1.038   4.556  1.00  0.00     0.000 A 
ATOM     33  C   UNL     1       5.536  -2.381   4.904  1.00  0.00     0.000 A 
ENDBRANCH   7  28
ENDBRANCH   4   7
ENDBRANCH   2   3
ENDBRANCH   1   2
BRANCH   1  34
ATOM     34  C   UNL     1       4.469  -0.775  -4.275  1.00  0.00     0.023 C 
BRANCH  34  35
ATOM     35  C   UNL     1       3.489  -1.754  -4.908  1.00  0.00     0.116 C 
BRANCH  35  36
ATOM     36  N   UNL     1       2.137  -1.267  -5.140  1.00  0.00    -0.352 N 
ATOM     37  C   UNL     1       1.488  -0.768  -6.254  1.00  0.00     0.251 C 
ATOM     38  H   UNL     1       1.567  -1.300  -4.337  1.00  0.00     0.163 HD
ATOM     39  O   UNL     1       0.280  -0.548  -6.164  1.00  0.00    -0.269 OA
BRANCH  37  40
ATOM     40  C   UNL     1       2.200  -0.370  -7.501  1.00  0.00     0.039 A 
ATOM     41  C   UNL     1       1.737   0.754  -8.209  1.00  0.00     0.014 A 
ATOM     42  C   UNL     1       3.344  -1.006  -7.954  1.00  0.00     0.014 A 
ATOM     43  C   UNL     1       2.500   1.319  -9.242  1.00  0.00     0.010 A 
ATOM     44  C   UNL     1       4.160  -0.390  -8.894  1.00  0.00     0.010 A 
ATOM     45  C   UNL     1       3.747   0.776  -9.557  1.00  0.00    -0.014 A 
BRANCH  45  46
ATOM     46  C   UNL     1       4.616   1.273 -10.655  1.00  0.00     0.031 A 
ATOM     47  C   UNL     1       4.938   0.318 -11.777  1.00  0.00     0.074 A 
ATOM     48  C   UNL     1       5.231   2.471 -10.585  1.00  0.00     0.049 A 
ATOM     49  N   UNL     1       5.885   0.377 -12.674  1.00  0.00    -0.248 NA
ATOM     50  C   UNL     1       4.121  -0.909 -11.845  1.00  0.00     0.031 C 
ATOM     51  C   UNL     1       5.027   3.483  -9.548  1.00  0.00     0.029 A 
ATOM     52  N   UNL     1       6.191   3.023 -11.400  1.00  0.00    -0.354 N 
ATOM     53  C   UNL     1       5.824  -0.832 -13.357  1.00  0.00     0.074 A 
ATOM     54  C   UNL     1       4.782  -1.621 -12.743  1.00  0.00     0.031 C 
ATOM     55  C   UNL     1       5.832   4.533  -9.793  1.00  0.00     0.029 A 
ATOM     56  C   UNL     1       6.645   4.250 -10.973  1.00  0.00     0.049 A 
ATOM     57  H   UNL     1       6.522   2.581 -12.215  1.00  0.00     0.167 HD
ATOM     58  C   UNL     1       6.560  -1.244 -14.415  1.00  0.00     0.031 A 
ATOM     59  C   UNL     1       7.621   5.040 -11.468  1.00  0.00     0.031 A 
ATOM     60  C   UNL     1       7.537  -0.422 -15.071  1.00  0.00     0.049 A 
ATOM     61  C   UNL     1       8.400   4.574 -12.675  1.00  0.00     0.074 A 
ATOM     62  C   UNL     1       8.260  -0.699 -16.217  1.00  0.00     0.029 A 
ATOM     63  N   UNL     1       7.913   0.843 -14.650  1.00  0.00    -0.354 N 
ATOM     64  N   UNL     1       8.288   3.455 -13.352  1.00  0.00    -0.248 NA
ATOM     65  C   UNL     1       9.435   5.484 -13.191  1.00  0.00     0.031 C 
ATOM     66  C   UNL     1       9.110   0.383 -16.463  1.00  0.00     0.029 A 
ATOM     67  C   UNL     1       8.872   1.355 -15.503  1.00  0.00     0.049 A 
ATOM     68  H   UNL     1       7.551   1.308 -13.861  1.00  0.00     0.167 HD
ATOM     69  C   UNL     1       9.205   3.548 -14.396  1.00  0.00     0.074 A 
ATOM     70  C   UNL     1       9.857   4.833 -14.267  1.00  0.00     0.031 C 
ATOM     71  C   UNL     1       9.483   2.652 -15.374  1.00  0.00     0.031 A 
BRANCH  58  72
ATOM     72  C   UNL     1       6.330  -2.638 -14.932  1.00  0.00    -0.014 A 
ATOM     73  C   UNL     1       5.129  -2.994 -15.571  1.00  0.00     0.010 A 
ATOM     74  C   UNL     1       7.353  -3.597 -14.815  1.00  0.00     0.010 A 
ATOM     75  C   UNL     1       4.940  -4.292 -16.048  1.00  0.00     0.020 A 
ATOM     76  C   UNL     1       7.181  -4.887 -15.322  1.00  0.00     0.020 A 
ATOM     77  C   UNL     1       5.969  -5.230 -15.923  1.00  0.00     0.054 A 
BRANCH  77  78
ATOM     78  S   UNL     1       5.711  -6.893 -16.597  1.00  0.00     0.124 S 
ATOM     79  O   UNL     1       4.767  -7.463 -15.640  1.00  0.00    -0.237 OA
ATOM     80  O   UNL     1       5.171  -6.619 -17.925  1.00  0.00    -0.237 OA
ATOM     81  O   UNL     1       7.048  -7.485 -16.581  1.00  0.00    -0.744 OA
ENDBRANCH  77  78
ENDBRANCH  58  72
BRANCH  59  82
ATOM     82  C   UNL     1       7.928   6.361 -10.846  1.00  0.00    -0.014 A 
ATOM     83  C   UNL     1       7.654   7.552 -11.545  1.00  0.00     0.010 A 
ATOM     84  C   UNL     1       8.538   6.442  -9.581  1.00  0.00     0.010 A 
ATOM     85  C   UNL     1       8.024   8.792 -11.015  1.00  0.00     0.020 A 
ATOM     86  C   UNL     1       8.882   7.684  -9.033  1.00  0.00     0.020 A 
ATOM     87  C   UNL     1       8.640   8.850  -9.763  1.00  0.00     0.054 A 
BRANCH  87  88
ATOM     88  S   UNL     1       9.103  10.472  -9.091  1.00  0.00     0.124 S 
ATOM     89  O   UNL     1      10.255  10.823  -9.914  1.00  0.00    -0.237 OA
ATOM     90  O   UNL     1       7.897  11.263  -9.318  1.00  0.00    -0.237 OA
ATOM     91  O   UNL     1       9.399  10.188  -7.688  1.00  0.00    -0.744 OA
ENDBRANCH  87  88
ENDBRANCH  59  82
BRANCH  71  92
ATOM     92  C   UNL     1      10.484   3.047 -16.427  1.00  0.00    -0.014 A 
ATOM     93  C   UNL     1      11.860   3.106 -16.147  1.00  0.00     0.010 A 
ATOM     94  C   UNL     1      10.040   3.275 -17.744  1.00  0.00     0.010 A 
ATOM     95  C   UNL     1      12.772   3.409 -17.161  1.00  0.00     0.020 A 
ATOM     96  C   UNL     1      10.952   3.548 -18.765  1.00  0.00     0.020 A 
ATOM     97  C   UNL     1      12.313   3.624 -18.465  1.00  0.00     0.054 A 
BRANCH  97  98
ATOM     98  S   UNL     1      13.523   3.953 -19.774  1.00  0.00     0.124 S 
ATOM     99  O   UNL     1      13.936   5.320 -19.471  1.00  0.00    -0.237 OA
ATOM    100  O   UNL     1      14.534   2.924 -19.541  1.00  0.00    -0.237 OA
ATOM    101  O   UNL     1      12.754   3.793 -21.006  1.00  0.00    -0.744 OA
ENDBRANCH  97  98
ENDBRANCH  71  92
ENDBRANCH  45  46
ENDBRANCH  37  40
ENDBRANCH  35  36
ENDBRANCH  34  35
ENDBRANCH   1  34
TORSDOF 20
