REMARK SMILES CCCC[C@H]1C(=S)c2cc(C(=O)NCCCCNC(=O)c3ccc(-c4c5nc(c(-c6ccc(S(=O)(=O)[O-])cc6)c6ccc([nH]6)c(-c6ccc(S(=O)(=O)[O-])cc6)c6nc(c(-c7ccc(S(=O)(=O)[O-])cc7)c7ccc4[nH]7)C=C6)C=C5)cc3)ccc2N=C1C
REMARK SMILES IDX 15 1 14 2 13 3 11 4 12 5 10 7 5 8 6 9 85 10 7 11 8 12 84 13
REMARK SMILES IDX 86 14 9 15 83 16 82 17 81 18 4 19 3 20 2 21 1 22 16 23 17 24
REMARK SMILES IDX 18 25 19 26 20 28 21 29 22 30 80 31 23 32 79 33 24 34 25 35
REMARK SMILES IDX 26 36 73 37 27 38 78 39 72 40 74 41 28 42 77 43 71 44 70 45
REMARK SMILES IDX 29 47 59 48 40 49 58 50 41 51 44 52 57 53 75 54 42 55 43 56
REMARK SMILES IDX 56 58 76 59 45 60 30 61 31 62 39 63 32 64 38 65 33 66 34 67
REMARK SMILES IDX 35 68 36 69 37 70 60 71 61 72 69 73 62 74 68 75 63 76 64 77
REMARK SMILES IDX 65 78 66 79 67 80 46 81 47 82 55 83 48 84 54 85 49 86 50 87
REMARK SMILES IDX 51 88 52 89 53 90
REMARK H PARENT 13 6 18 27 74 46 44 57
REMARK Flexibility Score: inf
ROOT
ATOM      1  C   UNL     1      -4.957   3.590   8.328  1.00  0.00     0.023 C 
ENDROOT
BRANCH   1   2
ATOM      2  C   UNL     1      -5.656   4.272   7.150  1.00  0.00     0.116 C 
BRANCH   2   3
ATOM      3  N   UNL     1      -4.839   5.330   6.593  1.00  0.00    -0.352 N 
ATOM      4  C   UNL     1      -3.842   5.362   5.654  1.00  0.00     0.251 C 
ATOM      5  O   UNL     1      -3.363   6.471   5.408  1.00  0.00    -0.269 OA
ATOM      6  H   UNL     1      -5.044   6.216   6.971  1.00  0.00     0.163 HD
BRANCH   4   7
ATOM      7  C   UNL     1      -3.322   4.179   4.896  1.00  0.00     0.040 A 
ATOM      8  C   UNL     1      -0.878   2.688   0.867  1.00  0.00     0.075 C 
ATOM      9  C   UNL     1      -0.836   3.645   2.050  1.00  0.00     0.033 C 
ATOM     10  C   UNL     1      -1.185   1.278   1.365  1.00  0.00     0.024 C 
ATOM     11  S   UNL     1       0.459   4.710   2.245  1.00  0.00    -0.083 S 
ATOM     12  C   UNL     1      -1.875   3.425   3.076  1.00  0.00     0.016 A 
ATOM     13  N   UNL     1      -1.848   1.032   2.453  1.00  0.00    -0.257 NA
ATOM     14  C   UNL     1      -0.759   0.105   0.518  1.00  0.00     0.062 C 
ATOM     15  C   UNL     1      -2.400   4.455   3.868  1.00  0.00     0.025 A 
ATOM     16  C   UNL     1      -2.290   2.102   3.247  1.00  0.00     0.071 A 
ATOM     17  C   UNL     1      -3.161   1.821   4.295  1.00  0.00     0.030 A 
ATOM     18  C   UNL     1      -3.652   2.841   5.123  1.00  0.00     0.016 A 
BRANCH   8  19
ATOM     19  C   UNL     1      -1.837   3.029  -0.298  1.00  0.00     0.015 C 
BRANCH  19  20
ATOM     20  C   UNL     1      -2.759   4.252  -0.227  1.00  0.00     0.001 C 
BRANCH  20  21
ATOM     21  C   UNL     1      -2.124   5.644  -0.252  1.00  0.00    -0.003 C 
ATOM     22  C   UNL     1      -0.986   5.815  -1.246  1.00  0.00     0.004 C 
ENDBRANCH  20  21
ENDBRANCH  19  20
ENDBRANCH   8  19
ENDBRANCH   4   7
ENDBRANCH   2   3
ENDBRANCH   1   2
BRANCH   1  23
ATOM     23  C   UNL     1      -5.078   4.345   9.656  1.00  0.00     0.023 C 
BRANCH  23  24
ATOM     24  C   UNL     1      -6.501   4.512  10.180  1.00  0.00     0.116 C 
BRANCH  24  25
ATOM     25  N   UNL     1      -7.222   3.256  10.337  1.00  0.00    -0.352 N 
ATOM     26  C   UNL     1      -8.256   2.966  11.197  1.00  0.00     0.251 C 
ATOM     27  H   UNL     1      -6.932   2.520   9.752  1.00  0.00     0.163 HD
ATOM     28  O   UNL     1      -8.697   1.823  11.266  1.00  0.00    -0.269 OA
BRANCH  26  29
ATOM     29  C   UNL     1      -8.790   4.031  12.074  1.00  0.00     0.039 A 
ATOM     30  C   UNL     1      -9.081   5.294  11.560  1.00  0.00     0.014 A 
ATOM     31  C   UNL     1      -8.954   3.771  13.438  1.00  0.00     0.014 A 
ATOM     32  C   UNL     1      -9.368   6.339  12.430  1.00  0.00     0.010 A 
ATOM     33  C   UNL     1      -9.329   4.805  14.301  1.00  0.00     0.010 A 
ATOM     34  C   UNL     1      -9.488   6.110  13.812  1.00  0.00    -0.014 A 
BRANCH  34  35
ATOM     35  C   UNL     1      -9.785   7.259  14.706  1.00  0.00     0.031 A 
ATOM     36  C   UNL     1      -8.775   7.739  15.713  1.00  0.00     0.074 A 
ATOM     37  C   UNL     1     -10.942   7.931  14.537  1.00  0.00     0.049 A 
ATOM     38  N   UNL     1      -8.830   8.793  16.488  1.00  0.00    -0.248 NA
ATOM     39  C   UNL     1      -7.548   6.942  15.877  1.00  0.00     0.031 C 
ATOM     40  C   UNL     1     -11.992   7.562  13.584  1.00  0.00     0.029 A 
ATOM     41  N   UNL     1     -11.407   9.084  15.116  1.00  0.00    -0.354 N 
ATOM     42  C   UNL     1      -7.656   8.783  17.233  1.00  0.00     0.074 A 
ATOM     43  C   UNL     1      -6.922   7.599  16.845  1.00  0.00     0.031 C 
ATOM     44  C   UNL     1     -12.935   8.514  13.582  1.00  0.00     0.029 A 
ATOM     45  C   UNL     1     -12.593   9.527  14.577  1.00  0.00     0.049 A 
ATOM     46  H   UNL     1     -10.938   9.549  15.846  1.00  0.00     0.167 HD
ATOM     47  C   UNL     1      -7.224   9.686  18.144  1.00  0.00     0.031 A 
ATOM     48  C   UNL     1     -13.325  10.626  14.842  1.00  0.00     0.031 A 
ATOM     49  C   UNL     1      -7.955  10.870  18.517  1.00  0.00     0.049 A 
ATOM     50  C   UNL     1     -12.840  11.595  15.879  1.00  0.00     0.074 A 
ATOM     51  C   UNL     1      -7.586  11.854  19.419  1.00  0.00     0.029 A 
ATOM     52  N   UNL     1      -9.194  11.235  18.013  1.00  0.00    -0.354 N 
ATOM     53  N   UNL     1     -11.724  11.569  16.567  1.00  0.00    -0.248 NA
ATOM     54  C   UNL     1     -13.712  12.738  16.182  1.00  0.00     0.031 C 
ATOM     55  C   UNL     1      -8.627  12.783  19.502  1.00  0.00     0.029 A 
ATOM     56  C   UNL     1      -9.617  12.413  18.606  1.00  0.00     0.049 A 
ATOM     57  H   UNL     1      -9.698  10.732  17.333  1.00  0.00     0.167 HD
ATOM     58  C   UNL     1     -11.762  12.686  17.392  1.00  0.00     0.074 A 
ATOM     59  C   UNL     1     -12.995  13.386  17.091  1.00  0.00     0.031 C 
ATOM     60  C   UNL     1     -10.860  13.087  18.320  1.00  0.00     0.031 A 
BRANCH  47  61
ATOM     61  C   UNL     1      -5.896   9.445  18.814  1.00  0.00    -0.014 A 
ATOM     62  C   UNL     1      -5.850   9.140  20.187  1.00  0.00     0.010 A 
ATOM     63  C   UNL     1      -4.690   9.631  18.115  1.00  0.00     0.010 A 
ATOM     64  C   UNL     1      -4.626   9.050  20.856  1.00  0.00     0.020 A 
ATOM     65  C   UNL     1      -3.462   9.517  18.775  1.00  0.00     0.020 A 
ATOM     66  C   UNL     1      -3.439   9.249  20.146  1.00  0.00     0.054 A 
BRANCH  66  67
ATOM     67  S   UNL     1      -1.859   9.145  21.032  1.00  0.00     0.124 S 
ATOM     68  O   UNL     1      -1.811  10.427  21.728  1.00  0.00    -0.237 OA
ATOM     69  O   UNL     1      -2.043   7.971  21.882  1.00  0.00    -0.237 OA
ATOM     70  O   UNL     1      -0.879   8.977  19.960  1.00  0.00    -0.744 OA
ENDBRANCH  66  67
ENDBRANCH  47  61
BRANCH  48  71
ATOM     71  C   UNL     1     -14.581  10.858  14.077  1.00  0.00    -0.014 A 
ATOM     72  C   UNL     1     -15.684  10.001  14.249  1.00  0.00     0.010 A 
ATOM     73  C   UNL     1     -14.643  11.867  13.101  1.00  0.00     0.010 A 
ATOM     74  C   UNL     1     -16.799  10.105  13.415  1.00  0.00     0.020 A 
ATOM     75  C   UNL     1     -15.771  11.993  12.284  1.00  0.00     0.020 A 
ATOM     76  C   UNL     1     -16.827  11.090  12.425  1.00  0.00     0.054 A 
BRANCH  76  77
ATOM     77  S   UNL     1     -18.254  11.164  11.307  1.00  0.00     0.124 S 
ATOM     78  O   UNL     1     -17.960  10.077  10.377  1.00  0.00    -0.237 OA
ATOM     79  O   UNL     1     -19.380  10.935  12.208  1.00  0.00    -0.237 OA
ATOM     80  O   UNL     1     -18.175  12.509  10.743  1.00  0.00    -0.744 OA
ENDBRANCH  76  77
ENDBRANCH  48  71
BRANCH  60  81
ATOM     81  C   UNL     1     -11.177  14.325  19.116  1.00  0.00    -0.014 A 
ATOM     82  C   UNL     1     -10.416  15.494  18.934  1.00  0.00     0.010 A 
ATOM     83  C   UNL     1     -12.166  14.298  20.115  1.00  0.00     0.010 A 
ATOM     84  C   UNL     1     -10.622  16.607  19.752  1.00  0.00     0.020 A 
ATOM     85  C   UNL     1     -12.394  15.420  20.917  1.00  0.00     0.020 A 
ATOM     86  C   UNL     1     -11.605  16.560  20.744  1.00  0.00     0.054 A 
BRANCH  86  87
ATOM     87  S   UNL     1     -11.858  18.012  21.801  1.00  0.00     0.124 S 
ATOM     88  O   UNL     1     -10.766  17.886  22.762  1.00  0.00    -0.237 OA
ATOM     89  O   UNL     1     -11.744  19.123  20.859  1.00  0.00    -0.237 OA
ATOM     90  O   UNL     1     -13.198  17.806  22.347  1.00  0.00    -0.744 OA
ENDBRANCH  86  87
ENDBRANCH  60  81
ENDBRANCH  34  35
ENDBRANCH  26  29
ENDBRANCH  24  25
ENDBRANCH  23  24
ENDBRANCH   1  23
TORSDOF 17
