REMARK SMILES C[C@H](C(=O)NCCCCNC(=O)c1ccc(-c2c3nc(c(-c4ccc(S(=O)(=O)[O-])cc4)c4ccc([nH]4)c(-c4ccc(S(=O)(=O)[O-])cc4)c4nc(c(-c5ccc(S(=O)(=O)[O-])cc5)c5ccc2[nH]5)C=C4)C=C3)cc1)[C@@H](C)Nc1cc(F)cc(F)c1F
REMARK SMILES IDX 7 1 6 2 5 3 3 4 4 5 2 7 1 8 73 9 74 10 75 11 76 13 77 14
REMARK SMILES IDX 83 15 78 16 81 17 84 18 79 19 80 20 82 21 8 22 9 23 10 24
REMARK SMILES IDX 11 25 12 27 13 28 14 29 72 30 15 31 71 32 16 33 17 34 18 35
REMARK SMILES IDX 65 36 19 37 70 38 64 39 66 40 20 41 69 42 63 43 62 44 21 46
REMARK SMILES IDX 51 47 32 48 50 49 33 50 36 51 49 52 67 53 34 54 35 55 48 57
REMARK SMILES IDX 68 58 37 59 22 60 23 61 31 62 24 63 30 64 25 65 26 66 27 67
REMARK SMILES IDX 28 68 29 69 52 70 53 71 61 72 54 73 60 74 55 75 56 76 57 77
REMARK SMILES IDX 58 78 59 79 38 80 39 81 47 82 40 83 46 84 41 85 42 86 43 87
REMARK SMILES IDX 44 88 45 89
REMARK H PARENT 5 6 75 12 10 26 66 45 36 56
REMARK Flexibility Score: inf
ROOT
ATOM      1  C   UNL     1      -1.810   2.284  -0.387  1.00  0.00     0.023 C 
ENDROOT
BRANCH   1   2
ATOM      2  C   UNL     1      -1.378   0.920  -0.910  1.00  0.00     0.116 C 
BRANCH   2   3
ATOM      3  N   UNL     1       0.047   0.668  -0.752  1.00  0.00    -0.356 N 
ATOM      4  C   UNL     1       0.797  -0.221  -0.056  1.00  0.00     0.224 C 
ATOM      5  O   UNL     1       1.990  -0.274  -0.392  1.00  0.00    -0.275 OA
ATOM      6  H   UNL     1       0.598   1.294  -1.276  1.00  0.00     0.163 HD
BRANCH   4   7
ATOM      7  C   UNL     1       0.354  -1.054   1.156  1.00  0.00     0.097 C 
ATOM      8  C   UNL     1       0.909  -0.344   2.402  1.00  0.00     0.020 C 
BRANCH   7   9
ATOM      9  C   UNL     1      -1.137  -1.376   1.295  1.00  0.00     0.088 C 
ATOM     10  C   UNL     1      -1.625  -2.289   0.165  1.00  0.00     0.031 C 
BRANCH   9  11
ATOM     11  N   UNL     1      -1.440  -2.045   2.563  1.00  0.00    -0.379 N 
ATOM     12  H   UNL     1      -0.885  -2.814   2.828  1.00  0.00     0.160 HD
BRANCH  11  13
ATOM     13  C   UNL     1      -2.468  -1.654   3.412  1.00  0.00     0.077 A 
ATOM     14  C   UNL     1      -2.411  -2.079   4.748  1.00  0.00     0.068 A 
ATOM     15  C   UNL     1      -3.523  -0.785   3.067  1.00  0.00     0.182 A 
ATOM     16  C   UNL     1      -3.347  -1.638   5.686  1.00  0.00     0.128 A 
ATOM     17  C   UNL     1      -4.447  -0.348   4.018  1.00  0.00     0.163 A 
ATOM     18  F   UNL     1      -3.689  -0.364   1.802  1.00  0.00    -0.201 F 
ATOM     19  F   UNL     1      -3.248  -2.056   6.955  1.00  0.00    -0.207 F 
ATOM     20  C   UNL     1      -4.364  -0.765   5.335  1.00  0.00     0.081 A 
ATOM     21  F   UNL     1      -5.427   0.492   3.659  1.00  0.00    -0.204 F 
ENDBRANCH  11  13
ENDBRANCH   9  11
ENDBRANCH   7   9
ENDBRANCH   4   7
ENDBRANCH   2   3
ENDBRANCH   1   2
BRANCH   1  22
ATOM     22  C   UNL     1      -1.611   3.434  -1.377  1.00  0.00     0.023 C 
BRANCH  22  23
ATOM     23  C   UNL     1      -2.222   3.228  -2.762  1.00  0.00     0.116 C 
BRANCH  23  24
ATOM     24  N   UNL     1      -3.626   2.843  -2.742  1.00  0.00    -0.352 N 
ATOM     25  C   UNL     1      -4.598   3.128  -3.674  1.00  0.00     0.251 C 
ATOM     26  H   UNL     1      -3.916   2.313  -1.965  1.00  0.00     0.163 HD
ATOM     27  O   UNL     1      -5.763   2.796  -3.478  1.00  0.00    -0.269 OA
BRANCH  25  28
ATOM     28  C   UNL     1      -4.228   3.878  -4.891  1.00  0.00     0.039 A 
ATOM     29  C   UNL     1      -4.960   5.019  -5.228  1.00  0.00     0.014 A 
ATOM     30  C   UNL     1      -3.131   3.486  -5.662  1.00  0.00     0.014 A 
ATOM     31  C   UNL     1      -4.547   5.807  -6.303  1.00  0.00     0.010 A 
ATOM     32  C   UNL     1      -2.679   4.312  -6.686  1.00  0.00     0.010 A 
ATOM     33  C   UNL     1      -3.383   5.479  -7.018  1.00  0.00    -0.014 A 
BRANCH  33  34
ATOM     34  C   UNL     1      -2.891   6.343  -8.121  1.00  0.00     0.031 A 
ATOM     35  C   UNL     1      -2.850   5.814  -9.529  1.00  0.00     0.074 A 
ATOM     36  C   UNL     1      -2.427   7.578  -7.847  1.00  0.00     0.049 A 
ATOM     37  N   UNL     1      -2.427   6.403 -10.618  1.00  0.00    -0.248 NA
ATOM     38  C   UNL     1      -3.317   4.434  -9.735  1.00  0.00     0.031 C 
ATOM     39  C   UNL     1      -2.368   8.187  -6.516  1.00  0.00     0.029 A 
ATOM     40  N   UNL     1      -1.916   8.545  -8.676  1.00  0.00    -0.354 N 
ATOM     41  C   UNL     1      -2.557   5.460 -11.632  1.00  0.00     0.074 A 
ATOM     42  C   UNL     1      -3.048   4.245 -11.018  1.00  0.00     0.031 C 
ATOM     43  C   UNL     1      -1.887   9.436  -6.624  1.00  0.00     0.029 A 
ATOM     44  C   UNL     1      -1.572   9.706  -8.024  1.00  0.00     0.049 A 
ATOM     45  H   UNL     1      -1.806   8.420  -9.646  1.00  0.00     0.167 HD
ATOM     46  C   UNL     1      -2.311   5.597 -12.957  1.00  0.00     0.031 A 
ATOM     47  C   UNL     1      -1.066  10.860  -8.500  1.00  0.00     0.031 A 
ATOM     48  C   UNL     1      -1.842   6.812 -13.566  1.00  0.00     0.049 A 
ATOM     49  C   UNL     1      -0.816  10.994  -9.977  1.00  0.00     0.074 A 
ATOM     50  C   UNL     1      -1.624   7.075 -14.907  1.00  0.00     0.029 A 
ATOM     51  N   UNL     1      -1.520   7.969 -12.873  1.00  0.00    -0.354 N 
ATOM     52  N   UNL     1      -1.012  10.114 -10.930  1.00  0.00    -0.248 NA
ATOM     53  C   UNL     1      -0.289  12.284 -10.444  1.00  0.00     0.031 C 
ATOM     54  C   UNL     1      -1.130   8.379 -15.021  1.00  0.00     0.029 A 
ATOM     55  C   UNL     1      -1.088   8.944 -13.756  1.00  0.00     0.049 A 
ATOM     56  H   UNL     1      -1.588   8.081 -11.898  1.00  0.00     0.167 HD
ATOM     57  C   UNL     1      -0.663  10.755 -12.114  1.00  0.00     0.074 A 
ATOM     58  C   UNL     1      -0.254  12.098 -11.757  1.00  0.00     0.031 C 
ATOM     59  C   UNL     1      -0.684  10.276 -13.383  1.00  0.00     0.031 A 
BRANCH  46  60
ATOM     60  C   UNL     1      -2.543   4.391 -13.829  1.00  0.00    -0.014 A 
ATOM     61  C   UNL     1      -3.843   3.913 -14.077  1.00  0.00     0.010 A 
ATOM     62  C   UNL     1      -1.448   3.732 -14.416  1.00  0.00     0.010 A 
ATOM     63  C   UNL     1      -4.040   2.765 -14.849  1.00  0.00     0.020 A 
ATOM     64  C   UNL     1      -1.643   2.600 -15.213  1.00  0.00     0.020 A 
ATOM     65  C   UNL     1      -2.937   2.111 -15.405  1.00  0.00     0.054 A 
BRANCH  65  66
ATOM     66  S   UNL     1      -3.219   0.622 -16.402  1.00  0.00     0.124 S 
ATOM     67  O   UNL     1      -3.510  -0.376 -15.374  1.00  0.00    -0.237 OA
ATOM     68  O   UNL     1      -4.351   1.005 -17.241  1.00  0.00    -0.237 OA
ATOM     69  O   UNL     1      -1.956   0.435 -17.111  1.00  0.00    -0.744 OA
ENDBRANCH  65  66
ENDBRANCH  46  60
BRANCH  47  70
ATOM     70  C   UNL     1      -0.806  11.997  -7.576  1.00  0.00    -0.014 A 
ATOM     71  C   UNL     1      -1.637  13.131  -7.599  1.00  0.00     0.010 A 
ATOM     72  C   UNL     1       0.262  11.949  -6.662  1.00  0.00     0.010 A 
ATOM     73  C   UNL     1      -1.396  14.204  -6.737  1.00  0.00     0.020 A 
ATOM     74  C   UNL     1       0.491  13.011  -5.782  1.00  0.00     0.020 A 
ATOM     75  C   UNL     1      -0.333  14.137  -5.833  1.00  0.00     0.054 A 
BRANCH  75  76
ATOM     76  S   UNL     1      -0.069  15.520  -4.687  1.00  0.00     0.124 S 
ATOM     77  O   UNL     1       0.516  16.531  -5.562  1.00  0.00    -0.237 OA
ATOM     78  O   UNL     1      -1.422  15.799  -4.212  1.00  0.00    -0.237 OA
ATOM     79  O   UNL     1       0.832  14.961  -3.682  1.00  0.00    -0.744 OA
ENDBRANCH  75  76
ENDBRANCH  47  70
BRANCH  59  80
ATOM     80  C   UNL     1      -0.289  11.223 -14.483  1.00  0.00    -0.014 A 
ATOM     81  C   UNL     1       1.051  11.601 -14.675  1.00  0.00     0.010 A 
ATOM     82  C   UNL     1      -1.273  11.709 -15.363  1.00  0.00     0.010 A 
ATOM     83  C   UNL     1       1.396  12.478 -15.707  1.00  0.00     0.020 A 
ATOM     84  C   UNL     1      -0.928  12.565 -16.412  1.00  0.00     0.020 A 
ATOM     85  C   UNL     1       0.403  12.957 -16.567  1.00  0.00     0.054 A 
BRANCH  85  86
ATOM     86  S   UNL     1       0.877  14.067 -17.921  1.00  0.00     0.124 S 
ATOM     87  O   UNL     1       1.087  15.329 -17.218  1.00  0.00    -0.237 OA
ATOM     88  O   UNL     1       2.084  13.434 -18.448  1.00  0.00    -0.237 OA
ATOM     89  O   UNL     1      -0.277  14.034 -18.815  1.00  0.00    -0.744 OA
ENDBRANCH  85  86
ENDBRANCH  59  80
ENDBRANCH  33  34
ENDBRANCH  25  28
ENDBRANCH  23  24
ENDBRANCH  22  23
ENDBRANCH   1  22
TORSDOF 17
