REMARK SMILES CCC[NH+]1CCN(C(=O)N[C@H]2C=C[C@@H](C(=O)NCCCCNC(=O)c3ccc(-c4c5nc(c(-c6ccc(S(=O)(=O)[O-])cc6)c6ccc([nH]6)c(-c6ccc(S(=O)(=O)[O-])cc6)c6nc(c(-c7ccc(S(=O)(=O)[O-])cc7)c7ccc4[nH]7)C=C6)C=C5)cc3)C2)CC1
REMARK SMILES IDX 19 1 18 2 17 3 15 4 16 5 14 7 11 8 12 9 85 10 13 11 10 12
REMARK SMILES IDX 4 13 5 14 87 15 6 17 86 18 7 19 8 20 9 21 3 23 2 24 1 25
REMARK SMILES IDX 20 26 21 27 22 28 23 29 24 31 25 32 26 33 84 34 27 35 83 36
REMARK SMILES IDX 28 37 29 38 30 39 77 40 31 41 82 42 76 43 78 44 32 45 81 46
REMARK SMILES IDX 75 47 74 48 33 50 63 51 44 52 62 53 45 54 48 55 61 56 79 57
REMARK SMILES IDX 46 58 47 59 60 61 80 62 49 63 34 64 35 65 43 66 36 67 42 68
REMARK SMILES IDX 37 69 38 70 39 71 40 72 41 73 64 74 65 75 73 76 66 77 72 78
REMARK SMILES IDX 67 79 68 80 69 81 70 82 71 83 50 84 51 85 59 86 52 87 58 88
REMARK SMILES IDX 53 89 54 90 55 91 56 92 57 93
REMARK H PARENT 17 6 4 16 10 22 22 30 78 49 48 60
REMARK Flexibility Score: inf
ROOT
ATOM      1  C   UNL     1      -1.080   3.066  10.779  1.00  0.00     0.023 C 
ENDROOT
BRANCH   1   2
ATOM      2  C   UNL     1      -0.943   4.488  10.248  1.00  0.00     0.116 C 
BRANCH   2   3
ATOM      3  N   UNL     1       0.376   5.042  10.482  1.00  0.00    -0.356 N 
ATOM      4  C   UNL     1       1.278   5.575   9.611  1.00  0.00     0.227 C 
ATOM      5  O   UNL     1       2.328   6.026  10.080  1.00  0.00    -0.274 OA
ATOM      6  H   UNL     1       0.667   5.032  11.422  1.00  0.00     0.163 HD
BRANCH   4   7
ATOM      7  C   UNL     1       1.044   5.606   8.098  1.00  0.00     0.103 C 
ATOM      8  C   UNL     1      -0.203   4.253   6.467  1.00  0.00     0.107 C 
ATOM      9  C   UNL     1      -0.917   5.524   6.809  1.00  0.00    -0.006 C 
ATOM     10  C   UNL     1       0.972   4.216   7.458  1.00  0.00     0.047 C 
ATOM     11  C   UNL     1      -0.231   6.272   7.680  1.00  0.00    -0.016 C 
BRANCH   8  12
ATOM     12  N   UNL     1      -1.098   3.138   6.659  1.00  0.00    -0.332 N 
ATOM     13  N   UNL     1       0.093   1.000   2.486  1.00  0.00    -0.332 N 
ATOM     14  C   UNL     1      -0.942   0.266   3.277  1.00  0.00     0.284 C 
ATOM     15  C   UNL     1       0.517   2.206   3.244  1.00  0.00     0.284 C 
ATOM     16  H   UNL     1      -0.314   1.288   1.597  1.00  0.00     0.348 HD
ATOM     17  C   UNL     1      -0.590   0.032   4.770  1.00  0.00     0.183 C 
ATOM     18  C   UNL     1       0.907   1.915   4.707  1.00  0.00     0.183 C 
ATOM     19  N   UNL     1      -0.231   1.311   5.392  1.00  0.00    -0.314 N 
ATOM     20  C   UNL     1      -1.133   1.857   6.255  1.00  0.00     0.318 C 
ATOM     21  O   UNL     1      -2.080   1.203   6.703  1.00  0.00    -0.249 OA
ATOM     22  H   UNL     1      -1.870   3.372   7.223  1.00  0.00     0.165 HD
BRANCH  13  23
ATOM     23  C   UNL     1       1.242   0.139   2.162  1.00  0.00     0.262 C 
BRANCH  23  24
ATOM     24  C   UNL     1       0.968  -0.755   0.944  1.00  0.00     0.058 C 
ATOM     25  C   UNL     1       1.107  -0.004  -0.373  1.00  0.00     0.010 C 
ENDBRANCH  23  24
ENDBRANCH  13  23
ENDBRANCH   8  12
ENDBRANCH   4   7
ENDBRANCH   2   3
ENDBRANCH   1   2
BRANCH   1  26
ATOM     26  C   UNL     1      -1.093   2.953  12.302  1.00  0.00     0.023 C 
BRANCH  26  27
ATOM     27  C   UNL     1      -2.144   3.801  13.009  1.00  0.00     0.116 C 
BRANCH  27  28
ATOM     28  N   UNL     1      -3.502   3.531  12.560  1.00  0.00    -0.352 N 
ATOM     29  C   UNL     1      -4.648   3.409  13.311  1.00  0.00     0.251 C 
ATOM     30  H   UNL     1      -3.615   3.422  11.588  1.00  0.00     0.163 HD
ATOM     31  O   UNL     1      -5.700   3.073  12.781  1.00  0.00    -0.269 OA
BRANCH  29  32
ATOM     32  C   UNL     1      -4.589   3.649  14.768  1.00  0.00     0.039 A 
ATOM     33  C   UNL     1      -5.154   2.706  15.630  1.00  0.00     0.014 A 
ATOM     34  C   UNL     1      -3.947   4.779  15.281  1.00  0.00     0.014 A 
ATOM     35  C   UNL     1      -5.014   2.863  17.010  1.00  0.00     0.010 A 
ATOM     36  C   UNL     1      -3.742   4.893  16.653  1.00  0.00     0.010 A 
ATOM     37  C   UNL     1      -4.275   3.938  17.532  1.00  0.00    -0.014 A 
BRANCH  37  38
ATOM     38  C   UNL     1      -4.048   4.077  18.993  1.00  0.00     0.031 A 
ATOM     39  C   UNL     1      -4.600   5.265  19.735  1.00  0.00     0.074 A 
ATOM     40  C   UNL     1      -3.295   3.167  19.642  1.00  0.00     0.049 A 
ATOM     41  N   UNL     1      -4.473   5.580  20.998  1.00  0.00    -0.248 NA
ATOM     42  C   UNL     1      -5.373   6.241  18.948  1.00  0.00     0.031 C 
ATOM     43  C   UNL     1      -2.659   1.998  19.027  1.00  0.00     0.029 A 
ATOM     44  N   UNL     1      -2.930   3.083  20.962  1.00  0.00    -0.354 N 
ATOM     45  C   UNL     1      -5.131   6.794  21.154  1.00  0.00     0.074 A 
ATOM     46  C   UNL     1      -5.611   7.185  19.847  1.00  0.00     0.031 C 
ATOM     47  C   UNL     1      -2.010   1.301  19.973  1.00  0.00     0.029 A 
ATOM     48  C   UNL     1      -2.150   1.989  21.253  1.00  0.00     0.049 A 
ATOM     49  H   UNL     1      -3.202   3.745  21.639  1.00  0.00     0.167 HD
ATOM     50  C   UNL     1      -5.336   7.510  22.285  1.00  0.00     0.031 A 
ATOM     51  C   UNL     1      -1.606   1.583  22.417  1.00  0.00     0.031 A 
ATOM     52  C   UNL     1      -4.871   7.110  23.587  1.00  0.00     0.049 A 
ATOM     53  C   UNL     1      -1.857   2.389  23.662  1.00  0.00     0.074 A 
ATOM     54  C   UNL     1      -5.080   7.734  24.804  1.00  0.00     0.029 A 
ATOM     55  N   UNL     1      -4.102   5.985  23.842  1.00  0.00    -0.354 N 
ATOM     56  N   UNL     1      -2.544   3.498  23.801  1.00  0.00    -0.248 NA
ATOM     57  C   UNL     1      -1.273   1.879  24.910  1.00  0.00     0.031 C 
ATOM     58  C   UNL     1      -4.397   7.012  25.788  1.00  0.00     0.029 A 
ATOM     59  C   UNL     1      -3.811   5.907  25.193  1.00  0.00     0.049 A 
ATOM     60  H   UNL     1      -3.807   5.336  23.162  1.00  0.00     0.167 HD
ATOM     61  C   UNL     1      -2.496   3.804  25.157  1.00  0.00     0.074 A 
ATOM     62  C   UNL     1      -1.728   2.755  25.796  1.00  0.00     0.031 C 
ATOM     63  C   UNL     1      -3.042   4.858  25.814  1.00  0.00     0.031 A 
BRANCH  50  64
ATOM     64  C   UNL     1      -6.099   8.803  22.161  1.00  0.00    -0.014 A 
ATOM     65  C   UNL     1      -7.474   8.810  21.863  1.00  0.00     0.010 A 
ATOM     66  C   UNL     1      -5.440  10.027  22.378  1.00  0.00     0.010 A 
ATOM     67  C   UNL     1      -8.166  10.018  21.741  1.00  0.00     0.020 A 
ATOM     68  C   UNL     1      -6.136  11.236  22.286  1.00  0.00     0.020 A 
ATOM     69  C   UNL     1      -7.491  11.224  21.950  1.00  0.00     0.054 A 
BRANCH  69  70
ATOM     70  S   UNL     1      -8.419  12.776  21.804  1.00  0.00     0.124 S 
ATOM     71  O   UNL     1      -8.601  12.882  20.358  1.00  0.00    -0.237 OA
ATOM     72  O   UNL     1      -9.630  12.498  22.571  1.00  0.00    -0.237 OA
ATOM     73  O   UNL     1      -7.526  13.770  22.393  1.00  0.00    -0.744 OA
ENDBRANCH  69  70
ENDBRANCH  50  64
BRANCH  51  74
ATOM     74  C   UNL     1      -0.790   0.339  22.462  1.00  0.00    -0.014 A 
ATOM     75  C   UNL     1      -1.284  -0.816  23.093  1.00  0.00     0.010 A 
ATOM     76  C   UNL     1       0.482   0.300  21.862  1.00  0.00     0.010 A 
ATOM     77  C   UNL     1      -0.514  -1.983  23.139  1.00  0.00     0.020 A 
ATOM     78  C   UNL     1       1.243  -0.873  21.882  1.00  0.00     0.020 A 
ATOM     79  C   UNL     1       0.745  -2.004  22.531  1.00  0.00     0.054 A 
BRANCH  79  80
ATOM     80  S   UNL     1       1.704  -3.544  22.557  1.00  0.00     0.124 S 
ATOM     81  O   UNL     1       2.162  -3.593  23.942  1.00  0.00    -0.237 OA
ATOM     82  O   UNL     1       0.707  -4.544  22.184  1.00  0.00    -0.237 OA
ATOM     83  O   UNL     1       2.746  -3.313  21.559  1.00  0.00    -0.744 OA
ENDBRANCH  79  80
ENDBRANCH  51  74
BRANCH  63  84
ATOM     84  C   UNL     1      -2.856   4.913  27.307  1.00  0.00    -0.014 A 
ATOM     85  C   UNL     1      -1.608   5.216  27.877  1.00  0.00     0.010 A 
ATOM     86  C   UNL     1      -3.963   4.703  28.150  1.00  0.00     0.010 A 
ATOM     87  C   UNL     1      -1.461   5.271  29.266  1.00  0.00     0.020 A 
ATOM     88  C   UNL     1      -3.827   4.785  29.538  1.00  0.00     0.020 A 
ATOM     89  C   UNL     1      -2.572   5.053  30.087  1.00  0.00     0.054 A 
BRANCH  89  90
ATOM     90  S   UNL     1      -2.364   5.163  31.886  1.00  0.00     0.124 S 
ATOM     91  O   UNL     1      -1.666   3.916  32.188  1.00  0.00    -0.237 OA
ATOM     92  O   UNL     1      -1.572   6.380  32.044  1.00  0.00    -0.237 OA
ATOM     93  O   UNL     1      -3.733   5.248  32.389  1.00  0.00    -0.744 OA
ENDBRANCH  89  90
ENDBRANCH  63  84
ENDBRANCH  37  38
ENDBRANCH  29  32
ENDBRANCH  27  28
ENDBRANCH  26  27
ENDBRANCH   1  26
TORSDOF 17
