REMARK SMILES Cc1ncn(CC[C@@H]2CCC[C@@]2([NH3+])C(=O)NCCCCNC(=O)c2ccc(-c3c4nc(c(-c5ccc(S(=O)(=O)[O-])cc5)c5ccc([nH]5)c(-c5ccc(S(=O)(=O)[O-])cc5)c5nc(c(-c6ccc(S(=O)(=O)[O-])cc6)c6ccc3[nH]6)C=C5)C=C4)cc2)c1C
REMARK SMILES IDX 18 1 17 2 16 3 14 4 15 5 12 7 8 8 9 9 10 10 11 11 7 12 6 13
REMARK SMILES IDX 5 14 1 15 2 16 3 17 84 18 4 19 85 20 13 21 19 25 20 26 21 27
REMARK SMILES IDX 22 28 23 30 24 31 25 32 83 33 26 34 82 35 27 36 28 37 29 38
REMARK SMILES IDX 76 39 30 40 81 41 75 42 77 43 31 44 80 45 74 46 73 47 32 49
REMARK SMILES IDX 62 50 43 51 61 52 44 53 47 54 60 55 78 56 45 57 46 58 59 60
REMARK SMILES IDX 79 61 48 62 33 63 34 64 42 65 35 66 41 67 36 68 37 69 38 70
REMARK SMILES IDX 39 71 40 72 63 73 64 74 72 75 65 76 71 77 66 78 67 79 68 80
REMARK SMILES IDX 69 81 70 82 49 83 50 84 58 85 51 86 57 87 52 88 53 89 54 90
REMARK SMILES IDX 55 91 56 92
REMARK H PARENT 16 6 13 22 13 23 13 24 21 29 77 48 47 59
REMARK Flexibility Score: inf
ROOT
ATOM      1  C   UNL     1       3.431   8.890   1.427  1.00  0.00     0.023 C 
ENDROOT
BRANCH   1   2
ATOM      2  C   UNL     1       3.822   7.773   0.452  1.00  0.00     0.116 C 
BRANCH   2   3
ATOM      3  N   UNL     1       5.067   7.140   0.801  1.00  0.00    -0.351 N 
ATOM      4  C   UNL     1       5.415   6.026   1.480  1.00  0.00     0.281 C 
ATOM      5  O   UNL     1       6.636   5.963   1.707  1.00  0.00    -0.268 OA
ATOM      6  H   UNL     1       5.849   7.636   0.466  1.00  0.00     0.163 HD
BRANCH   4   7
ATOM      7  C   UNL     1       4.460   4.916   2.065  1.00  0.00     0.176 C 
ATOM      8  C   UNL     1       3.285   4.297   1.256  1.00  0.00     0.062 C 
ATOM      9  C   UNL     1       3.160   2.873   1.865  1.00  0.00     0.011 C 
ATOM     10  C   UNL     1       4.554   2.411   2.206  1.00  0.00     0.008 C 
ATOM     11  C   UNL     1       5.404   3.660   2.148  1.00  0.00     0.079 C 
BRANCH   8  12
ATOM     12  C   UNL     1       1.883   4.955   1.311  1.00  0.00     0.032 C 
BRANCH  12  13
ATOM     13  C   UNL     1       1.094   4.791  -0.010  1.00  0.00     0.124 C 
BRANCH  13  14
ATOM     14  N   UNL     1       0.537   3.459  -0.170  1.00  0.00    -0.335 N 
ATOM     15  C   UNL     1       0.769  -0.148  -0.246  1.00  0.00     0.069 C 
ATOM     16  C   UNL     1       0.419   1.290  -0.220  1.00  0.00     0.058 A 
ATOM     17  N   UNL     1      -0.682   1.728   0.477  1.00  0.00    -0.242 NA
ATOM     18  C   UNL     1       1.109   2.361  -0.770  1.00  0.00     0.037 A 
ATOM     19  C   UNL     1      -0.609   3.037   0.448  1.00  0.00     0.199 A 
ATOM     20  C   UNL     1       2.295   2.387  -1.665  1.00  0.00     0.066 C 
ENDBRANCH  13  14
ENDBRANCH  12  13
ENDBRANCH   8  12
BRANCH   7  21
ATOM     21  N   UNL     1       4.022   5.331   3.417  1.00  0.00    -0.345 N 
ATOM     22  H   UNL     1       3.403   4.620   3.807  1.00  0.00     0.345 HD
ATOM     23  H   UNL     1       3.525   6.219   3.356  1.00  0.00     0.345 HD
ATOM     24  H   UNL     1       4.838   5.439   4.020  1.00  0.00     0.345 HD
ENDBRANCH   7  21
ENDBRANCH   4   7
ENDBRANCH   2   3
ENDBRANCH   1   2
BRANCH   1  25
ATOM     25  C   UNL     1       4.373  10.109   1.471  1.00  0.00     0.023 C 
BRANCH  25  26
ATOM     26  C   UNL     1       4.508  10.875   0.160  1.00  0.00     0.116 C 
BRANCH  26  27
ATOM     27  N   UNL     1       3.266  11.527  -0.272  1.00  0.00    -0.352 N 
ATOM     28  C   UNL     1       3.033  12.237  -1.446  1.00  0.00     0.251 C 
ATOM     29  H   UNL     1       2.503  11.453   0.345  1.00  0.00     0.163 HD
ATOM     30  O   UNL     1       2.128  13.050  -1.522  1.00  0.00    -0.269 OA
BRANCH  28  31
ATOM     31  C   UNL     1       3.899  11.958  -2.610  1.00  0.00     0.039 A 
ATOM     32  C   UNL     1       4.344  12.946  -3.496  1.00  0.00     0.014 A 
ATOM     33  C   UNL     1       4.291  10.637  -2.772  1.00  0.00     0.014 A 
ATOM     34  C   UNL     1       5.246  12.587  -4.501  1.00  0.00     0.010 A 
ATOM     35  C   UNL     1       5.344  10.342  -3.583  1.00  0.00     0.010 A 
ATOM     36  C   UNL     1       5.745  11.277  -4.526  1.00  0.00    -0.014 A 
BRANCH  36  37
ATOM     37  C   UNL     1       6.734  10.813  -5.488  1.00  0.00     0.031 A 
ATOM     38  C   UNL     1       8.064  11.468  -5.379  1.00  0.00     0.074 A 
ATOM     39  C   UNL     1       6.539   9.662  -6.176  1.00  0.00     0.049 A 
ATOM     40  N   UNL     1       8.634  12.254  -6.230  1.00  0.00    -0.248 NA
ATOM     41  C   UNL     1       8.790  11.358  -4.101  1.00  0.00     0.031 C 
ATOM     42  C   UNL     1       5.414   8.716  -6.075  1.00  0.00     0.029 A 
ATOM     43  N   UNL     1       7.386   9.005  -7.006  1.00  0.00    -0.354 N 
ATOM     44  C   UNL     1       9.887  12.554  -5.700  1.00  0.00     0.074 A 
ATOM     45  C   UNL     1       9.835  12.158  -4.316  1.00  0.00     0.031 C 
ATOM     46  C   UNL     1       5.774   7.521  -6.596  1.00  0.00     0.029 A 
ATOM     47  C   UNL     1       7.070   7.667  -7.228  1.00  0.00     0.049 A 
ATOM     48  H   UNL     1       8.166   9.441  -7.420  1.00  0.00     0.167 HD
ATOM     49  C   UNL     1      10.947  12.863  -6.502  1.00  0.00     0.031 A 
ATOM     50  C   UNL     1       7.843   6.742  -7.856  1.00  0.00     0.031 A 
ATOM     51  C   UNL     1      10.521  13.076  -7.862  1.00  0.00     0.049 A 
ATOM     52  C   UNL     1       8.853   7.499  -8.639  1.00  0.00     0.074 A 
ATOM     53  C   UNL     1       9.676  13.967  -8.491  1.00  0.00     0.029 A 
ATOM     54  N   UNL     1      10.670  12.013  -8.725  1.00  0.00    -0.354 N 
ATOM     55  N   UNL     1       8.545   8.285  -9.635  1.00  0.00    -0.248 NA
ATOM     56  C   UNL     1      10.133   7.771  -8.004  1.00  0.00     0.031 C 
ATOM     57  C   UNL     1       8.985  13.186  -9.462  1.00  0.00     0.029 A 
ATOM     58  C   UNL     1       9.506  11.889  -9.437  1.00  0.00     0.049 A 
ATOM     59  H   UNL     1      11.469  11.445  -8.815  1.00  0.00     0.167 HD
ATOM     60  C   UNL     1       9.363   9.397  -9.478  1.00  0.00     0.074 A 
ATOM     61  C   UNL     1      10.379   8.984  -8.508  1.00  0.00     0.031 C 
ATOM     62  C   UNL     1       8.977  10.630  -9.921  1.00  0.00     0.031 A 
BRANCH  49  63
ATOM     63  C   UNL     1      12.395  12.565  -6.177  1.00  0.00    -0.014 A 
ATOM     64  C   UNL     1      13.375  12.900  -7.138  1.00  0.00     0.010 A 
ATOM     65  C   UNL     1      12.806  11.734  -5.117  1.00  0.00     0.010 A 
ATOM     66  C   UNL     1      14.659  12.343  -7.099  1.00  0.00     0.020 A 
ATOM     67  C   UNL     1      14.098  11.207  -5.044  1.00  0.00     0.020 A 
ATOM     68  C   UNL     1      15.003  11.480  -6.060  1.00  0.00     0.054 A 
BRANCH  68  69
ATOM     69  S   UNL     1      16.615  10.660  -6.091  1.00  0.00     0.124 S 
ATOM     70  O   UNL     1      16.491   9.802  -7.265  1.00  0.00    -0.237 OA
ATOM     71  O   UNL     1      17.532  11.788  -6.222  1.00  0.00    -0.237 OA
ATOM     72  O   UNL     1      16.668   9.964  -4.807  1.00  0.00    -0.744 OA
ENDBRANCH  68  69
ENDBRANCH  49  63
BRANCH  50  73
ATOM     73  C   UNL     1       7.973   5.289  -7.565  1.00  0.00    -0.014 A 
ATOM     74  C   UNL     1       8.579   4.408  -8.482  1.00  0.00     0.010 A 
ATOM     75  C   UNL     1       7.756   4.813  -6.255  1.00  0.00     0.010 A 
ATOM     76  C   UNL     1       9.002   3.123  -8.088  1.00  0.00     0.020 A 
ATOM     77  C   UNL     1       8.173   3.535  -5.856  1.00  0.00     0.020 A 
ATOM     78  C   UNL     1       8.815   2.703  -6.769  1.00  0.00     0.054 A 
BRANCH  78  79
ATOM     79  S   UNL     1       9.518   1.115  -6.221  1.00  0.00     0.124 S 
ATOM     80  O   UNL     1       8.681   0.145  -6.920  1.00  0.00    -0.237 OA
ATOM     81  O   UNL     1      10.901   1.203  -6.679  1.00  0.00    -0.237 OA
ATOM     82  O   UNL     1       9.346   1.147  -4.769  1.00  0.00    -0.744 OA
ENDBRANCH  78  79
ENDBRANCH  50  73
BRANCH  62  83
ATOM     83  C   UNL     1       7.766  10.738 -10.821  1.00  0.00    -0.014 A 
ATOM     84  C   UNL     1       6.451  10.435 -10.415  1.00  0.00     0.010 A 
ATOM     85  C   UNL     1       7.956  11.374 -12.060  1.00  0.00     0.010 A 
ATOM     86  C   UNL     1       5.357  10.762 -11.234  1.00  0.00     0.020 A 
ATOM     87  C   UNL     1       6.873  11.716 -12.870  1.00  0.00     0.020 A 
ATOM     88  C   UNL     1       5.577  11.406 -12.456  1.00  0.00     0.054 A 
BRANCH  88  89
ATOM     89  S   UNL     1       4.163  11.900 -13.482  1.00  0.00     0.124 S 
ATOM     90  O   UNL     1       3.653  10.617 -13.957  1.00  0.00    -0.237 OA
ATOM     91  O   UNL     1       3.304  12.608 -12.535  1.00  0.00    -0.237 OA
ATOM     92  O   UNL     1       4.760  12.747 -14.514  1.00  0.00    -0.744 OA
ENDBRANCH  88  89
ENDBRANCH  62  83
ENDBRANCH  36  37
ENDBRANCH  28  31
ENDBRANCH  26  27
ENDBRANCH  25  26
ENDBRANCH   1  25
TORSDOF 18
