REMARK SMILES CCNS(=O)(=O)c1ccc(CC(=O)NCCCCNC(=O)c2ccc(-c3c4nc(c(-c5ccc(S(=O)(=O)[O-])cc5)c5ccc([nH]5)c(-c5ccc(S(=O)(=O)[O-])cc5)c5nc(c(-c6ccc(S(=O)(=O)[O-])cc6)c6ccc3[nH]6)C=C5)C=C4)cc2)cc1
REMARK SMILES IDX 16 1 15 2 14 3 12 4 13 5 11 7 10 8 7 9 8 10 83 11 9 12 82 13
REMARK SMILES IDX 4 14 5 15 6 16 3 17 2 19 1 20 17 21 18 22 19 23 20 24 21 26
REMARK SMILES IDX 22 27 23 28 81 29 24 30 80 31 25 32 26 33 27 34 74 35 28 36
REMARK SMILES IDX 79 37 73 38 75 39 29 40 78 41 72 42 71 43 30 45 60 46 41 47
REMARK SMILES IDX 59 48 42 49 45 50 58 51 76 52 43 53 44 54 57 56 77 57 46 58
REMARK SMILES IDX 31 59 32 60 40 61 33 62 39 63 34 64 35 65 36 66 37 67 38 68
REMARK SMILES IDX 61 69 62 70 70 71 63 72 69 73 64 74 65 75 66 76 67 77 68 78
REMARK SMILES IDX 47 79 48 80 56 81 49 82 55 83 50 84 51 85 52 86 53 87 54 88
REMARK H PARENT 14 6 3 18 19 25 75 44 45 55
REMARK Flexibility Score: inf
ROOT
ATOM      1  C   UNL     1      -3.785   0.324  -0.342  1.00  0.00     0.023 C 
ENDROOT
BRANCH   1   2
ATOM      2  C   UNL     1      -5.133  -0.044  -0.964  1.00  0.00     0.116 C 
BRANCH   2   3
ATOM      3  N   UNL     1      -5.918   1.133  -1.280  1.00  0.00    -0.356 N 
ATOM      4  C   UNL     1      -6.098   1.743  -2.490  1.00  0.00     0.224 C 
ATOM      5  O   UNL     1      -6.744   2.791  -2.532  1.00  0.00    -0.275 OA
ATOM      6  H   UNL     1      -6.386   1.550  -0.521  1.00  0.00     0.163 HD
BRANCH   4   7
ATOM      7  C   UNL     1      -5.539   1.109  -3.754  1.00  0.00     0.135 C 
BRANCH   7   8
ATOM      8  C   UNL     1      -4.033   1.167  -3.860  1.00  0.00    -0.039 A 
ATOM      9  C   UNL     1      -1.242   1.250  -3.925  1.00  0.00     0.082 A 
ATOM     10  C   UNL     1      -1.965   2.438  -3.794  1.00  0.00     0.022 A 
ATOM     11  C   UNL     1      -1.897   0.025  -4.068  1.00  0.00     0.022 A 
ATOM     12  C   UNL     1      -3.359   2.394  -3.765  1.00  0.00     0.005 A 
ATOM     13  C   UNL     1      -3.290  -0.012  -4.044  1.00  0.00     0.005 A 
BRANCH   9  14
ATOM     14  S   UNL     1       0.527   1.284  -3.872  1.00  0.00     0.240 S 
ATOM     15  O   UNL     1       0.969   2.635  -3.610  1.00  0.00    -0.207 OA
ATOM     16  O   UNL     1       1.015   0.533  -5.008  1.00  0.00    -0.207 OA
BRANCH  14  17
ATOM     17  N   UNL     1       0.868   0.358  -2.506  1.00  0.00    -0.211 NA
ATOM     18  H   UNL     1       0.320  -0.499  -2.578  1.00  0.00     0.141 HD
BRANCH  17  19
ATOM     19  C   UNL     1       0.596   0.940  -1.188  1.00  0.00     0.095 C 
ATOM     20  C   UNL     1       1.031  -0.040  -0.112  1.00  0.00     0.022 C 
ENDBRANCH  17  19
ENDBRANCH  14  17
ENDBRANCH   9  14
ENDBRANCH   7   8
ENDBRANCH   4   7
ENDBRANCH   2   3
ENDBRANCH   1   2
BRANCH   1  21
ATOM     21  C   UNL     1      -3.871   0.906   1.073  1.00  0.00     0.023 C 
BRANCH  21  22
ATOM     22  C   UNL     1      -4.562   0.021   2.106  1.00  0.00     0.116 C 
BRANCH  22  23
ATOM     23  N   UNL     1      -3.945  -1.289   2.236  1.00  0.00    -0.352 N 
ATOM     24  C   UNL     1      -3.736  -2.046   3.363  1.00  0.00     0.251 C 
ATOM     25  H   UNL     1      -3.631  -1.691   1.394  1.00  0.00     0.163 HD
ATOM     26  O   UNL     1      -3.076  -3.078   3.279  1.00  0.00    -0.269 OA
BRANCH  24  27
ATOM     27  C   UNL     1      -4.268  -1.608   4.674  1.00  0.00     0.039 A 
ATOM     28  C   UNL     1      -3.453  -1.738   5.801  1.00  0.00     0.014 A 
ATOM     29  C   UNL     1      -5.560  -1.090   4.805  1.00  0.00     0.014 A 
ATOM     30  C   UNL     1      -3.912  -1.299   7.045  1.00  0.00     0.010 A 
ATOM     31  C   UNL     1      -5.990  -0.588   6.033  1.00  0.00     0.010 A 
ATOM     32  C   UNL     1      -5.173  -0.692   7.168  1.00  0.00    -0.014 A 
BRANCH  32  33
ATOM     33  C   UNL     1      -5.635  -0.159   8.476  1.00  0.00     0.031 A 
ATOM     34  C   UNL     1      -6.829  -0.758   9.171  1.00  0.00     0.074 A 
ATOM     35  C   UNL     1      -4.994   0.891   9.027  1.00  0.00     0.049 A 
ATOM     36  N   UNL     1      -7.358  -0.434  10.324  1.00  0.00    -0.248 NA
ATOM     37  C   UNL     1      -7.532  -1.847   8.474  1.00  0.00     0.031 C 
ATOM     38  C   UNL     1      -3.856   1.596   8.430  1.00  0.00     0.029 A 
ATOM     39  N   UNL     1      -5.203   1.548  10.214  1.00  0.00    -0.354 N 
ATOM     40  C   UNL     1      -8.458  -1.270  10.486  1.00  0.00     0.074 A 
ATOM     41  C   UNL     1      -8.551  -2.077   9.289  1.00  0.00     0.031 C 
ATOM     42  C   UNL     1      -3.445   2.559   9.271  1.00  0.00     0.029 A 
ATOM     43  C   UNL     1      -4.307   2.564  10.449  1.00  0.00     0.049 A 
ATOM     44  H   UNL     1      -5.927   1.313  10.839  1.00  0.00     0.167 HD
ATOM     45  C   UNL     1      -9.300  -1.373  11.542  1.00  0.00     0.031 A 
ATOM     46  C   UNL     1      -4.185   3.402  11.496  1.00  0.00     0.031 A 
ATOM     47  C   UNL     1      -9.204  -0.572  12.734  1.00  0.00     0.049 A 
ATOM     48  C   UNL     1      -5.128   3.264  12.660  1.00  0.00     0.074 A 
ATOM     49  C   UNL     1      -9.977  -0.637  13.880  1.00  0.00     0.029 A 
ATOM     50  N   UNL     1      -8.278   0.441  12.935  1.00  0.00    -0.354 N 
ATOM     51  N   UNL     1      -6.117   2.418  12.823  1.00  0.00    -0.248 NA
ATOM     52  C   UNL     1      -4.924   4.182  13.788  1.00  0.00     0.031 C 
ATOM     53  C   UNL     1      -9.552   0.369  14.754  1.00  0.00     0.029 A 
ATOM     54  C   UNL     1      -8.474   1.022  14.178  1.00  0.00     0.049 A 
ATOM     55  H   UNL     1      -7.584   0.708  12.290  1.00  0.00     0.167 HD
ATOM     56  C   UNL     1      -6.638   2.685  14.085  1.00  0.00     0.074 A 
ATOM     57  C   UNL     1      -5.840   3.756  14.647  1.00  0.00     0.031 C 
ATOM     58  C   UNL     1      -7.680   2.095  14.721  1.00  0.00     0.031 A 
BRANCH  45  59
ATOM     59  C   UNL     1     -10.407  -2.393  11.451  1.00  0.00    -0.014 A 
ATOM     60  C   UNL     1     -10.128  -3.772  11.490  1.00  0.00     0.010 A 
ATOM     61  C   UNL     1     -11.746  -1.970  11.365  1.00  0.00     0.010 A 
ATOM     62  C   UNL     1     -11.162  -4.707  11.398  1.00  0.00     0.020 A 
ATOM     63  C   UNL     1     -12.786  -2.902  11.303  1.00  0.00     0.020 A 
ATOM     64  C   UNL     1     -12.485  -4.266  11.301  1.00  0.00     0.054 A 
BRANCH  64  65
ATOM     65  S   UNL     1     -13.808  -5.503  11.202  1.00  0.00     0.124 S 
ATOM     66  O   UNL     1     -13.645  -6.008   9.841  1.00  0.00    -0.237 OA
ATOM     67  O   UNL     1     -13.453  -6.439  12.265  1.00  0.00    -0.237 OA
ATOM     68  O   UNL     1     -15.025  -4.729  11.437  1.00  0.00    -0.744 OA
ENDBRANCH  64  65
ENDBRANCH  45  59
BRANCH  46  69
ATOM     69  C   UNL     1      -3.107   4.428  11.505  1.00  0.00    -0.014 A 
ATOM     70  C   UNL     1      -2.010   4.303  12.376  1.00  0.00     0.010 A 
ATOM     71  C   UNL     1      -3.165   5.529  10.632  1.00  0.00     0.010 A 
ATOM     72  C   UNL     1      -1.001   5.271  12.387  1.00  0.00     0.020 A 
ATOM     73  C   UNL     1      -2.144   6.484  10.620  1.00  0.00     0.020 A 
ATOM     74  C   UNL     1      -1.074   6.354  11.507  1.00  0.00     0.054 A 
BRANCH  74  75
ATOM     75  S   UNL     1       0.273   7.570  11.502  1.00  0.00     0.124 S 
ATOM     76  O   UNL     1       0.019   8.310  12.733  1.00  0.00    -0.237 OA
ATOM     77  O   UNL     1       1.463   6.722  11.505  1.00  0.00    -0.237 OA
ATOM     78  O   UNL     1       0.054   8.316  10.264  1.00  0.00    -0.744 OA
ENDBRANCH  74  75
ENDBRANCH  46  69
BRANCH  58  79
ATOM     79  C   UNL     1      -7.997   2.577  16.113  1.00  0.00    -0.014 A 
ATOM     80  C   UNL     1      -8.558   3.847  16.337  1.00  0.00     0.010 A 
ATOM     81  C   UNL     1      -7.750   1.733  17.211  1.00  0.00     0.010 A 
ATOM     82  C   UNL     1      -8.817   4.284  17.639  1.00  0.00     0.020 A 
ATOM     83  C   UNL     1      -8.036   2.155  18.512  1.00  0.00     0.020 A 
ATOM     84  C   UNL     1      -8.549   3.437  18.719  1.00  0.00     0.054 A 
BRANCH  84  85
ATOM     85  S   UNL     1      -8.906   4.021  20.399  1.00  0.00     0.124 S 
ATOM     86  O   UNL     1      -7.810   4.958  20.632  1.00  0.00    -0.237 OA
ATOM     87  O   UNL     1     -10.229   4.624  20.256  1.00  0.00    -0.237 OA
ATOM     88  O   UNL     1      -8.867   2.803  21.204  1.00  0.00    -0.744 OA
ENDBRANCH  84  85
ENDBRANCH  58  79
ENDBRANCH  32  33
ENDBRANCH  24  27
ENDBRANCH  22  23
ENDBRANCH  21  22
ENDBRANCH   1  21
TORSDOF 18
