REMARK SMILES CCCc1ccccc1OCC(=O)NCCCCNC(=O)c1ccc(-c2c3nc(c(-c4ccc(S(=O)(=O)[O-])cc4)c4ccc([nH]4)c(-c4ccc(S(=O)(=O)[O-])cc4)c4nc(c(-c5ccc(S(=O)(=O)[O-])cc5)c5ccc2[nH]5)C=C4)C=C3)cc1
REMARK SMILES IDX 16 1 15 2 14 3 12 4 13 5 11 7 10 8 9 9 4 10 5 11 6 12 8 13
REMARK SMILES IDX 7 14 3 15 2 16 1 17 17 18 18 19 19 20 20 21 21 23 22 24
REMARK SMILES IDX 23 25 81 26 24 27 80 28 25 29 26 30 27 31 74 32 28 33 79 34
REMARK SMILES IDX 73 35 75 36 29 37 78 38 72 39 71 40 30 42 60 43 41 44 59 45
REMARK SMILES IDX 42 46 45 47 58 48 76 49 43 50 44 51 57 53 77 54 46 55 31 56
REMARK SMILES IDX 32 57 40 58 33 59 39 60 34 61 35 62 36 63 37 64 38 65 61 66
REMARK SMILES IDX 62 67 70 68 63 69 69 70 64 71 65 72 66 73 67 74 68 75 47 76
REMARK SMILES IDX 48 77 56 78 49 79 55 80 50 81 51 82 52 83 53 84 54 85
REMARK H PARENT 14 6 19 22 75 41 45 52
REMARK Flexibility Score: inf
ROOT
ATOM      1  C   UNL     1      -3.555  -2.591   4.310  1.00  0.00     0.023 C 
ENDROOT
BRANCH   1   2
ATOM      2  C   UNL     1      -2.831  -3.851   3.846  1.00  0.00     0.116 C 
BRANCH   2   3
ATOM      3  N   UNL     1      -2.323  -3.740   2.494  1.00  0.00    -0.353 N 
ATOM      4  C   UNL     1      -1.031  -3.822   2.062  1.00  0.00     0.257 C 
ATOM      5  O   UNL     1      -0.818  -3.881   0.850  1.00  0.00    -0.271 OA
ATOM      6  H   UNL     1      -2.998  -3.586   1.795  1.00  0.00     0.163 HD
BRANCH   4   7
ATOM      7  C   UNL     1       0.108  -3.940   3.078  1.00  0.00     0.329 C 
BRANCH   7   8
ATOM      8  O   UNL     1       0.284  -2.973   4.086  1.00  0.00    -0.483 OA
BRANCH   8   9
ATOM      9  C   UNL     1       0.333  -1.631   3.849  1.00  0.00     0.123 A 
ATOM     10  C   UNL     1       0.807  -0.907   2.742  1.00  0.00    -0.006 A 
ATOM     11  C   UNL     1       0.810   0.507   2.836  1.00  0.00     0.007 A 
ATOM     12  C   UNL     1       0.352   1.187   3.964  1.00  0.00     0.001 A 
ATOM     13  C   UNL     1      -0.100  -0.925   4.992  1.00  0.00     0.047 A 
ATOM     14  C   UNL     1      -0.104   0.466   5.051  1.00  0.00     0.004 A 
BRANCH  10  15
ATOM     15  C   UNL     1       1.419  -1.474   1.480  1.00  0.00     0.039 C 
BRANCH  15  16
ATOM     16  C   UNL     1       0.608  -1.246   0.194  1.00  0.00     0.001 C 
ATOM     17  C   UNL     1       0.922   0.060  -0.527  1.00  0.00     0.004 C 
ENDBRANCH  15  16
ENDBRANCH  10  15
ENDBRANCH   8   9
ENDBRANCH   7   8
ENDBRANCH   4   7
ENDBRANCH   2   3
ENDBRANCH   1   2
BRANCH   1  18
ATOM     18  C   UNL     1      -4.751  -2.163   3.457  1.00  0.00     0.023 C 
BRANCH  18  19
ATOM     19  C   UNL     1      -5.790  -3.243   3.170  1.00  0.00     0.116 C 
BRANCH  19  20
ATOM     20  N   UNL     1      -6.366  -3.822   4.373  1.00  0.00    -0.352 N 
ATOM     21  C   UNL     1      -7.686  -4.052   4.687  1.00  0.00     0.251 C 
ATOM     22  H   UNL     1      -5.717  -4.088   5.064  1.00  0.00     0.163 HD
ATOM     23  O   UNL     1      -7.985  -4.457   5.803  1.00  0.00    -0.269 OA
BRANCH  21  24
ATOM     24  C   UNL     1      -8.744  -3.771   3.689  1.00  0.00     0.039 A 
ATOM     25  C   UNL     1      -9.867  -3.042   4.091  1.00  0.00     0.014 A 
ATOM     26  C   UNL     1      -8.627  -4.205   2.366  1.00  0.00     0.014 A 
ATOM     27  C   UNL     1     -10.832  -2.677   3.147  1.00  0.00     0.010 A 
ATOM     28  C   UNL     1      -9.555  -3.784   1.415  1.00  0.00     0.010 A 
ATOM     29  C   UNL     1     -10.661  -3.006   1.793  1.00  0.00    -0.014 A 
BRANCH  29  30
ATOM     30  C   UNL     1     -11.607  -2.521   0.754  1.00  0.00     0.031 A 
ATOM     31  C   UNL     1     -12.425  -3.497  -0.047  1.00  0.00     0.074 A 
ATOM     32  C   UNL     1     -11.669  -1.203   0.475  1.00  0.00     0.049 A 
ATOM     33  N   UNL     1     -13.237  -3.266  -1.046  1.00  0.00    -0.248 NA
ATOM     34  C   UNL     1     -12.295  -4.920   0.304  1.00  0.00     0.031 C 
ATOM     35  C   UNL     1     -10.897  -0.156   1.149  1.00  0.00     0.029 A 
ATOM     36  N   UNL     1     -12.406  -0.518  -0.460  1.00  0.00    -0.354 N 
ATOM     37  C   UNL     1     -13.698  -4.511  -1.457  1.00  0.00     0.074 A 
ATOM     38  C   UNL     1     -13.045  -5.498  -0.624  1.00  0.00     0.031 C 
ATOM     39  C   UNL     1     -11.212   1.036   0.618  1.00  0.00     0.029 A 
ATOM     40  C   UNL     1     -12.175   0.838  -0.461  1.00  0.00     0.049 A 
ATOM     41  H   UNL     1     -13.041  -0.956  -1.071  1.00  0.00     0.167 HD
ATOM     42  C   UNL     1     -14.594  -4.806  -2.430  1.00  0.00     0.031 A 
ATOM     43  C   UNL     1     -12.668   1.813  -1.250  1.00  0.00     0.031 A 
ATOM     44  C   UNL     1     -15.253  -3.823  -3.248  1.00  0.00     0.049 A 
ATOM     45  C   UNL     1     -13.655   1.459  -2.328  1.00  0.00     0.074 A 
ATOM     46  C   UNL     1     -16.228  -4.020  -4.211  1.00  0.00     0.029 A 
ATOM     47  N   UNL     1     -15.003  -2.460  -3.206  1.00  0.00    -0.354 N 
ATOM     48  N   UNL     1     -14.136   0.282  -2.648  1.00  0.00    -0.248 NA
ATOM     49  C   UNL     1     -14.171   2.566  -3.146  1.00  0.00     0.031 C 
ATOM     50  C   UNL     1     -16.529  -2.782  -4.788  1.00  0.00     0.029 A 
ATOM     51  C   UNL     1     -15.783  -1.807  -4.146  1.00  0.00     0.049 A 
ATOM     52  H   UNL     1     -14.365  -2.021  -2.598  1.00  0.00     0.167 HD
ATOM     53  C   UNL     1     -15.029   0.509  -3.690  1.00  0.00     0.074 A 
ATOM     54  C   UNL     1     -15.033   1.937  -3.935  1.00  0.00     0.031 C 
ATOM     55  C   UNL     1     -15.777  -0.385  -4.380  1.00  0.00     0.031 A 
BRANCH  42  56
ATOM     56  C   UNL     1     -14.909  -6.259  -2.671  1.00  0.00    -0.014 A 
ATOM     57  C   UNL     1     -15.655  -7.006  -1.741  1.00  0.00     0.010 A 
ATOM     58  C   UNL     1     -14.495  -6.874  -3.867  1.00  0.00     0.010 A 
ATOM     59  C   UNL     1     -15.946  -8.350  -1.984  1.00  0.00     0.020 A 
ATOM     60  C   UNL     1     -14.808  -8.211  -4.126  1.00  0.00     0.020 A 
ATOM     61  C   UNL     1     -15.518  -8.946  -3.174  1.00  0.00     0.054 A 
BRANCH  61  62
ATOM     62  S   UNL     1     -15.931 -10.687  -3.473  1.00  0.00     0.124 S 
ATOM     63  O   UNL     1     -15.023 -11.372  -2.556  1.00  0.00    -0.237 OA
ATOM     64  O   UNL     1     -17.346 -10.747  -3.117  1.00  0.00    -0.237 OA
ATOM     65  O   UNL     1     -15.639 -10.874  -4.893  1.00  0.00    -0.744 OA
ENDBRANCH  61  62
ENDBRANCH  42  56
BRANCH  43  66
ATOM     66  C   UNL     1     -12.234   3.223  -1.048  1.00  0.00    -0.014 A 
ATOM     67  C   UNL     1     -13.122   4.175  -0.516  1.00  0.00     0.010 A 
ATOM     68  C   UNL     1     -10.925   3.620  -1.379  1.00  0.00     0.010 A 
ATOM     69  C   UNL     1     -12.716   5.500  -0.337  1.00  0.00     0.020 A 
ATOM     70  C   UNL     1     -10.507   4.938  -1.175  1.00  0.00     0.020 A 
ATOM     71  C   UNL     1     -11.410   5.873  -0.667  1.00  0.00     0.054 A 
BRANCH  71  72
ATOM     72  S   UNL     1     -10.889   7.588  -0.379  1.00  0.00     0.124 S 
ATOM     73  O   UNL     1     -11.554   8.293  -1.470  1.00  0.00    -0.237 OA
ATOM     74  O   UNL     1     -11.408   7.856   0.959  1.00  0.00    -0.237 OA
ATOM     75  O   UNL     1      -9.432   7.521  -0.471  1.00  0.00    -0.744 OA
ENDBRANCH  71  72
ENDBRANCH  43  66
BRANCH  55  76
ATOM     76  C   UNL     1     -16.688   0.151  -5.453  1.00  0.00    -0.014 A 
ATOM     77  C   UNL     1     -16.175   0.614  -6.677  1.00  0.00     0.010 A 
ATOM     78  C   UNL     1     -18.081   0.129  -5.256  1.00  0.00     0.010 A 
ATOM     79  C   UNL     1     -17.039   1.067  -7.678  1.00  0.00     0.020 A 
ATOM     80  C   UNL     1     -18.949   0.556  -6.264  1.00  0.00     0.020 A 
ATOM     81  C   UNL     1     -18.421   1.034  -7.465  1.00  0.00     0.054 A 
BRANCH  81  82
ATOM     82  S   UNL     1     -19.524   1.574  -8.800  1.00  0.00     0.124 S 
ATOM     83  O   UNL     1     -19.363   3.025  -8.760  1.00  0.00    -0.237 OA
ATOM     84  O   UNL     1     -18.957   0.911  -9.973  1.00  0.00    -0.237 OA
ATOM     85  O   UNL     1     -20.836   1.081  -8.387  1.00  0.00    -0.744 OA
ENDBRANCH  81  82
ENDBRANCH  55  76
ENDBRANCH  29  30
ENDBRANCH  21  24
ENDBRANCH  19  20
ENDBRANCH  18  19
ENDBRANCH   1  18
TORSDOF 18
