REMARK SMILES O=C(NCCCCNC(=O)c1ccccc1/N=C/c1coc2ccccc2c1=O)c1ccc(-c2c3nc(c(-c4ccc(S(=O)(=O)[O-])cc4)c4ccc([nH]4)c(-c4ccc(S(=O)(=O)[O-])cc4)c4nc(c(-c5ccc(S(=O)(=O)[O-])cc5)c5ccc2[nH]5)C=C4)C=C3)cc1
REMARK SMILES IDX 5 1 4 2 3 3 1 4 2 5 30 7 31 8 89 9 32 10 88 11 33 12 34 13
REMARK SMILES IDX 35 14 82 15 36 16 87 17 81 18 83 19 37 20 86 21 80 22 79 23
REMARK SMILES IDX 38 25 68 26 49 27 67 28 50 29 53 30 66 31 84 32 51 33 52 34
REMARK SMILES IDX 65 36 85 37 54 38 39 39 40 40 48 41 41 42 47 43 42 44 43 45
REMARK SMILES IDX 44 46 45 47 46 48 69 49 70 50 78 51 71 52 77 53 72 54 73 55
REMARK SMILES IDX 74 56 75 57 76 58 55 59 56 60 64 61 57 62 63 63 58 64 59 65
REMARK SMILES IDX 60 66 61 67 62 68 6 69 7 70 8 71 9 72 10 74 11 75 12 76
REMARK SMILES IDX 16 77 13 78 15 79 14 80 17 81 18 82 19 83 20 84 28 85 21 86
REMARK SMILES IDX 27 87 29 88 22 89 26 90 23 91 25 92 24 93
REMARK H PARENT 3 6 83 24 53 35 8 73
REMARK Flexibility Score: inf
ROOT
ATOM      1  C   UNL     1       5.143   0.354   2.963  1.00  0.00     0.023 C 
ENDROOT
BRANCH   1   2
ATOM      2  C   UNL     1       4.934  -0.183   1.547  1.00  0.00     0.116 C 
BRANCH   2   3
ATOM      3  N   UNL     1       3.543  -0.467   1.246  1.00  0.00    -0.352 N 
ATOM      4  O   UNL     1       1.485  -0.131   0.379  1.00  0.00    -0.269 OA
ATOM      5  C   UNL     1       2.687   0.121   0.347  1.00  0.00     0.251 C 
ATOM      6  H   UNL     1       3.149  -1.200   1.771  1.00  0.00     0.163 HD
BRANCH   5   7
ATOM      7  C   UNL     1       3.200   1.058  -0.680  1.00  0.00     0.039 A 
ATOM      8  C   UNL     1       4.324   0.740  -1.452  1.00  0.00     0.014 A 
ATOM      9  C   UNL     1       2.495   2.239  -0.932  1.00  0.00     0.014 A 
ATOM     10  C   UNL     1       4.808   1.652  -2.392  1.00  0.00     0.010 A 
ATOM     11  C   UNL     1       2.958   3.134  -1.900  1.00  0.00     0.010 A 
ATOM     12  C   UNL     1       4.138   2.864  -2.612  1.00  0.00    -0.014 A 
BRANCH  12  13
ATOM     13  C   UNL     1       4.687   3.865  -3.559  1.00  0.00     0.031 A 
ATOM     14  C   UNL     1       5.319   5.124  -3.036  1.00  0.00     0.074 A 
ATOM     15  C   UNL     1       4.613   3.656  -4.886  1.00  0.00     0.049 A 
ATOM     16  N   UNL     1       5.816   6.136  -3.701  1.00  0.00    -0.248 NA
ATOM     17  C   UNL     1       5.396   5.266  -1.574  1.00  0.00     0.031 C 
ATOM     18  C   UNL     1       4.025   2.480  -5.526  1.00  0.00     0.029 A 
ATOM     19  N   UNL     1       5.031   4.437  -5.935  1.00  0.00    -0.354 N 
ATOM     20  C   UNL     1       6.243   7.045  -2.742  1.00  0.00     0.074 A 
ATOM     21  C   UNL     1       5.939   6.469  -1.448  1.00  0.00     0.031 C 
ATOM     22  C   UNL     1       4.122   2.615  -6.859  1.00  0.00     0.029 A 
ATOM     23  C   UNL     1       4.751   3.898  -7.167  1.00  0.00     0.049 A 
ATOM     24  H   UNL     1       5.487   5.301  -5.816  1.00  0.00     0.167 HD
ATOM     25  C   UNL     1       6.835   8.250  -2.917  1.00  0.00     0.031 A 
ATOM     26  C   UNL     1       4.960   4.385  -8.405  1.00  0.00     0.031 A 
ATOM     27  C   UNL     1       7.151   8.827  -4.194  1.00  0.00     0.049 A 
ATOM     28  C   UNL     1       5.613   5.725  -8.580  1.00  0.00     0.074 A 
ATOM     29  C   UNL     1       7.783  10.028  -4.465  1.00  0.00     0.029 A 
ATOM     30  N   UNL     1       6.855   8.245  -5.416  1.00  0.00    -0.354 N 
ATOM     31  N   UNL     1       6.036   6.558  -7.660  1.00  0.00    -0.248 NA
ATOM     32  C   UNL     1       5.815   6.193  -9.959  1.00  0.00     0.031 C 
ATOM     33  C   UNL     1       7.849  10.182  -5.856  1.00  0.00     0.029 A 
ATOM     34  C   UNL     1       7.276   9.067  -6.447  1.00  0.00     0.049 A 
ATOM     35  H   UNL     1       6.410   7.374  -5.534  1.00  0.00     0.167 HD
ATOM     36  C   UNL     1       6.561   7.646  -8.347  1.00  0.00     0.074 A 
ATOM     37  C   UNL     1       6.410   7.363  -9.761  1.00  0.00     0.031 C 
ATOM     38  C   UNL     1       7.118   8.776  -7.848  1.00  0.00     0.031 A 
BRANCH  25  39
ATOM     39  C   UNL     1       7.151   9.032  -1.675  1.00  0.00    -0.014 A 
ATOM     40  C   UNL     1       8.278   8.721  -0.894  1.00  0.00     0.010 A 
ATOM     41  C   UNL     1       6.298  10.075  -1.273  1.00  0.00     0.010 A 
ATOM     42  C   UNL     1       8.518   9.407   0.299  1.00  0.00     0.020 A 
ATOM     43  C   UNL     1       6.544  10.772  -0.088  1.00  0.00     0.020 A 
ATOM     44  C   UNL     1       7.639  10.416   0.703  1.00  0.00     0.054 A 
BRANCH  44  45
ATOM     45  S   UNL     1       7.944  11.282   2.269  1.00  0.00     0.124 S 
ATOM     46  O   UNL     1       7.309  10.386   3.232  1.00  0.00    -0.237 OA
ATOM     47  O   UNL     1       9.402  11.341   2.335  1.00  0.00    -0.237 OA
ATOM     48  O   UNL     1       7.280  12.569   2.081  1.00  0.00    -0.744 OA
ENDBRANCH  44  45
ENDBRANCH  25  39
BRANCH  26  49
ATOM     49  C   UNL     1       4.529   3.580  -9.575  1.00  0.00    -0.014 A 
ATOM     50  C   UNL     1       5.458   2.800 -10.283  1.00  0.00     0.010 A 
ATOM     51  C   UNL     1       3.169   3.530  -9.933  1.00  0.00     0.010 A 
ATOM     52  C   UNL     1       5.032   1.967 -11.321  1.00  0.00     0.020 A 
ATOM     53  C   UNL     1       2.739   2.688 -10.962  1.00  0.00     0.020 A 
ATOM     54  C   UNL     1       3.674   1.911 -11.650  1.00  0.00     0.054 A 
BRANCH  54  55
ATOM     55  S   UNL     1       3.116   0.739 -12.919  1.00  0.00     0.124 S 
ATOM     56  O   UNL     1       3.325   1.499 -14.146  1.00  0.00    -0.237 OA
ATOM     57  O   UNL     1       4.007  -0.402 -12.721  1.00  0.00    -0.237 OA
ATOM     58  O   UNL     1       1.721   0.495 -12.559  1.00  0.00    -0.744 OA
ENDBRANCH  54  55
ENDBRANCH  26  49
BRANCH  38  59
ATOM     59  C   UNL     1       7.617   9.795  -8.831  1.00  0.00    -0.014 A 
ATOM     60  C   UNL     1       6.733  10.718  -9.415  1.00  0.00     0.010 A 
ATOM     61  C   UNL     1       8.991   9.880  -9.114  1.00  0.00     0.010 A 
ATOM     62  C   UNL     1       7.216  11.709 -10.274  1.00  0.00     0.020 A 
ATOM     63  C   UNL     1       9.478  10.876  -9.964  1.00  0.00     0.020 A 
ATOM     64  C   UNL     1       8.586  11.780 -10.546  1.00  0.00     0.054 A 
BRANCH  64  65
ATOM     65  S   UNL     1       9.209  13.114 -11.608  1.00  0.00     0.124 S 
ATOM     66  O   UNL     1       8.985  12.567 -12.943  1.00  0.00    -0.237 OA
ATOM     67  O   UNL     1       8.363  14.247 -11.243  1.00  0.00    -0.237 OA
ATOM     68  O   UNL     1      10.610  13.240 -11.211  1.00  0.00    -0.744 OA
ENDBRANCH  64  65
ENDBRANCH  38  59
ENDBRANCH  12  13
ENDBRANCH   5   7
ENDBRANCH   2   3
ENDBRANCH   1   2
BRANCH   1  69
ATOM     69  C   UNL     1       4.818  -0.598   4.122  1.00  0.00     0.023 C 
BRANCH  69  70
ATOM     70  C   UNL     1       5.432  -1.996   4.057  1.00  0.00     0.116 C 
BRANCH  70  71
ATOM     71  N   UNL     1       6.857  -2.003   3.785  1.00  0.00    -0.352 N 
ATOM     72  C   UNL     1       7.762  -3.006   4.012  1.00  0.00     0.253 C 
ATOM     73  H   UNL     1       7.220  -1.180   3.386  1.00  0.00     0.163 HD
ATOM     74  O   UNL     1       8.919  -2.897   3.612  1.00  0.00    -0.269 OA
BRANCH  72  75
ATOM     75  C   UNL     1       7.398  -4.203   4.784  1.00  0.00     0.065 A 
ATOM     76  C   UNL     1       7.995  -4.329   6.051  1.00  0.00     0.016 A 
ATOM     77  C   UNL     1       6.563  -5.213   4.299  1.00  0.00     0.076 A 
ATOM     78  C   UNL     1       7.741  -5.446   6.849  1.00  0.00     0.001 A 
ATOM     79  C   UNL     1       6.338  -6.337   5.114  1.00  0.00     0.029 A 
ATOM     80  C   UNL     1       6.916  -6.458   6.376  1.00  0.00     0.002 A 
BRANCH  77  81
ATOM     81  N   UNL     1       5.751  -5.170   3.175  1.00  0.00    -0.255 NA
ATOM     82  C   UNL     1       6.077  -4.793   1.984  1.00  0.00     0.127 C 
BRANCH  82  83
ATOM     83  C   UNL     1       4.967  -4.899   1.005  1.00  0.00     0.076 A 
ATOM     84  C   UNL     1       4.964  -6.106   0.410  1.00  0.00     0.209 A 
ATOM     85  C   UNL     1       3.629  -4.422   1.452  1.00  0.00     0.201 A 
ATOM     86  O   UNL     1       3.838  -6.920   0.329  1.00  0.00    -0.463 OA
ATOM     87  C   UNL     1       2.780  -5.504   1.963  1.00  0.00     0.065 A 
ATOM     88  O   UNL     1       3.332  -3.241   1.556  1.00  0.00    -0.288 OA
ATOM     89  C   UNL     1       2.967  -6.762   1.390  1.00  0.00     0.137 A 
ATOM     90  C   UNL     1       2.003  -5.327   3.106  1.00  0.00     0.016 A 
ATOM     91  C   UNL     1       2.359  -7.874   1.959  1.00  0.00     0.048 A 
ATOM     92  C   UNL     1       1.426  -6.448   3.699  1.00  0.00     0.001 A 
ATOM     93  C   UNL     1       1.604  -7.715   3.127  1.00  0.00     0.004 A 
ENDBRANCH  82  83
ENDBRANCH  77  81
ENDBRANCH  72  75
ENDBRANCH  70  71
ENDBRANCH  69  70
ENDBRANCH   1  69
TORSDOF 16
