REMARK SMILES CCOCCCC(=O)N[C@@H]1COC[C@H]1C(=O)NCCCCNC(=O)c1ccc(-c2c3nc(c(-c4ccc(S(=O)(=O)[O-])cc4)c4ccc([nH]4)c(-c4ccc(S(=O)(=O)[O-])cc4)c4nc(c(-c5ccc(S(=O)(=O)[O-])cc5)c5ccc2[nH]5)C=C4)C=C3)cc1
REMARK SMILES IDX 18 1 17 2 15 3 16 4 14 6 10 7 11 8 12 9 13 10 9 11 7 12 8 13
REMARK SMILES IDX 6 15 5 16 4 17 3 18 2 19 1 20 19 21 20 22 21 23 22 24 23 25
REMARK SMILES IDX 24 27 25 28 26 29 84 30 27 31 83 32 28 33 29 34 30 35 77 36
REMARK SMILES IDX 31 37 82 38 76 39 78 40 32 41 81 42 75 43 74 44 33 46 63 47
REMARK SMILES IDX 44 48 62 49 45 50 48 51 61 52 79 53 46 54 47 55 60 57 80 58
REMARK SMILES IDX 49 59 34 60 35 61 43 62 36 63 42 64 37 65 38 66 39 67 40 68
REMARK SMILES IDX 41 69 64 70 65 71 73 72 66 73 72 74 67 75 68 76 69 77 70 78
REMARK SMILES IDX 71 79 50 80 51 81 59 82 52 83 58 84 53 85 54 86 55 87 56 88
REMARK SMILES IDX 57 89
REMARK H PARENT 17 5 9 14 22 26 78 45 48 56
REMARK Flexibility Score: inf
ROOT
ATOM      1  C   UNL     1       2.096  -2.140  -3.814  1.00  0.00     0.116 C 
ENDROOT
BRANCH   1   2
ATOM      2  N   UNL     1       2.290  -3.272  -2.924  1.00  0.00    -0.356 N 
ATOM      3  C   UNL     1       2.104  -3.443  -1.591  1.00  0.00     0.227 C 
ATOM      4  O   UNL     1       2.356  -4.565  -1.136  1.00  0.00    -0.275 OA
ATOM      5  H   UNL     1       2.624  -4.078  -3.381  1.00  0.00     0.163 HD
BRANCH   3   6
ATOM      6  C   UNL     1       1.544  -2.384  -0.657  1.00  0.00     0.129 C 
ATOM      7  C   UNL     1       2.191  -1.006  -0.744  1.00  0.00     0.122 C 
ATOM      8  C   UNL     1       1.042  -0.132  -1.207  1.00  0.00     0.185 C 
ATOM      9  O   UNL     1      -0.038  -0.951  -1.655  1.00  0.00    -0.378 OA
ATOM     10  C   UNL     1       0.068  -2.180  -0.949  1.00  0.00     0.176 C 
BRANCH   7  11
ATOM     11  N   UNL     1       2.873  -0.587   0.493  1.00  0.00    -0.350 N 
ATOM     12  C   UNL     1       3.415   0.615   0.857  1.00  0.00     0.220 C 
ATOM     13  O   UNL     1       4.412   0.587   1.584  1.00  0.00    -0.275 OA
ATOM     14  H   UNL     1       2.953  -1.293   1.174  1.00  0.00     0.163 HD
BRANCH  12  15
ATOM     15  C   UNL     1       2.759   1.948   0.529  1.00  0.00     0.102 C 
BRANCH  15  16
ATOM     16  C   UNL     1       2.981   2.504  -0.875  1.00  0.00     0.038 C 
BRANCH  16  17
ATOM     17  C   UNL     1       1.776   3.223  -1.519  1.00  0.00     0.160 C 
BRANCH  17  18
ATOM     18  O   UNL     1       0.535   2.593  -1.228  1.00  0.00    -0.382 OA
BRANCH  18  19
ATOM     19  C   UNL     1      -0.298   3.267  -0.289  1.00  0.00     0.156 C 
ATOM     20  C   UNL     1      -1.079   2.237   0.518  1.00  0.00     0.035 C 
ENDBRANCH  18  19
ENDBRANCH  17  18
ENDBRANCH  16  17
ENDBRANCH  15  16
ENDBRANCH  12  15
ENDBRANCH   7  11
ENDBRANCH   3   6
ENDBRANCH   1   2
BRANCH   1  21
ATOM     21  C   UNL     1       3.407  -1.422  -4.139  1.00  0.00     0.023 C 
BRANCH  21  22
ATOM     22  C   UNL     1       4.405  -2.265  -4.927  1.00  0.00     0.023 C 
BRANCH  22  23
ATOM     23  C   UNL     1       3.875  -2.791  -6.249  1.00  0.00     0.116 C 
BRANCH  23  24
ATOM     24  N   UNL     1       3.448  -1.730  -7.152  1.00  0.00    -0.352 N 
ATOM     25  C   UNL     1       3.629  -1.666  -8.513  1.00  0.00     0.251 C 
ATOM     26  H   UNL     1       2.975  -0.971  -6.739  1.00  0.00     0.163 HD
ATOM     27  O   UNL     1       3.333  -0.656  -9.143  1.00  0.00    -0.269 OA
BRANCH  25  28
ATOM     28  C   UNL     1       4.230  -2.833  -9.186  1.00  0.00     0.039 A 
ATOM     29  C   UNL     1       5.403  -2.660  -9.921  1.00  0.00     0.014 A 
ATOM     30  C   UNL     1       3.695  -4.107  -8.973  1.00  0.00     0.014 A 
ATOM     31  C   UNL     1       6.090  -3.784 -10.378  1.00  0.00     0.010 A 
ATOM     32  C   UNL     1       4.422  -5.224  -9.363  1.00  0.00     0.010 A 
ATOM     33  C   UNL     1       5.630  -5.074 -10.060  1.00  0.00    -0.014 A 
BRANCH  33  34
ATOM     34  C   UNL     1       6.415  -6.279 -10.421  1.00  0.00     0.031 A 
ATOM     35  C   UNL     1       5.844  -7.292 -11.373  1.00  0.00     0.074 A 
ATOM     36  C   UNL     1       7.608  -6.496  -9.829  1.00  0.00     0.049 A 
ATOM     37  N   UNL     1       6.354  -8.431 -11.764  1.00  0.00    -0.248 NA
ATOM     38  C   UNL     1       4.517  -7.000 -11.940  1.00  0.00     0.031 C 
ATOM     39  C   UNL     1       8.241  -5.614  -8.844  1.00  0.00     0.029 A 
ATOM     40  N   UNL     1       8.498  -7.532  -9.963  1.00  0.00    -0.354 N 
ATOM     41  C   UNL     1       5.405  -8.998 -12.606  1.00  0.00     0.074 A 
ATOM     42  C   UNL     1       4.270  -8.103 -12.632  1.00  0.00     0.031 C 
ATOM     43  C   UNL     1       9.426  -6.134  -8.485  1.00  0.00     0.029 A 
ATOM     44  C   UNL     1       9.621  -7.401  -9.181  1.00  0.00     0.049 A 
ATOM     45  H   UNL     1       8.346  -8.298 -10.564  1.00  0.00     0.167 HD
ATOM     46  C   UNL     1       5.482 -10.152 -13.311  1.00  0.00     0.031 A 
ATOM     47  C   UNL     1      10.686  -8.213  -9.035  1.00  0.00     0.031 A 
ATOM     48  C   UNL     1       6.619 -11.032 -13.293  1.00  0.00     0.049 A 
ATOM     49  C   UNL     1      10.747  -9.488  -9.830  1.00  0.00     0.074 A 
ATOM     50  C   UNL     1       6.822 -12.188 -14.025  1.00  0.00     0.029 A 
ATOM     51  N   UNL     1       7.744 -10.856 -12.501  1.00  0.00    -0.354 N 
ATOM     52  N   UNL     1       9.875  -9.966 -10.685  1.00  0.00    -0.248 NA
ATOM     53  C   UNL     1      11.940 -10.327  -9.649  1.00  0.00     0.031 C 
ATOM     54  C   UNL     1       8.048 -12.739 -13.639  1.00  0.00     0.029 A 
ATOM     55  C   UNL     1       8.633 -11.897 -12.706  1.00  0.00     0.049 A 
ATOM     56  H   UNL     1       7.888 -10.102 -11.884  1.00  0.00     0.167 HD
ATOM     57  C   UNL     1      10.422 -11.154 -11.158  1.00  0.00     0.074 A 
ATOM     58  C   UNL     1      11.709 -11.309 -10.509  1.00  0.00     0.031 C 
ATOM     59  C   UNL     1       9.906 -12.038 -12.047  1.00  0.00     0.031 A 
BRANCH  46  60
ATOM     60  C   UNL     1       4.299 -10.527 -14.163  1.00  0.00    -0.014 A 
ATOM     61  C   UNL     1       3.994  -9.810 -15.334  1.00  0.00     0.010 A 
ATOM     62  C   UNL     1       3.509 -11.636 -13.813  1.00  0.00     0.010 A 
ATOM     63  C   UNL     1       2.899 -10.174 -16.121  1.00  0.00     0.020 A 
ATOM     64  C   UNL     1       2.429 -12.021 -14.613  1.00  0.00     0.020 A 
ATOM     65  C   UNL     1       2.122 -11.277 -15.754  1.00  0.00     0.054 A 
BRANCH  65  66
ATOM     66  S   UNL     1       0.727 -11.747 -16.813  1.00  0.00     0.124 S 
ATOM     67  O   UNL     1      -0.244 -10.697 -16.516  1.00  0.00    -0.237 OA
ATOM     68  O   UNL     1       1.310 -11.702 -18.151  1.00  0.00    -0.237 OA
ATOM     69  O   UNL     1       0.365 -13.081 -16.340  1.00  0.00    -0.744 OA
ENDBRANCH  65  66
ENDBRANCH  46  60
BRANCH  47  70
ATOM     70  C   UNL     1      11.785  -7.840  -8.103  1.00  0.00    -0.014 A 
ATOM     71  C   UNL     1      13.040  -7.446  -8.601  1.00  0.00     0.010 A 
ATOM     72  C   UNL     1      11.581  -7.870  -6.712  1.00  0.00     0.010 A 
ATOM     73  C   UNL     1      14.075  -7.107  -7.725  1.00  0.00     0.020 A 
ATOM     74  C   UNL     1      12.605  -7.506  -5.833  1.00  0.00     0.020 A 
ATOM     75  C   UNL     1      13.851  -7.139  -6.346  1.00  0.00     0.054 A 
BRANCH  75  76
ATOM     76  S   UNL     1      15.194  -6.649  -5.228  1.00  0.00     0.124 S 
ATOM     77  O   UNL     1      16.073  -7.812  -5.283  1.00  0.00    -0.237 OA
ATOM     78  O   UNL     1      15.706  -5.437  -5.861  1.00  0.00    -0.237 OA
ATOM     79  O   UNL     1      14.514  -6.436  -3.952  1.00  0.00    -0.744 OA
ENDBRANCH  75  76
ENDBRANCH  47  70
BRANCH  59  80
ATOM     80  C   UNL     1      10.741 -13.243 -12.385  1.00  0.00    -0.014 A 
ATOM     81  C   UNL     1      10.901 -14.295 -11.467  1.00  0.00     0.010 A 
ATOM     82  C   UNL     1      11.327 -13.347 -13.660  1.00  0.00     0.010 A 
ATOM     83  C   UNL     1      11.659 -15.418 -11.806  1.00  0.00     0.020 A 
ATOM     84  C   UNL     1      12.063 -14.480 -14.012  1.00  0.00     0.020 A 
ATOM     85  C   UNL     1      12.236 -15.503 -13.077  1.00  0.00     0.054 A 
BRANCH  85  86
ATOM     86  S   UNL     1      13.180 -16.991 -13.510  1.00  0.00     0.124 S 
ATOM     87  O   UNL     1      14.419 -16.792 -12.763  1.00  0.00    -0.237 OA
ATOM     88  O   UNL     1      12.320 -18.068 -13.027  1.00  0.00    -0.237 OA
ATOM     89  O   UNL     1      13.308 -16.909 -14.963  1.00  0.00    -0.744 OA
ENDBRANCH  85  86
ENDBRANCH  59  80
ENDBRANCH  33  34
ENDBRANCH  25  28
ENDBRANCH  23  24
ENDBRANCH  22  23
ENDBRANCH  21  22
ENDBRANCH   1  21
TORSDOF 20
