REMARK SMILES Cc1cccc(-c2ncc(C[NH+]3CCC4(CC3)NC(=O)C[C@H]4C(=O)NCCCCNC(=O)c3ccc(-c4c5nc(c(-c6ccc(S(=O)(=O)[O-])cc6)c6ccc([nH]6)c(-c6ccc(S(=O)(=O)[O-])cc6)c6nc(c(-c7ccc(S(=O)(=O)[O-])cc7)c7ccc4[nH]7)C=C6)C=C5)cc3)cn2)c1
REMARK SMILES IDX 27 1 26 2 25 3 23 4 24 5 22 7 12 8 13 9 17 10 14 12 16 13
REMARK SMILES IDX 15 14 18 15 19 16 21 18 20 19 11 20 10 21 7 22 8 23 94 24
REMARK SMILES IDX 9 25 93 26 6 27 1 28 2 29 3 30 95 31 4 32 5 33 28 34 29 35
REMARK SMILES IDX 30 36 31 37 32 39 33 40 34 41 92 42 35 43 91 44 36 45 37 46
REMARK SMILES IDX 38 47 85 48 39 49 90 50 84 51 86 52 40 53 89 54 83 55 82 56
REMARK SMILES IDX 41 58 71 59 52 60 70 61 53 62 56 63 69 64 87 65 54 66 55 67
REMARK SMILES IDX 68 69 88 70 57 71 42 72 43 73 51 74 44 75 50 76 45 77 46 78
REMARK SMILES IDX 47 79 48 80 49 81 72 82 73 83 81 84 74 85 80 86 75 87 76 88
REMARK SMILES IDX 77 89 78 90 79 91 58 92 59 93 67 94 60 95 66 96 61 97 62 98
REMARK SMILES IDX 63 99 64 100 65 101
REMARK H PARENT 25 6 12 11 18 17 30 38 86 57 56 68
REMARK Flexibility Score: inf
ROOT
ATOM      1  C   UNL     1      -0.371   2.895  -2.757  1.00  0.00     0.023 C 
ENDROOT
BRANCH   1   2
ATOM      2  C   UNL     1       0.952   3.681  -2.860  1.00  0.00     0.116 C 
BRANCH   2   3
ATOM      3  N   UNL     1       0.847   5.101  -3.215  1.00  0.00    -0.356 N 
ATOM      4  C   UNL     1       0.834   6.279  -2.539  1.00  0.00     0.226 C 
ATOM      5  O   UNL     1       0.811   7.307  -3.231  1.00  0.00    -0.275 OA
ATOM      6  H   UNL     1       0.764   5.232  -4.187  1.00  0.00     0.163 HD
BRANCH   4   7
ATOM      7  C   UNL     1       0.776   6.447  -1.016  1.00  0.00     0.114 C 
ATOM      8  N   UNL     1      -3.195   6.966   0.202  1.00  0.00    -0.331 N 
ATOM      9  C   UNL     1      -2.108   7.407   1.062  1.00  0.00     0.264 C 
ATOM     10  C   UNL     1      -2.718   6.729  -1.149  1.00  0.00     0.264 C 
ATOM     11  H   UNL     1      -3.830   7.763   0.169  1.00  0.00     0.348 HD
ATOM     12  C   UNL     1      -0.815   6.585   1.033  1.00  0.00     0.091 C 
ATOM     13  C   UNL     1      -1.659   5.644  -1.215  1.00  0.00     0.091 C 
ATOM     14  C   UNL     1      -0.446   5.842  -0.291  1.00  0.00     0.063 C 
ATOM     15  N   UNL     1       0.124   4.576   0.151  1.00  0.00    -0.349 N 
ATOM     16  C   UNL     1       1.492   4.607   0.307  1.00  0.00     0.221 C 
ATOM     17  H   UNL     1      -0.419   3.772   0.322  1.00  0.00     0.164 HD
ATOM     18  C   UNL     1       2.013   5.867  -0.325  1.00  0.00     0.116 C 
ATOM     19  O   UNL     1       2.155   3.764   0.883  1.00  0.00    -0.275 OA
BRANCH   8  20
ATOM     20  C   UNL     1      -4.189   6.017   0.733  1.00  0.00     0.302 C 
BRANCH  20  21
ATOM     21  C   UNL     1      -3.797   4.574   0.843  1.00  0.00     0.043 A 
ATOM     22  C   UNL     1      -2.686   2.087   0.807  1.00  0.00     0.159 A 
ATOM     23  N   UNL     1      -2.393   2.902   1.841  1.00  0.00    -0.236 NA
ATOM     24  N   UNL     1      -3.582   2.385  -0.153  1.00  0.00    -0.236 NA
ATOM     25  C   UNL     1      -2.990   4.108   1.854  1.00  0.00     0.124 A 
ATOM     26  C   UNL     1      -4.114   3.626  -0.115  1.00  0.00     0.124 A 
BRANCH  22  27
ATOM     27  C   UNL     1      -1.843   0.892   0.639  1.00  0.00     0.019 A 
ATOM     28  C   UNL     1       1.839  -0.041   1.087  1.00  0.00     0.044 C 
ATOM     29  C   UNL     1       0.375  -0.169   0.788  1.00  0.00    -0.050 A 
ATOM     30  C   UNL     1      -0.162  -1.347   0.273  1.00  0.00     0.003 A 
ATOM     31  C   UNL     1      -0.474   0.928   0.987  1.00  0.00     0.015 A 
ATOM     32  C   UNL     1      -1.510  -1.411  -0.080  1.00  0.00     0.001 A 
ATOM     33  C   UNL     1      -2.340  -0.298   0.089  1.00  0.00     0.012 A 
ENDBRANCH  22  27
ENDBRANCH  20  21
ENDBRANCH   8  20
ENDBRANCH   4   7
ENDBRANCH   2   3
ENDBRANCH   1   2
BRANCH   1  34
ATOM     34  C   UNL     1      -1.336   3.025  -3.940  1.00  0.00     0.023 C 
BRANCH  34  35
ATOM     35  C   UNL     1      -0.853   2.279  -5.175  1.00  0.00     0.116 C 
BRANCH  35  36
ATOM     36  N   UNL     1      -1.558   1.035  -5.461  1.00  0.00    -0.352 N 
ATOM     37  C   UNL     1      -1.335   0.180  -6.535  1.00  0.00     0.251 C 
ATOM     38  H   UNL     1      -2.265   0.773  -4.828  1.00  0.00     0.163 HD
ATOM     39  O   UNL     1      -2.099  -0.711  -6.846  1.00  0.00    -0.269 OA
BRANCH  37  40
ATOM     40  C   UNL     1      -0.040   0.349  -7.234  1.00  0.00     0.039 A 
ATOM     41  C   UNL     1       0.951  -0.601  -6.963  1.00  0.00     0.014 A 
ATOM     42  C   UNL     1       0.273   1.584  -7.793  1.00  0.00     0.014 A 
ATOM     43  C   UNL     1       2.289  -0.231  -7.050  1.00  0.00     0.010 A 
ATOM     44  C   UNL     1       1.596   1.978  -7.789  1.00  0.00     0.010 A 
ATOM     45  C   UNL     1       2.597   1.091  -7.361  1.00  0.00    -0.014 A 
BRANCH  45  46
ATOM     46  C   UNL     1       3.935   1.659  -7.249  1.00  0.00     0.031 A 
ATOM     47  C   UNL     1       4.691   1.932  -8.499  1.00  0.00     0.074 A 
ATOM     48  C   UNL     1       4.445   2.013  -6.045  1.00  0.00     0.049 A 
ATOM     49  N   UNL     1       5.961   2.148  -8.562  1.00  0.00    -0.248 NA
ATOM     50  C   UNL     1       4.054   1.925  -9.816  1.00  0.00     0.031 C 
ATOM     51  C   UNL     1       5.626   2.850  -5.817  1.00  0.00     0.029 A 
ATOM     52  N   UNL     1       4.130   1.572  -4.756  1.00  0.00    -0.354 N 
ATOM     53  C   UNL     1       6.245   2.608  -9.830  1.00  0.00     0.074 A 
ATOM     54  C   UNL     1       5.051   2.349 -10.596  1.00  0.00     0.031 C 
ATOM     55  C   UNL     1       6.111   2.585  -4.594  1.00  0.00     0.029 A 
ATOM     56  C   UNL     1       5.364   1.446  -4.093  1.00  0.00     0.049 A 
ATOM     57  H   UNL     1       3.235   1.387  -4.391  1.00  0.00     0.167 HD
ATOM     58  C   UNL     1       7.405   3.292 -10.046  1.00  0.00     0.031 A 
ATOM     59  C   UNL     1       5.935   0.263  -3.705  1.00  0.00     0.031 A 
ATOM     60  C   UNL     1       8.287   3.223  -8.881  1.00  0.00     0.049 A 
ATOM     61  C   UNL     1       7.339   0.058  -4.261  1.00  0.00     0.074 A 
ATOM     62  C   UNL     1       8.583   4.107  -7.857  1.00  0.00     0.029 A 
ATOM     63  N   UNL     1       8.783   1.985  -8.489  1.00  0.00    -0.354 N 
ATOM     64  N   UNL     1       7.817   0.718  -5.281  1.00  0.00    -0.248 NA
ATOM     65  C   UNL     1       8.305  -0.913  -3.743  1.00  0.00     0.031 C 
ATOM     66  C   UNL     1       9.174   3.365  -6.797  1.00  0.00     0.029 A 
ATOM     67  C   UNL     1       9.271   2.043  -7.198  1.00  0.00     0.049 A 
ATOM     68  H   UNL     1       8.786   1.179  -9.053  1.00  0.00     0.167 HD
ATOM     69  C   UNL     1       9.097   0.310  -5.551  1.00  0.00     0.074 A 
ATOM     70  C   UNL     1       9.361  -0.712  -4.554  1.00  0.00     0.031 C 
ATOM     71  C   UNL     1       9.825   0.846  -6.576  1.00  0.00     0.031 A 
BRANCH  58  72
ATOM     72  C   UNL     1       7.609   4.253 -11.202  1.00  0.00    -0.014 A 
ATOM     73  C   UNL     1       8.562   5.287 -11.088  1.00  0.00     0.010 A 
ATOM     74  C   UNL     1       6.844   4.256 -12.383  1.00  0.00     0.010 A 
ATOM     75  C   UNL     1       8.675   6.310 -12.046  1.00  0.00     0.020 A 
ATOM     76  C   UNL     1       6.923   5.283 -13.335  1.00  0.00     0.020 A 
ATOM     77  C   UNL     1       7.832   6.315 -13.154  1.00  0.00     0.054 A 
BRANCH  77  78
ATOM     78  S   UNL     1       7.925   7.675 -14.346  1.00  0.00     0.124 S 
ATOM     79  O   UNL     1       7.658   8.844 -13.511  1.00  0.00    -0.237 OA
ATOM     80  O   UNL     1       9.290   7.558 -14.851  1.00  0.00    -0.237 OA
ATOM     81  O   UNL     1       6.877   7.361 -15.316  1.00  0.00    -0.744 OA
ENDBRANCH  77  78
ENDBRANCH  58  72
BRANCH  59  82
ATOM     82  C   UNL     1       4.962  -0.825  -3.409  1.00  0.00    -0.014 A 
ATOM     83  C   UNL     1       4.060  -0.606  -2.347  1.00  0.00     0.010 A 
ATOM     84  C   UNL     1       4.660  -1.813  -4.362  1.00  0.00     0.010 A 
ATOM     85  C   UNL     1       2.802  -1.208  -2.354  1.00  0.00     0.020 A 
ATOM     86  C   UNL     1       3.407  -2.450  -4.344  1.00  0.00     0.020 A 
ATOM     87  C   UNL     1       2.466  -2.092  -3.376  1.00  0.00     0.054 A 
BRANCH  87  88
ATOM     88  S   UNL     1       0.722  -2.585  -3.527  1.00  0.00     0.124 S 
ATOM     89  O   UNL     1       0.513  -3.369  -2.314  1.00  0.00    -0.237 OA
ATOM     90  O   UNL     1       0.050  -1.287  -3.572  1.00  0.00    -0.237 OA
ATOM     91  O   UNL     1       0.693  -3.342  -4.774  1.00  0.00    -0.744 OA
ENDBRANCH  87  88
ENDBRANCH  59  82
BRANCH  71  92
ATOM     92  C   UNL     1      11.158   0.347  -7.088  1.00  0.00    -0.014 A 
ATOM     93  C   UNL     1      11.625  -0.967  -6.935  1.00  0.00     0.010 A 
ATOM     94  C   UNL     1      11.932   1.208  -7.908  1.00  0.00     0.010 A 
ATOM     95  C   UNL     1      12.822  -1.389  -7.535  1.00  0.00     0.020 A 
ATOM     96  C   UNL     1      13.101   0.786  -8.546  1.00  0.00     0.020 A 
ATOM     97  C   UNL     1      13.551  -0.511  -8.339  1.00  0.00     0.054 A 
BRANCH  97  98
ATOM     98  S   UNL     1      15.040  -1.093  -9.189  1.00  0.00     0.124 S 
ATOM     99  O   UNL     1      16.075  -0.845  -8.188  1.00  0.00    -0.237 OA
ATOM    100  O   UNL     1      14.744  -2.501  -9.446  1.00  0.00    -0.237 OA
ATOM    101  O   UNL     1      15.105  -0.251 -10.381  1.00  0.00    -0.744 OA
ENDBRANCH  97  98
ENDBRANCH  71  92
ENDBRANCH  45  46
ENDBRANCH  37  40
ENDBRANCH  35  36
ENDBRANCH  34  35
ENDBRANCH   1  34
TORSDOF 17
