REMARK SMILES Cc1ccc([C@@H](C)Nc2ccc(N)cc2C(=O)NCCCCNC(=O)c2ccc(-c3c4nc(c(-c5ccc(S(=O)(=O)[O-])cc5)c5ccc([nH]5)c(-c5ccc(S(=O)(=O)[O-])cc5)c5nc(c(-c6ccc(S(=O)(=O)[O-])cc6)c6ccc3[nH]6)C=C5)C=C4)cc2)cc1F
REMARK SMILES IDX 20 1 19 2 18 3 16 4 17 5 15 7 9 8 10 9 11 10 14 11 12 12
REMARK SMILES IDX 8 13 6 15 7 16 5 17 1 18 2 19 3 20 87 21 4 22 86 23 88 24
REMARK SMILES IDX 13 25 21 28 22 29 23 30 24 31 25 33 26 34 27 35 85 36 28 37
REMARK SMILES IDX 84 38 29 39 30 40 31 41 78 42 32 43 83 44 77 45 79 46 33 47
REMARK SMILES IDX 82 48 76 49 75 50 34 52 64 53 45 54 63 55 46 56 49 57 62 58
REMARK SMILES IDX 80 59 47 60 48 61 61 63 81 64 50 65 35 66 36 67 44 68 37 69
REMARK SMILES IDX 43 70 38 71 39 72 40 73 41 74 42 75 65 76 66 77 74 78 67 79
REMARK SMILES IDX 73 80 68 81 69 82 70 83 71 84 72 85 51 86 52 87 60 88 53 89
REMARK SMILES IDX 59 90 54 91 55 92 56 93 57 94 58 95
REMARK H PARENT 18 6 8 14 13 26 13 27 23 32 79 51 49 62
REMARK Flexibility Score: inf
ROOT
ATOM      1  C   UNL     1      -0.501  -1.049   0.453  1.00  0.00     0.023 C 
ENDROOT
BRANCH   1   2
ATOM      2  C   UNL     1      -0.708  -2.770   0.566  1.00  0.00     0.116 C 
BRANCH   2   3
ATOM      3  N   UNL     1      -0.874  -3.590  -0.629  1.00  0.00    -0.352 N 
ATOM      4  C   UNL     1      -1.862  -4.479  -0.977  1.00  0.00     0.253 C 
ATOM      5  O   UNL     1      -1.887  -4.944  -2.116  1.00  0.00    -0.269 OA
ATOM      6  H   UNL     1      -0.159  -3.490  -1.298  1.00  0.00     0.163 HD
BRANCH   4   7
ATOM      7  C   UNL     1      -2.789  -5.003   0.048  1.00  0.00     0.065 A 
ATOM      8  C   UNL     1      -3.442  -4.230   1.014  1.00  0.00     0.048 A 
ATOM      9  C   UNL     1      -3.751  -4.909   2.208  1.00  0.00     0.028 A 
ATOM     10  C   UNL     1      -3.583  -6.297   2.352  1.00  0.00     0.027 A 
ATOM     11  C   UNL     1      -2.769  -6.413   0.129  1.00  0.00     0.041 A 
ATOM     12  C   UNL     1      -3.203  -7.076   1.268  1.00  0.00     0.032 A 
BRANCH   8  13
ATOM     13  N   UNL     1      -3.808  -2.899   0.924  1.00  0.00    -0.378 N 
ATOM     14  H   UNL     1      -4.144  -2.514   1.766  1.00  0.00     0.161 HD
BRANCH  13  15
ATOM     15  C   UNL     1      -3.784  -1.957  -0.203  1.00  0.00     0.106 C 
ATOM     16  C   UNL     1      -4.393  -2.484  -1.494  1.00  0.00     0.036 C 
BRANCH  15  17
ATOM     17  C   UNL     1      -2.480  -1.170  -0.220  1.00  0.00    -0.023 A 
ATOM     18  C   UNL     1       1.748   1.680   0.261  1.00  0.00     0.047 C 
ATOM     19  C   UNL     1       0.567   0.774   0.135  1.00  0.00    -0.015 A 
ATOM     20  C   UNL     1      -0.714   0.863   1.396  1.00  0.00     0.007 A 
ATOM     21  C   UNL     1       0.307  -0.254  -1.327  1.00  0.00     0.126 A 
ATOM     22  C   UNL     1      -2.204  -0.143   1.243  1.00  0.00     0.006 A 
ATOM     23  C   UNL     1      -1.213  -1.224  -1.514  1.00  0.00     0.045 A 
ATOM     24  F   UNL     1       1.267  -0.340  -2.256  1.00  0.00    -0.207 F 
ENDBRANCH  15  17
ENDBRANCH  13  15
ENDBRANCH   8  13
BRANCH  12  25
ATOM     25  N   UNL     1      -3.060  -8.450   1.378  1.00  0.00    -0.399 N 
ATOM     26  H   UNL     1      -3.370  -8.914   2.189  1.00  0.00     0.156 HD
ATOM     27  H   UNL     1      -2.648  -8.962   0.645  1.00  0.00     0.156 HD
ENDBRANCH  12  25
ENDBRANCH   4   7
ENDBRANCH   2   3
ENDBRANCH   1   2
BRANCH   1  28
ATOM     28  C   UNL     1      -1.454   0.629  -0.568  1.00  0.00     0.023 C 
BRANCH  28  29
ATOM     29  C   UNL     1      -2.963   1.398  -0.577  1.00  0.00     0.116 C 
BRANCH  29  30
ATOM     30  N   UNL     1      -3.240   2.315   0.537  1.00  0.00    -0.352 N 
ATOM     31  C   UNL     1      -3.009   3.663   0.656  1.00  0.00     0.251 C 
ATOM     32  H   UNL     1      -3.658   1.896   1.324  1.00  0.00     0.163 HD
ATOM     33  O   UNL     1      -2.931   4.176   1.769  1.00  0.00    -0.269 OA
BRANCH  31  34
ATOM     34  C   UNL     1      -2.904   4.492  -0.556  1.00  0.00     0.039 A 
ATOM     35  C   UNL     1      -1.994   5.551  -0.614  1.00  0.00     0.014 A 
ATOM     36  C   UNL     1      -3.759   4.230  -1.629  1.00  0.00     0.014 A 
ATOM     37  C   UNL     1      -1.910   6.312  -1.779  1.00  0.00     0.010 A 
ATOM     38  C   UNL     1      -3.590   4.904  -2.822  1.00  0.00     0.010 A 
ATOM     39  C   UNL     1      -2.688   5.971  -2.897  1.00  0.00    -0.014 A 
BRANCH  39  40
ATOM     40  C   UNL     1      -2.624   6.741  -4.157  1.00  0.00     0.031 A 
ATOM     41  C   UNL     1      -3.860   7.442  -4.649  1.00  0.00     0.074 A 
ATOM     42  C   UNL     1      -1.486   6.727  -4.875  1.00  0.00     0.049 A 
ATOM     43  N   UNL     1      -4.045   8.099  -5.763  1.00  0.00    -0.248 NA
ATOM     44  C   UNL     1      -5.062   7.358  -3.798  1.00  0.00     0.031 C 
ATOM     45  C   UNL     1      -0.256   6.024  -4.498  1.00  0.00     0.029 A 
ATOM     46  N   UNL     1      -1.178   7.316  -6.072  1.00  0.00    -0.354 N 
ATOM     47  C   UNL     1      -5.381   8.484  -5.752  1.00  0.00     0.074 A 
ATOM     48  C   UNL     1      -5.980   7.925  -4.564  1.00  0.00     0.031 C 
ATOM     49  C   UNL     1       0.687   6.262  -5.423  1.00  0.00     0.029 A 
ATOM     50  C   UNL     1       0.114   7.083  -6.482  1.00  0.00     0.049 A 
ATOM     51  H   UNL     1      -1.820   7.854  -6.589  1.00  0.00     0.167 HD
ATOM     52  C   UNL     1      -6.039   9.260  -6.643  1.00  0.00     0.031 A 
ATOM     53  C   UNL     1       0.755   7.488  -7.594  1.00  0.00     0.031 A 
ATOM     54  C   UNL     1      -5.412   9.811  -7.813  1.00  0.00     0.049 A 
ATOM     55  C   UNL     1      -0.000   8.343  -8.573  1.00  0.00     0.074 A 
ATOM     56  C   UNL     1      -5.952  10.656  -8.763  1.00  0.00     0.029 A 
ATOM     57  N   UNL     1      -4.098   9.566  -8.189  1.00  0.00    -0.354 N 
ATOM     58  N   UNL     1      -1.244   8.762  -8.513  1.00  0.00    -0.248 NA
ATOM     59  C   UNL     1       0.734   8.793  -9.761  1.00  0.00     0.031 C 
ATOM     60  C   UNL     1      -4.987  10.864  -9.752  1.00  0.00     0.029 A 
ATOM     61  C   UNL     1      -3.818  10.218  -9.375  1.00  0.00     0.049 A 
ATOM     62  H   UNL     1      -3.461   9.009  -7.686  1.00  0.00     0.167 HD
ATOM     63  C   UNL     1      -1.432   9.552  -9.640  1.00  0.00     0.074 A 
ATOM     64  C   UNL     1      -0.168   9.566 -10.351  1.00  0.00     0.031 C 
ATOM     65  C   UNL     1      -2.545  10.208 -10.054  1.00  0.00     0.031 A 
BRANCH  52  66
ATOM     66  C   UNL     1      -7.497   9.544  -6.386  1.00  0.00    -0.014 A 
ATOM     67  C   UNL     1      -7.911  10.305  -5.276  1.00  0.00     0.010 A 
ATOM     68  C   UNL     1      -8.470   9.066  -7.282  1.00  0.00     0.010 A 
ATOM     69  C   UNL     1      -9.268  10.546  -5.045  1.00  0.00     0.020 A 
ATOM     70  C   UNL     1      -9.826   9.336  -7.076  1.00  0.00     0.020 A 
ATOM     71  C   UNL     1     -10.217  10.063  -5.950  1.00  0.00     0.054 A 
BRANCH  71  72
ATOM     72  S   UNL     1     -11.967  10.427  -5.645  1.00  0.00     0.124 S 
ATOM     73  O   UNL     1     -12.243   9.617  -4.461  1.00  0.00    -0.237 OA
ATOM     74  O   UNL     1     -11.957  11.871  -5.429  1.00  0.00    -0.237 OA
ATOM     75  O   UNL     1     -12.633   9.986  -6.868  1.00  0.00    -0.744 OA
ENDBRANCH  71  72
ENDBRANCH  52  66
BRANCH  53  76
ATOM     76  C   UNL     1       2.176   7.106  -7.818  1.00  0.00    -0.014 A 
ATOM     77  C   UNL     1       3.193   8.078  -7.796  1.00  0.00     0.010 A 
ATOM     78  C   UNL     1       2.528   5.760  -8.031  1.00  0.00     0.010 A 
ATOM     79  C   UNL     1       4.527   7.715  -8.007  1.00  0.00     0.020 A 
ATOM     80  C   UNL     1       3.864   5.388  -8.207  1.00  0.00     0.020 A 
ATOM     81  C   UNL     1       4.854   6.372  -8.207  1.00  0.00     0.054 A 
BRANCH  81  82
ATOM     82  S   UNL     1       6.596   5.923  -8.439  1.00  0.00     0.124 S 
ATOM     83  O   UNL     1       6.886   6.496  -9.749  1.00  0.00    -0.237 OA
ATOM     84  O   UNL     1       7.242   6.578  -7.304  1.00  0.00    -0.237 OA
ATOM     85  O   UNL     1       6.585   4.463  -8.383  1.00  0.00    -0.744 OA
ENDBRANCH  81  82
ENDBRANCH  53  76
BRANCH  65  86
ATOM     86  C   UNL     1      -2.430  11.030 -11.309  1.00  0.00    -0.014 A 
ATOM     87  C   UNL     1      -2.284  10.427 -12.569  1.00  0.00     0.010 A 
ATOM     88  C   UNL     1      -2.537  12.431 -11.222  1.00  0.00     0.010 A 
ATOM     89  C   UNL     1      -2.209  11.214 -13.720  1.00  0.00     0.020 A 
ATOM     90  C   UNL     1      -2.503  13.217 -12.373  1.00  0.00     0.020 A 
ATOM     91  C   UNL     1      -2.324  12.604 -13.614  1.00  0.00     0.054 A 
BRANCH  91  92
ATOM     92  S   UNL     1      -2.274  13.597 -15.129  1.00  0.00     0.124 S 
ATOM     93  O   UNL     1      -0.877  13.464 -15.533  1.00  0.00    -0.237 OA
ATOM     94  O   UNL     1      -3.244  12.918 -15.985  1.00  0.00    -0.237 OA
ATOM     95  O   UNL     1      -2.669  14.931 -14.683  1.00  0.00    -0.744 OA
ENDBRANCH  91  92
ENDBRANCH  65  86
ENDBRANCH  39  40
ENDBRANCH  31  34
ENDBRANCH  29  30
ENDBRANCH  28  29
ENDBRANCH   1  28
TORSDOF 18
