REMARK SMILES C[C@@H](C(=O)NCCCCNC(=O)c1ccc(-c2c3nc(c(-c4ccc(S(=O)(=O)[O-])cc4)c4ccc([nH]4)c(-c4ccc(S(=O)(=O)[O-])cc4)c4nc(c(-c5ccc(S(=O)(=O)[O-])cc5)c5ccc2[nH]5)C=C4)C=C3)cc1)c1ccccc1-c1ccn(C(F)F)c(=O)c1
REMARK SMILES IDX 7 1 6 2 5 3 3 4 4 5 2 7 1 8 73 9 74 10 78 11 75 12 77 13
REMARK SMILES IDX 76 14 79 15 80 16 88 17 81 18 86 19 82 20 87 21 83 22 84 23
REMARK SMILES IDX 85 24 8 25 9 26 10 27 11 28 12 30 13 31 14 32 72 33 15 34
REMARK SMILES IDX 71 35 16 36 17 37 18 38 65 39 19 40 70 41 64 42 66 43 20 44
REMARK SMILES IDX 69 45 63 46 62 47 21 49 51 50 32 51 50 52 33 53 36 54 49 55
REMARK SMILES IDX 67 56 34 57 35 58 48 60 68 61 37 62 22 63 23 64 31 65 24 66
REMARK SMILES IDX 30 67 25 68 26 69 27 70 28 71 29 72 52 73 53 74 61 75 54 76
REMARK SMILES IDX 60 77 55 78 56 79 57 80 58 81 59 82 38 83 39 84 47 85 40 86
REMARK SMILES IDX 46 87 41 88 42 89 43 90 44 91 45 92
REMARK H PARENT 5 6 10 29 66 48 36 59
REMARK Flexibility Score: inf
ROOT
ATOM      1  C   UNL     1       4.321  -1.055   0.487  1.00  0.00     0.023 C 
ENDROOT
BRANCH   1   2
ATOM      2  C   UNL     1       3.390  -1.896  -0.392  1.00  0.00     0.116 C 
BRANCH   2   3
ATOM      3  N   UNL     1       2.331  -2.445   0.432  1.00  0.00    -0.356 N 
ATOM      4  C   UNL     1       1.095  -1.905   0.664  1.00  0.00     0.227 C 
ATOM      5  O   UNL     1       0.579  -2.108   1.765  1.00  0.00    -0.274 OA
ATOM      6  H   UNL     1       2.522  -3.303   0.875  1.00  0.00     0.163 HD
BRANCH   4   7
ATOM      7  C   UNL     1       0.407  -1.110  -0.450  1.00  0.00     0.106 C 
ATOM      8  C   UNL     1       0.844   0.356  -0.283  1.00  0.00     0.023 C 
BRANCH   7   9
ATOM      9  C   UNL     1      -1.118  -1.337  -0.472  1.00  0.00    -0.028 A 
ATOM     10  C   UNL     1      -1.997  -0.235  -0.396  1.00  0.00     0.005 A 
ATOM     11  C   UNL     1      -1.697  -2.631  -0.590  1.00  0.00    -0.014 A 
ATOM     12  C   UNL     1      -3.384  -0.395  -0.388  1.00  0.00     0.000 A 
ATOM     13  C   UNL     1      -3.099  -2.773  -0.547  1.00  0.00     0.009 A 
ATOM     14  C   UNL     1      -3.936  -1.665  -0.446  1.00  0.00     0.001 A 
BRANCH  11  15
ATOM     15  C   UNL     1      -0.927  -3.878  -0.808  1.00  0.00    -0.011 A 
ATOM     16  C   UNL     1      -0.299  -4.641   0.253  1.00  0.00     0.027 A 
ATOM     17  C   UNL     1      -0.864  -4.353  -2.064  1.00  0.00     0.080 A 
ATOM     18  C   UNL     1       0.470  -5.699  -0.029  1.00  0.00     0.095 A 
ATOM     19  C   UNL     1      -0.100  -5.591  -2.381  1.00  0.00     0.255 A 
ATOM     20  N   UNL     1       0.610  -6.147  -1.329  1.00  0.00    -0.258 N 
ATOM     21  O   UNL     1      -0.131  -6.017  -3.531  1.00  0.00    -0.269 OA
BRANCH  20  22
ATOM     22  C   UNL     1       1.450  -7.279  -1.626  1.00  0.00     0.451 C 
ATOM     23  F   UNL     1       0.703  -8.361  -1.951  1.00  0.00    -0.185 F 
ATOM     24  F   UNL     1       2.280  -7.013  -2.665  1.00  0.00    -0.185 F 
ENDBRANCH  20  22
ENDBRANCH  11  15
ENDBRANCH   7   9
ENDBRANCH   4   7
ENDBRANCH   2   3
ENDBRANCH   1   2
BRANCH   1  25
ATOM     25  C   UNL     1       5.138  -1.875   1.494  1.00  0.00     0.023 C 
BRANCH  25  26
ATOM     26  C   UNL     1       6.095  -2.887   0.871  1.00  0.00     0.116 C 
BRANCH  26  27
ATOM     27  N   UNL     1       7.057  -2.258  -0.016  1.00  0.00    -0.352 N 
ATOM     28  C   UNL     1       8.404  -2.481  -0.143  1.00  0.00     0.251 C 
ATOM     29  H   UNL     1       6.687  -1.570  -0.615  1.00  0.00     0.163 HD
ATOM     30  O   UNL     1       9.076  -1.718  -0.831  1.00  0.00    -0.269 OA
BRANCH  28  31
ATOM     31  C   UNL     1       9.048  -3.611   0.561  1.00  0.00     0.039 A 
ATOM     32  C   UNL     1      10.290  -3.395   1.162  1.00  0.00     0.014 A 
ATOM     33  C   UNL     1       8.457  -4.877   0.611  1.00  0.00     0.014 A 
ATOM     34  C   UNL     1      10.915  -4.434   1.853  1.00  0.00     0.010 A 
ATOM     35  C   UNL     1       9.049  -5.894   1.360  1.00  0.00     0.010 A 
ATOM     36  C   UNL     1      10.286  -5.684   1.986  1.00  0.00    -0.014 A 
BRANCH  36  37
ATOM     37  C   UNL     1      10.916  -6.757   2.796  1.00  0.00     0.031 A 
ATOM     38  C   UNL     1      11.388  -8.034   2.154  1.00  0.00     0.074 A 
ATOM     39  C   UNL     1      11.049  -6.582   4.126  1.00  0.00     0.049 A 
ATOM     40  N   UNL     1      11.991  -9.056   2.706  1.00  0.00    -0.248 NA
ATOM     41  C   UNL     1      11.134  -8.194   0.713  1.00  0.00     0.031 C 
ATOM     42  C   UNL     1      10.578  -5.414   4.877  1.00  0.00     0.029 A 
ATOM     43  N   UNL     1      11.624  -7.378   5.083  1.00  0.00    -0.354 N 
ATOM     44  C   UNL     1      12.193  -9.976   1.683  1.00  0.00     0.074 A 
ATOM     45  C   UNL     1      11.595  -9.417   0.490  1.00  0.00     0.031 C 
ATOM     46  C   UNL     1      10.914  -5.555   6.168  1.00  0.00     0.029 A 
ATOM     47  C   UNL     1      11.596  -6.833   6.345  1.00  0.00     0.049 A 
ATOM     48  H   UNL     1      12.020  -8.258   4.885  1.00  0.00     0.167 HD
ATOM     49  C   UNL     1      12.841 -11.165   1.726  1.00  0.00     0.031 A 
ATOM     50  C   UNL     1      12.068  -7.305   7.515  1.00  0.00     0.031 A 
ATOM     51  C   UNL     1      13.436 -11.721   2.914  1.00  0.00     0.049 A 
ATOM     52  C   UNL     1      12.790  -8.624   7.533  1.00  0.00     0.074 A 
ATOM     53  C   UNL     1      14.145 -12.902   3.051  1.00  0.00     0.029 A 
ATOM     54  N   UNL     1      13.395 -11.134   4.170  1.00  0.00    -0.354 N 
ATOM     55  N   UNL     1      13.027  -9.447   6.540  1.00  0.00    -0.248 NA
ATOM     56  C   UNL     1      13.325  -9.066   8.827  1.00  0.00     0.031 C 
ATOM     57  C   UNL     1      14.493 -13.052   4.398  1.00  0.00     0.029 A 
ATOM     58  C   UNL     1      14.050 -11.936   5.090  1.00  0.00     0.049 A 
ATOM     59  H   UNL     1      12.963 -10.274   4.377  1.00  0.00     0.167 HD
ATOM     60  C   UNL     1      13.753 -10.498   7.087  1.00  0.00     0.074 A 
ATOM     61  C   UNL     1      13.944 -10.189   8.490  1.00  0.00     0.031 C 
ATOM     62  C   UNL     1      14.216 -11.623   6.486  1.00  0.00     0.031 A 
BRANCH  49  63
ATOM     63  C   UNL     1      12.955 -11.944   0.441  1.00  0.00    -0.014 A 
ATOM     64  C   UNL     1      13.790 -11.497  -0.600  1.00  0.00     0.010 A 
ATOM     65  C   UNL     1      12.270 -13.164   0.291  1.00  0.00     0.010 A 
ATOM     66  C   UNL     1      13.915 -12.239  -1.777  1.00  0.00     0.020 A 
ATOM     67  C   UNL     1      12.414 -13.923  -0.875  1.00  0.00     0.020 A 
ATOM     68  C   UNL     1      13.226 -13.448  -1.907  1.00  0.00     0.054 A 
BRANCH  68  69
ATOM     69  S   UNL     1      13.442 -14.410  -3.430  1.00  0.00     0.124 S 
ATOM     70  O   UNL     1      12.699 -13.609  -4.399  1.00  0.00    -0.237 OA
ATOM     71  O   UNL     1      14.893 -14.416  -3.601  1.00  0.00    -0.237 OA
ATOM     72  O   UNL     1      12.850 -15.707  -3.109  1.00  0.00    -0.744 OA
ENDBRANCH  68  69
ENDBRANCH  49  63
BRANCH  50  73
ATOM     73  C   UNL     1      11.880  -6.519   8.765  1.00  0.00    -0.014 A 
ATOM     74  C   UNL     1      12.974  -5.915   9.409  1.00  0.00     0.010 A 
ATOM     75  C   UNL     1      10.595  -6.375   9.321  1.00  0.00     0.010 A 
ATOM     76  C   UNL     1      12.791  -5.208  10.602  1.00  0.00     0.020 A 
ATOM     77  C   UNL     1      10.404  -5.644  10.496  1.00  0.00     0.020 A 
ATOM     78  C   UNL     1      11.507  -5.078  11.138  1.00  0.00     0.054 A 
BRANCH  78  79
ATOM     79  S   UNL     1      11.285  -4.128  12.668  1.00  0.00     0.124 S 
ATOM     80  O   UNL     1      11.795  -5.053  13.675  1.00  0.00    -0.237 OA
ATOM     81  O   UNL     1      12.102  -2.942  12.425  1.00  0.00    -0.237 OA
ATOM     82  O   UNL     1       9.845  -3.884  12.711  1.00  0.00    -0.744 OA
ENDBRANCH  78  79
ENDBRANCH  50  73
BRANCH  62  83
ATOM     83  C   UNL     1      14.986 -12.589   7.347  1.00  0.00    -0.014 A 
ATOM     84  C   UNL     1      14.344 -13.346   8.344  1.00  0.00     0.010 A 
ATOM     85  C   UNL     1      16.371 -12.745   7.153  1.00  0.00     0.010 A 
ATOM     86  C   UNL     1      15.082 -14.199   9.169  1.00  0.00     0.020 A 
ATOM     87  C   UNL     1      17.107 -13.621   7.955  1.00  0.00     0.020 A 
ATOM     88  C   UNL     1      16.461 -14.324   8.974  1.00  0.00     0.054 A 
BRANCH  88  89
ATOM     89  S   UNL     1      17.398 -15.436  10.058  1.00  0.00     0.124 S 
ATOM     90  O   UNL     1      17.467 -14.665  11.296  1.00  0.00    -0.237 OA
ATOM     91  O   UNL     1      16.553 -16.628  10.105  1.00  0.00    -0.237 OA
ATOM     92  O   UNL     1      18.670 -15.609   9.359  1.00  0.00    -0.744 OA
ENDBRANCH  88  89
ENDBRANCH  62  83
ENDBRANCH  36  37
ENDBRANCH  28  31
ENDBRANCH  26  27
ENDBRANCH  25  26
ENDBRANCH   1  25
TORSDOF 17
