REMARK SMILES CC(C)(C)[C@H](CCC(=O)NCCCCNC(=O)c1ccc(-c2c3nc(c(-c4ccc(S(=O)(=O)[O-])cc4)c4ccc([nH]4)c(-c4ccc(S(=O)(=O)[O-])cc4)c4nc(c(-c5ccc(S(=O)(=O)[O-])cc5)c5ccc2[nH]5)C=C4)C=C3)cc1)CC[NH+]1CCOCC1
REMARK SMILES IDX 11 1 10 2 8 3 9 4 7 6 6 7 5 8 2 9 1 10 3 11 4 12 78 13 79 14
REMARK SMILES IDX 80 15 81 16 85 17 82 19 84 20 83 21 12 22 13 23 14 24 15 25
REMARK SMILES IDX 16 26 17 28 18 29 19 30 77 31 20 32 76 33 21 34 22 35 23 36
REMARK SMILES IDX 70 37 24 38 75 39 69 40 71 41 25 42 74 43 68 44 67 45 26 47
REMARK SMILES IDX 56 48 37 49 55 50 38 51 41 52 54 53 72 54 39 55 40 56 53 58
REMARK SMILES IDX 73 59 42 60 27 61 28 62 36 63 29 64 35 65 30 66 31 67 32 68
REMARK SMILES IDX 33 69 34 70 57 71 58 72 66 73 59 74 65 75 60 76 61 77 62 78
REMARK SMILES IDX 63 79 64 80 43 81 44 82 52 83 45 84 51 85 46 86 47 87 48 88
REMARK SMILES IDX 49 89 50 90
REMARK H PARENT 10 5 80 18 15 27 71 46 41 57
REMARK Flexibility Score: inf
ROOT
ATOM      1  C   UNL     1      -0.111  -4.275   0.611  1.00  0.00     0.116 C 
ENDROOT
BRANCH   1   2
ATOM      2  N   UNL     1      -1.283  -3.751   1.309  1.00  0.00    -0.356 N 
ATOM      3  C   UNL     1      -1.578  -2.514   1.780  1.00  0.00     0.220 C 
ATOM      4  O   UNL     1      -2.233  -2.476   2.828  1.00  0.00    -0.275 OA
ATOM      5  H   UNL     1      -1.988  -4.420   1.468  1.00  0.00     0.163 HD
BRANCH   3   6
ATOM      6  C   UNL     1      -1.337  -1.226   0.992  1.00  0.00     0.100 C 
BRANCH   6   7
ATOM      7  C   UNL     1       0.051  -0.621   0.705  1.00  0.00     0.014 C 
BRANCH   7   8
ATOM      8  C   UNL     1       1.033  -1.416  -0.178  1.00  0.00     0.000 C 
BRANCH   8   9
ATOM      9  C   UNL     1       0.739  -1.648  -1.762  1.00  0.00    -0.035 C 
ATOM     10  C   UNL     1       1.673  -0.811  -2.636  1.00  0.00     0.011 C 
ATOM     11  C   UNL     1      -0.728  -1.348  -2.136  1.00  0.00     0.011 C 
ATOM     12  C   UNL     1       0.971  -3.119  -2.277  1.00  0.00     0.011 C 
ENDBRANCH   8   9
BRANCH   8  13
ATOM     13  C   UNL     1       2.527  -1.249   0.316  1.00  0.00     0.065 C 
BRANCH  13  14
ATOM     14  C   UNL     1       2.940  -1.522   1.887  1.00  0.00     0.262 C 
BRANCH  14  15
ATOM     15  N   UNL     1       3.198  -2.889   2.520  1.00  0.00    -0.331 N 
ATOM     16  C   UNL     1       3.851  -3.810   1.375  1.00  0.00     0.291 C 
ATOM     17  C   UNL     1       1.913  -3.564   3.552  1.00  0.00     0.291 C 
ATOM     18  H   UNL     1       3.873  -2.811   3.281  1.00  0.00     0.348 HD
ATOM     19  C   UNL     1       2.923  -5.212   0.519  1.00  0.00     0.221 C 
ATOM     20  C   UNL     1       0.749  -5.044   2.971  1.00  0.00     0.221 C 
ATOM     21  O   UNL     1       1.284  -5.823   1.304  1.00  0.00    -0.370 OA
ENDBRANCH  14  15
ENDBRANCH  13  14
ENDBRANCH   8  13
ENDBRANCH   7   8
ENDBRANCH   6   7
ENDBRANCH   3   6
ENDBRANCH   1   2
BRANCH   1  22
ATOM     22  C   UNL     1       1.503  -3.994   1.438  1.00  0.00     0.023 C 
BRANCH  22  23
ATOM     23  C   UNL     1       2.672  -5.422   2.540  1.00  0.00     0.023 C 
BRANCH  23  24
ATOM     24  C   UNL     1       2.579  -7.239   2.208  1.00  0.00     0.116 C 
BRANCH  24  25
ATOM     25  N   UNL     1       2.547  -7.652   0.745  1.00  0.00    -0.352 N 
ATOM     26  C   UNL     1       3.506  -8.329   0.039  1.00  0.00     0.251 C 
ATOM     27  H   UNL     1       1.738  -7.401   0.243  1.00  0.00     0.163 HD
ATOM     28  O   UNL     1       3.937  -8.012  -1.057  1.00  0.00    -0.269 OA
BRANCH  26  29
ATOM     29  C   UNL     1       3.846  -9.558   0.719  1.00  0.00     0.039 A 
ATOM     30  C   UNL     1       5.148  -9.867   1.084  1.00  0.00     0.014 A 
ATOM     31  C   UNL     1       2.715 -10.189   1.246  1.00  0.00     0.014 A 
ATOM     32  C   UNL     1       5.304 -10.834   2.062  1.00  0.00     0.010 A 
ATOM     33  C   UNL     1       2.874 -10.964   2.349  1.00  0.00     0.010 A 
ATOM     34  C   UNL     1       4.166 -11.347   2.715  1.00  0.00    -0.014 A 
BRANCH  34  35
ATOM     35  C   UNL     1       4.241 -12.355   3.772  1.00  0.00     0.031 A 
ATOM     36  C   UNL     1       3.509 -13.649   3.560  1.00  0.00     0.074 A 
ATOM     37  C   UNL     1       4.842 -12.038   4.930  1.00  0.00     0.049 A 
ATOM     38  N   UNL     1       3.326 -14.627   4.400  1.00  0.00    -0.248 NA
ATOM     39  C   UNL     1       2.835 -13.844   2.257  1.00  0.00     0.031 C 
ATOM     40  C   UNL     1       5.504 -10.765   5.233  1.00  0.00     0.029 A 
ATOM     41  N   UNL     1       4.989 -12.772   6.070  1.00  0.00    -0.354 N 
ATOM     42  C   UNL     1       2.506 -15.529   3.738  1.00  0.00     0.074 A 
ATOM     43  C   UNL     1       2.136 -14.944   2.475  1.00  0.00     0.031 C 
ATOM     44  C   UNL     1       6.045 -10.837   6.458  1.00  0.00     0.029 A 
ATOM     45  C   UNL     1       5.710 -12.129   7.044  1.00  0.00     0.049 A 
ATOM     46  H   UNL     1       4.614 -13.676   6.183  1.00  0.00     0.167 HD
ATOM     47  C   UNL     1       2.131 -16.762   4.136  1.00  0.00     0.031 A 
ATOM     48  C   UNL     1       6.053 -12.550   8.273  1.00  0.00     0.031 A 
ATOM     49  C   UNL     1       2.536 -17.327   5.389  1.00  0.00     0.049 A 
ATOM     50  C   UNL     1       5.616 -13.925   8.696  1.00  0.00     0.074 A 
ATOM     51  C   UNL     1       2.282 -18.591   5.882  1.00  0.00     0.029 A 
ATOM     52  N   UNL     1       3.281 -16.656   6.349  1.00  0.00    -0.354 N 
ATOM     53  N   UNL     1       4.917 -14.812   8.026  1.00  0.00    -0.248 NA
ATOM     54  C   UNL     1       6.026 -14.361  10.034  1.00  0.00     0.031 C 
ATOM     55  C   UNL     1       2.804 -18.657   7.175  1.00  0.00     0.029 A 
ATOM     56  C   UNL     1       3.464 -17.468   7.451  1.00  0.00     0.049 A 
ATOM     57  H   UNL     1       3.627 -15.738   6.258  1.00  0.00     0.167 HD
ATOM     58  C   UNL     1       4.832 -15.927   8.850  1.00  0.00     0.074 A 
ATOM     59  C   UNL     1       5.569 -15.605  10.057  1.00  0.00     0.031 C 
ATOM     60  C   UNL     1       4.205 -17.111   8.635  1.00  0.00     0.031 A 
BRANCH  47  61
ATOM     61  C   UNL     1       1.253 -17.559   3.211  1.00  0.00    -0.014 A 
ATOM     62  C   UNL     1       1.712 -17.990   1.951  1.00  0.00     0.010 A 
ATOM     63  C   UNL     1      -0.045 -17.906   3.620  1.00  0.00     0.010 A 
ATOM     64  C   UNL     1       0.878 -18.725   1.107  1.00  0.00     0.020 A 
ATOM     65  C   UNL     1      -0.869 -18.675   2.796  1.00  0.00     0.020 A 
ATOM     66  C   UNL     1      -0.405 -19.071   1.540  1.00  0.00     0.054 A 
BRANCH  66  67
ATOM     67  S   UNL     1      -1.443 -20.077   0.447  1.00  0.00     0.124 S 
ATOM     68  O   UNL     1      -1.719 -19.149  -0.647  1.00  0.00    -0.237 OA
ATOM     69  O   UNL     1      -0.562 -21.194   0.117  1.00  0.00    -0.237 OA
ATOM     70  O   UNL     1      -2.595 -20.418   1.279  1.00  0.00    -0.744 OA
ENDBRANCH  66  67
ENDBRANCH  47  61
BRANCH  48  71
ATOM     71  C   UNL     1       6.865 -11.678   9.160  1.00  0.00    -0.014 A 
ATOM     72  C   UNL     1       8.179 -12.038   9.506  1.00  0.00     0.010 A 
ATOM     73  C   UNL     1       6.335 -10.471   9.651  1.00  0.00     0.010 A 
ATOM     74  C   UNL     1       8.936 -11.224  10.353  1.00  0.00     0.020 A 
ATOM     75  C   UNL     1       7.102  -9.636  10.466  1.00  0.00     0.020 A 
ATOM     76  C   UNL     1       8.393 -10.026  10.824  1.00  0.00     0.054 A 
BRANCH  76  77
ATOM     77  S   UNL     1       9.409  -8.970  11.892  1.00  0.00     0.124 S 
ATOM     78  O   UNL     1       9.506  -9.771  13.108  1.00  0.00    -0.237 OA
ATOM     79  O   UNL     1      10.641  -8.840  11.118  1.00  0.00    -0.237 OA
ATOM     80  O   UNL     1       8.623  -7.744  12.010  1.00  0.00    -0.744 OA
ENDBRANCH  76  77
ENDBRANCH  48  71
BRANCH  60  81
ATOM     81  C   UNL     1       4.330 -18.160   9.706  1.00  0.00    -0.014 A 
ATOM     82  C   UNL     1       3.707 -18.010  10.957  1.00  0.00     0.010 A 
ATOM     83  C   UNL     1       5.031 -19.347   9.423  1.00  0.00     0.010 A 
ATOM     84  C   UNL     1       3.817 -19.013  11.921  1.00  0.00     0.020 A 
ATOM     85  C   UNL     1       5.106 -20.370  10.367  1.00  0.00     0.020 A 
ATOM     86  C   UNL     1       4.511 -20.189  11.617  1.00  0.00     0.054 A 
BRANCH  86  87
ATOM     87  S   UNL     1       4.594 -21.495  12.869  1.00  0.00     0.124 S 
ATOM     88  O   UNL     1       5.457 -20.891  13.881  1.00  0.00    -0.237 OA
ATOM     89  O   UNL     1       3.194 -21.657  13.251  1.00  0.00    -0.237 OA
ATOM     90  O   UNL     1       5.175 -22.628  12.153  1.00  0.00    -0.744 OA
ENDBRANCH  86  87
ENDBRANCH  60  81
ENDBRANCH  34  35
ENDBRANCH  26  29
ENDBRANCH  24  25
ENDBRANCH  23  24
ENDBRANCH  22  23
ENDBRANCH   1  22
TORSDOF 20
