REMARK SMILES CC(C)[C@@H](Nc1cc(Cl)c(Cl)cc1[N+](=O)[O-])C(=O)NCCCCNC(=O)c1ccc(-c2c3nc(c(-c4ccc(S(=O)(=O)[O-])cc4)c4ccc([nH]4)c(-c4ccc(S(=O)(=O)[O-])cc4)c4nc(c(-c5ccc(S(=O)(=O)[O-])cc5)c5ccc2[nH]5)C=C4)C=C3)cc1
REMARK SMILES IDX 21 1 20 2 19 3 17 4 18 5 4 7 2 8 1 9 3 10 5 11 6 13 7 14
REMARK SMILES IDX 13 15 8 16 12 17 9 18 10 19 11 20 14 21 15 22 16 23 22 24
REMARK SMILES IDX 23 25 24 26 25 27 26 29 27 30 28 31 86 32 29 33 85 34 30 35
REMARK SMILES IDX 31 36 32 37 79 38 33 39 84 40 78 41 80 42 34 43 83 44 77 45
REMARK SMILES IDX 76 46 35 48 65 49 46 50 64 51 47 52 50 53 63 54 81 55 48 56
REMARK SMILES IDX 49 57 62 59 82 60 51 61 36 62 37 63 45 64 38 65 44 66 39 67
REMARK SMILES IDX 40 68 41 69 42 70 43 71 66 72 67 73 75 74 68 75 74 76 69 77
REMARK SMILES IDX 70 78 71 79 72 80 73 81 52 82 53 83 61 84 54 85 60 86 55 87
REMARK SMILES IDX 56 88 57 89 58 90 59 91
REMARK H PARENT 19 6 5 12 24 28 80 47 50 58
REMARK Flexibility Score: inf
ROOT
ATOM      1  C   UNL     1       1.194  -0.866   4.686  1.00  0.00     0.023 C 
ENDROOT
BRANCH   1   2
ATOM      2  C   UNL     1      -0.112  -1.054   3.931  1.00  0.00     0.116 C 
BRANCH   2   3
ATOM      3  N   UNL     1      -0.870   0.180   3.864  1.00  0.00    -0.354 N 
ATOM      4  C   UNL     1      -1.287   0.884   2.770  1.00  0.00     0.242 C 
ATOM      5  O   UNL     1      -1.947   1.909   2.961  1.00  0.00    -0.273 OA
ATOM      6  H   UNL     1      -1.121   0.567   4.734  1.00  0.00     0.163 HD
BRANCH   4   7
ATOM      7  C   UNL     1      -0.947   0.417   1.329  1.00  0.00     0.171 C 
BRANCH   7   8
ATOM      8  C   UNL     1       0.587   0.549   1.074  1.00  0.00     0.015 C 
ATOM      9  C   UNL     1       0.992   0.217  -0.366  1.00  0.00     0.010 C 
ATOM     10  C   UNL     1       1.106   1.954   1.416  1.00  0.00     0.010 C 
ENDBRANCH   7   8
BRANCH   7  11
ATOM     11  N   UNL     1      -1.429  -0.957   1.030  1.00  0.00    -0.368 N 
ATOM     12  H   UNL     1      -0.997  -1.413   0.273  1.00  0.00     0.161 HD
BRANCH  11  13
ATOM     13  C   UNL     1      -2.417  -1.675   1.693  1.00  0.00     0.115 A 
ATOM     14  C   UNL     1      -3.516  -1.024   2.280  1.00  0.00     0.055 A 
ATOM     15  C   UNL     1      -2.281  -3.061   1.961  1.00  0.00     0.293 A 
ATOM     16  C   UNL     1      -4.376  -1.678   3.174  1.00  0.00     0.062 A 
ATOM     17  C   UNL     1      -3.141  -3.725   2.856  1.00  0.00     0.110 A 
ATOM     18  Cl  UNL     1      -5.641  -0.751   3.898  1.00  0.00    -0.083 Cl
ATOM     19  C   UNL     1      -4.171  -3.024   3.480  1.00  0.00     0.066 A 
ATOM     20  Cl  UNL     1      -5.136  -3.874   4.631  1.00  0.00    -0.082 Cl
BRANCH  15  21
ATOM     21  N   UNL     1      -1.183  -3.848   1.369  1.00  0.00     0.065 N 
ATOM     22  O   UNL     1      -0.930  -4.950   1.875  1.00  0.00    -0.258 OA
ATOM     23  O   UNL     1      -0.572  -3.373   0.400  1.00  0.00    -0.258 OA
ENDBRANCH  15  21
ENDBRANCH  11  13
ENDBRANCH   7  11
ENDBRANCH   4   7
ENDBRANCH   2   3
ENDBRANCH   1   2
BRANCH   1  24
ATOM     24  C   UNL     1       1.010  -0.652   6.187  1.00  0.00     0.023 C 
BRANCH  24  25
ATOM     25  C   UNL     1       0.211  -1.741   6.895  1.00  0.00     0.116 C 
BRANCH  25  26
ATOM     26  N   UNL     1       0.780  -3.068   6.712  1.00  0.00    -0.352 N 
ATOM     27  C   UNL     1       0.992  -4.045   7.653  1.00  0.00     0.251 C 
ATOM     28  H   UNL     1       1.049  -3.295   5.792  1.00  0.00     0.163 HD
ATOM     29  O   UNL     1       1.633  -5.051   7.364  1.00  0.00    -0.269 OA
BRANCH  27  30
ATOM     30  C   UNL     1       0.470  -3.856   9.021  1.00  0.00     0.039 A 
ATOM     31  C   UNL     1       1.316  -4.094  10.105  1.00  0.00     0.014 A 
ATOM     32  C   UNL     1      -0.839  -3.410   9.229  1.00  0.00     0.014 A 
ATOM     33  C   UNL     1       0.865  -3.830  11.399  1.00  0.00     0.010 A 
ATOM     34  C   UNL     1      -1.256  -3.069  10.511  1.00  0.00     0.010 A 
ATOM     35  C   UNL     1      -0.412  -3.283  11.610  1.00  0.00    -0.014 A 
BRANCH  35  36
ATOM     36  C   UNL     1      -0.876  -2.933  12.977  1.00  0.00     0.031 A 
ATOM     37  C   UNL     1      -2.063  -3.638  13.578  1.00  0.00     0.074 A 
ATOM     38  C   UNL     1      -0.253  -1.952  13.661  1.00  0.00     0.049 A 
ATOM     39  N   UNL     1      -2.615  -3.465  14.751  1.00  0.00    -0.248 NA
ATOM     40  C   UNL     1      -2.730  -4.652  12.746  1.00  0.00     0.031 C 
ATOM     41  C   UNL     1       0.878  -1.162  13.168  1.00  0.00     0.029 A 
ATOM     42  N   UNL     1      -0.481  -1.453  14.919  1.00  0.00    -0.354 N 
ATOM     43  C   UNL     1      -3.697  -4.337  14.793  1.00  0.00     0.074 A 
ATOM     44  C   UNL     1      -3.759  -4.994  13.507  1.00  0.00     0.031 C 
ATOM     45  C   UNL     1       1.268  -0.307  14.127  1.00  0.00     0.029 A 
ATOM     46  C   UNL     1       0.392  -0.456  15.284  1.00  0.00     0.049 A 
ATOM     47  H   UNL     1      -1.203  -1.779  15.504  1.00  0.00     0.167 HD
ATOM     48  C   UNL     1      -4.548  -4.586  15.816  1.00  0.00     0.031 A 
ATOM     49  C   UNL     1       0.480   0.259  16.423  1.00  0.00     0.031 A 
ATOM     50  C   UNL     1      -4.480  -3.932  17.097  1.00  0.00     0.049 A 
ATOM     51  C   UNL     1      -0.484  -0.029  17.542  1.00  0.00     0.074 A 
ATOM     52  C   UNL     1      -5.262  -4.152  18.217  1.00  0.00     0.029 A 
ATOM     53  N   UNL     1      -3.581  -2.929  17.427  1.00  0.00    -0.354 N 
ATOM     54  N   UNL     1      -1.455  -0.910  17.588  1.00  0.00    -0.248 NA
ATOM     55  C   UNL     1      -0.329   0.763  18.769  1.00  0.00     0.031 C 
ATOM     56  C   UNL     1      -4.875  -3.240  19.205  1.00  0.00     0.029 A 
ATOM     57  C   UNL     1      -3.806  -2.500  18.725  1.00  0.00     0.049 A 
ATOM     58  H   UNL     1      -2.886  -2.574  16.828  1.00  0.00     0.167 HD
ATOM     59  C   UNL     1      -2.008  -0.797  18.859  1.00  0.00     0.074 A 
ATOM     60  C   UNL     1      -1.250   0.223  19.555  1.00  0.00     0.031 C 
ATOM     61  C   UNL     1      -3.048  -1.478  19.402  1.00  0.00     0.031 A 
BRANCH  48  62
ATOM     62  C   UNL     1      -5.632  -5.608  15.588  1.00  0.00    -0.014 A 
ATOM     63  C   UNL     1      -5.326  -6.974  15.441  1.00  0.00     0.010 A 
ATOM     64  C   UNL     1      -6.980  -5.205  15.560  1.00  0.00     0.010 A 
ATOM     65  C   UNL     1      -6.341  -7.910  15.227  1.00  0.00     0.020 A 
ATOM     66  C   UNL     1      -8.001  -6.142  15.379  1.00  0.00     0.020 A 
ATOM     67  C   UNL     1      -7.673  -7.487  15.196  1.00  0.00     0.054 A 
BRANCH  67  68
ATOM     68  S   UNL     1      -8.971  -8.728  14.943  1.00  0.00     0.124 S 
ATOM     69  O   UNL     1      -8.785  -9.076  13.537  1.00  0.00    -0.237 OA
ATOM     70  O   UNL     1      -8.608  -9.770  15.901  1.00  0.00    -0.237 OA
ATOM     71  O   UNL     1     -10.205  -8.008  15.248  1.00  0.00    -0.744 OA
ENDBRANCH  67  68
ENDBRANCH  48  62
BRANCH  49  72
ATOM     72  C   UNL     1       1.532   1.302  16.568  1.00  0.00    -0.014 A 
ATOM     73  C   UNL     1       2.604   1.121  17.461  1.00  0.00     0.010 A 
ATOM     74  C   UNL     1       1.474   2.482  15.804  1.00  0.00     0.010 A 
ATOM     75  C   UNL     1       3.584   2.107  17.603  1.00  0.00     0.020 A 
ATOM     76  C   UNL     1       2.469   3.457  15.920  1.00  0.00     0.020 A 
ATOM     77  C   UNL     1       3.512   3.269  16.829  1.00  0.00     0.054 A 
BRANCH  77  78
ATOM     78  S   UNL     1       4.822   4.513  16.994  1.00  0.00     0.124 S 
ATOM     79  O   UNL     1       4.529   5.091  18.301  1.00  0.00    -0.237 OA
ATOM     80  O   UNL     1       6.036   3.704  16.915  1.00  0.00    -0.237 OA
ATOM     81  O   UNL     1       4.598   5.398  15.852  1.00  0.00    -0.744 OA
ENDBRANCH  77  78
ENDBRANCH  49  72
BRANCH  61  82
ATOM     82  C   UNL     1      -3.407  -1.168  20.832  1.00  0.00    -0.014 A 
ATOM     83  C   UNL     1      -3.996   0.057  21.191  1.00  0.00     0.010 A 
ATOM     84  C   UNL     1      -3.185  -2.138  21.827  1.00  0.00     0.010 A 
ATOM     85  C   UNL     1      -4.317   0.323  22.525  1.00  0.00     0.020 A 
ATOM     86  C   UNL     1      -3.535  -1.890  23.156  1.00  0.00     0.020 A 
ATOM     87  C   UNL     1      -4.082  -0.652  23.500  1.00  0.00     0.054 A 
BRANCH  87  88
ATOM     88  S   UNL     1      -4.533  -0.293  25.219  1.00  0.00     0.124 S 
ATOM     89  O   UNL     1      -3.502   0.663  25.610  1.00  0.00    -0.237 OA
ATOM     90  O   UNL     1      -5.881   0.254  25.089  1.00  0.00    -0.237 OA
ATOM     91  O   UNL     1      -4.456  -1.596  25.877  1.00  0.00    -0.744 OA
ENDBRANCH  87  88
ENDBRANCH  61  82
ENDBRANCH  35  36
ENDBRANCH  27  30
ENDBRANCH  25  26
ENDBRANCH  24  25
ENDBRANCH   1  24
TORSDOF 18
