REMARK SMILES Cc1ncsc1Cn1c(SCC(=O)NCCCCNC(=O)c2ccc(-c3c4nc(c(-c5ccc(S(=O)(=O)[O-])cc5)c5ccc([nH]5)c(-c5ccc(S(=O)(=O)[O-])cc5)c5nc(c(-c6ccc(S(=O)(=O)[O-])cc6)c6ccc3[nH]6)C=C5)C=C4)cc2)nc2cnccc21
REMARK SMILES IDX 16 1 15 2 14 3 12 4 13 5 11 7 10 8 9 9 8 10 88 11 82 12
REMARK SMILES IDX 83 13 87 14 84 15 86 16 85 17 7 18 6 19 1 20 2 21 3 22 4 23
REMARK SMILES IDX 5 24 17 25 18 26 19 27 20 28 21 30 22 31 23 32 81 33 24 34
REMARK SMILES IDX 80 35 25 36 26 37 27 38 74 39 28 40 79 41 73 42 75 43 29 44
REMARK SMILES IDX 78 45 72 46 71 47 30 49 60 50 41 51 59 52 42 53 45 54 58 55
REMARK SMILES IDX 76 56 43 57 44 58 57 60 77 61 46 62 31 63 32 64 40 65 33 66
REMARK SMILES IDX 39 67 34 68 35 69 36 70 37 71 38 72 61 73 62 74 70 75 63 76
REMARK SMILES IDX 69 77 64 78 65 79 66 80 67 81 68 82 47 83 48 84 56 85 49 86
REMARK SMILES IDX 55 87 50 88 51 89 52 90 53 91 54 92
REMARK H PARENT 14 6 19 29 75 48 45 59
REMARK Flexibility Score: inf
ROOT
ATOM      1  C   UNL     1      -2.003  -7.662  -0.296  1.00  0.00     0.023 C 
ENDROOT
BRANCH   1   2
ATOM      2  C   UNL     1      -3.103  -6.616  -0.157  1.00  0.00     0.116 C 
BRANCH   2   3
ATOM      3  N   UNL     1      -2.715  -5.543   0.735  1.00  0.00    -0.355 N 
ATOM      4  C   UNL     1      -2.692  -4.207   0.529  1.00  0.00     0.230 C 
ATOM      5  O   UNL     1      -2.477  -3.496   1.517  1.00  0.00    -0.274 OA
ATOM      6  H   UNL     1      -2.422  -5.832   1.629  1.00  0.00     0.163 HD
BRANCH   4   7
ATOM      7  C   UNL     1      -3.019  -3.591  -0.811  1.00  0.00     0.178 C 
BRANCH   7   8
ATOM      8  S   UNL     1      -1.968  -3.990  -2.184  1.00  0.00    -0.078 SA
BRANCH   8   9
ATOM      9  C   UNL     1      -0.296  -3.587  -2.029  1.00  0.00     0.169 A 
ATOM     10  N   UNL     1       0.427  -2.853  -1.109  1.00  0.00    -0.313 N 
ATOM     11  C   UNL     1       1.774  -3.043  -1.413  1.00  0.00     0.072 A 
ATOM     12  N   UNL     1       0.492  -4.035  -2.986  1.00  0.00    -0.221 NA
ATOM     13  C   UNL     1       1.770  -3.723  -2.625  1.00  0.00     0.108 A 
ATOM     14  C   UNL     1       2.974  -2.699  -0.784  1.00  0.00     0.049 A 
ATOM     15  C   UNL     1       2.983  -4.000  -3.263  1.00  0.00     0.141 A 
ATOM     16  C   UNL     1       4.127  -2.995  -1.501  1.00  0.00     0.113 A 
ATOM     17  N   UNL     1       4.155  -3.595  -2.709  1.00  0.00    -0.262 NA
BRANCH  10  18
ATOM     18  C   UNL     1      -0.019  -2.103   0.057  1.00  0.00     0.173 C 
BRANCH  18  19
ATOM     19  C   UNL     1      -0.006  -0.604  -0.083  1.00  0.00     0.047 A 
ATOM     20  C   UNL     1      -2.513   0.015   0.140  1.00  0.00     0.068 C 
ATOM     21  C   UNL     1      -1.063   0.301  -0.020  1.00  0.00     0.053 A 
ATOM     22  N   UNL     1      -0.702   1.639  -0.085  1.00  0.00    -0.250 NA
ATOM     23  C   UNL     1       0.602   1.746  -0.157  1.00  0.00     0.176 A 
ATOM     24  S   UNL     1       1.470   0.281  -0.163  1.00  0.00    -0.125 S 
ENDBRANCH  18  19
ENDBRANCH  10  18
ENDBRANCH   8   9
ENDBRANCH   7   8
ENDBRANCH   4   7
ENDBRANCH   2   3
ENDBRANCH   1   2
BRANCH   1  25
ATOM     25  C   UNL     1      -1.516  -8.290   1.019  1.00  0.00     0.023 C 
BRANCH  25  26
ATOM     26  C   UNL     1      -2.606  -8.653   2.030  1.00  0.00     0.116 C 
BRANCH  26  27
ATOM     27  N   UNL     1      -3.664  -9.488   1.503  1.00  0.00    -0.352 N 
ATOM     28  C   UNL     1      -3.820 -10.828   1.300  1.00  0.00     0.251 C 
ATOM     29  H   UNL     1      -4.454  -8.968   1.227  1.00  0.00     0.163 HD
ATOM     30  O   UNL     1      -4.935 -11.184   0.903  1.00  0.00    -0.269 OA
BRANCH  28  31
ATOM     31  C   UNL     1      -2.753 -11.850   1.473  1.00  0.00     0.039 A 
ATOM     32  C   UNL     1      -1.498 -11.625   2.041  1.00  0.00     0.014 A 
ATOM     33  C   UNL     1      -3.044 -13.132   0.972  1.00  0.00     0.014 A 
ATOM     34  C   UNL     1      -0.518 -12.611   2.006  1.00  0.00     0.010 A 
ATOM     35  C   UNL     1      -2.078 -14.131   0.962  1.00  0.00     0.010 A 
ATOM     36  C   UNL     1      -0.796 -13.847   1.426  1.00  0.00    -0.014 A 
BRANCH  36  37
ATOM     37  C   UNL     1       0.307 -14.794   1.292  1.00  0.00     0.031 A 
ATOM     38  C   UNL     1       0.899 -15.351   2.545  1.00  0.00     0.074 A 
ATOM     39  C   UNL     1       0.723 -15.212   0.081  1.00  0.00     0.049 A 
ATOM     40  N   UNL     1       2.141 -15.366   2.913  1.00  0.00    -0.248 NA
ATOM     41  C   UNL     1      -0.020 -15.929   3.536  1.00  0.00     0.031 C 
ATOM     42  C   UNL     1       0.082 -14.989  -1.219  1.00  0.00     0.029 A 
ATOM     43  N   UNL     1       1.749 -16.054  -0.218  1.00  0.00    -0.354 N 
ATOM     44  C   UNL     1       2.190 -16.044   4.133  1.00  0.00     0.074 A 
ATOM     45  C   UNL     1       0.821 -16.313   4.498  1.00  0.00     0.031 C 
ATOM     46  C   UNL     1       0.567 -15.885  -2.106  1.00  0.00     0.029 A 
ATOM     47  C   UNL     1       1.644 -16.627  -1.475  1.00  0.00     0.049 A 
ATOM     48  H   UNL     1       2.494 -16.238   0.399  1.00  0.00     0.167 HD
ATOM     49  C   UNL     1       3.355 -16.425   4.732  1.00  0.00     0.031 A 
ATOM     50  C   UNL     1       2.319 -17.713  -1.921  1.00  0.00     0.031 A 
ATOM     51  C   UNL     1       4.497 -15.779   4.153  1.00  0.00     0.049 A 
ATOM     52  C   UNL     1       3.527 -17.870  -1.077  1.00  0.00     0.074 A 
ATOM     53  C   UNL     1       4.970 -14.485   4.134  1.00  0.00     0.029 A 
ATOM     54  N   UNL     1       5.213 -16.466   3.203  1.00  0.00    -0.354 N 
ATOM     55  N   UNL     1       4.518 -17.021  -1.065  1.00  0.00    -0.248 NA
ATOM     56  C   UNL     1       3.470 -18.773   0.063  1.00  0.00     0.031 C 
ATOM     57  C   UNL     1       5.612 -14.346   2.874  1.00  0.00     0.029 A 
ATOM     58  C   UNL     1       5.519 -15.573   2.209  1.00  0.00     0.049 A 
ATOM     59  H   UNL     1       5.460 -17.418   3.231  1.00  0.00     0.167 HD
ATOM     60  C   UNL     1       4.957 -17.002   0.251  1.00  0.00     0.074 A 
ATOM     61  C   UNL     1       4.359 -18.183   0.866  1.00  0.00     0.031 C 
ATOM     62  C   UNL     1       5.533 -15.888   0.793  1.00  0.00     0.031 A 
BRANCH  49  63
ATOM     63  C   UNL     1       3.512 -17.543   5.729  1.00  0.00    -0.014 A 
ATOM     64  C   UNL     1       2.568 -18.578   5.870  1.00  0.00     0.010 A 
ATOM     65  C   UNL     1       4.752 -17.714   6.386  1.00  0.00     0.010 A 
ATOM     66  C   UNL     1       2.842 -19.727   6.620  1.00  0.00     0.020 A 
ATOM     67  C   UNL     1       5.051 -18.880   7.105  1.00  0.00     0.020 A 
ATOM     68  C   UNL     1       4.091 -19.882   7.213  1.00  0.00     0.054 A 
BRANCH  68  69
ATOM     69  S   UNL     1       4.471 -21.462   8.016  1.00  0.00     0.124 S 
ATOM     70  O   UNL     1       3.648 -21.395   9.220  1.00  0.00    -0.237 OA
ATOM     71  O   UNL     1       4.044 -22.433   7.013  1.00  0.00    -0.237 OA
ATOM     72  O   UNL     1       5.913 -21.396   8.240  1.00  0.00    -0.744 OA
ENDBRANCH  68  69
ENDBRANCH  49  63
BRANCH  50  73
ATOM     73  C   UNL     1       1.740 -18.818  -2.724  1.00  0.00    -0.014 A 
ATOM     74  C   UNL     1       0.355 -19.084  -2.661  1.00  0.00     0.010 A 
ATOM     75  C   UNL     1       2.567 -19.779  -3.330  1.00  0.00     0.010 A 
ATOM     76  C   UNL     1      -0.179 -20.288  -3.124  1.00  0.00     0.020 A 
ATOM     77  C   UNL     1       2.038 -20.996  -3.792  1.00  0.00     0.020 A 
ATOM     78  C   UNL     1       0.672 -21.254  -3.653  1.00  0.00     0.054 A 
BRANCH  78  79
ATOM     79  S   UNL     1      -0.031 -22.875  -4.060  1.00  0.00     0.124 S 
ATOM     80  O   UNL     1      -0.393 -23.388  -2.741  1.00  0.00    -0.237 OA
ATOM     81  O   UNL     1      -1.155 -22.524  -4.925  1.00  0.00    -0.237 OA
ATOM     82  O   UNL     1       1.067 -23.573  -4.722  1.00  0.00    -0.744 OA
ENDBRANCH  78  79
ENDBRANCH  50  73
BRANCH  62  83
ATOM     83  C   UNL     1       5.910 -14.738  -0.117  1.00  0.00    -0.014 A 
ATOM     84  C   UNL     1       7.207 -14.203  -0.004  1.00  0.00     0.010 A 
ATOM     85  C   UNL     1       4.950 -14.020  -0.858  1.00  0.00     0.010 A 
ATOM     86  C   UNL     1       7.519 -12.959  -0.556  1.00  0.00     0.020 A 
ATOM     87  C   UNL     1       5.264 -12.783  -1.436  1.00  0.00     0.020 A 
ATOM     88  C   UNL     1       6.538 -12.244  -1.248  1.00  0.00     0.054 A 
BRANCH  88  89
ATOM     89  S   UNL     1       6.941 -10.579  -1.842  1.00  0.00     0.124 S 
ATOM     90  O   UNL     1       6.943  -9.804  -0.603  1.00  0.00    -0.237 OA
ATOM     91  O   UNL     1       8.251 -10.764  -2.463  1.00  0.00    -0.237 OA
ATOM     92  O   UNL     1       5.856 -10.265  -2.769  1.00  0.00    -0.744 OA
ENDBRANCH  88  89
ENDBRANCH  62  83
ENDBRANCH  36  37
ENDBRANCH  28  31
ENDBRANCH  26  27
ENDBRANCH  25  26
ENDBRANCH   1  25
TORSDOF 18
