REMARK SMILES O=C(CCCCC(=O)NC(=O)NC1CC1)NCCCCNC(=O)c1ccc(-c2c3nc(c(-c4ccc(S(=O)(=O)[O-])cc4)c4ccc([nH]4)c(-c4ccc(S(=O)(=O)[O-])cc4)c4nc(c(-c5ccc(S(=O)(=O)[O-])cc5)c5ccc2[nH]5)C=C4)C=C3)cc1
REMARK SMILES IDX 17 1 16 2 1 3 2 4 3 6 4 7 5 8 6 9 7 10 8 11 9 12 10 13 11 15
REMARK SMILES IDX 12 16 13 18 14 19 15 20 18 21 19 22 20 23 21 24 22 25 23 27
REMARK SMILES IDX 24 28 25 29 83 30 26 31 82 32 27 33 28 34 29 35 76 36 30 37
REMARK SMILES IDX 81 38 75 39 77 40 31 41 80 42 74 43 73 44 32 46 62 47 43 48
REMARK SMILES IDX 61 49 44 50 47 51 60 52 78 53 45 54 46 55 59 57 79 58 48 59
REMARK SMILES IDX 33 60 34 61 42 62 35 63 41 64 36 65 37 66 38 67 39 68 40 69
REMARK SMILES IDX 63 70 64 71 72 72 65 73 71 74 66 75 67 76 68 77 69 78 70 79
REMARK SMILES IDX 49 80 50 81 58 82 51 83 57 84 52 85 53 86 54 87 55 88 56 89
REMARK H PARENT 16 5 9 14 12 17 21 26 77 45 47 56
REMARK Flexibility Score: inf
ROOT
ATOM      1  C   UNL     1       1.852  -2.183   1.754  1.00  0.00     0.116 C 
ENDROOT
BRANCH   1   2
ATOM      2  N   UNL     1       2.428  -0.958   1.228  1.00  0.00    -0.356 N 
ATOM      3  O   UNL     1       0.496   0.265   1.389  1.00  0.00    -0.275 OA
ATOM      4  C   UNL     1       1.675   0.182   1.057  1.00  0.00     0.219 C 
ATOM      5  H   UNL     1       3.382  -0.942   0.986  1.00  0.00     0.163 HD
BRANCH   4   6
ATOM      6  C   UNL     1       2.363   1.300   0.294  1.00  0.00     0.100 C 
BRANCH   6   7
ATOM      7  C   UNL     1       3.418   2.157   0.995  1.00  0.00     0.010 C 
BRANCH   7   8
ATOM      8  C   UNL     1       4.688   1.550   1.603  1.00  0.00     0.010 C 
BRANCH   8   9
ATOM      9  C   UNL     1       5.910   1.171   0.758  1.00  0.00     0.100 C 
BRANCH   9  10
ATOM     10  C   UNL     1       6.503   2.198  -0.179  1.00  0.00     0.227 C 
ATOM     11  O   UNL     1       7.523   2.811   0.157  1.00  0.00    -0.275 OA
ATOM     12  N   UNL     1       5.965   2.526  -1.404  1.00  0.00    -0.278 N 
ATOM     13  C   UNL     1       4.911   2.257  -2.233  1.00  0.00     0.321 C 
ATOM     14  H   UNL     1       6.547   3.191  -1.838  1.00  0.00     0.174 HD
ATOM     15  O   UNL     1       4.440   3.180  -2.903  1.00  0.00    -0.248 OA
ATOM     16  N   UNL     1       4.371   1.030  -2.370  1.00  0.00    -0.335 N 
ATOM     17  H   UNL     1       3.578   1.005  -2.953  1.00  0.00     0.165 HD
BRANCH  16  18
ATOM     18  C   UNL     1       4.733  -0.228  -1.834  1.00  0.00     0.084 C 
ATOM     19  C   UNL     1       4.482  -1.496  -2.596  1.00  0.00     0.027 C 
ATOM     20  C   UNL     1       5.887  -1.022  -2.359  1.00  0.00     0.027 C 
ENDBRANCH  16  18
ENDBRANCH   9  10
ENDBRANCH   8   9
ENDBRANCH   7   8
ENDBRANCH   6   7
ENDBRANCH   4   6
ENDBRANCH   1   2
BRANCH   1  21
ATOM     21  C   UNL     1       2.352  -3.427   1.018  1.00  0.00     0.023 C 
BRANCH  21  22
ATOM     22  C   UNL     1       3.857  -3.685   1.107  1.00  0.00     0.023 C 
BRANCH  22  23
ATOM     23  C   UNL     1       4.445  -3.683   2.513  1.00  0.00     0.116 C 
BRANCH  23  24
ATOM     24  N   UNL     1       3.862  -4.697   3.377  1.00  0.00    -0.352 N 
ATOM     25  C   UNL     1       4.482  -5.653   4.146  1.00  0.00     0.251 C 
ATOM     26  H   UNL     1       2.879  -4.699   3.417  1.00  0.00     0.163 HD
ATOM     27  O   UNL     1       3.803  -6.510   4.710  1.00  0.00    -0.269 OA
BRANCH  25  28
ATOM     28  C   UNL     1       5.957  -5.678   4.269  1.00  0.00     0.039 A 
ATOM     29  C   UNL     1       6.619  -6.905   4.179  1.00  0.00     0.014 A 
ATOM     30  C   UNL     1       6.689  -4.505   4.470  1.00  0.00     0.014 A 
ATOM     31  C   UNL     1       8.015  -6.947   4.220  1.00  0.00     0.010 A 
ATOM     32  C   UNL     1       8.082  -4.539   4.426  1.00  0.00     0.010 A 
ATOM     33  C   UNL     1       8.762  -5.760   4.304  1.00  0.00    -0.014 A 
BRANCH  33  34
ATOM     34  C   UNL     1      10.249  -5.779   4.261  1.00  0.00     0.031 A 
ATOM     35  C   UNL     1      11.050  -5.280   5.435  1.00  0.00     0.074 A 
ATOM     36  C   UNL     1      10.881  -6.193   3.144  1.00  0.00     0.049 A 
ATOM     37  N   UNL     1      12.348  -5.172   5.560  1.00  0.00    -0.248 NA
ATOM     38  C   UNL     1      10.294  -4.819   6.611  1.00  0.00     0.031 C 
ATOM     39  C   UNL     1      10.223  -6.665   1.923  1.00  0.00     0.029 A 
ATOM     40  N   UNL     1      12.220  -6.280   2.851  1.00  0.00    -0.354 N 
ATOM     41  C   UNL     1      12.564  -4.623   6.819  1.00  0.00     0.074 A 
ATOM     42  C   UNL     1      11.262  -4.366   7.394  1.00  0.00     0.031 C 
ATOM     43  C   UNL     1      11.158  -7.016   1.026  1.00  0.00     0.029 A 
ATOM     44  C   UNL     1      12.480  -6.753   1.586  1.00  0.00     0.049 A 
ATOM     45  H   UNL     1      12.928  -6.027   3.487  1.00  0.00     0.167 HD
ATOM     46  C   UNL     1      13.737  -4.375   7.450  1.00  0.00     0.031 A 
ATOM     47  C   UNL     1      13.648  -6.944   0.941  1.00  0.00     0.031 A 
ATOM     48  C   UNL     1      15.032  -4.632   6.877  1.00  0.00     0.049 A 
ATOM     49  C   UNL     1      14.938  -6.639   1.652  1.00  0.00     0.074 A 
ATOM     50  C   UNL     1      16.278  -4.457   7.454  1.00  0.00     0.029 A 
ATOM     51  N   UNL     1      15.251  -5.113   5.594  1.00  0.00    -0.354 N 
ATOM     52  N   UNL     1      15.120  -6.180   2.868  1.00  0.00    -0.248 NA
ATOM     53  C   UNL     1      16.181  -6.889   0.909  1.00  0.00     0.031 C 
ATOM     54  C   UNL     1      17.250  -4.775   6.500  1.00  0.00     0.029 A 
ATOM     55  C   UNL     1      16.610  -5.216   5.353  1.00  0.00     0.049 A 
ATOM     56  H   UNL     1      14.543  -5.347   4.951  1.00  0.00     0.167 HD
ATOM     57  C   UNL     1      16.498  -6.113   3.045  1.00  0.00     0.074 A 
ATOM     58  C   UNL     1      17.101  -6.595   1.818  1.00  0.00     0.031 C 
ATOM     59  C   UNL     1      17.200  -5.693   4.127  1.00  0.00     0.031 A 
BRANCH  46  60
ATOM     60  C   UNL     1      13.671  -3.785   8.837  1.00  0.00    -0.014 A 
ATOM     61  C   UNL     1      13.177  -4.533   9.922  1.00  0.00     0.010 A 
ATOM     62  C   UNL     1      14.143  -2.480   9.067  1.00  0.00     0.010 A 
ATOM     63  C   UNL     1      13.111  -3.970  11.200  1.00  0.00     0.020 A 
ATOM     64  C   UNL     1      14.109  -1.925  10.350  1.00  0.00     0.020 A 
ATOM     65  C   UNL     1      13.576  -2.668  11.405  1.00  0.00     0.054 A 
BRANCH  65  66
ATOM     66  S   UNL     1      13.492  -1.970  13.077  1.00  0.00     0.124 S 
ATOM     67  O   UNL     1      12.055  -1.761  13.243  1.00  0.00    -0.237 OA
ATOM     68  O   UNL     1      14.070  -3.032  13.895  1.00  0.00    -0.237 OA
ATOM     69  O   UNL     1      14.291  -0.751  12.986  1.00  0.00    -0.744 OA
ENDBRANCH  65  66
ENDBRANCH  46  60
BRANCH  47  70
ATOM     70  C   UNL     1      13.647  -7.459  -0.457  1.00  0.00    -0.014 A 
ATOM     71  C   UNL     1      14.115  -8.753  -0.747  1.00  0.00     0.010 A 
ATOM     72  C   UNL     1      13.162  -6.657  -1.507  1.00  0.00     0.010 A 
ATOM     73  C   UNL     1      14.111  -9.230  -2.062  1.00  0.00     0.020 A 
ATOM     74  C   UNL     1      13.127  -7.142  -2.818  1.00  0.00     0.020 A 
ATOM     75  C   UNL     1      13.612  -8.423  -3.088  1.00  0.00     0.054 A 
BRANCH  75  76
ATOM     76  S   UNL     1      13.562  -9.085  -4.777  1.00  0.00     0.124 S 
ATOM     77  O   UNL     1      14.974  -9.087  -5.145  1.00  0.00    -0.237 OA
ATOM     78  O   UNL     1      12.955 -10.399  -4.580  1.00  0.00    -0.237 OA
ATOM     79  O   UNL     1      12.728  -8.124  -5.496  1.00  0.00    -0.744 OA
ENDBRANCH  75  76
ENDBRANCH  47  70
BRANCH  59  80
ATOM     80  C   UNL     1      18.703  -5.767   4.053  1.00  0.00    -0.014 A 
ATOM     81  C   UNL     1      19.441  -4.899   3.229  1.00  0.00     0.010 A 
ATOM     82  C   UNL     1      19.391  -6.686   4.867  1.00  0.00     0.010 A 
ATOM     83  C   UNL     1      20.837  -4.971   3.197  1.00  0.00     0.020 A 
ATOM     84  C   UNL     1      20.787  -6.740   4.862  1.00  0.00     0.020 A 
ATOM     85  C   UNL     1      21.501  -5.890   4.016  1.00  0.00     0.054 A 
BRANCH  85  86
ATOM     86  S   UNL     1      23.314  -5.932   3.988  1.00  0.00     0.124 S 
ATOM     87  O   UNL     1      23.585  -6.533   2.685  1.00  0.00    -0.237 OA
ATOM     88  O   UNL     1      23.668  -4.520   4.115  1.00  0.00    -0.237 OA
ATOM     89  O   UNL     1      23.660  -6.761   5.140  1.00  0.00    -0.744 OA
ENDBRANCH  85  86
ENDBRANCH  59  80
ENDBRANCH  33  34
ENDBRANCH  25  28
ENDBRANCH  23  24
ENDBRANCH  22  23
ENDBRANCH  21  22
ENDBRANCH   1  21
TORSDOF 19
