REMARK SMILES COc1cc2c(cc1OC)[C@H](C(=O)NCCCCNC(=O)c1ccc(-c3c4nc(c(-c5ccc(S(=O)(=O)[O-])cc5)c5ccc([nH]5)c(-c5ccc(S(=O)(=O)[O-])cc5)c5nc(c(-c6ccc(S(=O)(=O)[O-])cc6)c6ccc3[nH]6)C=C5)C=C4)cc1)[C@H](c1cccc(Cl)c1)N(C)C2=O
REMARK SMILES IDX 17 1 16 2 15 3 14 4 12 5 13 6 11 8 3 9 4 10 8 11 5 12 7 13
REMARK SMILES IDX 6 14 92 15 90 16 93 17 82 18 91 19 2 20 1 21 9 22 10 23
REMARK SMILES IDX 83 24 84 25 89 26 85 27 87 28 86 29 88 30 18 31 19 32 20 33
REMARK SMILES IDX 21 35 22 36 23 37 81 38 24 39 80 40 25 41 26 42 27 43 74 44
REMARK SMILES IDX 28 45 79 46 73 47 75 48 29 49 78 50 72 51 71 52 30 54 60 55
REMARK SMILES IDX 41 56 59 57 42 58 45 59 58 60 76 61 43 62 44 63 57 65 77 66
REMARK SMILES IDX 46 67 31 68 32 69 40 70 33 71 39 72 34 73 35 74 36 75 37 76
REMARK SMILES IDX 38 77 61 78 62 79 70 80 63 81 69 82 64 83 65 84 66 85 67 86
REMARK SMILES IDX 68 87 47 88 48 89 56 90 49 91 55 92 50 93 51 94 52 95 53 96
REMARK SMILES IDX 54 97
REMARK H PARENT 14 7 19 34 75 53 45 64
REMARK Flexibility Score: inf
ROOT
ATOM      1  C   UNL     1      -1.470   7.570  -6.612  1.00  0.00     0.023 C 
ENDROOT
BRANCH   1   2
ATOM      2  C   UNL     1      -0.482   7.359  -5.459  1.00  0.00     0.023 C 
BRANCH   2   3
ATOM      3  C   UNL     1      -0.357   5.913  -4.984  1.00  0.00     0.116 C 
BRANCH   3   4
ATOM      4  N   UNL     1       0.021   5.045  -6.082  1.00  0.00    -0.355 N 
ATOM      5  C   UNL     1       1.084   4.206  -6.239  1.00  0.00     0.230 C 
ATOM      6  O   UNL     1       1.137   3.620  -7.316  1.00  0.00    -0.274 OA
ATOM      7  H   UNL     1      -0.597   5.065  -6.848  1.00  0.00     0.163 HD
BRANCH   5   8
ATOM      8  C   UNL     1       2.067   4.003  -5.089  1.00  0.00     0.136 C 
ATOM      9  C   UNL     1       0.893   1.135  -2.043  1.00  0.00     0.161 A 
ATOM     10  C   UNL     1       2.167   1.726  -2.045  1.00  0.00     0.064 A 
ATOM     11  C   UNL     1      -0.047   1.528  -3.008  1.00  0.00     0.161 A 
ATOM     12  C   UNL     1       2.512   2.676  -3.016  1.00  0.00     0.048 A 
ATOM     13  C   UNL     1       0.319   2.467  -3.984  1.00  0.00     0.056 A 
ATOM     14  C   UNL     1       1.598   3.033  -4.017  1.00  0.00    -0.016 A 
ATOM     15  C   UNL     1       3.889   3.261  -3.022  1.00  0.00     0.254 C 
ATOM     16  N   UNL     1       4.339   3.794  -4.236  1.00  0.00    -0.333 N 
ATOM     17  O   UNL     1       4.570   3.229  -2.002  1.00  0.00    -0.269 OA
ATOM     18  C   UNL     1       3.535   3.636  -5.479  1.00  0.00     0.132 C 
ATOM     19  C   UNL     1       5.690   4.316  -4.321  1.00  0.00     0.147 C 
BRANCH   9  20
ATOM     20  O   UNL     1       0.577   0.105  -1.198  1.00  0.00    -0.493 OA
ATOM     21  C   UNL     1       1.101   0.193   0.120  1.00  0.00     0.278 C 
ENDBRANCH   9  20
BRANCH  11  22
ATOM     22  O   UNL     1      -1.339   1.106  -3.167  1.00  0.00    -0.493 OA
ATOM     23  C   UNL     1      -1.934   0.316  -2.150  1.00  0.00     0.278 C 
ENDBRANCH  11  22
BRANCH  18  24
ATOM     24  C   UNL     1       3.781   2.271  -6.145  1.00  0.00    -0.023 A 
ATOM     25  C   UNL     1       3.444   2.075  -7.494  1.00  0.00     0.006 A 
ATOM     26  C   UNL     1       4.329   1.168  -5.464  1.00  0.00     0.026 A 
ATOM     27  C   UNL     1       3.493   0.811  -8.089  1.00  0.00     0.002 A 
ATOM     28  C   UNL     1       4.417  -0.088  -6.071  1.00  0.00     0.041 A 
ATOM     29  C   UNL     1       3.967  -0.279  -7.370  1.00  0.00     0.020 A 
ATOM     30  Cl  UNL     1       5.082  -1.412  -5.194  1.00  0.00    -0.084 Cl
ENDBRANCH  18  24
ENDBRANCH   5   8
ENDBRANCH   3   4
ENDBRANCH   2   3
ENDBRANCH   1   2
BRANCH   1  31
ATOM     31  C   UNL     1      -2.867   7.002  -6.383  1.00  0.00     0.116 C 
BRANCH  31  32
ATOM     32  N   UNL     1      -3.521   7.592  -5.227  1.00  0.00    -0.352 N 
ATOM     33  C   UNL     1      -4.767   8.160  -5.136  1.00  0.00     0.251 C 
ATOM     34  H   UNL     1      -2.997   7.584  -4.394  1.00  0.00     0.163 HD
ATOM     35  O   UNL     1      -5.085   8.771  -4.118  1.00  0.00    -0.269 OA
BRANCH  33  36
ATOM     36  C   UNL     1      -5.710   8.060  -6.271  1.00  0.00     0.039 A 
ATOM     37  C   UNL     1      -6.412   9.201  -6.667  1.00  0.00     0.014 A 
ATOM     38  C   UNL     1      -5.898   6.851  -6.947  1.00  0.00     0.014 A 
ATOM     39  C   UNL     1      -7.259   9.141  -7.775  1.00  0.00     0.010 A 
ATOM     40  C   UNL     1      -6.680   6.815  -8.100  1.00  0.00     0.010 A 
ATOM     41  C   UNL     1      -7.375   7.957  -8.523  1.00  0.00    -0.014 A 
BRANCH  41  42
ATOM     42  C   UNL     1      -8.213   7.909  -9.749  1.00  0.00     0.031 A 
ATOM     43  C   UNL     1      -9.410   6.999  -9.823  1.00  0.00     0.074 A 
ATOM     44  C   UNL     1      -7.870   8.657 -10.818  1.00  0.00     0.049 A 
ATOM     45  N   UNL     1     -10.257   6.832 -10.807  1.00  0.00    -0.248 NA
ATOM     46  C   UNL     1      -9.677   6.148  -8.652  1.00  0.00     0.031 C 
ATOM     47  C   UNL     1      -6.702   9.538 -10.894  1.00  0.00     0.029 A 
ATOM     48  N   UNL     1      -8.469   8.797 -12.045  1.00  0.00    -0.354 N 
ATOM     49  C   UNL     1     -11.146   5.851 -10.380  1.00  0.00     0.074 A 
ATOM     50  C   UNL     1     -10.700   5.420  -9.073  1.00  0.00     0.031 C 
ATOM     51  C   UNL     1      -6.692  10.154 -12.086  1.00  0.00     0.029 A 
ATOM     52  C   UNL     1      -7.826   9.684 -12.877  1.00  0.00     0.049 A 
ATOM     53  H   UNL     1      -9.284   8.308 -12.306  1.00  0.00     0.167 HD
ATOM     54  C   UNL     1     -12.244   5.366 -11.009  1.00  0.00     0.031 A 
ATOM     55  C   UNL     1      -8.111  10.076 -14.133  1.00  0.00     0.031 A 
ATOM     56  C   UNL     1     -12.684   5.800 -12.309  1.00  0.00     0.049 A 
ATOM     57  C   UNL     1      -9.335   9.526 -14.813  1.00  0.00     0.074 A 
ATOM     58  C   UNL     1     -13.818   5.417 -13.004  1.00  0.00     0.029 A 
ATOM     59  N   UNL     1     -12.008   6.704 -13.115  1.00  0.00    -0.354 N 
ATOM     60  N   UNL     1     -10.211   8.662 -14.358  1.00  0.00    -0.248 NA
ATOM     61  C   UNL     1      -9.618  10.015 -16.169  1.00  0.00     0.031 C 
ATOM     62  C   UNL     1     -13.794   6.041 -14.256  1.00  0.00     0.029 A 
ATOM     63  C   UNL     1     -12.684   6.869 -14.312  1.00  0.00     0.049 A 
ATOM     64  H   UNL     1     -11.171   7.162 -12.871  1.00  0.00     0.167 HD
ATOM     65  C   UNL     1     -11.165   8.526 -15.360  1.00  0.00     0.074 A 
ATOM     66  C   UNL     1     -10.765   9.407 -16.439  1.00  0.00     0.031 C 
ATOM     67  C   UNL     1     -12.274   7.745 -15.382  1.00  0.00     0.031 A 
BRANCH  54  68
ATOM     68  C   UNL     1     -13.038   4.298 -10.300  1.00  0.00    -0.014 A 
ATOM     69  C   UNL     1     -13.757   4.581  -9.123  1.00  0.00     0.010 A 
ATOM     70  C   UNL     1     -13.094   2.998 -10.835  1.00  0.00     0.010 A 
ATOM     71  C   UNL     1     -14.469   3.573  -8.467  1.00  0.00     0.020 A 
ATOM     72  C   UNL     1     -13.833   1.995 -10.200  1.00  0.00     0.020 A 
ATOM     73  C   UNL     1     -14.499   2.285  -9.008  1.00  0.00     0.054 A 
BRANCH  73  74
ATOM     74  S   UNL     1     -15.438   1.000  -8.139  1.00  0.00     0.124 S 
ATOM     75  O   UNL     1     -14.603   0.759  -6.965  1.00  0.00    -0.237 OA
ATOM     76  O   UNL     1     -16.715   1.659  -7.877  1.00  0.00    -0.237 OA
ATOM     77  O   UNL     1     -15.494  -0.100  -9.100  1.00  0.00    -0.744 OA
ENDBRANCH  73  74
ENDBRANCH  54  68
BRANCH  55  78
ATOM     78  C   UNL     1      -7.228  11.062 -14.817  1.00  0.00    -0.014 A 
ATOM     79  C   UNL     1      -7.671  12.374 -15.061  1.00  0.00     0.010 A 
ATOM     80  C   UNL     1      -5.923  10.700 -15.198  1.00  0.00     0.010 A 
ATOM     81  C   UNL     1      -6.829  13.302 -15.681  1.00  0.00     0.020 A 
ATOM     82  C   UNL     1      -5.068  11.633 -15.791  1.00  0.00     0.020 A 
ATOM     83  C   UNL     1      -5.530  12.927 -16.037  1.00  0.00     0.054 A 
BRANCH  83  84
ATOM     84  S   UNL     1      -4.433  14.169 -16.777  1.00  0.00     0.124 S 
ATOM     85  O   UNL     1      -5.007  14.326 -18.109  1.00  0.00    -0.237 OA
ATOM     86  O   UNL     1      -4.596  15.308 -15.877  1.00  0.00    -0.237 OA
ATOM     87  O   UNL     1      -3.118  13.533 -16.732  1.00  0.00    -0.744 OA
ENDBRANCH  83  84
ENDBRANCH  55  78
BRANCH  67  88
ATOM     88  C   UNL     1     -13.162   7.830 -16.596  1.00  0.00    -0.014 A 
ATOM     89  C   UNL     1     -12.762   7.305 -17.838  1.00  0.00     0.010 A 
ATOM     90  C   UNL     1     -14.445   8.395 -16.474  1.00  0.00     0.010 A 
ATOM     91  C   UNL     1     -13.616   7.372 -18.942  1.00  0.00     0.020 A 
ATOM     92  C   UNL     1     -15.314   8.436 -17.567  1.00  0.00     0.020 A 
ATOM     93  C   UNL     1     -14.888   7.936 -18.799  1.00  0.00     0.054 A 
BRANCH  93  94
ATOM     94  S   UNL     1     -15.994   7.971 -20.236  1.00  0.00     0.124 S 
ATOM     95  O   UNL     1     -15.376   8.997 -21.071  1.00  0.00    -0.237 OA
ATOM     96  O   UNL     1     -15.900   6.605 -20.745  1.00  0.00    -0.237 OA
ATOM     97  O   UNL     1     -17.292   8.330 -19.667  1.00  0.00    -0.744 OA
ENDBRANCH  93  94
ENDBRANCH  67  88
ENDBRANCH  41  42
ENDBRANCH  33  36
ENDBRANCH  31  32
ENDBRANCH   1  31
TORSDOF 17
