REMARK SMILES COc1ccc([C@@H]2CC[NH2+][C@H]2C(=O)NCCCCNC(=O)c2ccc(-c3c4nc(c(-c5ccc(S(=O)(=O)[O-])cc5)c5ccc([nH]5)c(-c5ccc(S(=O)(=O)[O-])cc5)c5nc(c(-c6ccc(S(=O)(=O)[O-])cc6)c6ccc3[nH]6)C=C5)C=C4)cc2)c2ccccc12
REMARK SMILES IDX 17 1 16 2 15 3 14 4 12 5 13 6 11 8 7 9 8 10 9 11 10 12 6 15
REMARK SMILES IDX 3 16 4 17 87 18 5 19 82 20 86 21 83 22 85 23 84 24 2 25 1 26
REMARK SMILES IDX 18 27 19 28 20 29 21 31 22 32 23 33 81 34 24 35 80 36 25 37
REMARK SMILES IDX 26 38 27 39 74 40 28 41 79 42 73 43 75 44 29 45 78 46 72 47
REMARK SMILES IDX 71 48 30 50 60 51 41 52 59 53 42 54 45 55 58 56 76 57 43 58
REMARK SMILES IDX 44 59 57 61 77 62 46 63 31 64 32 65 40 66 33 67 39 68 34 69
REMARK SMILES IDX 35 70 36 71 37 72 38 73 61 74 62 75 70 76 63 77 69 78 64 79
REMARK SMILES IDX 65 80 66 81 67 82 68 83 47 84 48 85 56 86 49 87 55 88 50 89
REMARK SMILES IDX 51 90 52 91 53 92 54 93
REMARK H PARENT 14 7 10 13 10 14 19 30 75 49 45 60
REMARK Flexibility Score: inf
ROOT
ATOM      1  C   UNL     1      -0.712  -7.809   5.321  1.00  0.00     0.023 C 
ENDROOT
BRANCH   1   2
ATOM      2  C   UNL     1       0.539  -7.325   4.604  1.00  0.00     0.023 C 
BRANCH   2   3
ATOM      3  C   UNL     1       1.306  -8.392   3.815  1.00  0.00     0.116 C 
BRANCH   3   4
ATOM      4  N   UNL     1       0.718  -8.671   2.514  1.00  0.00    -0.351 N 
ATOM      5  C   UNL     1       1.004  -8.207   1.258  1.00  0.00     0.278 C 
ATOM      6  O   UNL     1       0.302  -8.637   0.336  1.00  0.00    -0.268 OA
ATOM      7  H   UNL     1      -0.025  -9.315   2.542  1.00  0.00     0.163 HD
BRANCH   5   8
ATOM      8  C   UNL     1       2.158  -7.213   0.969  1.00  0.00     0.280 C 
ATOM      9  C   UNL     1       2.164  -5.942   1.824  1.00  0.00     0.094 C 
ATOM     10  C   UNL     1       3.591  -5.860   2.395  1.00  0.00     0.076 C 
ATOM     11  C   UNL     1       4.401  -6.858   1.595  1.00  0.00     0.262 C 
ATOM     12  N   UNL     1       3.463  -7.900   1.191  1.00  0.00    -0.335 N 
ATOM     13  H   UNL     1       3.375  -8.602   1.926  1.00  0.00     0.346 HD
ATOM     14  H   UNL     1       3.780  -8.383   0.349  1.00  0.00     0.346 HD
BRANCH   9  15
ATOM     15  C   UNL     1       1.588  -4.659   1.221  1.00  0.00    -0.030 A 
ATOM     16  C   UNL     1       0.758  -2.002   0.811  1.00  0.00     0.126 A 
ATOM     17  C   UNL     1       2.047  -2.400   0.455  1.00  0.00     0.047 A 
ATOM     18  C   UNL     1      -0.179  -2.948   1.280  1.00  0.00     0.024 A 
ATOM     19  C   UNL     1       2.455  -3.717   0.649  1.00  0.00     0.009 A 
ATOM     20  C   UNL     1       0.212  -4.304   1.425  1.00  0.00    -0.011 A 
ATOM     21  C   UNL     1      -1.501  -2.570   1.617  1.00  0.00     0.012 A 
ATOM     22  C   UNL     1      -0.801  -5.223   1.794  1.00  0.00     0.009 A 
ATOM     23  C   UNL     1      -2.454  -3.498   2.027  1.00  0.00     0.001 A 
ATOM     24  C   UNL     1      -2.109  -4.834   2.091  1.00  0.00     0.001 A 
BRANCH  16  25
ATOM     25  O   UNL     1       0.352  -0.688   0.789  1.00  0.00    -0.496 OA
ATOM     26  C   UNL     1       0.891   0.110  -0.253  1.00  0.00     0.278 C 
ENDBRANCH  16  25
ENDBRANCH   9  15
ENDBRANCH   5   8
ENDBRANCH   3   4
ENDBRANCH   2   3
ENDBRANCH   1   2
BRANCH   1  27
ATOM     27  C   UNL     1      -0.444  -8.790   6.446  1.00  0.00     0.116 C 
BRANCH  27  28
ATOM     28  N   UNL     1       0.469  -8.275   7.458  1.00  0.00    -0.352 N 
ATOM     29  C   UNL     1       0.430  -8.477   8.816  1.00  0.00     0.251 C 
ATOM     30  H   UNL     1       1.206  -7.712   7.127  1.00  0.00     0.163 HD
ATOM     31  O   UNL     1       1.216  -7.895   9.556  1.00  0.00    -0.269 OA
BRANCH  29  32
ATOM     32  C   UNL     1      -0.606  -9.372   9.366  1.00  0.00     0.039 A 
ATOM     33  C   UNL     1      -1.409  -8.916  10.412  1.00  0.00     0.014 A 
ATOM     34  C   UNL     1      -0.831 -10.623   8.785  1.00  0.00     0.014 A 
ATOM     35  C   UNL     1      -2.487  -9.693  10.833  1.00  0.00     0.010 A 
ATOM     36  C   UNL     1      -1.956 -11.350   9.143  1.00  0.00     0.010 A 
ATOM     37  C   UNL     1      -2.789 -10.898  10.177  1.00  0.00    -0.014 A 
BRANCH  37  38
ATOM     38  C   UNL     1      -3.955 -11.723  10.570  1.00  0.00     0.031 A 
ATOM     39  C   UNL     1      -3.731 -13.107  11.115  1.00  0.00     0.074 A 
ATOM     40  C   UNL     1      -5.204 -11.260  10.372  1.00  0.00     0.049 A 
ATOM     41  N   UNL     1      -4.611 -14.017  11.441  1.00  0.00    -0.248 NA
ATOM     42  C   UNL     1      -2.332 -13.536  11.283  1.00  0.00     0.031 C 
ATOM     43  C   UNL     1      -5.548  -9.951   9.809  1.00  0.00     0.029 A 
ATOM     44  N   UNL     1      -6.420 -11.843  10.619  1.00  0.00    -0.354 N 
ATOM     45  C   UNL     1      -3.874 -15.129  11.829  1.00  0.00     0.074 A 
ATOM     46  C   UNL     1      -2.478 -14.801  11.644  1.00  0.00     0.031 C 
ATOM     47  C   UNL     1      -6.884  -9.820   9.785  1.00  0.00     0.029 A 
ATOM     48  C   UNL     1      -7.492 -11.046  10.294  1.00  0.00     0.049 A 
ATOM     49  H   UNL     1      -6.517 -12.749  10.994  1.00  0.00     0.167 HD
ATOM     50  C   UNL     1      -4.316 -16.310  12.321  1.00  0.00     0.031 A 
ATOM     51  C   UNL     1      -8.814 -11.277  10.399  1.00  0.00     0.031 A 
ATOM     52  C   UNL     1      -5.704 -16.623  12.525  1.00  0.00     0.049 A 
ATOM     53  C   UNL     1      -9.284 -12.591  10.960  1.00  0.00     0.074 A 
ATOM     54  C   UNL     1      -6.258 -17.771  13.062  1.00  0.00     0.029 A 
ATOM     55  N   UNL     1      -6.757 -15.778  12.207  1.00  0.00    -0.354 N 
ATOM     56  N   UNL     1      -8.570 -13.613  11.369  1.00  0.00    -0.248 NA
ATOM     57  C   UNL     1     -10.735 -12.777  11.085  1.00  0.00     0.031 C 
ATOM     58  C   UNL     1      -7.651 -17.633  13.038  1.00  0.00     0.029 A 
ATOM     59  C   UNL     1      -7.960 -16.381  12.529  1.00  0.00     0.049 A 
ATOM     60  H   UNL     1      -6.662 -14.882  11.812  1.00  0.00     0.167 HD
ATOM     61  C   UNL     1      -9.486 -14.552  11.829  1.00  0.00     0.074 A 
ATOM     62  C   UNL     1     -10.803 -13.973  11.656  1.00  0.00     0.031 C 
ATOM     63  C   UNL     1      -9.258 -15.782  12.352  1.00  0.00     0.031 A 
BRANCH  50  64
ATOM     64  C   UNL     1      -3.278 -17.342  12.670  1.00  0.00    -0.014 A 
ATOM     65  C   UNL     1      -2.418 -17.160  13.769  1.00  0.00     0.010 A 
ATOM     66  C   UNL     1      -3.161 -18.509  11.894  1.00  0.00     0.010 A 
ATOM     67  C   UNL     1      -1.425 -18.100  14.054  1.00  0.00     0.020 A 
ATOM     68  C   UNL     1      -2.187 -19.466  12.194  1.00  0.00     0.020 A 
ATOM     69  C   UNL     1      -1.311 -19.244  13.259  1.00  0.00     0.054 A 
BRANCH  69  70
ATOM     70  S   UNL     1      -0.014 -20.450  13.651  1.00  0.00     0.124 S 
ATOM     71  O   UNL     1       1.181 -19.779  13.146  1.00  0.00    -0.237 OA
ATOM     72  O   UNL     1      -0.105 -20.560  15.105  1.00  0.00    -0.237 OA
ATOM     73  O   UNL     1      -0.418 -21.644  12.913  1.00  0.00    -0.744 OA
ENDBRANCH  69  70
ENDBRANCH  50  64
BRANCH  51  74
ATOM     74  C   UNL     1      -9.787 -10.225   9.998  1.00  0.00    -0.014 A 
ATOM     75  C   UNL     1     -10.506  -9.516  10.976  1.00  0.00     0.010 A 
ATOM     76  C   UNL     1      -9.988  -9.914   8.641  1.00  0.00     0.010 A 
ATOM     77  C   UNL     1     -11.421  -8.526  10.606  1.00  0.00     0.020 A 
ATOM     78  C   UNL     1     -10.884  -8.908   8.268  1.00  0.00     0.020 A 
ATOM     79  C   UNL     1     -11.604  -8.228   9.253  1.00  0.00     0.054 A 
BRANCH  79  80
ATOM     80  S   UNL     1     -12.757  -6.903   8.796  1.00  0.00     0.124 S 
ATOM     81  O   UNL     1     -14.052  -7.548   8.992  1.00  0.00    -0.237 OA
ATOM     82  O   UNL     1     -12.423  -5.849   9.751  1.00  0.00    -0.237 OA
ATOM     83  O   UNL     1     -12.405  -6.609   7.409  1.00  0.00    -0.744 OA
ENDBRANCH  79  80
ENDBRANCH  51  74
BRANCH  63  84
ATOM     84  C   UNL     1     -10.454 -16.568  12.813  1.00  0.00    -0.014 A 
ATOM     85  C   UNL     1     -11.326 -17.174  11.893  1.00  0.00     0.010 A 
ATOM     86  C   UNL     1     -10.673 -16.748  14.191  1.00  0.00     0.010 A 
ATOM     87  C   UNL     1     -12.415 -17.925  12.345  1.00  0.00     0.020 A 
ATOM     88  C   UNL     1     -11.746 -17.517  14.646  1.00  0.00     0.020 A 
ATOM     89  C   UNL     1     -12.618 -18.090  13.719  1.00  0.00     0.054 A 
BRANCH  89  90
ATOM     90  S   UNL     1     -14.011 -19.107  14.281  1.00  0.00     0.124 S 
ATOM     91  O   UNL     1     -15.144 -18.211  14.072  1.00  0.00    -0.237 OA
ATOM     92  O   UNL     1     -13.948 -20.261  13.387  1.00  0.00    -0.237 OA
ATOM     93  O   UNL     1     -13.689 -19.391  15.678  1.00  0.00    -0.744 OA
ENDBRANCH  89  90
ENDBRANCH  63  84
ENDBRANCH  37  38
ENDBRANCH  29  32
ENDBRANCH  27  28
ENDBRANCH   1  27
TORSDOF 16
