REMARK SMILES CCN(C(=O)Cc1c(C(=O)NCCCCNC(=O)c2ccc(-c3c4nc(c(-c5ccc(S(=O)(=O)[O-])cc5)c5ccc([nH]5)c(-c5ccc(S(=O)(=O)[O-])cc5)c5nc(c(-c6ccc(S(=O)(=O)[O-])cc6)c6ccc3[nH]6)C=C5)C=C4)cc2)[nH]c2ccc(Cl)cc12)c1ccc(C)c(C)c1
REMARK SMILES IDX 13 1 12 2 11 3 9 4 10 5 8 7 7 8 86 9 79 10 80 11 85 12 81 14
REMARK SMILES IDX 83 15 82 16 84 17 6 18 4 19 5 20 3 21 2 22 1 23 87 24 88 25
REMARK SMILES IDX 94 26 89 27 92 28 90 29 93 30 91 31 14 32 15 33 16 34 17 35
REMARK SMILES IDX 18 37 19 38 20 39 78 40 21 41 77 42 22 43 23 44 24 45 71 46
REMARK SMILES IDX 25 47 76 48 70 49 72 50 26 51 75 52 69 53 68 54 27 56 57 57
REMARK SMILES IDX 38 58 56 59 39 60 42 61 55 62 73 63 40 64 41 65 54 67 74 68
REMARK SMILES IDX 43 69 28 70 29 71 37 72 30 73 36 74 31 75 32 76 33 77 34 78
REMARK SMILES IDX 35 79 58 80 59 81 67 82 60 83 66 84 61 85 62 86 63 87 64 88
REMARK SMILES IDX 65 89 44 90 45 91 53 92 46 93 52 94 47 95 48 96 49 97 50 98
REMARK SMILES IDX 51 99
REMARK H PARENT 11 6 79 13 16 36 72 55 42 66
REMARK Flexibility Score: inf
ROOT
ATOM      1  C   UNL     1      -0.284  -2.304   4.590  1.00  0.00     0.023 C 
ENDROOT
BRANCH   1   2
ATOM      2  C   UNL     1      -1.221  -1.148   4.942  1.00  0.00     0.116 C 
BRANCH   2   3
ATOM      3  N   UNL     1      -0.665   0.173   4.746  1.00  0.00    -0.351 N 
ATOM      4  C   UNL     1      -0.933   1.151   3.819  1.00  0.00     0.268 C 
ATOM      5  O   UNL     1      -0.567   2.296   4.102  1.00  0.00    -0.268 OA
ATOM      6  H   UNL     1       0.034   0.415   5.396  1.00  0.00     0.163 HD
BRANCH   4   7
ATOM      7  C   UNL     1      -1.689   0.911   2.596  1.00  0.00     0.109 A 
ATOM      8  C   UNL     1      -1.762  -0.115   1.650  1.00  0.00    -0.000 A 
ATOM      9  C   UNL     1      -2.763   0.250   0.693  1.00  0.00     0.005 A 
ATOM     10  N   UNL     1      -2.378   1.970   2.028  1.00  0.00    -0.350 N 
ATOM     11  C   UNL     1      -3.023   1.600   0.875  1.00  0.00     0.046 A 
ATOM     12  C   UNL     1      -3.377  -0.427  -0.381  1.00  0.00     0.031 A 
ATOM     13  H   UNL     1      -2.403   2.878   2.406  1.00  0.00     0.167 HD
ATOM     14  C   UNL     1      -3.783   2.349  -0.030  1.00  0.00     0.028 A 
ATOM     15  C   UNL     1      -4.181   0.295  -1.263  1.00  0.00     0.041 A 
ATOM     16  C   UNL     1      -4.354   1.667  -1.112  1.00  0.00     0.022 A 
ATOM     17  Cl  UNL     1      -4.939  -0.528  -2.572  1.00  0.00    -0.084 Cl
BRANCH   8  18
ATOM     18  C   UNL     1      -0.921  -1.338   1.488  1.00  0.00     0.139 C 
BRANCH  18  19
ATOM     19  C   UNL     1       0.578  -1.028   1.601  1.00  0.00     0.231 C 
ATOM     20  O   UNL     1       1.029  -0.380   2.550  1.00  0.00    -0.274 OA
BRANCH  19  21
ATOM     21  N   UNL     1       1.437  -1.548   0.634  1.00  0.00    -0.312 N 
BRANCH  21  22
ATOM     22  C   UNL     1       1.114  -1.482  -0.787  1.00  0.00     0.122 C 
ATOM     23  C   UNL     1       0.925  -0.056  -1.293  1.00  0.00     0.028 C 
ENDBRANCH  21  22
BRANCH  21  24
ATOM     24  C   UNL     1       2.801  -1.636   1.030  1.00  0.00     0.044 A 
ATOM     25  C   UNL     1       3.176  -2.653   1.912  1.00  0.00     0.026 A 
ATOM     26  C   UNL     1       3.683  -0.585   0.778  1.00  0.00     0.030 A 
ATOM     27  C   UNL     1       4.433  -2.627   2.517  1.00  0.00     0.006 A 
ATOM     28  C   UNL     1       4.931  -0.522   1.421  1.00  0.00    -0.046 A 
ATOM     29  C   UNL     1       5.323  -1.567   2.281  1.00  0.00    -0.048 A 
ATOM     30  C   UNL     1       5.780   0.702   1.219  1.00  0.00     0.044 C 
ATOM     31  C   UNL     1       6.617  -1.546   3.049  1.00  0.00     0.044 C 
ENDBRANCH  21  24
ENDBRANCH  19  21
ENDBRANCH  18  19
ENDBRANCH   8  18
ENDBRANCH   4   7
ENDBRANCH   2   3
ENDBRANCH   1   2
BRANCH   1  32
ATOM     32  C   UNL     1       0.959  -2.485   5.443  1.00  0.00     0.023 C 
BRANCH  32  33
ATOM     33  C   UNL     1       0.706  -3.307   6.685  1.00  0.00     0.116 C 
BRANCH  33  34
ATOM     34  N   UNL     1       0.197  -4.647   6.392  1.00  0.00    -0.352 N 
ATOM     35  C   UNL     1       0.490  -5.839   7.006  1.00  0.00     0.251 C 
ATOM     36  H   UNL     1      -0.447  -4.702   5.649  1.00  0.00     0.163 HD
ATOM     37  O   UNL     1       0.044  -6.893   6.563  1.00  0.00    -0.269 OA
BRANCH  35  38
ATOM     38  C   UNL     1       1.389  -5.829   8.173  1.00  0.00     0.039 A 
ATOM     39  C   UNL     1       2.425  -6.760   8.245  1.00  0.00     0.014 A 
ATOM     40  C   UNL     1       1.254  -4.835   9.143  1.00  0.00     0.014 A 
ATOM     41  C   UNL     1       3.373  -6.644   9.260  1.00  0.00     0.010 A 
ATOM     42  C   UNL     1       2.266  -4.641  10.063  1.00  0.00     0.010 A 
ATOM     43  C   UNL     1       3.321  -5.559  10.150  1.00  0.00    -0.014 A 
BRANCH  43  44
ATOM     44  C   UNL     1       4.322  -5.380  11.225  1.00  0.00     0.031 A 
ATOM     45  C   UNL     1       3.859  -5.364  12.657  1.00  0.00     0.074 A 
ATOM     46  C   UNL     1       5.611  -5.150  10.909  1.00  0.00     0.049 A 
ATOM     47  N   UNL     1       4.544  -5.115  13.742  1.00  0.00    -0.248 NA
ATOM     48  C   UNL     1       2.425  -5.609  12.899  1.00  0.00     0.031 C 
ATOM     49  C   UNL     1       6.157  -5.077   9.551  1.00  0.00     0.029 A 
ATOM     50  N   UNL     1       6.698  -4.929  11.714  1.00  0.00    -0.354 N 
ATOM     51  C   UNL     1       3.619  -5.135  14.780  1.00  0.00     0.074 A 
ATOM     52  C   UNL     1       2.318  -5.350  14.191  1.00  0.00     0.031 C 
ATOM     53  C   UNL     1       7.482  -4.871   9.619  1.00  0.00     0.029 A 
ATOM     54  C   UNL     1       7.872  -4.756  11.020  1.00  0.00     0.049 A 
ATOM     55  H   UNL     1       6.643  -4.896  12.696  1.00  0.00     0.167 HD
ATOM     56  C   UNL     1       3.838  -5.020  16.110  1.00  0.00     0.031 A 
ATOM     57  C   UNL     1       9.122  -4.534  11.469  1.00  0.00     0.031 A 
ATOM     58  C   UNL     1       5.144  -4.860  16.684  1.00  0.00     0.049 A 
ATOM     59  C   UNL     1       9.350  -4.461  12.954  1.00  0.00     0.074 A 
ATOM     60  C   UNL     1       5.498  -4.810  18.019  1.00  0.00     0.029 A 
ATOM     61  N   UNL     1       6.314  -4.738  15.950  1.00  0.00    -0.354 N 
ATOM     62  N   UNL     1       8.473  -4.549  13.927  1.00  0.00    -0.248 NA
ATOM     63  C   UNL     1      10.736  -4.274  13.403  1.00  0.00     0.031 C 
ATOM     64  C   UNL     1       6.882  -4.621  18.092  1.00  0.00     0.029 A 
ATOM     65  C   UNL     1       7.393  -4.604  16.803  1.00  0.00     0.049 A 
ATOM     66  H   UNL     1       6.369  -4.747  14.967  1.00  0.00     0.167 HD
ATOM     67  C   UNL     1       9.204  -4.453  15.105  1.00  0.00     0.074 A 
ATOM     68  C   UNL     1      10.595  -4.317  14.721  1.00  0.00     0.031 C 
ATOM     69  C   UNL     1       8.767  -4.475  16.388  1.00  0.00     0.031 A 
BRANCH  56  70
ATOM     70  C   UNL     1       2.639  -5.081  17.018  1.00  0.00    -0.014 A 
ATOM     71  C   UNL     1       1.906  -6.273  17.177  1.00  0.00     0.010 A 
ATOM     72  C   UNL     1       2.240  -3.935  17.730  1.00  0.00     0.010 A 
ATOM     73  C   UNL     1       0.769  -6.304  17.988  1.00  0.00     0.020 A 
ATOM     74  C   UNL     1       1.122  -3.971  18.568  1.00  0.00     0.020 A 
ATOM     75  C   UNL     1       0.382  -5.151  18.676  1.00  0.00     0.054 A 
BRANCH  75  76
ATOM     76  S   UNL     1      -1.088  -5.225  19.736  1.00  0.00     0.124 S 
ATOM     77  O   UNL     1      -2.168  -5.234  18.752  1.00  0.00    -0.237 OA
ATOM     78  O   UNL     1      -0.894  -6.475  20.466  1.00  0.00    -0.237 OA
ATOM     79  O   UNL     1      -0.992  -4.013  20.545  1.00  0.00    -0.744 OA
ENDBRANCH  75  76
ENDBRANCH  56  70
BRANCH  57  80
ATOM     80  C   UNL     1      10.249  -4.410  10.506  1.00  0.00    -0.014 A 
ATOM     81  C   UNL     1      11.200  -5.439  10.387  1.00  0.00     0.010 A 
ATOM     82  C   UNL     1      10.366  -3.275   9.682  1.00  0.00     0.010 A 
ATOM     83  C   UNL     1      12.257  -5.329   9.479  1.00  0.00     0.020 A 
ATOM     84  C   UNL     1      11.407  -3.173   8.754  1.00  0.00     0.020 A 
ATOM     85  C   UNL     1      12.353  -4.196   8.666  1.00  0.00     0.054 A 
BRANCH  85  86
ATOM     86  S   UNL     1      13.702  -4.099   7.456  1.00  0.00     0.124 S 
ATOM     87  O   UNL     1      14.852  -3.810   8.307  1.00  0.00    -0.237 OA
ATOM     88  O   UNL     1      13.680  -5.428   6.850  1.00  0.00    -0.237 OA
ATOM     89  O   UNL     1      13.288  -3.013   6.571  1.00  0.00    -0.744 OA
ENDBRANCH  85  86
ENDBRANCH  57  80
BRANCH  69  90
ATOM     90  C   UNL     1       9.807  -4.383  17.469  1.00  0.00    -0.014 A 
ATOM     91  C   UNL     1      10.457  -3.169  17.749  1.00  0.00     0.010 A 
ATOM     92  C   UNL     1      10.087  -5.514  18.257  1.00  0.00     0.010 A 
ATOM     93  C   UNL     1      11.394  -3.095  18.782  1.00  0.00     0.020 A 
ATOM     94  C   UNL     1      11.002  -5.437  19.307  1.00  0.00     0.020 A 
ATOM     95  C   UNL     1      11.661  -4.231  19.554  1.00  0.00     0.054 A 
BRANCH  95  96
ATOM     96  S   UNL     1      12.845  -4.098  20.920  1.00  0.00     0.124 S 
ATOM     97  O   UNL     1      14.122  -4.068  20.212  1.00  0.00    -0.237 OA
ATOM     98  O   UNL     1      12.454  -2.846  21.564  1.00  0.00    -0.237 OA
ATOM     99  O   UNL     1      12.598  -5.301  21.710  1.00  0.00    -0.744 OA
ENDBRANCH  95  96
ENDBRANCH  69  90
ENDBRANCH  43  44
ENDBRANCH  35  38
ENDBRANCH  33  34
ENDBRANCH  32  33
ENDBRANCH   1  32
TORSDOF 19
