REMARK SMILES O=C(NCCCCNC(=O)c1cccc(Nc2ccc([N+](=O)[O-])cc2)c1)c1ccc(-c2c3nc(c(-c4ccc(S(=O)(=O)[O-])cc4)c4ccc([nH]4)c(-c4ccc(S(=O)(=O)[O-])cc4)c4nc(c(-c5ccc(S(=O)(=O)[O-])cc5)c5ccc2[nH]5)C=C4)C=C3)cc1
REMARK SMILES IDX 5 1 4 2 3 3 1 4 2 5 27 7 28 8 86 9 29 10 85 11 30 12 31 13
REMARK SMILES IDX 32 14 79 15 33 16 84 17 78 18 80 19 34 20 83 21 77 22 76 23
REMARK SMILES IDX 35 25 65 26 46 27 64 28 47 29 50 30 63 31 81 32 48 33 49 34
REMARK SMILES IDX 62 36 82 37 51 38 36 39 37 40 45 41 38 42 44 43 39 44 40 45
REMARK SMILES IDX 41 46 42 47 43 48 66 49 67 50 75 51 68 52 74 53 69 54 70 55
REMARK SMILES IDX 71 56 72 57 73 58 52 59 53 60 61 61 54 62 60 63 55 64 56 65
REMARK SMILES IDX 57 66 58 67 59 68 6 69 7 70 8 71 9 72 10 74 11 75 12 76
REMARK SMILES IDX 26 77 13 78 15 79 14 80 16 81 17 83 18 84 25 85 19 86 24 87
REMARK SMILES IDX 20 88 21 89 22 90 23 91
REMARK H PARENT 3 6 80 24 50 35 8 73 16 82
REMARK Flexibility Score: inf
ROOT
ATOM      1  C   UNL     1       4.892  -2.472   0.343  1.00  0.00     0.023 C 
ENDROOT
BRANCH   1   2
ATOM      2  C   UNL     1       4.582  -1.132  -0.311  1.00  0.00     0.116 C 
BRANCH   2   3
ATOM      3  N   UNL     1       3.155  -0.890  -0.479  1.00  0.00    -0.352 N 
ATOM      4  O   UNL     1       1.167   0.128  -0.157  1.00  0.00    -0.269 OA
ATOM      5  C   UNL     1       2.386   0.154  -0.017  1.00  0.00     0.251 C 
ATOM      6  H   UNL     1       2.671  -1.572  -0.998  1.00  0.00     0.163 HD
BRANCH   5   7
ATOM      7  C   UNL     1       3.033   1.286   0.683  1.00  0.00     0.039 A 
ATOM      8  C   UNL     1       4.194   1.866   0.172  1.00  0.00     0.014 A 
ATOM      9  C   UNL     1       2.494   1.742   1.889  1.00  0.00     0.014 A 
ATOM     10  C   UNL     1       4.919   2.756   0.956  1.00  0.00     0.010 A 
ATOM     11  C   UNL     1       3.174   2.714   2.629  1.00  0.00     0.010 A 
ATOM     12  C   UNL     1       4.422   3.189   2.197  1.00  0.00    -0.014 A 
BRANCH  12  13
ATOM     13  C   UNL     1       5.223   4.145   3.007  1.00  0.00     0.031 A 
ATOM     14  C   UNL     1       5.761   3.760   4.362  1.00  0.00     0.074 A 
ATOM     15  C   UNL     1       5.510   5.357   2.490  1.00  0.00     0.049 A 
ATOM     16  N   UNL     1       6.526   4.452   5.170  1.00  0.00    -0.248 NA
ATOM     17  C   UNL     1       5.390   2.435   4.883  1.00  0.00     0.031 C 
ATOM     18  C   UNL     1       5.048   5.849   1.189  1.00  0.00     0.029 A 
ATOM     19  N   UNL     1       6.281   6.381   2.976  1.00  0.00    -0.354 N 
ATOM     20  C   UNL     1       6.702   3.664   6.302  1.00  0.00     0.074 A 
ATOM     21  C   UNL     1       5.946   2.449   6.087  1.00  0.00     0.031 C 
ATOM     22  C   UNL     1       5.597   7.049   0.953  1.00  0.00     0.029 A 
ATOM     23  C   UNL     1       6.394   7.442   2.109  1.00  0.00     0.049 A 
ATOM     24  H   UNL     1       6.712   6.359   3.861  1.00  0.00     0.167 HD
ATOM     25  C   UNL     1       7.427   3.926   7.418  1.00  0.00     0.031 A 
ATOM     26  C   UNL     1       7.059   8.606   2.227  1.00  0.00     0.031 A 
ATOM     27  C   UNL     1       8.188   5.131   7.624  1.00  0.00     0.049 A 
ATOM     28  C   UNL     1       7.847   8.875   3.476  1.00  0.00     0.074 A 
ATOM     29  C   UNL     1       8.986   5.471   8.703  1.00  0.00     0.029 A 
ATOM     30  N   UNL     1       8.245   6.196   6.736  1.00  0.00    -0.354 N 
ATOM     31  N   UNL     1       8.023   8.102   4.521  1.00  0.00    -0.248 NA
ATOM     32  C   UNL     1       8.530  10.172   3.559  1.00  0.00     0.031 C 
ATOM     33  C   UNL     1       9.484   6.762   8.492  1.00  0.00     0.029 A 
ATOM     34  C   UNL     1       9.046   7.201   7.253  1.00  0.00     0.049 A 
ATOM     35  H   UNL     1       7.785   6.231   5.867  1.00  0.00     0.167 HD
ATOM     36  C   UNL     1       8.862   8.809   5.374  1.00  0.00     0.074 A 
ATOM     37  C   UNL     1       9.166  10.064   4.717  1.00  0.00     0.031 C 
ATOM     38  C   UNL     1       9.340   8.447   6.590  1.00  0.00     0.031 A 
BRANCH  25  39
ATOM     39  C   UNL     1       7.404   2.901   8.524  1.00  0.00    -0.014 A 
ATOM     40  C   UNL     1       8.060   1.663   8.395  1.00  0.00     0.010 A 
ATOM     41  C   UNL     1       6.746   3.200   9.732  1.00  0.00     0.010 A 
ATOM     42  C   UNL     1       8.017   0.727   9.433  1.00  0.00     0.020 A 
ATOM     43  C   UNL     1       6.724   2.278  10.782  1.00  0.00     0.020 A 
ATOM     44  C   UNL     1       7.343   1.038  10.618  1.00  0.00     0.054 A 
BRANCH  44  45
ATOM     45  S   UNL     1       7.306  -0.192  11.951  1.00  0.00     0.124 S 
ATOM     46  O   UNL     1       6.355  -1.171  11.430  1.00  0.00    -0.237 OA
ATOM     47  O   UNL     1       8.695  -0.640  12.014  1.00  0.00    -0.237 OA
ATOM     48  O   UNL     1       6.846   0.566  13.111  1.00  0.00    -0.744 OA
ENDBRANCH  44  45
ENDBRANCH  25  39
BRANCH  26  49
ATOM     49  C   UNL     1       7.012   9.597   1.119  1.00  0.00    -0.014 A 
ATOM     50  C   UNL     1       8.152   9.847   0.335  1.00  0.00     0.010 A 
ATOM     51  C   UNL     1       5.815  10.274   0.822  1.00  0.00     0.010 A 
ATOM     52  C   UNL     1       8.099  10.766  -0.716  1.00  0.00     0.020 A 
ATOM     53  C   UNL     1       5.750  11.171  -0.246  1.00  0.00     0.020 A 
ATOM     54  C   UNL     1       6.897  11.419  -1.002  1.00  0.00     0.054 A 
BRANCH  54  55
ATOM     55  S   UNL     1       6.835  12.564  -2.409  1.00  0.00     0.124 S 
ATOM     56  O   UNL     1       7.549  13.724  -1.886  1.00  0.00    -0.237 OA
ATOM     57  O   UNL     1       7.524  11.814  -3.456  1.00  0.00    -0.237 OA
ATOM     58  O   UNL     1       5.404  12.755  -2.630  1.00  0.00    -0.744 OA
ENDBRANCH  54  55
ENDBRANCH  26  49
BRANCH  38  59
ATOM     59  C   UNL     1      10.283   9.404   7.269  1.00  0.00    -0.014 A 
ATOM     60  C   UNL     1       9.831  10.619   7.814  1.00  0.00     0.010 A 
ATOM     61  C   UNL     1      11.644   9.066   7.383  1.00  0.00     0.010 A 
ATOM     62  C   UNL     1      10.731  11.498   8.423  1.00  0.00     0.020 A 
ATOM     63  C   UNL     1      12.542   9.928   8.016  1.00  0.00     0.020 A 
ATOM     64  C   UNL     1      12.082  11.148   8.516  1.00  0.00     0.054 A 
BRANCH  64  65
ATOM     65  S   UNL     1      13.229  12.294   9.329  1.00  0.00     0.124 S 
ATOM     66  O   UNL     1      13.397  13.328   8.312  1.00  0.00    -0.237 OA
ATOM     67  O   UNL     1      12.488  12.699  10.522  1.00  0.00    -0.237 OA
ATOM     68  O   UNL     1      14.411  11.475   9.587  1.00  0.00    -0.744 OA
ENDBRANCH  64  65
ENDBRANCH  38  59
ENDBRANCH  12  13
ENDBRANCH   5   7
ENDBRANCH   2   3
ENDBRANCH   1   2
BRANCH   1  69
ATOM     69  C   UNL     1       4.431  -3.699  -0.436  1.00  0.00     0.023 C 
BRANCH  69  70
ATOM     70  C   UNL     1       4.869  -3.744  -1.895  1.00  0.00     0.116 C 
BRANCH  70  71
ATOM     71  N   UNL     1       6.315  -3.732  -2.054  1.00  0.00    -0.352 N 
ATOM     72  C   UNL     1       7.114  -4.623  -2.725  1.00  0.00     0.251 C 
ATOM     73  H   UNL     1       6.784  -2.982  -1.621  1.00  0.00     0.163 HD
ATOM     74  O   UNL     1       8.337  -4.543  -2.669  1.00  0.00    -0.269 OA
BRANCH  72  75
ATOM     75  C   UNL     1       6.488  -5.707  -3.503  1.00  0.00     0.041 A 
ATOM     76  C   UNL     1       6.849  -7.024  -3.224  1.00  0.00     0.014 A 
ATOM     77  C   UNL     1       5.535  -5.415  -4.487  1.00  0.00     0.039 A 
ATOM     78  C   UNL     1       6.205  -8.059  -3.892  1.00  0.00     0.003 A 
ATOM     79  C   UNL     1       4.869  -6.446  -5.152  1.00  0.00     0.039 A 
ATOM     80  C   UNL     1       5.211  -7.768  -4.833  1.00  0.00     0.026 A 
BRANCH  79  81
ATOM     81  N   UNL     1       3.848  -6.120  -6.064  1.00  0.00    -0.356 N 
ATOM     82  H   UNL     1       3.810  -5.173  -6.333  1.00  0.00     0.167 HD
BRANCH  81  83
ATOM     83  C   UNL     1       2.875  -6.947  -6.644  1.00  0.00     0.039 A 
ATOM     84  C   UNL     1       2.712  -6.933  -8.035  1.00  0.00     0.033 A 
ATOM     85  C   UNL     1       2.146  -7.875  -5.887  1.00  0.00     0.033 A 
ATOM     86  C   UNL     1       1.876  -7.856  -8.667  1.00  0.00     0.088 A 
ATOM     87  C   UNL     1       1.296  -8.797  -6.502  1.00  0.00     0.088 A 
ATOM     88  C   UNL     1       1.182  -8.797  -7.897  1.00  0.00     0.269 A 
BRANCH  88  89
ATOM     89  N   UNL     1       0.359  -9.815  -8.560  1.00  0.00     0.062 N 
ATOM     90  O   UNL     1       0.310  -9.800  -9.798  1.00  0.00    -0.258 OA
ATOM     91  O   UNL     1      -0.229 -10.639  -7.845  1.00  0.00    -0.258 OA
ENDBRANCH  88  89
ENDBRANCH  81  83
ENDBRANCH  79  81
ENDBRANCH  72  75
ENDBRANCH  70  71
ENDBRANCH  69  70
ENDBRANCH   1  69
TORSDOF 17
