REMARK SMILES CC(=O)N1C[C@@H]2C[N@H+](CC(=O)NCc3ccccc3)C[C@]2(C(=O)NCCCCNC(=O)c2ccc(-c3c4nc(c(-c5ccc(S(=O)(=O)[O-])cc5)c5ccc([nH]5)c(-c5ccc(S(=O)(=O)[O-])cc5)c5nc(c(-c6ccc(S(=O)(=O)[O-])cc6)c6ccc3[nH]6)C=C5)C=C4)cc2)C1
REMARK SMILES IDX 26 1 25 2 24 3 22 4 23 5 21 7 4 8 5 9 92 10 6 11 7 12 20 13
REMARK SMILES IDX 8 14 2 16 1 17 3 18 9 19 10 20 11 21 12 22 13 24 14 25 15 26
REMARK SMILES IDX 19 27 16 28 18 29 17 30 27 31 28 32 29 33 30 34 31 36 32 37
REMARK SMILES IDX 33 38 91 39 34 40 90 41 35 42 36 43 37 44 84 45 38 46 89 47
REMARK SMILES IDX 83 48 85 49 39 50 88 51 82 52 81 53 40 55 70 56 51 57 69 58
REMARK SMILES IDX 52 59 55 60 68 61 86 62 53 63 54 64 67 66 87 67 56 68 41 69
REMARK SMILES IDX 42 70 50 71 43 72 49 73 44 74 45 75 46 76 47 77 48 78 71 79
REMARK SMILES IDX 72 80 80 81 73 82 79 83 74 84 75 85 76 86 77 87 78 88 57 89
REMARK SMILES IDX 58 90 66 91 59 92 65 93 60 94 61 95 62 96 63 97 64 98
REMARK H PARENT 24 6 8 15 12 23 29 35 85 54 55 65
REMARK Flexibility Score: inf
ROOT
ATOM      1  C   UNL     1       5.388   2.977  -6.654  1.00  0.00     0.023 C 
ENDROOT
BRANCH   1   2
ATOM      2  C   UNL     1       4.933   2.575  -5.226  1.00  0.00     0.116 C 
BRANCH   2   3
ATOM      3  N   UNL     1       4.538   3.730  -4.291  1.00  0.00    -0.355 N 
ATOM      4  C   UNL     1       3.394   4.323  -3.702  1.00  0.00     0.234 C 
ATOM      5  O   UNL     1       3.613   5.281  -2.952  1.00  0.00    -0.274 OA
ATOM      6  H   UNL     1       5.345   4.217  -4.008  1.00  0.00     0.163 HD
BRANCH   4   7
ATOM      7  C   UNL     1       1.937   3.717  -3.790  1.00  0.00     0.125 C 
ATOM      8  N   UNL     1       0.405   2.559  -2.298  1.00  0.00    -0.341 N 
ATOM      9  C   UNL     1      -0.432   3.136  -3.305  1.00  0.00     0.130 C 
ATOM     10  C   UNL     1       1.656   3.269  -2.300  1.00  0.00     0.143 C 
ATOM     11  C   UNL     1       0.455   4.192  -4.046  1.00  0.00     0.087 C 
ATOM     12  C   UNL     1       0.084   3.993  -5.524  1.00  0.00     0.269 C 
ATOM     13  C   UNL     1       2.093   2.941  -5.069  1.00  0.00     0.282 C 
ATOM     14  N   UNL     1       0.985   2.961  -5.954  1.00  0.00    -0.326 N 
ATOM     15  H   UNL     1       1.003   3.317  -6.910  1.00  0.00     0.348 HD
BRANCH   8  16
ATOM     16  C   UNL     1       0.029   1.410  -1.635  1.00  0.00     0.219 C 
ATOM     17  C   UNL     1       0.756   1.038  -0.371  1.00  0.00     0.114 C 
ATOM     18  O   UNL     1      -0.908   0.708  -2.020  1.00  0.00    -0.275 OA
ENDBRANCH   8  16
BRANCH  14  19
ATOM     19  C   UNL     1       0.747   1.659  -6.567  1.00  0.00     0.363 C 
BRANCH  19  20
ATOM     20  C   UNL     1       0.338   0.543  -5.574  1.00  0.00     0.275 C 
ATOM     21  O   UNL     1      -0.860   0.235  -5.514  1.00  0.00    -0.268 OA
ATOM     22  N   UNL     1       1.190  -0.114  -4.709  1.00  0.00    -0.347 N 
ATOM     23  H   UNL     1       0.754  -0.360  -3.861  1.00  0.00     0.164 HD
BRANCH  22  24
ATOM     24  C   UNL     1       2.608  -0.534  -4.765  1.00  0.00     0.151 C 
BRANCH  24  25
ATOM     25  C   UNL     1       3.377  -0.486  -3.434  1.00  0.00    -0.029 A 
ATOM     26  C   UNL     1       3.538   0.708  -2.739  1.00  0.00     0.005 A 
ATOM     27  C   UNL     1       4.053  -1.574  -2.874  1.00  0.00     0.005 A 
ATOM     28  C   UNL     1       4.253   0.861  -1.543  1.00  0.00     0.000 A 
ATOM     29  C   UNL     1       4.778  -1.451  -1.663  1.00  0.00     0.000 A 
ATOM     30  C   UNL     1       4.864  -0.237  -0.986  1.00  0.00     0.000 A 
ENDBRANCH  24  25
ENDBRANCH  22  24
ENDBRANCH  19  20
ENDBRANCH  14  19
ENDBRANCH   4   7
ENDBRANCH   2   3
ENDBRANCH   1   2
BRANCH   1  31
ATOM     31  C   UNL     1       6.393   2.002  -7.325  1.00  0.00     0.023 C 
BRANCH  31  32
ATOM     32  C   UNL     1       5.963   0.552  -7.608  1.00  0.00     0.116 C 
BRANCH  32  33
ATOM     33  N   UNL     1       5.208   0.361  -8.843  1.00  0.00    -0.352 N 
ATOM     34  C   UNL     1       5.479  -0.436  -9.949  1.00  0.00     0.251 C 
ATOM     35  H   UNL     1       4.373   0.879  -8.901  1.00  0.00     0.163 HD
ATOM     36  O   UNL     1       4.732  -0.414 -10.910  1.00  0.00    -0.269 OA
BRANCH  34  37
ATOM     37  C   UNL     1       6.698  -1.289  -9.986  1.00  0.00     0.039 A 
ATOM     38  C   UNL     1       7.552  -1.204 -11.091  1.00  0.00     0.014 A 
ATOM     39  C   UNL     1       7.006  -2.160  -8.941  1.00  0.00     0.014 A 
ATOM     40  C   UNL     1       8.769  -1.899 -11.090  1.00  0.00     0.010 A 
ATOM     41  C   UNL     1       8.249  -2.798  -8.911  1.00  0.00     0.010 A 
ATOM     42  C   UNL     1       9.158  -2.656  -9.973  1.00  0.00    -0.014 A 
BRANCH  42  43
ATOM     43  C   UNL     1      10.517  -3.264  -9.878  1.00  0.00     0.031 A 
ATOM     44  C   UNL     1      10.687  -4.757  -9.767  1.00  0.00     0.074 A 
ATOM     45  C   UNL     1      11.604  -2.465  -9.818  1.00  0.00     0.049 A 
ATOM     46  N   UNL     1      11.785  -5.454  -9.614  1.00  0.00    -0.248 NA
ATOM     47  C   UNL     1       9.462  -5.571  -9.808  1.00  0.00     0.031 C 
ATOM     48  C   UNL     1      11.585  -1.001  -9.873  1.00  0.00     0.029 A 
ATOM     49  N   UNL     1      12.940  -2.769  -9.691  1.00  0.00    -0.354 N 
ATOM     50  C   UNL     1      11.384  -6.783  -9.528  1.00  0.00     0.074 A 
ATOM     51  C   UNL     1       9.938  -6.788  -9.590  1.00  0.00     0.031 C 
ATOM     52  C   UNL     1      12.844  -0.538  -9.813  1.00  0.00     0.029 A 
ATOM     53  C   UNL     1      13.761  -1.664  -9.669  1.00  0.00     0.049 A 
ATOM     54  H   UNL     1      13.277  -3.691  -9.623  1.00  0.00     0.167 HD
ATOM     55  C   UNL     1      12.146  -7.899  -9.429  1.00  0.00     0.031 A 
ATOM     56  C   UNL     1      15.100  -1.562  -9.541  1.00  0.00     0.031 A 
ATOM     57  C   UNL     1      13.585  -7.895  -9.371  1.00  0.00     0.049 A 
ATOM     58  C   UNL     1      15.924  -2.814  -9.408  1.00  0.00     0.074 A 
ATOM     59  C   UNL     1      14.447  -8.977  -9.320  1.00  0.00     0.029 A 
ATOM     60  N   UNL     1      14.375  -6.756  -9.353  1.00  0.00    -0.354 N 
ATOM     61  N   UNL     1      15.526  -4.064  -9.395  1.00  0.00    -0.248 NA
ATOM     62  C   UNL     1      17.379  -2.643  -9.284  1.00  0.00     0.031 C 
ATOM     63  C   UNL     1      15.754  -8.492  -9.210  1.00  0.00     0.029 A 
ATOM     64  C   UNL     1      15.712  -7.108  -9.264  1.00  0.00     0.049 A 
ATOM     65  H   UNL     1      14.036  -5.832  -9.397  1.00  0.00     0.167 HD
ATOM     66  C   UNL     1      16.684  -4.829  -9.294  1.00  0.00     0.074 A 
ATOM     67  C   UNL     1      17.796  -3.902  -9.264  1.00  0.00     0.031 C 
ATOM     68  C   UNL     1      16.813  -6.178  -9.235  1.00  0.00     0.031 A 
BRANCH  55  69
ATOM     69  C   UNL     1      11.434  -9.228  -9.372  1.00  0.00    -0.014 A 
ATOM     70  C   UNL     1      10.743  -9.731 -10.491  1.00  0.00     0.010 A 
ATOM     71  C   UNL     1      11.490 -10.005  -8.200  1.00  0.00     0.010 A 
ATOM     72  C   UNL     1      10.084 -10.961 -10.423  1.00  0.00     0.020 A 
ATOM     73  C   UNL     1      10.859 -11.251  -8.139  1.00  0.00     0.020 A 
ATOM     74  C   UNL     1      10.144 -11.713  -9.246  1.00  0.00     0.054 A 
BRANCH  74  75
ATOM     75  S   UNL     1       9.294 -13.314  -9.195  1.00  0.00     0.124 S 
ATOM     76  O   UNL     1       7.891 -12.909  -9.172  1.00  0.00    -0.237 OA
ATOM     77  O   UNL     1       9.743 -13.953 -10.429  1.00  0.00    -0.237 OA
ATOM     78  O   UNL     1       9.784 -13.929  -7.964  1.00  0.00    -0.744 OA
ENDBRANCH  74  75
ENDBRANCH  55  69
BRANCH  56  79
ATOM     79  C   UNL     1      15.752  -0.220  -9.549  1.00  0.00    -0.014 A 
ATOM     80  C   UNL     1      16.566   0.173 -10.626  1.00  0.00     0.010 A 
ATOM     81  C   UNL     1      15.561   0.673  -8.479  1.00  0.00     0.010 A 
ATOM     82  C   UNL     1      17.191   1.425 -10.625  1.00  0.00     0.020 A 
ATOM     83  C   UNL     1      16.158   1.937  -8.488  1.00  0.00     0.020 A 
ATOM     84  C   UNL     1      16.980   2.301  -9.557  1.00  0.00     0.054 A 
BRANCH  84  85
ATOM     85  S   UNL     1      17.760   3.939  -9.601  1.00  0.00     0.124 S 
ATOM     86  O   UNL     1      19.163   3.613  -9.370  1.00  0.00    -0.237 OA
ATOM     87  O   UNL     1      17.430   4.407 -10.944  1.00  0.00    -0.237 OA
ATOM     88  O   UNL     1      17.098   4.661  -8.517  1.00  0.00    -0.744 OA
ENDBRANCH  84  85
ENDBRANCH  56  79
BRANCH  68  89
ATOM     89  C   UNL     1      18.208  -6.743  -9.172  1.00  0.00    -0.014 A 
ATOM     90  C   UNL     1      19.002  -6.613  -8.019  1.00  0.00     0.010 A 
ATOM     91  C   UNL     1      18.710  -7.468 -10.270  1.00  0.00     0.010 A 
ATOM     92  C   UNL     1      20.283  -7.171  -7.976  1.00  0.00     0.020 A 
ATOM     93  C   UNL     1      19.977  -8.055 -10.219  1.00  0.00     0.020 A 
ATOM     94  C   UNL     1      20.762  -7.890  -9.076  1.00  0.00     0.054 A 
BRANCH  94  95
ATOM     95  S   UNL     1      22.409  -8.643  -8.976  1.00  0.00     0.124 S 
ATOM     96  O   UNL     1      23.282  -7.476  -9.057  1.00  0.00    -0.237 OA
ATOM     97  O   UNL     1      22.375  -9.313  -7.678  1.00  0.00    -0.237 OA
ATOM     98  O   UNL     1      22.453  -9.536 -10.132  1.00  0.00    -0.744 OA
ENDBRANCH  94  95
ENDBRANCH  68  89
ENDBRANCH  42  43
ENDBRANCH  34  37
ENDBRANCH  32  33
ENDBRANCH  31  32
ENDBRANCH   1  31
TORSDOF 19
