REMARK SMILES CS(=O)(=O)c1ccc(/C=C(/C(=O)NCCCCNC(=O)c2ccc(-c3c4nc(c(-c5ccc(S(=O)(=O)[O-])cc5)c5ccc([nH]5)c(-c5ccc(S(=O)(=O)[O-])cc5)c5nc(c(-c6ccc(S(=O)(=O)[O-])cc6)c6ccc3[nH]6)C=C5)C=C4)cc2)c2ccc(-c3ccc(S(C)(=O)=O)cc3)cc2)cc1
REMARK SMILES IDX 15 1 14 2 13 3 11 4 12 5 10 7 9 8 8 9 5 10 6 11 98 12 7 13
REMARK SMILES IDX 97 14 2 15 1 16 3 17 4 18 81 19 82 20 96 21 83 22 95 23
REMARK SMILES IDX 84 24 85 25 86 26 94 27 87 28 93 29 88 30 89 31 90 32 91 33
REMARK SMILES IDX 92 34 16 35 17 36 18 37 19 38 20 40 21 41 22 42 80 43 23 44
REMARK SMILES IDX 79 45 24 46 25 47 26 48 73 49 27 50 78 51 72 52 74 53 28 54
REMARK SMILES IDX 77 55 71 56 70 57 29 59 59 60 40 61 58 62 41 63 44 64 57 65
REMARK SMILES IDX 75 66 42 67 43 68 56 70 76 71 45 72 30 73 31 74 39 75 32 76
REMARK SMILES IDX 38 77 33 78 34 79 35 80 36 81 37 82 60 83 61 84 69 85 62 86
REMARK SMILES IDX 68 87 63 88 64 89 65 90 66 91 67 92 46 93 47 94 55 95 48 96
REMARK SMILES IDX 54 97 49 98 50 99 51 100 52 101 53 102
REMARK H PARENT 13 6 18 39 74 58 44 69
REMARK Flexibility Score: inf
ROOT
ATOM      1  C   UNL     1       4.935  -7.569  -4.093  1.00  0.00     0.023 C 
ENDROOT
BRANCH   1   2
ATOM      2  C   UNL     1       3.449  -7.519  -4.454  1.00  0.00     0.116 C 
BRANCH   2   3
ATOM      3  N   UNL     1       2.753  -8.639  -3.855  1.00  0.00    -0.352 N 
ATOM      4  C   UNL     1       1.983  -8.790  -2.747  1.00  0.00     0.251 C 
ATOM      5  O   UNL     1       1.587  -9.937  -2.525  1.00  0.00    -0.269 OA
ATOM      6  H   UNL     1       2.862  -9.474  -4.364  1.00  0.00     0.163 HD
BRANCH   4   7
ATOM      7  C   UNL     1       1.536  -7.645  -1.862  1.00  0.00     0.047 C 
ATOM      8  C   UNL     1       2.286  -6.536  -1.656  1.00  0.00     0.022 C 
BRANCH   8   9
ATOM      9  C   UNL     1       1.950  -5.284  -0.936  1.00  0.00    -0.025 A 
ATOM     10  C   UNL     1       1.164  -2.817   0.170  1.00  0.00     0.067 A 
ATOM     11  C   UNL     1       0.886  -4.010   0.843  1.00  0.00     0.021 A 
ATOM     12  C   UNL     1       1.895  -2.838  -1.016  1.00  0.00     0.021 A 
ATOM     13  C   UNL     1       1.307  -5.231   0.305  1.00  0.00     0.009 A 
ATOM     14  C   UNL     1       2.280  -4.069  -1.562  1.00  0.00     0.009 A 
BRANCH  10  15
ATOM     15  S   UNL     1       0.529  -1.317   0.877  1.00  0.00     0.175 S 
ATOM     16  C   UNL     1       1.187   0.036  -0.053  1.00  0.00     0.163 C 
ATOM     17  O   UNL     1       1.080  -1.224   2.216  1.00  0.00    -0.224 OA
ATOM     18  O   UNL     1      -0.905  -1.335   0.656  1.00  0.00    -0.224 OA
ENDBRANCH  10  15
ENDBRANCH   8   9
BRANCH   7  19
ATOM     19  C   UNL     1       0.315  -7.881  -1.048  1.00  0.00    -0.013 A 
ATOM     20  C   UNL     1       0.381  -8.855  -0.040  1.00  0.00     0.009 A 
ATOM     21  C   UNL     1      -0.843  -7.106  -1.157  1.00  0.00     0.009 A 
ATOM     22  C   UNL     1      -0.651  -8.998   0.884  1.00  0.00     0.009 A 
ATOM     23  C   UNL     1      -1.867  -7.235  -0.207  1.00  0.00     0.009 A 
ATOM     24  C   UNL     1      -1.773  -8.158   0.851  1.00  0.00    -0.018 A 
BRANCH  24  25
ATOM     25  C   UNL     1      -2.775  -8.218   1.931  1.00  0.00    -0.018 A 
ATOM     26  C   UNL     1      -2.364  -8.278   3.278  1.00  0.00     0.010 A 
ATOM     27  C   UNL     1      -4.154  -8.201   1.664  1.00  0.00     0.010 A 
ATOM     28  C   UNL     1      -3.289  -8.334   4.322  1.00  0.00     0.021 A 
ATOM     29  C   UNL     1      -5.091  -8.257   2.702  1.00  0.00     0.021 A 
ATOM     30  C   UNL     1      -4.651  -8.335   4.024  1.00  0.00     0.067 A 
BRANCH  30  31
ATOM     31  S   UNL     1      -5.820  -8.415   5.356  1.00  0.00     0.175 S 
ATOM     32  C   UNL     1      -5.587 -10.043   6.022  1.00  0.00     0.163 C 
ATOM     33  O   UNL     1      -5.401  -7.452   6.355  1.00  0.00    -0.224 OA
ATOM     34  O   UNL     1      -7.154  -8.363   4.784  1.00  0.00    -0.224 OA
ENDBRANCH  30  31
ENDBRANCH  24  25
ENDBRANCH   7  19
ENDBRANCH   4   7
ENDBRANCH   2   3
ENDBRANCH   1   2
BRANCH   1  35
ATOM     35  C   UNL     1       5.718  -8.675  -4.813  1.00  0.00     0.023 C 
BRANCH  35  36
ATOM     36  C   UNL     1       5.705  -8.595  -6.338  1.00  0.00     0.116 C 
BRANCH  36  37
ATOM     37  N   UNL     1       6.171  -7.311  -6.844  1.00  0.00    -0.352 N 
ATOM     38  C   UNL     1       6.979  -7.054  -7.925  1.00  0.00     0.251 C 
ATOM     39  H   UNL     1       5.866  -6.520  -6.343  1.00  0.00     0.163 HD
ATOM     40  O   UNL     1       7.375  -5.915  -8.144  1.00  0.00    -0.269 OA
BRANCH  38  41
ATOM     41  C   UNL     1       7.393  -8.174  -8.793  1.00  0.00     0.039 A 
ATOM     42  C   UNL     1       8.754  -8.368  -9.040  1.00  0.00     0.014 A 
ATOM     43  C   UNL     1       6.443  -9.065  -9.301  1.00  0.00     0.014 A 
ATOM     44  C   UNL     1       9.171  -9.512  -9.721  1.00  0.00     0.010 A 
ATOM     45  C   UNL     1       6.866 -10.234  -9.928  1.00  0.00     0.010 A 
ATOM     46  C   UNL     1       8.234 -10.480 -10.121  1.00  0.00    -0.014 A 
BRANCH  46  47
ATOM     47  C   UNL     1       8.666 -11.787 -10.677  1.00  0.00     0.031 A 
ATOM     48  C   UNL     1       8.315 -12.170 -12.086  1.00  0.00     0.074 A 
ATOM     49  C   UNL     1       9.305 -12.662  -9.874  1.00  0.00     0.049 A 
ATOM     50  N   UNL     1       8.530 -13.301 -12.708  1.00  0.00    -0.248 NA
ATOM     51  C   UNL     1       7.613 -11.161 -12.896  1.00  0.00     0.031 C 
ATOM     52  C   UNL     1       9.670 -12.420  -8.475  1.00  0.00     0.029 A 
ATOM     53  N   UNL     1       9.750 -13.938 -10.113  1.00  0.00    -0.354 N 
ATOM     54  C   UNL     1       7.987 -13.145 -13.977  1.00  0.00     0.074 A 
ATOM     55  C   UNL     1       7.392 -11.826 -14.022  1.00  0.00     0.031 C 
ATOM     56  C   UNL     1      10.297 -13.502  -7.989  1.00  0.00     0.029 A 
ATOM     57  C   UNL     1      10.338 -14.533  -9.021  1.00  0.00     0.049 A 
ATOM     58  H   UNL     1       9.658 -14.387 -10.985  1.00  0.00     0.167 HD
ATOM     59  C   UNL     1       7.996 -14.015 -15.014  1.00  0.00     0.031 A 
ATOM     60  C   UNL     1      10.836 -15.774  -8.858  1.00  0.00     0.031 A 
ATOM     61  C   UNL     1       8.588 -15.326 -14.963  1.00  0.00     0.049 A 
ATOM     62  C   UNL     1      10.794 -16.736 -10.014  1.00  0.00     0.074 A 
ATOM     63  C   UNL     1       8.694 -16.261 -15.979  1.00  0.00     0.029 A 
ATOM     64  N   UNL     1       9.165 -15.893 -13.837  1.00  0.00    -0.354 N 
ATOM     65  N   UNL     1      10.338 -16.543 -11.228  1.00  0.00    -0.248 NA
ATOM     66  C   UNL     1      11.333 -18.082  -9.777  1.00  0.00     0.031 C 
ATOM     67  C   UNL     1       9.283 -17.415 -15.452  1.00  0.00     0.029 A 
ATOM     68  C   UNL     1       9.597 -17.178 -14.123  1.00  0.00     0.049 A 
ATOM     69  H   UNL     1       9.255 -15.449 -12.964  1.00  0.00     0.167 HD
ATOM     70  C   UNL     1      10.551 -17.739 -11.905  1.00  0.00     0.074 A 
ATOM     71  C   UNL     1      11.198 -18.639 -10.973  1.00  0.00     0.031 C 
ATOM     72  C   UNL     1      10.233 -18.064 -13.182  1.00  0.00     0.031 A 
BRANCH  59  73
ATOM     73  C   UNL     1       7.343 -13.580 -16.300  1.00  0.00    -0.014 A 
ATOM     74  C   UNL     1       7.931 -12.592 -17.110  1.00  0.00     0.010 A 
ATOM     75  C   UNL     1       6.164 -14.211 -16.735  1.00  0.00     0.010 A 
ATOM     76  C   UNL     1       7.335 -12.222 -18.318  1.00  0.00     0.020 A 
ATOM     77  C   UNL     1       5.578 -13.862 -17.956  1.00  0.00     0.020 A 
ATOM     78  C   UNL     1       6.162 -12.860 -18.734  1.00  0.00     0.054 A 
BRANCH  78  79
ATOM     79  S   UNL     1       5.434 -12.384 -20.326  1.00  0.00     0.124 S 
ATOM     80  O   UNL     1       4.902 -11.056 -20.029  1.00  0.00    -0.237 OA
ATOM     81  O   UNL     1       6.585 -12.412 -21.224  1.00  0.00    -0.237 OA
ATOM     82  O   UNL     1       4.430 -13.416 -20.571  1.00  0.00    -0.744 OA
ENDBRANCH  78  79
ENDBRANCH  59  73
BRANCH  60  83
ATOM     83  C   UNL     1      11.406 -16.186  -7.546  1.00  0.00    -0.014 A 
ATOM     84  C   UNL     1      12.786 -16.420  -7.408  1.00  0.00     0.010 A 
ATOM     85  C   UNL     1      10.570 -16.353  -6.427  1.00  0.00     0.010 A 
ATOM     86  C   UNL     1      13.315 -16.836  -6.183  1.00  0.00     0.020 A 
ATOM     87  C   UNL     1      11.099 -16.740  -5.192  1.00  0.00     0.020 A 
ATOM     88  C   UNL     1      12.468 -16.994  -5.082  1.00  0.00     0.054 A 
BRANCH  88  89
ATOM     89  S   UNL     1      13.181 -17.500  -3.493  1.00  0.00     0.124 S 
ATOM     90  O   UNL     1      13.468 -18.912  -3.725  1.00  0.00    -0.237 OA
ATOM     91  O   UNL     1      14.347 -16.627  -3.378  1.00  0.00    -0.237 OA
ATOM     92  O   UNL     1      12.111 -17.225  -2.536  1.00  0.00    -0.744 OA
ENDBRANCH  88  89
ENDBRANCH  60  83
BRANCH  72  93
ATOM     93  C   UNL     1      10.591 -19.449 -13.652  1.00  0.00    -0.014 A 
ATOM     94  C   UNL     1       9.878 -20.573 -13.199  1.00  0.00     0.010 A 
ATOM     95  C   UNL     1      11.616 -19.622 -14.600  1.00  0.00     0.010 A 
ATOM     96  C   UNL     1      10.201 -21.849 -13.668  1.00  0.00     0.020 A 
ATOM     97  C   UNL     1      11.922 -20.893 -15.093  1.00  0.00     0.020 A 
ATOM     98  C   UNL     1      11.219 -22.001 -14.614  1.00  0.00     0.054 A 
BRANCH  98  99
ATOM     99  S   UNL     1      11.581 -23.663 -15.244  1.00  0.00     0.124 S 
ATOM    100  O   UNL     1      12.249 -24.282 -14.103  1.00  0.00    -0.237 OA
ATOM    101  O   UNL     1      10.252 -24.184 -15.555  1.00  0.00    -0.237 OA
ATOM    102  O   UNL     1      12.434 -23.415 -16.405  1.00  0.00    -0.744 OA
ENDBRANCH  98  99
ENDBRANCH  72  93
ENDBRANCH  46  47
ENDBRANCH  38  41
ENDBRANCH  36  37
ENDBRANCH  35  36
ENDBRANCH   1  35
TORSDOF 19
