REMARK SMILES Cc1cccc(-c2ccc(Cl)c(C(=O)NCCCCNC(=O)c3ccc(-c4c5nc(c(-c6ccc(S(=O)(=O)[O-])cc6)c6ccc([nH]6)c(-c6ccc(S(=O)(=O)[O-])cc6)c6nc(c(-c7ccc(S(=O)(=O)[O-])cc7)c7ccc4[nH]7)C=C6)C=C5)cc3)c2)c1
REMARK SMILES IDX 18 1 17 2 16 3 15 4 13 5 14 6 12 8 7 9 8 10 83 11 9 12 10 13
REMARK SMILES IDX 11 14 6 15 1 16 2 17 3 18 84 19 4 20 5 21 19 22 20 23 21 24
REMARK SMILES IDX 22 26 23 27 24 28 82 29 25 30 81 31 26 32 27 33 28 34 75 35
REMARK SMILES IDX 29 36 80 37 74 38 76 39 30 40 79 41 73 42 72 43 31 45 61 46
REMARK SMILES IDX 42 47 60 48 43 49 46 50 59 51 77 52 44 53 45 54 58 56 78 57
REMARK SMILES IDX 47 58 32 59 33 60 41 61 34 62 40 63 35 64 36 65 37 66 38 67
REMARK SMILES IDX 39 68 62 69 63 70 71 71 64 72 70 73 65 74 66 75 67 76 68 77
REMARK SMILES IDX 69 78 48 79 49 80 57 81 50 82 56 83 51 84 52 85 53 86 54 87
REMARK SMILES IDX 55 88
REMARK H PARENT 15 7 20 25 76 44 46 55
REMARK Flexibility Score: inf
ROOT
ATOM      1  C   UNL     1      -7.914   6.659   1.009  1.00  0.00     0.023 C 
ENDROOT
BRANCH   1   2
ATOM      2  C   UNL     1      -6.868   6.292  -0.037  1.00  0.00     0.023 C 
BRANCH   2   3
ATOM      3  C   UNL     1      -5.405   6.360   0.405  1.00  0.00     0.116 C 
BRANCH   3   4
ATOM      4  N   UNL     1      -5.078   5.559   1.580  1.00  0.00    -0.352 N 
ATOM      5  C   UNL     1      -4.023   4.713   1.838  1.00  0.00     0.252 C 
ATOM      6  O   UNL     1      -3.962   4.165   2.939  1.00  0.00    -0.269 OA
ATOM      7  H   UNL     1      -5.725   5.638   2.318  1.00  0.00     0.163 HD
BRANCH   5   8
ATOM      8  C   UNL     1      -3.017   4.344   0.809  1.00  0.00     0.059 A 
ATOM      9  C   UNL     1      -1.707   2.513  -0.184  1.00  0.00    -0.017 A 
ATOM     10  C   UNL     1      -1.230   3.426  -1.137  1.00  0.00     0.010 A 
ATOM     11  C   UNL     1      -2.655   2.977   0.744  1.00  0.00     0.024 A 
ATOM     12  C   UNL     1      -1.522   4.785  -1.036  1.00  0.00     0.022 A 
ATOM     13  C   UNL     1      -2.341   5.254  -0.008  1.00  0.00     0.053 A 
ATOM     14  Cl  UNL     1      -2.303   6.958   0.276  1.00  0.00    -0.083 Cl
BRANCH   9  15
ATOM     15  C   UNL     1      -1.101   1.169  -0.102  1.00  0.00    -0.018 A 
ATOM     16  C   UNL     1       2.457  -0.244   0.038  1.00  0.00     0.044 C 
ATOM     17  C   UNL     1       0.959  -0.176   0.014  1.00  0.00    -0.051 A 
ATOM     18  C   UNL     1       0.188  -1.338   0.059  1.00  0.00     0.003 A 
ATOM     19  C   UNL     1       0.306   1.060  -0.064  1.00  0.00     0.012 A 
ATOM     20  C   UNL     1      -1.207  -1.256   0.040  1.00  0.00     0.001 A 
ATOM     21  C   UNL     1      -1.848  -0.012  -0.036  1.00  0.00     0.009 A 
ENDBRANCH   9  15
ENDBRANCH   5   8
ENDBRANCH   3   4
ENDBRANCH   2   3
ENDBRANCH   1   2
BRANCH   1  22
ATOM     22  C   UNL     1      -7.810   8.067   1.586  1.00  0.00     0.116 C 
BRANCH  22  23
ATOM     23  N   UNL     1      -8.589   9.066   0.874  1.00  0.00    -0.352 N 
ATOM     24  C   UNL     1      -9.054  10.279   1.367  1.00  0.00     0.251 C 
ATOM     25  H   UNL     1      -8.814   8.860  -0.062  1.00  0.00     0.163 HD
ATOM     26  O   UNL     1     -10.024  10.844   0.897  1.00  0.00    -0.269 OA
BRANCH  24  27
ATOM     27  C   UNL     1      -8.216  10.951   2.388  1.00  0.00     0.039 A 
ATOM     28  C   UNL     1      -7.588  12.149   2.021  1.00  0.00     0.014 A 
ATOM     29  C   UNL     1      -7.856  10.293   3.557  1.00  0.00     0.014 A 
ATOM     30  C   UNL     1      -6.467  12.583   2.726  1.00  0.00     0.010 A 
ATOM     31  C   UNL     1      -6.682  10.657   4.181  1.00  0.00     0.010 A 
ATOM     32  C   UNL     1      -5.961  11.776   3.740  1.00  0.00    -0.014 A 
BRANCH  32  33
ATOM     33  C   UNL     1      -4.666  11.961   4.385  1.00  0.00     0.031 A 
ATOM     34  C   UNL     1      -4.604  12.400   5.799  1.00  0.00     0.074 A 
ATOM     35  C   UNL     1      -3.543  11.530   3.768  1.00  0.00     0.049 A 
ATOM     36  N   UNL     1      -3.539  12.819   6.397  1.00  0.00    -0.248 NA
ATOM     37  C   UNL     1      -5.786  12.438   6.655  1.00  0.00     0.031 C 
ATOM     38  C   UNL     1      -2.253  11.250   4.396  1.00  0.00     0.029 A 
ATOM     39  N   UNL     1      -3.267  11.442   2.402  1.00  0.00    -0.354 N 
ATOM     40  C   UNL     1      -3.803  12.823   7.749  1.00  0.00     0.074 A 
ATOM     41  C   UNL     1      -5.238  12.695   7.845  1.00  0.00     0.031 C 
ATOM     42  C   UNL     1      -1.296  11.328   3.460  1.00  0.00     0.029 A 
ATOM     43  C   UNL     1      -1.925  11.841   2.256  1.00  0.00     0.049 A 
ATOM     44  H   UNL     1      -3.883  11.160   1.688  1.00  0.00     0.167 HD
ATOM     45  C   UNL     1      -2.767  12.777   8.637  1.00  0.00     0.031 A 
ATOM     46  C   UNL     1      -1.550  12.983   1.603  1.00  0.00     0.031 A 
ATOM     47  C   UNL     1      -1.468  12.926   7.972  1.00  0.00     0.049 A 
ATOM     48  C   UNL     1      -0.806  13.980   2.482  1.00  0.00     0.074 A 
ATOM     49  C   UNL     1      -0.403  12.082   7.703  1.00  0.00     0.029 A 
ATOM     50  N   UNL     1      -1.238  14.070   7.223  1.00  0.00    -0.354 N 
ATOM     51  N   UNL     1      -0.530  13.794   3.744  1.00  0.00    -0.248 NA
ATOM     52  C   UNL     1      -0.402  15.312   2.025  1.00  0.00     0.031 C 
ATOM     53  C   UNL     1       0.456  12.730   6.765  1.00  0.00     0.029 A 
ATOM     54  C   UNL     1      -0.080  13.972   6.478  1.00  0.00     0.049 A 
ATOM     55  H   UNL     1      -1.830  14.858   7.222  1.00  0.00     0.167 HD
ATOM     56  C   UNL     1      -0.003  14.939   4.277  1.00  0.00     0.074 A 
ATOM     57  C   UNL     1       0.079  15.858   3.156  1.00  0.00     0.031 C 
ATOM     58  C   UNL     1       0.281  15.077   5.604  1.00  0.00     0.031 A 
BRANCH  45  59
ATOM     59  C   UNL     1      -2.919  12.358  10.090  1.00  0.00    -0.014 A 
ATOM     60  C   UNL     1      -1.802  11.866  10.800  1.00  0.00     0.010 A 
ATOM     61  C   UNL     1      -4.135  12.357  10.800  1.00  0.00     0.010 A 
ATOM     62  C   UNL     1      -1.914  11.316  12.089  1.00  0.00     0.020 A 
ATOM     63  C   UNL     1      -4.272  11.785  12.074  1.00  0.00     0.020 A 
ATOM     64  C   UNL     1      -3.159  11.251  12.708  1.00  0.00     0.054 A 
BRANCH  64  65
ATOM     65  S   UNL     1      -3.314  10.465  14.333  1.00  0.00     0.124 S 
ATOM     66  O   UNL     1      -2.798   9.122  14.084  1.00  0.00    -0.237 OA
ATOM     67  O   UNL     1      -2.479  11.317  15.175  1.00  0.00    -0.237 OA
ATOM     68  O   UNL     1      -4.747  10.531  14.615  1.00  0.00    -0.744 OA
ENDBRANCH  64  65
ENDBRANCH  45  59
BRANCH  46  69
ATOM     69  C   UNL     1      -2.448  13.346   0.469  1.00  0.00    -0.014 A 
ATOM     70  C   UNL     1      -2.433  12.497  -0.659  1.00  0.00     0.010 A 
ATOM     71  C   UNL     1      -3.565  14.172   0.685  1.00  0.00     0.010 A 
ATOM     72  C   UNL     1      -3.585  12.321  -1.427  1.00  0.00     0.020 A 
ATOM     73  C   UNL     1      -4.718  14.006  -0.095  1.00  0.00     0.020 A 
ATOM     74  C   UNL     1      -4.742  13.021  -1.087  1.00  0.00     0.054 A 
BRANCH  74  75
ATOM     75  S   UNL     1      -6.319  12.465  -1.804  1.00  0.00     0.124 S 
ATOM     76  O   UNL     1      -6.047  12.509  -3.237  1.00  0.00    -0.237 OA
ATOM     77  O   UNL     1      -6.454  11.127  -1.229  1.00  0.00    -0.237 OA
ATOM     78  O   UNL     1      -7.275  13.453  -1.314  1.00  0.00    -0.744 OA
ENDBRANCH  74  75
ENDBRANCH  46  69
BRANCH  58  79
ATOM     79  C   UNL     1       0.894  16.316   6.199  1.00  0.00    -0.014 A 
ATOM     80  C   UNL     1       1.964  16.988   5.587  1.00  0.00     0.010 A 
ATOM     81  C   UNL     1       0.488  16.766   7.474  1.00  0.00     0.010 A 
ATOM     82  C   UNL     1       2.561  18.102   6.195  1.00  0.00     0.020 A 
ATOM     83  C   UNL     1       1.089  17.863   8.098  1.00  0.00     0.020 A 
ATOM     84  C   UNL     1       2.111  18.538   7.444  1.00  0.00     0.054 A 
BRANCH  84  85
ATOM     85  S   UNL     1       2.915  19.958   8.230  1.00  0.00     0.124 S 
ATOM     86  O   UNL     1       4.332  19.715   7.966  1.00  0.00    -0.237 OA
ATOM     87  O   UNL     1       2.326  21.079   7.502  1.00  0.00    -0.237 OA
ATOM     88  O   UNL     1       2.521  19.849   9.633  1.00  0.00    -0.744 OA
ENDBRANCH  84  85
ENDBRANCH  58  79
ENDBRANCH  32  33
ENDBRANCH  24  27
ENDBRANCH  22  23
ENDBRANCH   1  22
TORSDOF 15
