REMARK SMILES CCCc1cc(OC(F)(F)F)cc2c1O[C@@H](C(F)(F)F)C(C(=O)NCCCCNC(=O)c1ccc(-c3c4nc(c(-c5ccc(S(=O)(=O)[O-])cc5)c5ccc([nH]5)c(-c5ccc(S(=O)(=O)[O-])cc5)c5nc(c(-c6ccc(S(=O)(=O)[O-])cc6)c6ccc3[nH]6)C=C5)C=C4)cc1)=C2
REMARK SMILES IDX 27 1 26 2 25 3 24 4 22 5 23 6 21 8 4 9 5 10 14 11 6 12 13 13
REMARK SMILES IDX 15 14 12 15 92 16 16 17 3 18 2 19 1 20 7 21 8 22 9 23 10 24
REMARK SMILES IDX 11 25 17 26 18 27 19 28 20 29 28 30 29 31 30 32 31 34 32 35
REMARK SMILES IDX 33 36 91 37 34 38 90 39 35 40 36 41 37 42 84 43 38 44 89 45
REMARK SMILES IDX 83 46 85 47 39 48 88 49 82 50 81 51 40 53 70 54 51 55 69 56
REMARK SMILES IDX 52 57 55 58 68 59 86 60 53 61 54 62 67 64 87 65 56 66 41 67
REMARK SMILES IDX 42 68 50 69 43 70 49 71 44 72 45 73 46 74 47 75 48 76 71 77
REMARK SMILES IDX 72 78 80 79 73 80 79 81 74 82 75 83 76 84 77 85 78 86 57 87
REMARK SMILES IDX 58 88 66 89 59 90 65 91 60 92 61 93 62 94 63 95 64 96
REMARK H PARENT 24 7 29 33 85 52 55 63
REMARK Flexibility Score: inf
ROOT
ATOM      1  C   UNL     1      -2.760  -5.290   9.185  1.00  0.00     0.023 C 
ENDROOT
BRANCH   1   2
ATOM      2  C   UNL     1      -2.094  -4.474   8.074  1.00  0.00     0.023 C 
BRANCH   2   3
ATOM      3  C   UNL     1      -0.814  -5.108   7.513  1.00  0.00     0.116 C 
BRANCH   3   4
ATOM      4  N   UNL     1      -1.155  -6.173   6.583  1.00  0.00    -0.352 N 
ATOM      5  C   UNL     1      -1.400  -6.184   5.245  1.00  0.00     0.251 C 
ATOM      6  O   UNL     1      -1.845  -7.216   4.749  1.00  0.00    -0.270 OA
ATOM      7  H   UNL     1      -1.223  -7.060   7.005  1.00  0.00     0.163 HD
BRANCH   5   8
ATOM      8  C   UNL     1      -1.073  -5.037   4.354  1.00  0.00     0.067 C 
ATOM      9  C   UNL     1       0.488  -1.981   1.909  1.00  0.00    -0.002 A 
ATOM     10  C   UNL     1       0.593  -0.695   2.472  1.00  0.00     0.054 A 
ATOM     11  C   UNL     1      -0.116  -2.999   2.667  1.00  0.00     0.131 A 
ATOM     12  C   UNL     1       0.012  -0.387   3.700  1.00  0.00     0.130 A 
ATOM     13  C   UNL     1      -0.666  -2.703   3.913  1.00  0.00     0.021 A 
ATOM     14  O   UNL     1      -0.067  -4.274   2.184  1.00  0.00    -0.475 OA
ATOM     15  C   UNL     1      -0.620  -1.398   4.416  1.00  0.00     0.058 A 
ATOM     16  C   UNL     1      -1.175  -3.765   4.759  1.00  0.00     0.025 C 
ATOM     17  C   UNL     1      -0.749  -5.352   2.898  1.00  0.00     0.314 C 
BRANCH   9  18
ATOM     18  C   UNL     1       1.077  -2.241   0.537  1.00  0.00     0.039 C 
BRANCH  18  19
ATOM     19  C   UNL     1       0.442  -1.432  -0.609  1.00  0.00     0.001 C 
ATOM     20  C   UNL     1       0.867   0.030  -0.682  1.00  0.00     0.004 C 
ENDBRANCH  18  19
ENDBRANCH   9  18
BRANCH  12  21
ATOM     21  O   UNL     1       0.029   0.831   4.316  1.00  0.00    -0.406 OA
BRANCH  21  22
ATOM     22  C   UNL     1       0.324   1.959   3.510  1.00  0.00     0.573 C 
ATOM     23  F   UNL     1       1.620   1.961   3.132  1.00  0.00    -0.132 F 
ATOM     24  F   UNL     1      -0.464   1.999   2.413  1.00  0.00    -0.132 F 
ATOM     25  F   UNL     1       0.096   3.079   4.230  1.00  0.00    -0.132 F 
ENDBRANCH  21  22
ENDBRANCH  12  21
BRANCH  17  26
ATOM     26  C   UNL     1       0.035  -6.655   2.614  1.00  0.00     0.429 C 
ATOM     27  F   UNL     1      -0.758  -7.748   2.567  1.00  0.00    -0.167 F 
ATOM     28  F   UNL     1       0.633  -6.598   1.391  1.00  0.00    -0.167 F 
ATOM     29  F   UNL     1       1.017  -6.878   3.516  1.00  0.00    -0.167 F 
ENDBRANCH  17  26
ENDBRANCH   5   8
ENDBRANCH   3   4
ENDBRANCH   2   3
ENDBRANCH   1   2
BRANCH   1  30
ATOM     30  C   UNL     1      -1.914  -5.459  10.440  1.00  0.00     0.116 C 
BRANCH  30  31
ATOM     31  N   UNL     1      -1.498  -4.191  11.017  1.00  0.00    -0.352 N 
ATOM     32  C   UNL     1      -1.320  -3.867  12.340  1.00  0.00     0.251 C 
ATOM     33  H   UNL     1      -1.319  -3.469  10.373  1.00  0.00     0.163 HD
ATOM     34  O   UNL     1      -1.096  -2.708  12.659  1.00  0.00    -0.269 OA
BRANCH  32  35
ATOM     35  C   UNL     1      -1.435  -4.923  13.368  1.00  0.00     0.039 A 
ATOM     36  C   UNL     1      -2.175  -4.656  14.521  1.00  0.00     0.014 A 
ATOM     37  C   UNL     1      -0.827  -6.168  13.193  1.00  0.00     0.014 A 
ATOM     38  C   UNL     1      -2.338  -5.656  15.480  1.00  0.00     0.010 A 
ATOM     39  C   UNL     1      -1.061  -7.189  14.108  1.00  0.00     0.010 A 
ATOM     40  C   UNL     1      -1.804  -6.939  15.270  1.00  0.00    -0.014 A 
BRANCH  40  41
ATOM     41  C   UNL     1      -2.000  -8.016  16.272  1.00  0.00     0.031 A 
ATOM     42  C   UNL     1      -0.816  -8.601  16.995  1.00  0.00     0.074 A 
ATOM     43  C   UNL     1      -3.241  -8.483  16.510  1.00  0.00     0.049 A 
ATOM     44  N   UNL     1      -0.792  -9.530  17.916  1.00  0.00    -0.248 NA
ATOM     45  C   UNL     1       0.515  -8.097  16.619  1.00  0.00     0.031 C 
ATOM     46  C   UNL     1      -4.460  -8.032  15.835  1.00  0.00     0.029 A 
ATOM     47  N   UNL     1      -3.684  -9.436  17.392  1.00  0.00    -0.354 N 
ATOM     48  C   UNL     1       0.550  -9.726  18.221  1.00  0.00     0.074 A 
ATOM     49  C   UNL     1       1.313  -8.867  17.344  1.00  0.00     0.031 C 
ATOM     50  C   UNL     1      -5.516  -8.676  16.357  1.00  0.00     0.029 A 
ATOM     51  C   UNL     1      -5.048  -9.611  17.375  1.00  0.00     0.049 A 
ATOM     52  H   UNL     1      -3.083  -9.946  17.981  1.00  0.00     0.167 HD
ATOM     53  C   UNL     1       1.099 -10.528  19.165  1.00  0.00     0.031 A 
ATOM     54  C   UNL     1      -5.834 -10.429  18.101  1.00  0.00     0.031 A 
ATOM     55  C   UNL     1       0.334 -11.376  20.040  1.00  0.00     0.049 A 
ATOM     56  C   UNL     1      -5.201 -11.313  19.140  1.00  0.00     0.074 A 
ATOM     57  C   UNL     1       0.787 -12.186  21.067  1.00  0.00     0.029 A 
ATOM     58  N   UNL     1      -1.044 -11.528  19.990  1.00  0.00    -0.354 N 
ATOM     59  N   UNL     1      -3.935 -11.426  19.468  1.00  0.00    -0.248 NA
ATOM     60  C   UNL     1      -6.106 -12.168  19.920  1.00  0.00     0.031 C 
ATOM     61  C   UNL     1      -0.310 -12.873  21.598  1.00  0.00     0.029 A 
ATOM     62  C   UNL     1      -1.455 -12.440  20.948  1.00  0.00     0.049 A 
ATOM     63  H   UNL     1      -1.642 -11.057  19.366  1.00  0.00     0.167 HD
ATOM     64  C   UNL     1      -3.895 -12.348  20.509  1.00  0.00     0.074 A 
ATOM     65  C   UNL     1      -5.266 -12.739  20.771  1.00  0.00     0.031 C 
ATOM     66  C   UNL     1      -2.823 -12.829  21.186  1.00  0.00     0.031 A 
BRANCH  53  67
ATOM     67  C   UNL     1       2.601 -10.527  19.294  1.00  0.00    -0.014 A 
ATOM     68  C   UNL     1       3.290  -9.396  19.771  1.00  0.00     0.010 A 
ATOM     69  C   UNL     1       3.333 -11.682  18.965  1.00  0.00     0.010 A 
ATOM     70  C   UNL     1       4.683  -9.406  19.876  1.00  0.00     0.020 A 
ATOM     71  C   UNL     1       4.724 -11.708  19.100  1.00  0.00     0.020 A 
ATOM     72  C   UNL     1       5.392 -10.562  19.538  1.00  0.00     0.054 A 
BRANCH  72  73
ATOM     73  S   UNL     1       7.198 -10.554  19.708  1.00  0.00     0.124 S 
ATOM     74  O   UNL     1       7.599  -9.680  18.609  1.00  0.00    -0.237 OA
ATOM     75  O   UNL     1       7.389 -10.005  21.048  1.00  0.00    -0.237 OA
ATOM     76  O   UNL     1       7.568 -11.958  19.553  1.00  0.00    -0.744 OA
ENDBRANCH  72  73
ENDBRANCH  53  67
BRANCH  54  77
ATOM     77  C   UNL     1      -7.307 -10.432  17.885  1.00  0.00    -0.014 A 
ATOM     78  C   UNL     1      -8.178  -9.931  18.869  1.00  0.00     0.010 A 
ATOM     79  C   UNL     1      -7.848 -10.933  16.686  1.00  0.00     0.010 A 
ATOM     80  C   UNL     1      -9.562  -9.950  18.668  1.00  0.00     0.020 A 
ATOM     81  C   UNL     1      -9.229 -10.924  16.468  1.00  0.00     0.020 A 
ATOM     82  C   UNL     1     -10.078 -10.444  17.467  1.00  0.00     0.054 A 
BRANCH  82  83
ATOM     83  S   UNL     1     -11.874 -10.415  17.209  1.00  0.00     0.124 S 
ATOM     84  O   UNL     1     -12.327 -11.470  18.109  1.00  0.00    -0.237 OA
ATOM     85  O   UNL     1     -12.225  -9.052  17.602  1.00  0.00    -0.237 OA
ATOM     86  O   UNL     1     -12.019 -10.701  15.783  1.00  0.00    -0.744 OA
ENDBRANCH  82  83
ENDBRANCH  54  77
BRANCH  66  87
ATOM     87  C   UNL     1      -3.095 -13.815  22.293  1.00  0.00    -0.014 A 
ATOM     88  C   UNL     1      -3.558 -15.114  22.017  1.00  0.00     0.010 A 
ATOM     89  C   UNL     1      -2.863 -13.441  23.629  1.00  0.00     0.010 A 
ATOM     90  C   UNL     1      -3.834 -16.002  23.060  1.00  0.00     0.020 A 
ATOM     91  C   UNL     1      -3.104 -14.337  24.673  1.00  0.00     0.020 A 
ATOM     92  C   UNL     1      -3.610 -15.606  24.382  1.00  0.00     0.054 A 
BRANCH  92  93
ATOM     93  S   UNL     1      -3.966 -16.780  25.717  1.00  0.00     0.124 S 
ATOM     94  O   UNL     1      -5.426 -16.782  25.736  1.00  0.00    -0.237 OA
ATOM     95  O   UNL     1      -3.341 -18.010  25.238  1.00  0.00    -0.237 OA
ATOM     96  O   UNL     1      -3.329 -16.179  26.887  1.00  0.00    -0.744 OA
ENDBRANCH  92  93
ENDBRANCH  66  87
ENDBRANCH  40  41
ENDBRANCH  32  35
ENDBRANCH  30  31
ENDBRANCH   1  30
TORSDOF 19
