REMARK SMILES Cc1ccc([C@@]23C[C@@H]4C[C@@H](C[C@@](C(=O)N5CCC(C(=O)NCCCCNC(=O)c6ccc(-c7c8nc(c(-c9ccc(S(=O)(=O)[O-])cc9)c9ccc([nH]9)c(-c9ccc(S(=O)(=O)[O-])cc9)c9nc(c(-c%10ccc(S(=O)(=O)[O-])cc%10)c%10ccc7[nH]%10)C=C9)C=C8)cc6)CC5)(C4)C2)C3)cc1
REMARK SMILES IDX 24 1 23 2 22 3 21 4 19 5 20 6 18 8 13 9 14 10 15 11 16 12
REMARK SMILES IDX 90 13 17 14 89 15 12 16 6 17 7 18 92 19 93 20 8 21 10 22
REMARK SMILES IDX 9 23 91 24 11 25 5 26 1 27 2 28 3 29 95 30 4 31 94 32 25 33
REMARK SMILES IDX 26 34 27 35 28 37 29 38 30 39 88 40 31 41 87 42 32 43 33 44
REMARK SMILES IDX 34 45 81 46 35 47 86 48 80 49 82 50 36 51 85 52 79 53 78 54
REMARK SMILES IDX 37 56 67 57 48 58 66 59 49 60 52 61 65 62 83 63 50 64 51 65
REMARK SMILES IDX 64 67 84 68 53 69 38 70 39 71 47 72 40 73 46 74 41 75 42 76
REMARK SMILES IDX 43 77 44 78 45 79 68 80 69 81 77 82 70 83 76 84 71 85 72 86
REMARK SMILES IDX 73 87 74 88 75 89 54 90 55 91 63 92 56 93 62 94 57 95 58 96
REMARK SMILES IDX 59 97 60 98 61 99
REMARK H PARENT 21 7 26 36 82 55 52 66
REMARK Flexibility Score: inf
ROOT
ATOM      1  C   UNL     1     -10.049  -1.424  -4.985  1.00  0.00     0.023 C 
ENDROOT
BRANCH   1   2
ATOM      2  C   UNL     1      -9.075  -1.598  -3.820  1.00  0.00     0.023 C 
BRANCH   2   3
ATOM      3  C   UNL     1      -8.849  -3.045  -3.359  1.00  0.00     0.116 C 
BRANCH   3   4
ATOM      4  N   UNL     1      -8.437  -3.933  -4.446  1.00  0.00    -0.356 N 
ATOM      5  C   UNL     1      -7.283  -4.616  -4.678  1.00  0.00     0.223 C 
ATOM      6  O   UNL     1      -7.205  -5.298  -5.703  1.00  0.00    -0.275 OA
ATOM      7  H   UNL     1      -9.124  -4.061  -5.139  1.00  0.00     0.163 HD
BRANCH   5   8
ATOM      8  C   UNL     1      -6.098  -4.538  -3.729  1.00  0.00     0.082 C 
ATOM      9  C   UNL     1      -5.780  -2.470  -0.336  1.00  0.00     0.228 C 
ATOM     10  O   UNL     1      -6.578  -2.933   0.485  1.00  0.00    -0.274 OA
ATOM     11  N   UNL     1      -5.223  -3.292  -1.317  1.00  0.00    -0.342 N 
ATOM     12  C   UNL     1      -5.477  -4.726  -1.256  1.00  0.00     0.120 C 
ATOM     13  C   UNL     1      -4.561  -2.901  -2.559  1.00  0.00     0.120 C 
ATOM     14  C   UNL     1      -6.435  -5.152  -2.357  1.00  0.00     0.035 C 
ATOM     15  C   UNL     1      -5.512  -3.120  -3.721  1.00  0.00     0.035 C 
BRANCH   9  16
ATOM     16  C   UNL     1      -5.321  -0.999  -0.202  1.00  0.00     0.051 C 
ATOM     17  C   UNL     1      -3.178   0.408   0.069  1.00  0.00    -0.003 C 
ATOM     18  C   UNL     1      -3.675   1.224  -1.163  1.00  0.00     0.015 C 
ATOM     19  C   UNL     1      -3.789  -1.004  -0.047  1.00  0.00     0.028 C 
ATOM     20  C   UNL     1      -3.762   1.042   1.357  1.00  0.00     0.015 C 
ATOM     21  C   UNL     1      -5.215   1.314  -1.202  1.00  0.00    -0.009 C 
ATOM     22  C   UNL     1      -5.303   1.075   1.294  1.00  0.00    -0.009 C 
ATOM     23  C   UNL     1      -5.729   1.942   0.100  1.00  0.00     0.007 C 
ATOM     24  C   UNL     1      -5.812  -0.093  -1.348  1.00  0.00     0.020 C 
ATOM     25  C   UNL     1      -5.864  -0.355   1.113  1.00  0.00     0.020 C 
BRANCH  17  26
ATOM     26  C   UNL     1      -1.639   0.346   0.113  1.00  0.00    -0.042 A 
ATOM     27  C   UNL     1       2.700   0.165   0.012  1.00  0.00     0.044 C 
ATOM     28  C   UNL     1       1.206   0.246   0.072  1.00  0.00    -0.051 A 
ATOM     29  C   UNL     1       0.459  -0.926   0.137  1.00  0.00     0.004 A 
ATOM     30  C   UNL     1       0.532   1.470   0.052  1.00  0.00     0.004 A 
ATOM     31  C   UNL     1      -0.936  -0.875   0.166  1.00  0.00     0.004 A 
ATOM     32  C   UNL     1      -0.869   1.519   0.077  1.00  0.00     0.004 A 
ENDBRANCH  17  26
ENDBRANCH   9  16
ENDBRANCH   5   8
ENDBRANCH   3   4
ENDBRANCH   2   3
ENDBRANCH   1   2
BRANCH   1  33
ATOM     33  C   UNL     1     -11.465  -1.885  -4.671  1.00  0.00     0.116 C 
BRANCH  33  34
ATOM     34  N   UNL     1     -12.411  -0.800  -4.474  1.00  0.00    -0.352 N 
ATOM     35  C   UNL     1     -13.789  -0.919  -4.388  1.00  0.00     0.251 C 
ATOM     36  H   UNL     1     -12.037   0.107  -4.394  1.00  0.00     0.163 HD
ATOM     37  O   UNL     1     -14.554   0.012  -4.577  1.00  0.00    -0.269 OA
BRANCH  35  38
ATOM     38  C   UNL     1     -14.295  -2.214  -3.886  1.00  0.00     0.039 A 
ATOM     39  C   UNL     1     -14.762  -2.240  -2.567  1.00  0.00     0.014 A 
ATOM     40  C   UNL     1     -14.021  -3.390  -4.580  1.00  0.00     0.014 A 
ATOM     41  C   UNL     1     -14.793  -3.448  -1.877  1.00  0.00     0.010 A 
ATOM     42  C   UNL     1     -13.962  -4.571  -3.867  1.00  0.00     0.010 A 
ATOM     43  C   UNL     1     -14.301  -4.590  -2.506  1.00  0.00    -0.014 A 
BRANCH  43  44
ATOM     44  C   UNL     1     -14.062  -5.850  -1.813  1.00  0.00     0.031 A 
ATOM     45  C   UNL     1     -15.021  -6.964  -1.986  1.00  0.00     0.074 A 
ATOM     46  C   UNL     1     -12.943  -6.024  -1.075  1.00  0.00     0.049 A 
ATOM     47  N   UNL     1     -15.138  -7.967  -1.181  1.00  0.00    -0.248 NA
ATOM     48  C   UNL     1     -16.000  -6.983  -3.068  1.00  0.00     0.031 C 
ATOM     49  C   UNL     1     -12.417  -7.289  -0.567  1.00  0.00     0.029 A 
ATOM     50  N   UNL     1     -12.171  -5.056  -0.430  1.00  0.00    -0.354 N 
ATOM     51  C   UNL     1     -15.945  -8.896  -1.799  1.00  0.00     0.074 A 
ATOM     52  C   UNL     1     -16.559  -8.182  -2.891  1.00  0.00     0.031 C 
ATOM     53  C   UNL     1     -11.657  -7.033   0.510  1.00  0.00     0.029 A 
ATOM     54  C   UNL     1     -11.802  -5.617   0.804  1.00  0.00     0.049 A 
ATOM     55  H   UNL     1     -11.934  -4.163  -0.770  1.00  0.00     0.167 HD
ATOM     56  C   UNL     1     -15.872 -10.204  -1.417  1.00  0.00     0.031 A 
ATOM     57  C   UNL     1     -12.170  -5.103   2.014  1.00  0.00     0.031 A 
ATOM     58  C   UNL     1     -15.096 -10.355  -0.185  1.00  0.00     0.049 A 
ATOM     59  C   UNL     1     -12.940  -6.093   2.867  1.00  0.00     0.074 A 
ATOM     60  C   UNL     1     -13.816 -10.810   0.085  1.00  0.00     0.029 A 
ATOM     61  N   UNL     1     -15.543  -9.731   0.977  1.00  0.00    -0.354 N 
ATOM     62  N   UNL     1     -13.485  -7.186   2.406  1.00  0.00    -0.248 NA
ATOM     63  C   UNL     1     -13.187  -5.915   4.295  1.00  0.00     0.031 C 
ATOM     64  C   UNL     1     -13.458 -10.362   1.387  1.00  0.00     0.029 A 
ATOM     65  C   UNL     1     -14.535  -9.675   1.920  1.00  0.00     0.049 A 
ATOM     66  H   UNL     1     -16.453  -9.379   1.108  1.00  0.00     0.167 HD
ATOM     67  C   UNL     1     -14.121  -7.855   3.421  1.00  0.00     0.074 A 
ATOM     68  C   UNL     1     -13.899  -7.019   4.588  1.00  0.00     0.031 C 
ATOM     69  C   UNL     1     -14.774  -9.038   3.212  1.00  0.00     0.031 A 
BRANCH  56  70
ATOM     70  C   UNL     1     -16.263 -11.371  -2.312  1.00  0.00    -0.014 A 
ATOM     71  C   UNL     1     -15.791 -12.669  -2.018  1.00  0.00     0.010 A 
ATOM     72  C   UNL     1     -16.997 -11.252  -3.509  1.00  0.00     0.010 A 
ATOM     73  C   UNL     1     -15.971 -13.751  -2.901  1.00  0.00     0.020 A 
ATOM     74  C   UNL     1     -17.179 -12.317  -4.403  1.00  0.00     0.020 A 
ATOM     75  C   UNL     1     -16.647 -13.561  -4.103  1.00  0.00     0.054 A 
BRANCH  75  76
ATOM     76  S   UNL     1     -16.814 -14.932  -5.275  1.00  0.00     0.124 S 
ATOM     77  O   UNL     1     -15.422 -15.248  -5.588  1.00  0.00    -0.237 OA
ATOM     78  O   UNL     1     -17.529 -15.934  -4.490  1.00  0.00    -0.237 OA
ATOM     79  O   UNL     1     -17.576 -14.354  -6.381  1.00  0.00    -0.744 OA
ENDBRANCH  75  76
ENDBRANCH  56  70
BRANCH  57  80
ATOM     80  C   UNL     1     -12.361  -3.624   2.021  1.00  0.00    -0.014 A 
ATOM     81  C   UNL     1     -11.212  -2.821   1.852  1.00  0.00     0.010 A 
ATOM     82  C   UNL     1     -13.623  -3.067   1.750  1.00  0.00     0.010 A 
ATOM     83  C   UNL     1     -11.304  -1.560   1.256  1.00  0.00     0.020 A 
ATOM     84  C   UNL     1     -13.717  -1.797   1.158  1.00  0.00     0.020 A 
ATOM     85  C   UNL     1     -12.552  -1.087   0.851  1.00  0.00     0.054 A 
BRANCH  85  86
ATOM     86  S   UNL     1     -12.602   0.362  -0.249  1.00  0.00     0.124 S 
ATOM     87  O   UNL     1     -11.942   1.389   0.550  1.00  0.00    -0.237 OA
ATOM     88  O   UNL     1     -11.850  -0.107  -1.414  1.00  0.00    -0.237 OA
ATOM     89  O   UNL     1     -14.030   0.561  -0.475  1.00  0.00    -0.744 OA
ENDBRANCH  85  86
ENDBRANCH  57  80
BRANCH  69  90
ATOM     90  C   UNL     1     -15.652  -9.771   4.206  1.00  0.00    -0.014 A 
ATOM     91  C   UNL     1     -16.263  -9.177   5.320  1.00  0.00     0.010 A 
ATOM     92  C   UNL     1     -15.991 -11.122   3.943  1.00  0.00     0.010 A 
ATOM     93  C   UNL     1     -17.123  -9.906   6.159  1.00  0.00     0.020 A 
ATOM     94  C   UNL     1     -16.880 -11.845   4.744  1.00  0.00     0.020 A 
ATOM     95  C   UNL     1     -17.424 -11.236   5.866  1.00  0.00     0.054 A 
BRANCH  95  96
ATOM     96  S   UNL     1     -18.593 -12.146   6.909  1.00  0.00     0.124 S 
ATOM     97  O   UNL     1     -17.718 -12.674   7.952  1.00  0.00    -0.237 OA
ATOM     98  O   UNL     1     -19.525 -11.107   7.341  1.00  0.00    -0.237 OA
ATOM     99  O   UNL     1     -19.159 -13.140   6.001  1.00  0.00    -0.744 OA
ENDBRANCH  95  96
ENDBRANCH  69  90
ENDBRANCH  43  44
ENDBRANCH  35  38
ENDBRANCH  33  34
ENDBRANCH   1  33
TORSDOF 16
