REMARK SMILES C[C@@H](c1ccccn1)S(=O)(=O)N1CC[NH2+]C[C@@H]1C(=O)NCCCCNC(=O)c1ccc(-c2c3nc(c(-c4ccc(S(=O)(=O)[O-])cc4)c4ccc([nH]4)c(-c4ccc(S(=O)(=O)[O-])cc4)c4nc(c(-c5ccc(S(=O)(=O)[O-])cc5)c5ccc2[nH]5)C=C4)C=C3)cc1
REMARK SMILES IDX 22 1 21 2 20 3 18 4 19 5 17 7 12 8 13 9 14 10 16 11 15 12
REMARK SMILES IDX 9 15 10 16 11 17 2 18 1 19 3 20 4 21 8 22 5 23 7 24 6 25
REMARK SMILES IDX 23 26 24 27 25 28 26 29 27 31 28 32 29 33 87 34 30 35 86 36
REMARK SMILES IDX 31 37 32 38 33 39 80 40 34 41 85 42 79 43 81 44 35 45 84 46
REMARK SMILES IDX 78 47 77 48 36 50 66 51 47 52 65 53 48 54 51 55 64 56 82 57
REMARK SMILES IDX 49 58 50 59 63 61 83 62 52 63 37 64 38 65 46 66 39 67 45 68
REMARK SMILES IDX 40 69 41 70 42 71 43 72 44 73 67 74 68 75 76 76 69 77 75 78
REMARK SMILES IDX 70 79 71 80 72 81 73 82 74 83 53 84 54 85 62 86 55 87 61 88
REMARK SMILES IDX 56 89 57 90 58 91 59 92 60 93
REMARK H PARENT 20 6 15 13 15 14 25 30 81 49 51 60
REMARK Flexibility Score: inf
ROOT
ATOM      1  C   UNL     1      -5.524  -1.519   2.268  1.00  0.00     0.023 C 
ENDROOT
BRANCH   1   2
ATOM      2  C   UNL     1      -5.029  -0.206   1.657  1.00  0.00     0.116 C 
BRANCH   2   3
ATOM      3  N   UNL     1      -4.322   0.604   2.626  1.00  0.00    -0.355 N 
ATOM      4  C   UNL     1      -3.058   1.098   2.618  1.00  0.00     0.244 C 
ATOM      5  O   UNL     1      -2.732   1.742   3.622  1.00  0.00    -0.273 OA
ATOM      6  H   UNL     1      -4.847   0.836   3.426  1.00  0.00     0.163 HD
BRANCH   4   7
ATOM      7  C   UNL     1      -2.087   0.862   1.440  1.00  0.00     0.216 C 
ATOM      8  N   UNL     1      -1.633  -0.554   1.321  1.00  0.00    -0.177 NA
ATOM      9  C   UNL     1      -1.025  -1.059   2.563  1.00  0.00     0.164 C 
ATOM     10  C   UNL     1       0.148  -0.136   2.983  1.00  0.00     0.277 C 
ATOM     11  C   UNL     1      -0.820   1.716   1.677  1.00  0.00     0.291 C 
ATOM     12  N   UNL     1      -0.051   1.326   2.889  1.00  0.00    -0.343 N 
ATOM     13  H   UNL     1       0.863   1.779   2.857  1.00  0.00     0.346 HD
ATOM     14  H   UNL     1      -0.585   1.621   3.706  1.00  0.00     0.346 HD
BRANCH   8  15
ATOM     15  S   UNL     1      -1.395  -1.258  -0.171  1.00  0.00     0.223 S 
ATOM     16  O   UNL     1      -1.802  -0.261  -1.150  1.00  0.00    -0.211 OA
ATOM     17  O   UNL     1      -2.133  -2.504  -0.140  1.00  0.00    -0.211 OA
BRANCH  15  18
ATOM     18  C   UNL     1       0.396  -1.591  -0.499  1.00  0.00     0.170 C 
ATOM     19  C   UNL     1       1.212  -0.311  -0.667  1.00  0.00     0.033 C 
BRANCH  18  20
ATOM     20  C   UNL     1       0.944  -2.635   0.449  1.00  0.00     0.060 A 
ATOM     21  C   UNL     1       2.033  -2.411   1.295  1.00  0.00     0.025 A 
ATOM     22  N   UNL     1       0.355  -3.852   0.411  1.00  0.00    -0.260 NA
ATOM     23  C   UNL     1       2.411  -3.393   2.212  1.00  0.00     0.004 A 
ATOM     24  C   UNL     1       0.744  -4.799   1.293  1.00  0.00     0.111 A 
ATOM     25  C   UNL     1       1.743  -4.607   2.225  1.00  0.00     0.020 A 
ENDBRANCH  18  20
ENDBRANCH  15  18
ENDBRANCH   8  15
ENDBRANCH   4   7
ENDBRANCH   2   3
ENDBRANCH   1   2
BRANCH   1  26
ATOM     26  C   UNL     1      -6.329  -1.398   3.571  1.00  0.00     0.023 C 
BRANCH  26  27
ATOM     27  C   UNL     1      -7.504  -0.423   3.558  1.00  0.00     0.116 C 
BRANCH  27  28
ATOM     28  N   UNL     1      -8.528  -0.775   2.590  1.00  0.00    -0.352 N 
ATOM     29  C   UNL     1      -9.886  -0.910   2.761  1.00  0.00     0.251 C 
ATOM     30  H   UNL     1      -8.201  -0.943   1.676  1.00  0.00     0.163 HD
ATOM     31  O   UNL     1     -10.575  -1.340   1.839  1.00  0.00    -0.269 OA
BRANCH  29  32
ATOM     32  C   UNL     1     -10.517  -0.576   4.059  1.00  0.00     0.039 A 
ATOM     33  C   UNL     1     -11.435  -1.474   4.610  1.00  0.00     0.014 A 
ATOM     34  C   UNL     1     -10.213   0.611   4.732  1.00  0.00     0.014 A 
ATOM     35  C   UNL     1     -11.989  -1.222   5.869  1.00  0.00     0.010 A 
ATOM     36  C   UNL     1     -10.716   0.830   6.015  1.00  0.00     0.010 A 
ATOM     37  C   UNL     1     -11.601  -0.088   6.602  1.00  0.00    -0.014 A 
BRANCH  37  38
ATOM     38  C   UNL     1     -12.083   0.133   7.993  1.00  0.00     0.031 A 
ATOM     39  C   UNL     1     -12.931   1.331   8.328  1.00  0.00     0.074 A 
ATOM     40  C   UNL     1     -11.693  -0.708   8.973  1.00  0.00     0.049 A 
ATOM     41  N   UNL     1     -13.381   1.721   9.493  1.00  0.00    -0.248 NA
ATOM     42  C   UNL     1     -13.305   2.216   7.213  1.00  0.00     0.031 C 
ATOM     43  C   UNL     1     -10.838  -1.884   8.789  1.00  0.00     0.029 A 
ATOM     44  N   UNL     1     -11.954  -0.698  10.322  1.00  0.00    -0.354 N 
ATOM     45  C   UNL     1     -14.071   2.905   9.258  1.00  0.00     0.074 A 
ATOM     46  C   UNL     1     -13.948   3.189   7.844  1.00  0.00     0.031 C 
ATOM     47  C   UNL     1     -10.660  -2.489   9.974  1.00  0.00     0.029 A 
ATOM     48  C   UNL     1     -11.347  -1.724  11.010  1.00  0.00     0.049 A 
ATOM     49  H   UNL     1     -12.521  -0.021  10.755  1.00  0.00     0.167 HD
ATOM     50  C   UNL     1     -14.756   3.678  10.135  1.00  0.00     0.031 A 
ATOM     51  C   UNL     1     -11.330  -2.012  12.326  1.00  0.00     0.031 A 
ATOM     52  C   UNL     1     -14.886   3.387  11.539  1.00  0.00     0.049 A 
ATOM     53  C   UNL     1     -12.089  -1.131  13.282  1.00  0.00     0.074 A 
ATOM     54  C   UNL     1     -15.617   4.074  12.493  1.00  0.00     0.029 A 
ATOM     55  N   UNL     1     -14.269   2.332  12.193  1.00  0.00    -0.354 N 
ATOM     56  N   UNL     1     -12.800  -0.060  13.025  1.00  0.00    -0.248 NA
ATOM     57  C   UNL     1     -12.050  -1.503  14.703  1.00  0.00     0.031 C 
ATOM     58  C   UNL     1     -15.393   3.470  13.734  1.00  0.00     0.029 A 
ATOM     59  C   UNL     1     -14.575   2.368  13.543  1.00  0.00     0.049 A 
ATOM     60  H   UNL     1     -13.697   1.657  11.761  1.00  0.00     0.167 HD
ATOM     61  C   UNL     1     -13.313   0.355  14.249  1.00  0.00     0.074 A 
ATOM     62  C   UNL     1     -12.845  -0.589  15.242  1.00  0.00     0.031 C 
ATOM     63  C   UNL     1     -14.102   1.423  14.524  1.00  0.00     0.031 A 
BRANCH  50  64
ATOM     64  C   UNL     1     -15.412   4.928   9.606  1.00  0.00    -0.014 A 
ATOM     65  C   UNL     1     -16.533   4.861   8.759  1.00  0.00     0.010 A 
ATOM     66  C   UNL     1     -14.934   6.189  10.008  1.00  0.00     0.010 A 
ATOM     67  C   UNL     1     -17.141   6.031   8.295  1.00  0.00     0.020 A 
ATOM     68  C   UNL     1     -15.557   7.361   9.570  1.00  0.00     0.020 A 
ATOM     69  C   UNL     1     -16.647   7.274   8.703  1.00  0.00     0.054 A 
BRANCH  69  70
ATOM     70  S   UNL     1     -17.475   8.775   8.108  1.00  0.00     0.124 S 
ATOM     71  O   UNL     1     -17.071   8.805   6.704  1.00  0.00    -0.237 OA
ATOM     72  O   UNL     1     -18.885   8.479   8.349  1.00  0.00    -0.237 OA
ATOM     73  O   UNL     1     -16.912   9.835   8.940  1.00  0.00    -0.744 OA
ENDBRANCH  69  70
ENDBRANCH  50  64
BRANCH  51  74
ATOM     74  C   UNL     1     -10.561  -3.188  12.820  1.00  0.00    -0.014 A 
ATOM     75  C   UNL     1     -11.226  -4.320  13.323  1.00  0.00     0.010 A 
ATOM     76  C   UNL     1      -9.154  -3.184  12.782  1.00  0.00     0.010 A 
ATOM     77  C   UNL     1     -10.499  -5.417  13.797  1.00  0.00     0.020 A 
ATOM     78  C   UNL     1      -8.425  -4.290  13.226  1.00  0.00     0.020 A 
ATOM     79  C   UNL     1      -9.103  -5.396  13.743  1.00  0.00     0.054 A 
BRANCH  79  80
ATOM     80  S   UNL     1      -8.181  -6.850  14.318  1.00  0.00     0.124 S 
ATOM     81  O   UNL     1      -8.334  -6.753  15.766  1.00  0.00    -0.237 OA
ATOM     82  O   UNL     1      -8.897  -7.950  13.678  1.00  0.00    -0.237 OA
ATOM     83  O   UNL     1      -6.829  -6.619  13.813  1.00  0.00    -0.744 OA
ENDBRANCH  79  80
ENDBRANCH  51  74
BRANCH  63  84
ATOM     84  C   UNL     1     -14.538   1.619  15.952  1.00  0.00    -0.014 A 
ATOM     85  C   UNL     1     -13.635   2.051  16.939  1.00  0.00     0.010 A 
ATOM     86  C   UNL     1     -15.889   1.428  16.297  1.00  0.00     0.010 A 
ATOM     87  C   UNL     1     -14.069   2.264  18.250  1.00  0.00     0.020 A 
ATOM     88  C   UNL     1     -16.334   1.668  17.600  1.00  0.00     0.020 A 
ATOM     89  C   UNL     1     -15.417   2.074  18.571  1.00  0.00     0.054 A 
BRANCH  89  90
ATOM     90  S   UNL     1     -15.966   2.410  20.267  1.00  0.00     0.124 S 
ATOM     91  O   UNL     1     -15.406   1.277  20.999  1.00  0.00    -0.237 OA
ATOM     92  O   UNL     1     -15.353   3.706  20.551  1.00  0.00    -0.237 OA
ATOM     93  O   UNL     1     -17.423   2.426  20.164  1.00  0.00    -0.744 OA
ENDBRANCH  89  90
ENDBRANCH  63  84
ENDBRANCH  37  38
ENDBRANCH  29  32
ENDBRANCH  27  28
ENDBRANCH  26  27
ENDBRANCH   1  26
TORSDOF 17
