REMARK SMILES CC(C)[C@@H]([NH3+])C(=O)N[C@@H](Cc1ccccc1)C(=O)NCCCCNC(=O)c1ccc(-c2c3nc(c(-c4ccc(S(=O)(=O)[O-])cc4)c4ccc([nH]4)c(-c4ccc(S(=O)(=O)[O-])cc4)c4nc(c(-c5ccc(S(=O)(=O)[O-])cc5)c5ccc2[nH]5)C=C4)C=C3)cc1
REMARK SMILES IDX 21 1 20 2 19 3 17 4 18 5 9 7 8 8 6 9 7 10 4 12 2 13 1 14
REMARK SMILES IDX 3 15 5 16 10 20 11 21 12 22 16 23 13 24 15 25 14 26 22 27
REMARK SMILES IDX 23 28 24 29 25 30 26 32 27 33 28 34 86 35 29 36 85 37 30 38
REMARK SMILES IDX 31 39 32 40 79 41 33 42 84 43 78 44 80 45 34 46 83 47 77 48
REMARK SMILES IDX 76 49 35 51 65 52 46 53 64 54 47 55 50 56 63 57 81 58 48 59
REMARK SMILES IDX 49 60 62 62 82 63 51 64 36 65 37 66 45 67 38 68 44 69 39 70
REMARK SMILES IDX 40 71 41 72 42 73 43 74 66 75 67 76 75 77 68 78 74 79 69 80
REMARK SMILES IDX 70 81 71 82 72 83 73 84 52 85 53 86 61 87 54 88 60 89 55 90
REMARK SMILES IDX 56 91 57 92 58 93 59 94
REMARK H PARENT 19 6 8 11 5 17 5 18 5 19 24 31 80 50 50 61
REMARK Flexibility Score: inf
ROOT
ATOM      1  C   UNL     1      -3.474   4.380  -5.497  1.00  0.00     0.023 C 
ENDROOT
BRANCH   1   2
ATOM      2  C   UNL     1      -2.063   4.427  -4.935  1.00  0.00     0.116 C 
BRANCH   2   3
ATOM      3  N   UNL     1      -1.992   4.715  -3.519  1.00  0.00    -0.354 N 
ATOM      4  C   UNL     1      -1.091   4.275  -2.591  1.00  0.00     0.242 C 
ATOM      5  O   UNL     1      -0.903   5.013  -1.616  1.00  0.00    -0.273 OA
ATOM      6  H   UNL     1      -2.693   5.314  -3.175  1.00  0.00     0.163 HD
BRANCH   4   7
ATOM      7  C   UNL     1      -0.230   2.998  -2.771  1.00  0.00     0.175 C 
BRANCH   7   8
ATOM      8  N   UNL     1      -0.947   1.842  -3.326  1.00  0.00    -0.339 N 
ATOM      9  C   UNL     1      -1.329   0.676  -2.740  1.00  0.00     0.279 C 
ATOM     10  O   UNL     1      -2.061  -0.074  -3.395  1.00  0.00    -0.268 OA
ATOM     11  H   UNL     1      -1.190   1.925  -4.276  1.00  0.00     0.164 HD
BRANCH   9  12
ATOM     12  C   UNL     1      -0.847   0.258  -1.332  1.00  0.00     0.273 C 
BRANCH  12  13
ATOM     13  C   UNL     1       0.685   0.037  -1.268  1.00  0.00     0.051 C 
ATOM     14  C   UNL     1       1.146  -0.426   0.118  1.00  0.00     0.014 C 
ATOM     15  C   UNL     1       1.140  -0.988  -2.315  1.00  0.00     0.014 C 
ENDBRANCH  12  13
BRANCH  12  16
ATOM     16  N   UNL     1      -1.342   1.228  -0.337  1.00  0.00    -0.347 N 
ATOM     17  H   UNL     1      -0.959   2.151  -0.542  1.00  0.00     0.345 HD
ATOM     18  H   UNL     1      -1.049   0.938   0.596  1.00  0.00     0.345 HD
ATOM     19  H   UNL     1      -2.360   1.266  -0.377  1.00  0.00     0.345 HD
ENDBRANCH  12  16
ENDBRANCH   9  12
ENDBRANCH   7   8
BRANCH   7  20
ATOM     20  C   UNL     1       1.134   3.255  -3.450  1.00  0.00     0.070 C 
BRANCH  20  21
ATOM     21  C   UNL     1       1.122   3.766  -4.871  1.00  0.00    -0.045 A 
ATOM     22  C   UNL     1       1.355   5.125  -5.132  1.00  0.00     0.004 A 
ATOM     23  C   UNL     1       0.852   2.907  -5.947  1.00  0.00     0.004 A 
ATOM     24  C   UNL     1       1.268   5.623  -6.433  1.00  0.00     0.000 A 
ATOM     25  C   UNL     1       0.746   3.413  -7.246  1.00  0.00     0.000 A 
ATOM     26  C   UNL     1       0.945   4.771  -7.487  1.00  0.00     0.000 A 
ENDBRANCH  20  21
ENDBRANCH   7  20
ENDBRANCH   4   7
ENDBRANCH   2   3
ENDBRANCH   1   2
BRANCH   1  27
ATOM     27  C   UNL     1      -4.149   5.739  -5.664  1.00  0.00     0.023 C 
BRANCH  27  28
ATOM     28  C   UNL     1      -3.332   6.812  -6.380  1.00  0.00     0.116 C 
BRANCH  28  29
ATOM     29  N   UNL     1      -2.801   6.401  -7.674  1.00  0.00    -0.352 N 
ATOM     30  C   UNL     1      -2.777   7.105  -8.856  1.00  0.00     0.251 C 
ATOM     31  H   UNL     1      -2.407   5.499  -7.706  1.00  0.00     0.163 HD
ATOM     32  O   UNL     1      -2.326   6.596  -9.878  1.00  0.00    -0.269 OA
BRANCH  30  33
ATOM     33  C   UNL     1      -3.344   8.470  -8.886  1.00  0.00     0.039 A 
ATOM     34  C   UNL     1      -4.355   8.763  -9.803  1.00  0.00     0.014 A 
ATOM     35  C   UNL     1      -2.939   9.421  -7.947  1.00  0.00     0.014 A 
ATOM     36  C   UNL     1      -5.033   9.981  -9.711  1.00  0.00     0.010 A 
ATOM     37  C   UNL     1      -3.663  10.602  -7.811  1.00  0.00     0.010 A 
ATOM     38  C   UNL     1      -4.729  10.886  -8.679  1.00  0.00    -0.014 A 
BRANCH  38  39
ATOM     39  C   UNL     1      -5.542  12.111  -8.463  1.00  0.00     0.031 A 
ATOM     40  C   UNL     1      -4.916  13.471  -8.594  1.00  0.00     0.074 A 
ATOM     41  C   UNL     1      -6.825  11.995  -8.062  1.00  0.00     0.049 A 
ATOM     42  N   UNL     1      -5.448  14.647  -8.377  1.00  0.00    -0.248 NA
ATOM     43  C   UNL     1      -3.500  13.516  -8.994  1.00  0.00     0.031 C 
ATOM     44  C   UNL     1      -7.535  10.733  -7.837  1.00  0.00     0.029 A 
ATOM     45  N   UNL     1      -7.758  12.956  -7.760  1.00  0.00    -0.354 N 
ATOM     46  C   UNL     1      -4.430  15.568  -8.592  1.00  0.00     0.074 A 
ATOM     47  C   UNL     1      -3.238  14.813  -8.914  1.00  0.00     0.031 C 
ATOM     48  C   UNL     1      -8.796  10.998  -7.459  1.00  0.00     0.029 A 
ATOM     49  C   UNL     1      -8.977  12.444  -7.380  1.00  0.00     0.049 A 
ATOM     50  H   UNL     1      -7.573  13.922  -7.811  1.00  0.00     0.167 HD
ATOM     51  C   UNL     1      -4.484  16.920  -8.544  1.00  0.00     0.031 A 
ATOM     52  C   UNL     1     -10.113  13.065  -7.007  1.00  0.00     0.031 A 
ATOM     53  C   UNL     1      -5.673  17.672  -8.244  1.00  0.00     0.049 A 
ATOM     54  C   UNL     1     -10.155  14.568  -6.983  1.00  0.00     0.074 A 
ATOM     55  C   UNL     1      -5.844  19.045  -8.238  1.00  0.00     0.029 A 
ATOM     56  N   UNL     1      -6.894  17.115  -7.897  1.00  0.00    -0.354 N 
ATOM     57  N   UNL     1      -9.200  15.422  -7.262  1.00  0.00    -0.248 NA
ATOM     58  C   UNL     1     -11.432  15.190  -6.606  1.00  0.00     0.031 C 
ATOM     59  C   UNL     1      -7.160  19.320  -7.849  1.00  0.00     0.029 A 
ATOM     60  C   UNL     1      -7.820  18.117  -7.658  1.00  0.00     0.049 A 
ATOM     61  H   UNL     1      -7.077  16.150  -7.830  1.00  0.00     0.167 HD
ATOM     62  C   UNL     1      -9.768  16.683  -7.116  1.00  0.00     0.074 A 
ATOM     63  C   UNL     1     -11.151  16.479  -6.739  1.00  0.00     0.031 C 
ATOM     64  C   UNL     1      -9.193  17.899  -7.282  1.00  0.00     0.031 A 
BRANCH  51  65
ATOM     65  C   UNL     1      -3.213  17.673  -8.828  1.00  0.00    -0.014 A 
ATOM     66  C   UNL     1      -2.679  17.728 -10.128  1.00  0.00     0.010 A 
ATOM     67  C   UNL     1      -2.558  18.358  -7.788  1.00  0.00     0.010 A 
ATOM     68  C   UNL     1      -1.489  18.417 -10.376  1.00  0.00     0.020 A 
ATOM     69  C   UNL     1      -1.380  19.070  -8.037  1.00  0.00     0.020 A 
ATOM     70  C   UNL     1      -0.844  19.078  -9.327  1.00  0.00     0.054 A 
BRANCH  70  71
ATOM     71  S   UNL     1       0.693  19.975  -9.678  1.00  0.00     0.124 S 
ATOM     72  O   UNL     1       1.656  18.884  -9.801  1.00  0.00    -0.237 OA
ATOM     73  O   UNL     1       0.380  20.678 -10.919  1.00  0.00    -0.237 OA
ATOM     74  O   UNL     1       0.868  20.832  -8.508  1.00  0.00    -0.744 OA
ENDBRANCH  70  71
ENDBRANCH  51  65
BRANCH  52  75
ATOM     75  C   UNL     1     -11.314  12.264  -6.648  1.00  0.00    -0.014 A 
ATOM     76  C   UNL     1     -12.413  12.201  -7.522  1.00  0.00     0.010 A 
ATOM     77  C   UNL     1     -11.359  11.547  -5.438  1.00  0.00     0.010 A 
ATOM     78  C   UNL     1     -13.543  11.450  -7.186  1.00  0.00     0.020 A 
ATOM     79  C   UNL     1     -12.477  10.776  -5.110  1.00  0.00     0.020 A 
ATOM     80  C   UNL     1     -13.568  10.741  -5.982  1.00  0.00     0.054 A 
BRANCH  80  81
ATOM     81  S   UNL     1     -15.020   9.725  -5.592  1.00  0.00     0.124 S 
ATOM     82  O   UNL     1     -15.990  10.732  -5.173  1.00  0.00    -0.237 OA
ATOM     83  O   UNL     1     -15.300   9.068  -6.866  1.00  0.00    -0.237 OA
ATOM     84  O   UNL     1     -14.540   8.837  -4.535  1.00  0.00    -0.744 OA
ENDBRANCH  80  81
ENDBRANCH  52  75
BRANCH  64  85
ATOM     85  C   UNL     1     -10.066  19.108  -7.085  1.00  0.00    -0.014 A 
ATOM     86  C   UNL     1     -10.454  19.522  -5.798  1.00  0.00     0.010 A 
ATOM     87  C   UNL     1     -10.458  19.871  -8.200  1.00  0.00     0.010 A 
ATOM     88  C   UNL     1     -11.242  20.663  -5.633  1.00  0.00     0.020 A 
ATOM     89  C   UNL     1     -11.226  21.026  -8.036  1.00  0.00     0.020 A 
ATOM     90  C   UNL     1     -11.625  21.407  -6.753  1.00  0.00     0.054 A 
BRANCH  90  91
ATOM     91  S   UNL     1     -12.610  22.912  -6.511  1.00  0.00     0.124 S 
ATOM     92  O   UNL     1     -13.938  22.366  -6.249  1.00  0.00    -0.237 OA
ATOM     93  O   UNL     1     -11.955  23.546  -5.370  1.00  0.00    -0.237 OA
ATOM     94  O   UNL     1     -12.467  23.625  -7.778  1.00  0.00    -0.744 OA
ENDBRANCH  90  91
ENDBRANCH  64  85
ENDBRANCH  38  39
ENDBRANCH  30  33
ENDBRANCH  28  29
ENDBRANCH  27  28
ENDBRANCH   1  27
TORSDOF 20
