REMARK SMILES Cc1ccc2c(c1C)O[C@@H](C(=O)NCCCCNC(=O)c1ccc(-c3c4nc(c(-c5ccc(S(=O)(=O)[O-])cc5)c5ccc([nH]5)c(-c5ccc(S(=O)(=O)[O-])cc5)c5nc(c(-c6ccc(S(=O)(=O)[O-])cc6)c6ccc3[nH]6)C=C5)C=C4)cc1)CC2=O
REMARK SMILES IDX 17 1 16 2 15 3 14 4 13 5 11 6 12 7 10 9 1 10 2 11 3 12 7 13
REMARK SMILES IDX 4 14 6 15 8 16 5 17 9 18 82 19 81 20 83 21 18 22 19 23 20 25
REMARK SMILES IDX 21 26 22 27 80 28 23 29 79 30 24 31 25 32 26 33 73 34 27 35
REMARK SMILES IDX 78 36 72 37 74 38 28 39 77 40 71 41 70 42 29 44 59 45 40 46
REMARK SMILES IDX 58 47 41 48 44 49 57 50 75 51 42 52 43 53 56 55 76 56 45 57
REMARK SMILES IDX 30 58 31 59 39 60 32 61 38 62 33 63 34 64 35 65 36 66 37 67
REMARK SMILES IDX 60 68 61 69 69 70 62 71 68 72 63 73 64 74 65 75 66 76 67 77
REMARK SMILES IDX 46 78 47 79 55 80 48 81 54 82 49 83 50 84 51 85 52 86 53 87
REMARK H PARENT 13 8 18 24 74 43 44 54
REMARK Flexibility Score: inf
ROOT
ATOM      1  C   UNL     1       3.070  -4.652  -3.547  1.00  0.00     0.116 C 
ENDROOT
BRANCH   1   2
ATOM      2  C   UNL     1       2.092  -5.800  -3.312  1.00  0.00     0.023 C 
BRANCH   2   3
ATOM      3  C   UNL     1       0.860  -5.441  -2.482  1.00  0.00     0.023 C 
BRANCH   3   4
ATOM      4  C   UNL     1      -0.027  -4.367  -3.115  1.00  0.00     0.116 C 
BRANCH   4   5
ATOM      5  N   UNL     1      -1.308  -4.891  -3.539  1.00  0.00    -0.353 N 
ATOM      6  C   UNL     1      -2.526  -4.939  -2.943  1.00  0.00     0.261 C 
ATOM      7  O   UNL     1      -3.451  -5.395  -3.628  1.00  0.00    -0.271 OA
ATOM      8  H   UNL     1      -1.293  -5.293  -4.438  1.00  0.00     0.163 HD
BRANCH   6   9
ATOM      9  C   UNL     1      -2.797  -4.535  -1.472  1.00  0.00     0.269 C 
ATOM     10  C   UNL     1       0.961  -0.008   0.212  1.00  0.00     0.045 C 
ATOM     11  C   UNL     1       0.342  -1.380   0.260  1.00  0.00    -0.044 A 
ATOM     12  C   UNL     1       1.054  -2.414   0.888  1.00  0.00     0.005 A 
ATOM     13  C   UNL     1      -0.925  -1.650  -0.301  1.00  0.00    -0.005 A 
ATOM     14  C   UNL     1       0.541  -3.708   0.927  1.00  0.00     0.016 A 
ATOM     15  C   UNL     1      -1.392  -2.981  -0.334  1.00  0.00     0.134 A 
ATOM     16  C   UNL     1      -1.752  -0.567  -0.950  1.00  0.00     0.049 C 
ATOM     17  C   UNL     1      -0.673  -3.990   0.298  1.00  0.00     0.060 A 
ATOM     18  O   UNL     1      -2.519  -3.208  -1.068  1.00  0.00    -0.479 OA
ATOM     19  C   UNL     1      -1.159  -5.376   0.242  1.00  0.00     0.170 C 
ATOM     20  C   UNL     1      -2.434  -5.638  -0.491  1.00  0.00     0.136 C 
ATOM     21  O   UNL     1      -0.551  -6.274   0.818  1.00  0.00    -0.294 OA
ENDBRANCH   6   9
ENDBRANCH   4   5
ENDBRANCH   3   4
ENDBRANCH   2   3
ENDBRANCH   1   2
BRANCH   1  22
ATOM     22  N   UNL     1       3.668  -4.123  -2.329  1.00  0.00    -0.352 N 
ATOM     23  C   UNL     1       4.936  -3.604  -2.188  1.00  0.00     0.251 C 
ATOM     24  H   UNL     1       3.106  -4.139  -1.521  1.00  0.00     0.163 HD
ATOM     25  O   UNL     1       5.350  -3.221  -1.099  1.00  0.00    -0.269 OA
BRANCH  23  26
ATOM     26  C   UNL     1       5.800  -3.560  -3.384  1.00  0.00     0.039 A 
ATOM     27  C   UNL     1       6.951  -4.350  -3.416  1.00  0.00     0.014 A 
ATOM     28  C   UNL     1       5.390  -2.842  -4.511  1.00  0.00     0.014 A 
ATOM     29  C   UNL     1       7.656  -4.482  -4.614  1.00  0.00     0.010 A 
ATOM     30  C   UNL     1       6.069  -3.012  -5.714  1.00  0.00     0.010 A 
ATOM     31  C   UNL     1       7.198  -3.845  -5.779  1.00  0.00    -0.014 A 
BRANCH  31  32
ATOM     32  C   UNL     1       7.878  -4.047  -7.081  1.00  0.00     0.031 A 
ATOM     33  C   UNL     1       8.621  -2.911  -7.720  1.00  0.00     0.074 A 
ATOM     34  C   UNL     1       7.774  -5.231  -7.717  1.00  0.00     0.049 A 
ATOM     35  N   UNL     1       9.215  -2.869  -8.884  1.00  0.00    -0.248 NA
ATOM     36  C   UNL     1       8.688  -1.651  -6.961  1.00  0.00     0.031 C 
ATOM     37  C   UNL     1       7.050  -6.403  -7.218  1.00  0.00     0.029 A 
ATOM     38  N   UNL     1       8.275  -5.641  -8.928  1.00  0.00    -0.354 N 
ATOM     39  C   UNL     1       9.710  -1.578  -9.006  1.00  0.00     0.074 A 
ATOM     40  C   UNL     1       9.321  -0.858  -7.813  1.00  0.00     0.031 C 
ATOM     41  C   UNL     1       7.174  -7.405  -8.105  1.00  0.00     0.029 A 
ATOM     42  C   UNL     1       7.961  -6.941  -9.244  1.00  0.00     0.049 A 
ATOM     43  H   UNL     1       8.809  -5.058  -9.514  1.00  0.00     0.167 HD
ATOM     44  C   UNL     1      10.439  -1.043 -10.013  1.00  0.00     0.031 A 
ATOM     45  C   UNL     1       8.273  -7.679 -10.327  1.00  0.00     0.031 A 
ATOM     46  C   UNL     1      10.850  -1.761 -11.187  1.00  0.00     0.049 A 
ATOM     47  C   UNL     1       9.098  -7.071 -11.425  1.00  0.00     0.074 A 
ATOM     48  C   UNL     1      11.627  -1.313 -12.240  1.00  0.00     0.029 A 
ATOM     49  N   UNL     1      10.527  -3.081 -11.458  1.00  0.00    -0.354 N 
ATOM     50  N   UNL     1       9.580  -5.854 -11.509  1.00  0.00    -0.248 NA
ATOM     51  C   UNL     1       9.425  -7.932 -12.571  1.00  0.00     0.031 C 
ATOM     52  C   UNL     1      11.757  -2.358 -13.160  1.00  0.00     0.029 A 
ATOM     53  C   UNL     1      11.085  -3.463 -12.664  1.00  0.00     0.049 A 
ATOM     54  H   UNL     1       9.981  -3.660 -10.878  1.00  0.00     0.167 HD
ATOM     55  C   UNL     1      10.281  -5.808 -12.708  1.00  0.00     0.074 A 
ATOM     56  C   UNL     1      10.164  -7.118 -13.316  1.00  0.00     0.031 C 
ATOM     57  C   UNL     1      10.961  -4.772 -13.253  1.00  0.00     0.031 A 
BRANCH  44  58
ATOM     58  C   UNL     1      10.843   0.397  -9.877  1.00  0.00    -0.014 A 
ATOM     59  C   UNL     1      11.889   0.768  -9.014  1.00  0.00     0.010 A 
ATOM     60  C   UNL     1      10.192   1.383 -10.638  1.00  0.00     0.010 A 
ATOM     61  C   UNL     1      12.254   2.109  -8.887  1.00  0.00     0.020 A 
ATOM     62  C   UNL     1      10.567   2.724 -10.527  1.00  0.00     0.020 A 
ATOM     63  C   UNL     1      11.588   3.079  -9.643  1.00  0.00     0.054 A 
BRANCH  63  64
ATOM     64  S   UNL     1      12.088   4.812  -9.454  1.00  0.00     0.124 S 
ATOM     65  O   UNL     1      11.703   5.089  -8.072  1.00  0.00    -0.237 OA
ATOM     66  O   UNL     1      13.526   4.756  -9.706  1.00  0.00    -0.237 OA
ATOM     67  O   UNL     1      11.305   5.514 -10.468  1.00  0.00    -0.744 OA
ENDBRANCH  63  64
ENDBRANCH  44  58
BRANCH  45  68
ATOM     68  C   UNL     1       7.822  -9.092 -10.406  1.00  0.00    -0.014 A 
ATOM     69  C   UNL     1       8.717 -10.134 -10.108  1.00  0.00     0.010 A 
ATOM     70  C   UNL     1       6.490  -9.401 -10.733  1.00  0.00     0.010 A 
ATOM     71  C   UNL     1       8.286 -11.463 -10.132  1.00  0.00     0.020 A 
ATOM     72  C   UNL     1       6.052 -10.729 -10.745  1.00  0.00     0.020 A 
ATOM     73  C   UNL     1       6.954 -11.752 -10.442  1.00  0.00     0.054 A 
BRANCH  73  74
ATOM     74  S   UNL     1       6.409 -13.482 -10.400  1.00  0.00     0.124 S 
ATOM     75  O   UNL     1       7.187 -14.075 -11.483  1.00  0.00    -0.237 OA
ATOM     76  O   UNL     1       6.788 -13.892  -9.050  1.00  0.00    -0.237 OA
ATOM     77  O   UNL     1       4.970 -13.396 -10.637  1.00  0.00    -0.744 OA
ENDBRANCH  73  74
ENDBRANCH  45  68
BRANCH  57  78
ATOM     78  C   UNL     1      11.652  -5.000 -14.566  1.00  0.00    -0.014 A 
ATOM     79  C   UNL     1      10.936  -4.934 -15.773  1.00  0.00     0.010 A 
ATOM     80  C   UNL     1      13.049  -5.166 -14.597  1.00  0.00     0.010 A 
ATOM     81  C   UNL     1      11.609  -5.027 -16.994  1.00  0.00     0.020 A 
ATOM     82  C   UNL     1      13.725  -5.246 -15.816  1.00  0.00     0.020 A 
ATOM     83  C   UNL     1      13.000  -5.173 -17.008  1.00  0.00     0.054 A 
BRANCH  83  84
ATOM     84  S   UNL     1      13.851  -5.212 -18.609  1.00  0.00     0.124 S 
ATOM     85  O   UNL     1      13.356  -6.457 -19.190  1.00  0.00    -0.237 OA
ATOM     86  O   UNL     1      13.377  -3.987 -19.248  1.00  0.00    -0.237 OA
ATOM     87  O   UNL     1      15.268  -5.214 -18.251  1.00  0.00    -0.744 OA
ENDBRANCH  83  84
ENDBRANCH  57  78
ENDBRANCH  31  32
ENDBRANCH  23  26
ENDBRANCH   1  22
TORSDOF 14
