REMARK SMILES COc1cc(C)cc2c1[C@@H](C)[C@@H](CC(=O)N[C@@H](Cc1c[nH]c3ccccc13)C(=O)NCCCCNC(=O)c1ccc(-c3c4nc(c(-c5ccc(S(=O)(=O)[O-])cc5)c5ccc([nH]5)c(-c5ccc(S(=O)(=O)[O-])cc5)c5nc(c(-c6ccc(S(=O)(=O)[O-])cc6)c6ccc3[nH]6)C=C5)C=C4)cc1)C(=O)O2
REMARK SMILES IDX 32 1 31 2 30 3 28 4 29 5 17 7 16 8 14 9 15 10 13 12 12 13
REMARK SMILES IDX 3 14 4 15 9 16 5 17 8 18 10 19 6 20 7 21 100 22 11 23 98 24
REMARK SMILES IDX 99 25 2 26 1 27 18 28 19 29 20 30 27 31 21 32 22 33 26 34
REMARK SMILES IDX 23 36 25 37 24 38 33 39 34 40 35 41 36 42 37 44 38 45 39 46
REMARK SMILES IDX 97 47 40 48 96 49 41 50 42 51 43 52 90 53 44 54 95 55 89 56
REMARK SMILES IDX 91 57 45 58 94 59 88 60 87 61 46 63 76 64 57 65 75 66 58 67
REMARK SMILES IDX 61 68 74 69 92 70 59 71 60 72 73 74 93 75 62 76 47 77 48 78
REMARK SMILES IDX 56 79 49 80 55 81 50 82 51 83 52 84 53 85 54 86 77 87 78 88
REMARK SMILES IDX 86 89 79 90 85 91 80 92 81 93 82 94 83 95 84 96 63 97 64 98
REMARK SMILES IDX 72 99 65 100 71 101 66 102 67 103 68 104 69 105 70 106
REMARK H PARENT 30 6 16 11 21 35 35 43 91 62 61 73
REMARK Flexibility Score: inf
ROOT
ATOM      1  C   UNL     1      -3.865   6.558   8.316  1.00  0.00     0.023 C 
ENDROOT
BRANCH   1   2
ATOM      2  C   UNL     1      -2.738   7.214   7.526  1.00  0.00     0.116 C 
BRANCH   2   3
ATOM      3  N   UNL     1      -1.649   6.288   7.352  1.00  0.00    -0.354 N 
ATOM      4  C   UNL     1      -1.573   5.191   6.562  1.00  0.00     0.242 C 
ATOM      5  O   UNL     1      -0.636   4.415   6.795  1.00  0.00    -0.273 OA
ATOM      6  H   UNL     1      -0.843   6.480   7.884  1.00  0.00     0.163 HD
BRANCH   4   7
ATOM      7  C   UNL     1      -2.551   4.868   5.407  1.00  0.00     0.175 C 
BRANCH   7   8
ATOM      8  N   UNL     1      -3.187   3.560   5.493  1.00  0.00    -0.344 N 
ATOM      9  C   UNL     1      -3.255   2.603   4.523  1.00  0.00     0.221 C 
ATOM     10  O   UNL     1      -4.185   1.798   4.533  1.00  0.00    -0.275 OA
ATOM     11  H   UNL     1      -3.617   3.342   6.351  1.00  0.00     0.164 HD
BRANCH   9  12
ATOM     12  C   UNL     1      -2.109   2.470   3.535  1.00  0.00     0.116 C 
BRANCH  12  13
ATOM     13  C   UNL     1      -2.260   3.172   2.165  1.00  0.00     0.116 C 
ATOM     14  C   UNL     1       1.022   1.680   1.008  1.00  0.00     0.126 A 
ATOM     15  C   UNL     1       2.308   1.740   1.573  1.00  0.00     0.050 A 
ATOM     16  C   UNL     1       0.037   2.584   1.411  1.00  0.00     0.041 A 
ATOM     17  C   UNL     1       2.635   2.705   2.538  1.00  0.00    -0.044 A 
ATOM     18  C   UNL     1       0.438   3.630   2.261  1.00  0.00     0.138 A 
ATOM     19  C   UNL     1      -1.438   2.509   1.026  1.00  0.00     0.038 C 
ATOM     20  C   UNL     1       3.993   2.722   3.176  1.00  0.00     0.044 C 
ATOM     21  C   UNL     1       1.700   3.687   2.847  1.00  0.00     0.051 A 
ATOM     22  O   UNL     1      -0.414   4.708   2.554  1.00  0.00    -0.426 OA
ATOM     23  C   UNL     1      -2.013   1.122   0.715  1.00  0.00     0.014 C 
ATOM     24  C   UNL     1      -1.723   4.584   2.136  1.00  0.00     0.315 C 
ATOM     25  O   UNL     1      -2.374   5.554   1.764  1.00  0.00    -0.251 OA
BRANCH  14  26
ATOM     26  O   UNL     1       0.704   0.831  -0.015  1.00  0.00    -0.496 OA
ATOM     27  C   UNL     1       1.263  -0.473   0.072  1.00  0.00     0.278 C 
ENDBRANCH  14  26
ENDBRANCH  12  13
ENDBRANCH   9  12
ENDBRANCH   7   8
BRANCH   7  28
ATOM     28  C   UNL     1      -3.396   5.897   4.661  1.00  0.00     0.072 C 
BRANCH  28  29
ATOM     29  C   UNL     1      -4.779   6.401   4.989  1.00  0.00    -0.020 A 
ATOM     30  C   UNL     1      -5.191   7.609   4.439  1.00  0.00     0.087 A 
ATOM     31  C   UNL     1      -5.940   5.855   5.651  1.00  0.00     0.003 A 
ATOM     32  N   UNL     1      -6.514   7.794   4.689  1.00  0.00    -0.361 N 
ATOM     33  C   UNL     1      -6.999   6.747   5.427  1.00  0.00     0.046 A 
ATOM     34  C   UNL     1      -6.252   4.699   6.400  1.00  0.00     0.010 A 
ATOM     35  H   UNL     1      -7.044   8.565   4.384  1.00  0.00     0.166 HD
ATOM     36  C   UNL     1      -8.307   6.536   5.884  1.00  0.00     0.026 A 
ATOM     37  C   UNL     1      -7.547   4.485   6.894  1.00  0.00     0.001 A 
ATOM     38  C   UNL     1      -8.564   5.390   6.631  1.00  0.00     0.002 A 
ENDBRANCH  28  29
ENDBRANCH   7  28
ENDBRANCH   4   7
ENDBRANCH   2   3
ENDBRANCH   1   2
BRANCH   1  39
ATOM     39  C   UNL     1      -3.631   6.529   9.824  1.00  0.00     0.023 C 
BRANCH  39  40
ATOM     40  C   UNL     1      -3.502   7.906  10.457  1.00  0.00     0.116 C 
BRANCH  40  41
ATOM     41  N   UNL     1      -4.616   8.798  10.164  1.00  0.00    -0.352 N 
ATOM     42  C   UNL     1      -4.987   9.922  10.874  1.00  0.00     0.251 C 
ATOM     43  H   UNL     1      -5.162   8.576   9.376  1.00  0.00     0.163 HD
ATOM     44  O   UNL     1      -5.978  10.564  10.587  1.00  0.00    -0.269 OA
BRANCH  42  45
ATOM     45  C   UNL     1      -4.155  10.271  12.043  1.00  0.00     0.039 A 
ATOM     46  C   UNL     1      -2.784  10.461  11.872  1.00  0.00     0.014 A 
ATOM     47  C   UNL     1      -4.725  10.213  13.315  1.00  0.00     0.014 A 
ATOM     48  C   UNL     1      -1.955  10.413  12.983  1.00  0.00     0.010 A 
ATOM     49  C   UNL     1      -3.893  10.259  14.434  1.00  0.00     0.010 A 
ATOM     50  C   UNL     1      -2.499  10.302  14.275  1.00  0.00    -0.014 A 
BRANCH  50  51
ATOM     51  C   UNL     1      -1.587  10.228  15.443  1.00  0.00     0.031 A 
ATOM     52  C   UNL     1      -1.529   8.995  16.305  1.00  0.00     0.074 A 
ATOM     53  C   UNL     1      -0.766  11.267  15.688  1.00  0.00     0.049 A 
ATOM     54  N   UNL     1      -0.785   8.768  17.357  1.00  0.00    -0.248 NA
ATOM     55  C   UNL     1      -2.415   7.874  15.949  1.00  0.00     0.031 C 
ATOM     56  C   UNL     1      -0.718  12.500  14.899  1.00  0.00     0.029 A 
ATOM     57  N   UNL     1       0.204  11.442  16.641  1.00  0.00    -0.354 N 
ATOM     58  C   UNL     1      -1.130   7.498  17.804  1.00  0.00     0.074 A 
ATOM     59  C   UNL     1      -2.164   7.006  16.921  1.00  0.00     0.031 C 
ATOM     60  C   UNL     1       0.276  13.274  15.357  1.00  0.00     0.029 A 
ATOM     61  C   UNL     1       0.880  12.633  16.520  1.00  0.00     0.049 A 
ATOM     62  H   UNL     1       0.398  10.780  17.343  1.00  0.00     0.167 HD
ATOM     63  C   UNL     1      -0.623   6.807  18.853  1.00  0.00     0.031 A 
ATOM     64  C   UNL     1       1.866  13.167  17.267  1.00  0.00     0.031 A 
ATOM     65  C   UNL     1       0.426   7.299  19.709  1.00  0.00     0.049 A 
ATOM     66  C   UNL     1       2.387  12.397  18.443  1.00  0.00     0.074 A 
ATOM     67  C   UNL     1       1.025   6.658  20.780  1.00  0.00     0.029 A 
ATOM     68  N   UNL     1       1.036   8.539  19.593  1.00  0.00    -0.354 N 
ATOM     69  N   UNL     1       2.041  11.201  18.854  1.00  0.00    -0.248 NA
ATOM     70  C   UNL     1       3.419  13.045  19.261  1.00  0.00     0.031 C 
ATOM     71  C   UNL     1       1.951   7.534  21.349  1.00  0.00     0.029 A 
ATOM     72  C   UNL     1       1.982   8.694  20.593  1.00  0.00     0.049 A 
ATOM     73  H   UNL     1       0.827   9.210  18.904  1.00  0.00     0.167 HD
ATOM     74  C   UNL     1       2.813  10.950  19.980  1.00  0.00     0.074 A 
ATOM     75  C   UNL     1       3.662  12.110  20.172  1.00  0.00     0.031 C 
ATOM     76  C   UNL     1       2.811   9.859  20.783  1.00  0.00     0.031 A 
BRANCH  63  77
ATOM     77  C   UNL     1      -1.189   5.444  19.160  1.00  0.00    -0.014 A 
ATOM     78  C   UNL     1      -1.927   5.251  20.343  1.00  0.00     0.010 A 
ATOM     79  C   UNL     1      -0.888   4.332  18.354  1.00  0.00     0.010 A 
ATOM     80  C   UNL     1      -2.329   3.970  20.732  1.00  0.00     0.020 A 
ATOM     81  C   UNL     1      -1.311   3.051  18.726  1.00  0.00     0.020 A 
ATOM     82  C   UNL     1      -2.009   2.876  19.925  1.00  0.00     0.054 A 
BRANCH  82  83
ATOM     83  S   UNL     1      -2.517   1.217  20.455  1.00  0.00     0.124 S 
ATOM     84  O   UNL     1      -1.536   0.910  21.491  1.00  0.00    -0.237 OA
ATOM     85  O   UNL     1      -3.884   1.435  20.923  1.00  0.00    -0.237 OA
ATOM     86  O   UNL     1      -2.408   0.421  19.234  1.00  0.00    -0.744 OA
ENDBRANCH  82  83
ENDBRANCH  63  77
BRANCH  64  87
ATOM     87  C   UNL     1       2.405  14.500  16.886  1.00  0.00    -0.014 A 
ATOM     88  C   UNL     1       1.595  15.647  16.990  1.00  0.00     0.010 A 
ATOM     89  C   UNL     1       3.672  14.608  16.289  1.00  0.00     0.010 A 
ATOM     90  C   UNL     1       2.007  16.859  16.433  1.00  0.00     0.020 A 
ATOM     91  C   UNL     1       4.102  15.829  15.759  1.00  0.00     0.020 A 
ATOM     92  C   UNL     1       3.250  16.935  15.801  1.00  0.00     0.054 A 
BRANCH  92  93
ATOM     93  S   UNL     1       3.728  18.493  15.004  1.00  0.00     0.124 S 
ATOM     94  O   UNL     1       2.951  18.445  13.768  1.00  0.00    -0.237 OA
ATOM     95  O   UNL     1       3.301  19.495  15.977  1.00  0.00    -0.237 OA
ATOM     96  O   UNL     1       5.173  18.362  14.841  1.00  0.00    -0.744 OA
ENDBRANCH  92  93
ENDBRANCH  64  87
BRANCH  76  97
ATOM     97  C   UNL     1       3.741   9.850  21.966  1.00  0.00    -0.014 A 
ATOM     98  C   UNL     1       4.832   8.961  21.989  1.00  0.00     0.010 A 
ATOM     99  C   UNL     1       3.456  10.619  23.107  1.00  0.00     0.010 A 
ATOM    100  C   UNL     1       5.599   8.812  23.147  1.00  0.00     0.020 A 
ATOM    101  C   UNL     1       4.238  10.492  24.259  1.00  0.00     0.020 A 
ATOM    102  C   UNL     1       5.287   9.570  24.279  1.00  0.00     0.054 A 
BRANCH 102 103
ATOM    103  S   UNL     1       6.268   9.335  25.787  1.00  0.00     0.124 S 
ATOM    104  O   UNL     1       5.726   8.086  26.313  1.00  0.00    -0.237 OA
ATOM    105  O   UNL     1       7.634   9.262  25.274  1.00  0.00    -0.237 OA
ATOM    106  O   UNL     1       5.971  10.527  26.577  1.00  0.00    -0.744 OA
ENDBRANCH 102 103
ENDBRANCH  76  97
ENDBRANCH  50  51
ENDBRANCH  42  45
ENDBRANCH  40  41
ENDBRANCH  39  40
ENDBRANCH   1  39
TORSDOF 20
