REMARK SMILES COC(=O)c1ccc(Cl)c(-c2ccc(F)cc2C(=O)NCCCCNC(=O)c2ccc(-c3c4nc(c(-c5ccc(S(=O)(=O)[O-])cc5)c5ccc([nH]5)c(-c5ccc(S(=O)(=O)[O-])cc5)c5nc(c(-c6ccc(S(=O)(=O)[O-])cc6)c6ccc3[nH]6)C=C5)C=C4)cc2)c1
REMARK SMILES IDX 22 1 21 2 20 3 18 4 19 5 17 7 11 8 12 9 13 10 16 11 14 12
REMARK SMILES IDX 15 13 10 14 5 15 6 16 88 17 7 18 8 19 9 20 3 21 4 22 2 23
REMARK SMILES IDX 1 24 23 25 24 26 25 27 26 28 27 30 28 31 29 32 87 33 30 34
REMARK SMILES IDX 86 35 31 36 32 37 33 38 80 39 34 40 85 41 79 42 81 43 35 44
REMARK SMILES IDX 84 45 78 46 77 47 36 49 66 50 47 51 65 52 48 53 51 54 64 55
REMARK SMILES IDX 82 56 49 57 50 58 63 60 83 61 52 62 37 63 38 64 46 65 39 66
REMARK SMILES IDX 45 67 40 68 41 69 42 70 43 71 44 72 67 73 68 74 76 75 69 76
REMARK SMILES IDX 75 77 70 78 71 79 72 80 73 81 74 82 53 83 54 84 62 85 55 86
REMARK SMILES IDX 61 87 56 88 57 89 58 90 59 91 60 92
REMARK H PARENT 20 6 25 29 81 48 51 59
REMARK Flexibility Score: inf
ROOT
ATOM      1  C   UNL     1      -0.050   0.581   6.175  1.00  0.00     0.023 C 
ENDROOT
BRANCH   1   2
ATOM      2  C   UNL     1       0.688  -0.719   5.894  1.00  0.00     0.116 C 
BRANCH   2   3
ATOM      3  N   UNL     1       2.113  -0.610   5.695  1.00  0.00    -0.352 N 
ATOM      4  C   UNL     1       3.091  -1.560   5.873  1.00  0.00     0.252 C 
ATOM      5  O   UNL     1       4.246  -1.284   5.550  1.00  0.00    -0.269 OA
ATOM      6  H   UNL     1       2.430   0.269   5.387  1.00  0.00     0.163 HD
BRANCH   4   7
ATOM      7  C   UNL     1       2.845  -2.885   6.515  1.00  0.00     0.050 A 
ATOM      8  C   UNL     1       1.911  -3.865   6.090  1.00  0.00    -0.004 A 
ATOM      9  C   UNL     1       1.896  -5.103   6.774  1.00  0.00     0.012 A 
ATOM     10  C   UNL     1       2.767  -5.368   7.832  1.00  0.00     0.040 A 
ATOM     11  C   UNL     1       3.738  -3.178   7.566  1.00  0.00     0.053 A 
ATOM     12  C   UNL     1       3.686  -4.404   8.212  1.00  0.00     0.124 A 
ATOM     13  F   UNL     1       4.544  -4.668   9.206  1.00  0.00    -0.207 F 
BRANCH   8  14
ATOM     14  C   UNL     1       0.996  -3.691   4.942  1.00  0.00     0.002 A 
ATOM     15  C   UNL     1       0.714  -3.098   2.590  1.00  0.00     0.060 A 
ATOM     16  C   UNL     1      -0.674  -3.062   2.738  1.00  0.00     0.017 A 
ATOM     17  C   UNL     1       1.539  -3.434   3.671  1.00  0.00     0.026 A 
ATOM     18  C   UNL     1      -1.238  -3.385   3.972  1.00  0.00     0.022 A 
ATOM     19  C   UNL     1      -0.416  -3.702   5.064  1.00  0.00     0.048 A 
ATOM     20  Cl  UNL     1      -1.211  -3.971   6.580  1.00  0.00    -0.084 Cl
BRANCH  15  21
ATOM     21  C   UNL     1       1.364  -2.764   1.310  1.00  0.00     0.337 C 
ATOM     22  O   UNL     1       2.265  -3.428   0.828  1.00  0.00    -0.246 OA
BRANCH  21  23
ATOM     23  O   UNL     1       0.878  -1.582   0.861  1.00  0.00    -0.465 OA
ATOM     24  C   UNL     1       1.563  -1.085  -0.292  1.00  0.00     0.282 C 
ENDBRANCH  21  23
ENDBRANCH  15  21
ENDBRANCH   8  14
ENDBRANCH   4   7
ENDBRANCH   2   3
ENDBRANCH   1   2
BRANCH   1  25
ATOM     25  C   UNL     1      -0.025   1.638   5.071  1.00  0.00     0.023 C 
BRANCH  25  26
ATOM     26  C   UNL     1      -0.289   1.184   3.636  1.00  0.00     0.116 C 
BRANCH  26  27
ATOM     27  N   UNL     1      -1.562   0.510   3.419  1.00  0.00    -0.352 N 
ATOM     28  C   UNL     1      -2.468   0.665   2.388  1.00  0.00     0.251 C 
ATOM     29  H   UNL     1      -1.812  -0.151   4.105  1.00  0.00     0.163 HD
ATOM     30  O   UNL     1      -3.480  -0.029   2.351  1.00  0.00    -0.269 OA
BRANCH  28  31
ATOM     31  C   UNL     1      -2.245   1.711   1.360  1.00  0.00     0.039 A 
ATOM     32  C   UNL     1      -3.256   2.642   1.103  1.00  0.00     0.014 A 
ATOM     33  C   UNL     1      -1.013   1.827   0.717  1.00  0.00     0.014 A 
ATOM     34  C   UNL     1      -2.979   3.766   0.316  1.00  0.00     0.010 A 
ATOM     35  C   UNL     1      -0.717   2.976  -0.011  1.00  0.00     0.010 A 
ATOM     36  C   UNL     1      -1.684   3.979  -0.184  1.00  0.00    -0.014 A 
BRANCH  36  37
ATOM     37  C   UNL     1      -1.278   5.271  -0.802  1.00  0.00     0.031 A 
ATOM     38  C   UNL     1      -0.792   5.317  -2.225  1.00  0.00     0.074 A 
ATOM     39  C   UNL     1      -1.220   6.381  -0.036  1.00  0.00     0.049 A 
ATOM     40  N   UNL     1      -0.246   6.311  -2.877  1.00  0.00    -0.248 NA
ATOM     41  C   UNL     1      -0.911   4.076  -3.008  1.00  0.00     0.031 C 
ATOM     42  C   UNL     1      -1.609   6.462   1.375  1.00  0.00     0.029 A 
ATOM     43  N   UNL     1      -0.784   7.651  -0.328  1.00  0.00    -0.354 N 
ATOM     44  C   UNL     1       0.059   5.816  -4.139  1.00  0.00     0.074 A 
ATOM     45  C   UNL     1      -0.327   4.420  -4.148  1.00  0.00     0.031 C 
ATOM     46  C   UNL     1      -1.398   7.711   1.822  1.00  0.00     0.029 A 
ATOM     47  C   UNL     1      -0.823   8.511   0.746  1.00  0.00     0.049 A 
ATOM     48  H   UNL     1      -0.472   7.921  -1.222  1.00  0.00     0.167 HD
ATOM     49  C   UNL     1       0.595   6.466  -5.199  1.00  0.00     0.031 A 
ATOM     50  C   UNL     1      -0.426   9.794   0.863  1.00  0.00     0.031 A 
ATOM     51  C   UNL     1       0.968   7.855  -5.195  1.00  0.00     0.049 A 
ATOM     52  C   UNL     1       0.158  10.496  -0.333  1.00  0.00     0.074 A 
ATOM     53  C   UNL     1       1.491   8.609  -6.233  1.00  0.00     0.029 A 
ATOM     54  N   UNL     1       0.850   8.704  -4.105  1.00  0.00    -0.354 N 
ATOM     55  N   UNL     1       0.393  10.019  -1.531  1.00  0.00    -0.248 NA
ATOM     56  C   UNL     1       0.517  11.912  -0.166  1.00  0.00     0.031 C 
ATOM     57  C   UNL     1       1.713   9.907  -5.763  1.00  0.00     0.029 A 
ATOM     58  C   UNL     1       1.286   9.972  -4.446  1.00  0.00     0.049 A 
ATOM     59  H   UNL     1       0.506   8.443  -3.220  1.00  0.00     0.167 HD
ATOM     60  C   UNL     1       0.889  11.087  -2.271  1.00  0.00     0.074 A 
ATOM     61  C   UNL     1       0.919  12.234  -1.389  1.00  0.00     0.031 C 
ATOM     62  C   UNL     1       1.280  11.112  -3.567  1.00  0.00     0.031 A 
BRANCH  49  63
ATOM     63  C   UNL     1       0.796   5.683  -6.468  1.00  0.00    -0.014 A 
ATOM     64  C   UNL     1      -0.304   5.306  -7.260  1.00  0.00     0.010 A 
ATOM     65  C   UNL     1       2.095   5.374  -6.910  1.00  0.00     0.010 A 
ATOM     66  C   UNL     1      -0.112   4.605  -8.452  1.00  0.00     0.020 A 
ATOM     67  C   UNL     1       2.294   4.694  -8.115  1.00  0.00     0.020 A 
ATOM     68  C   UNL     1       1.187   4.301  -8.871  1.00  0.00     0.054 A 
BRANCH  68  69
ATOM     69  S   UNL     1       1.408   3.419 -10.440  1.00  0.00     0.124 S 
ATOM     70  O   UNL     1       1.006   2.062 -10.080  1.00  0.00    -0.237 OA
ATOM     71  O   UNL     1       0.497   4.125 -11.338  1.00  0.00    -0.237 OA
ATOM     72  O   UNL     1       2.828   3.590 -10.737  1.00  0.00    -0.744 OA
ENDBRANCH  68  69
ENDBRANCH  49  63
BRANCH  50  73
ATOM     73  C   UNL     1      -0.571  10.509   2.161  1.00  0.00    -0.014 A 
ATOM     74  C   UNL     1      -1.538  11.519   2.312  1.00  0.00     0.010 A 
ATOM     75  C   UNL     1       0.264  10.193   3.247  1.00  0.00     0.010 A 
ATOM     76  C   UNL     1      -1.643  12.224   3.515  1.00  0.00     0.020 A 
ATOM     77  C   UNL     1       0.144  10.877   4.460  1.00  0.00     0.020 A 
ATOM     78  C   UNL     1      -0.798  11.902   4.580  1.00  0.00     0.054 A 
BRANCH  78  79
ATOM     79  S   UNL     1      -0.966  12.811   6.141  1.00  0.00     0.124 S 
ATOM     80  O   UNL     1      -0.293  14.069   5.832  1.00  0.00    -0.237 OA
ATOM     81  O   UNL     1      -2.414  12.891   6.309  1.00  0.00    -0.237 OA
ATOM     82  O   UNL     1      -0.282  11.954   7.108  1.00  0.00    -0.744 OA
ENDBRANCH  78  79
ENDBRANCH  50  73
BRANCH  62  83
ATOM     83  C   UNL     1       1.710  12.433  -4.144  1.00  0.00    -0.014 A 
ATOM     84  C   UNL     1       2.970  12.983  -3.853  1.00  0.00     0.010 A 
ATOM     85  C   UNL     1       0.868  13.086  -5.064  1.00  0.00     0.010 A 
ATOM     86  C   UNL     1       3.376  14.171  -4.466  1.00  0.00     0.020 A 
ATOM     87  C   UNL     1       1.280  14.262  -5.693  1.00  0.00     0.020 A 
ATOM     88  C   UNL     1       2.530  14.802  -5.385  1.00  0.00     0.054 A 
BRANCH  88  89
ATOM     89  S   UNL     1       3.112  16.300  -6.227  1.00  0.00     0.124 S 
ATOM     90  O   UNL     1       2.974  17.309  -5.182  1.00  0.00    -0.237 OA
ATOM     91  O   UNL     1       4.485  15.953  -6.589  1.00  0.00    -0.237 OA
ATOM     92  O   UNL     1       2.195  16.441  -7.356  1.00  0.00    -0.744 OA
ENDBRANCH  88  89
ENDBRANCH  62  83
ENDBRANCH  36  37
ENDBRANCH  28  31
ENDBRANCH  26  27
ENDBRANCH  25  26
ENDBRANCH   1  25
TORSDOF 17
