REMARK SMILES [NH3+][C@H](CCC(=O)NCCCCNC(=O)c1ccc(-c2c3nc(c(-c4ccc(S(=O)(=O)[O-])cc4)c4ccc([nH]4)c(-c4ccc(S(=O)(=O)[O-])cc4)c4nc(c(-c5ccc(S(=O)(=O)[O-])cc5)c5ccc2[nH]5)C=C4)C=C3)cc1)c1nccc2[nH]ccc12
REMARK SMILES IDX 9 1 8 2 7 3 5 4 6 5 4 7 3 8 2 9 1 10 75 14 76 15 83 16 77 17
REMARK SMILES IDX 79 18 82 19 78 20 80 21 81 22 10 24 11 25 12 26 13 27 14 29
REMARK SMILES IDX 15 30 16 31 74 32 17 33 73 34 18 35 19 36 20 37 67 38 21 39
REMARK SMILES IDX 72 40 66 41 68 42 22 43 71 44 65 45 64 46 23 48 53 49 34 50
REMARK SMILES IDX 52 51 35 52 38 53 51 54 69 55 36 56 37 57 50 59 70 60 39 61
REMARK SMILES IDX 24 62 25 63 33 64 26 65 32 66 27 67 28 68 29 69 30 70 31 71
REMARK SMILES IDX 54 72 55 73 63 74 56 75 62 76 57 77 58 78 59 79 60 80 61 81
REMARK SMILES IDX 40 82 41 83 49 84 42 85 48 86 43 87 44 88 45 89 46 90 47 91
REMARK H PARENT 7 6 1 11 1 12 1 13 80 23 12 28 68 47 38 58
REMARK Flexibility Score: inf
ROOT
ATOM      1  C   UNL     1       0.756  -2.607  -2.597  1.00  0.00     0.023 C 
ENDROOT
BRANCH   1   2
ATOM      2  C   UNL     1       0.024  -2.674  -1.261  1.00  0.00     0.116 C 
BRANCH   2   3
ATOM      3  N   UNL     1       0.866  -2.846  -0.105  1.00  0.00    -0.356 N 
ATOM      4  C   UNL     1       0.728  -2.270   1.124  1.00  0.00     0.220 C 
ATOM      5  O   UNL     1       1.528  -2.605   2.002  1.00  0.00    -0.275 OA
ATOM      6  H   UNL     1       1.634  -3.452  -0.216  1.00  0.00     0.163 HD
BRANCH   4   7
ATOM      7  C   UNL     1      -0.392  -1.273   1.448  1.00  0.00     0.106 C 
BRANCH   7   8
ATOM      8  C   UNL     1      -0.259   0.133   0.853  1.00  0.00     0.082 C 
BRANCH   8   9
ATOM      9  C   UNL     1      -1.327   0.698  -0.137  1.00  0.00     0.232 C 
BRANCH   9  10
ATOM     10  N   UNL     1      -0.633   1.033  -1.413  1.00  0.00    -0.350 N 
ATOM     11  H   UNL     1      -1.309   1.406  -2.080  1.00  0.00     0.345 HD
ATOM     12  H   UNL     1      -0.203   0.192  -1.798  1.00  0.00     0.345 HD
ATOM     13  H   UNL     1       0.089   1.732  -1.234  1.00  0.00     0.345 HD
ENDBRANCH   9  10
BRANCH   9  14
ATOM     14  C   UNL     1      -2.613  -0.072  -0.461  1.00  0.00     0.107 A 
ATOM     15  N   UNL     1      -2.493  -1.393  -0.800  1.00  0.00    -0.254 NA
ATOM     16  C   UNL     1      -3.840   0.551  -0.800  1.00  0.00     0.027 A 
ATOM     17  C   UNL     1      -3.340  -1.965  -1.676  1.00  0.00     0.114 A 
ATOM     18  C   UNL     1      -4.619  -0.043  -1.800  1.00  0.00     0.049 A 
ATOM     19  C   UNL     1      -4.548   1.718  -0.388  1.00  0.00     0.030 A 
ATOM     20  C   UNL     1      -4.343  -1.295  -2.331  1.00  0.00     0.047 A 
ATOM     21  N   UNL     1      -5.612   0.848  -2.126  1.00  0.00    -0.361 N 
ATOM     22  C   UNL     1      -5.676   1.828  -1.172  1.00  0.00     0.083 A 
ATOM     23  H   UNL     1      -6.189   0.791  -2.921  1.00  0.00     0.166 HD
ENDBRANCH   9  14
ENDBRANCH   8   9
ENDBRANCH   7   8
ENDBRANCH   4   7
ENDBRANCH   2   3
ENDBRANCH   1   2
BRANCH   1  24
ATOM     24  C   UNL     1       0.621  -3.854  -3.465  1.00  0.00     0.023 C 
BRANCH  24  25
ATOM     25  C   UNL     1      -0.792  -4.192  -3.939  1.00  0.00     0.116 C 
BRANCH  25  26
ATOM     26  N   UNL     1      -1.399  -3.204  -4.826  1.00  0.00    -0.352 N 
ATOM     27  C   UNL     1      -2.155  -3.439  -5.957  1.00  0.00     0.251 C 
ATOM     28  H   UNL     1      -1.251  -2.260  -4.590  1.00  0.00     0.163 HD
ATOM     29  O   UNL     1      -2.578  -2.512  -6.643  1.00  0.00    -0.269 OA
BRANCH  27  30
ATOM     30  C   UNL     1      -2.419  -4.839  -6.352  1.00  0.00     0.039 A 
ATOM     31  C   UNL     1      -1.998  -5.289  -7.605  1.00  0.00     0.014 A 
ATOM     32  C   UNL     1      -2.971  -5.727  -5.426  1.00  0.00     0.014 A 
ATOM     33  C   UNL     1      -2.038  -6.656  -7.891  1.00  0.00     0.010 A 
ATOM     34  C   UNL     1      -2.933  -7.093  -5.684  1.00  0.00     0.010 A 
ATOM     35  C   UNL     1      -2.454  -7.575  -6.913  1.00  0.00    -0.014 A 
BRANCH  35  36
ATOM     36  C   UNL     1      -2.380  -9.043  -7.141  1.00  0.00     0.031 A 
ATOM     37  C   UNL     1      -3.635  -9.873  -7.110  1.00  0.00     0.074 A 
ATOM     38  C   UNL     1      -1.180  -9.643  -7.287  1.00  0.00     0.049 A 
ATOM     39  N   UNL     1      -3.768 -11.171  -7.204  1.00  0.00    -0.248 NA
ATOM     40  C   UNL     1      -4.903  -9.152  -6.914  1.00  0.00     0.031 C 
ATOM     41  C   UNL     1       0.118  -8.963  -7.275  1.00  0.00     0.029 A 
ATOM     42  N   UNL     1      -0.856 -10.966  -7.465  1.00  0.00    -0.354 N 
ATOM     43  C   UNL     1      -5.127 -11.423  -7.054  1.00  0.00     0.074 A 
ATOM     44  C   UNL     1      -5.768 -10.149  -6.808  1.00  0.00     0.031 C 
ATOM     45  C   UNL     1       1.092  -9.868  -7.468  1.00  0.00     0.029 A 
ATOM     46  C   UNL     1       0.496 -11.195  -7.581  1.00  0.00     0.049 A 
ATOM     47  H   UNL     1      -1.528 -11.684  -7.506  1.00  0.00     0.167 HD
ATOM     48  C   UNL     1      -5.789 -12.601  -7.139  1.00  0.00     0.031 A 
ATOM     49  C   UNL     1       1.181 -12.343  -7.757  1.00  0.00     0.031 A 
ATOM     50  C   UNL     1      -5.155 -13.864  -7.407  1.00  0.00     0.049 A 
ATOM     51  C   UNL     1       0.424 -13.639  -7.870  1.00  0.00     0.074 A 
ATOM     52  C   UNL     1      -5.745 -15.104  -7.575  1.00  0.00     0.029 A 
ATOM     53  N   UNL     1      -3.788 -14.046  -7.552  1.00  0.00    -0.354 N 
ATOM     54  N   UNL     1      -0.870 -13.845  -7.794  1.00  0.00    -0.248 NA
ATOM     55  C   UNL     1       1.217 -14.853  -8.104  1.00  0.00     0.031 C 
ATOM     56  C   UNL     1      -4.730 -16.045  -7.781  1.00  0.00     0.029 A 
ATOM     57  C   UNL     1      -3.513 -15.381  -7.793  1.00  0.00     0.049 A 
ATOM     58  H   UNL     1      -3.114 -13.332  -7.493  1.00  0.00     0.167 HD
ATOM     59  C   UNL     1      -1.047 -15.209  -7.998  1.00  0.00     0.074 A 
ATOM     60  C   UNL     1       0.269 -15.775  -8.213  1.00  0.00     0.031 C 
ATOM     61  C   UNL     1      -2.197 -15.928  -8.007  1.00  0.00     0.031 A 
BRANCH  48  62
ATOM     62  C   UNL     1      -7.282 -12.569  -6.941  1.00  0.00    -0.014 A 
ATOM     63  C   UNL     1      -8.126 -11.971  -7.894  1.00  0.00     0.010 A 
ATOM     64  C   UNL     1      -7.851 -13.155  -5.795  1.00  0.00     0.010 A 
ATOM     65  C   UNL     1      -9.505 -11.908  -7.679  1.00  0.00     0.020 A 
ATOM     66  C   UNL     1      -9.233 -13.121  -5.591  1.00  0.00     0.020 A 
ATOM     67  C   UNL     1     -10.049 -12.478  -6.525  1.00  0.00     0.054 A 
BRANCH  67  68
ATOM     68  S   UNL     1     -11.842 -12.384  -6.273  1.00  0.00     0.124 S 
ATOM     69  O   UNL     1     -12.019 -10.985  -5.893  1.00  0.00    -0.237 OA
ATOM     70  O   UNL     1     -12.371 -12.749  -7.585  1.00  0.00    -0.237 OA
ATOM     71  O   UNL     1     -12.094 -13.355  -5.211  1.00  0.00    -0.744 OA
ENDBRANCH  67  68
ENDBRANCH  48  62
BRANCH  49  72
ATOM     72  C   UNL     1       2.665 -12.315  -7.870  1.00  0.00    -0.014 A 
ATOM     73  C   UNL     1       3.289 -12.541  -9.110  1.00  0.00     0.010 A 
ATOM     74  C   UNL     1       3.463 -12.045  -6.743  1.00  0.00     0.010 A 
ATOM     75  C   UNL     1       4.683 -12.512  -9.219  1.00  0.00     0.020 A 
ATOM     76  C   UNL     1       4.857 -11.991  -6.854  1.00  0.00     0.020 A 
ATOM     77  C   UNL     1       5.458 -12.235  -8.090  1.00  0.00     0.054 A 
BRANCH  77  78
ATOM     78  S   UNL     1       7.262 -12.142  -8.268  1.00  0.00     0.124 S 
ATOM     79  O   UNL     1       7.628 -13.549  -8.392  1.00  0.00    -0.237 OA
ATOM     80  O   UNL     1       7.419 -11.338  -9.478  1.00  0.00    -0.237 OA
ATOM     81  O   UNL     1       7.693 -11.487  -7.035  1.00  0.00    -0.744 OA
ENDBRANCH  77  78
ENDBRANCH  49  72
BRANCH  61  82
ATOM     82  C   UNL     1      -2.092 -17.402  -8.291  1.00  0.00    -0.014 A 
ATOM     83  C   UNL     1      -1.586 -18.294  -7.330  1.00  0.00     0.010 A 
ATOM     84  C   UNL     1      -2.566 -17.907  -9.516  1.00  0.00     0.010 A 
ATOM     85  C   UNL     1      -1.532 -19.664  -7.599  1.00  0.00     0.020 A 
ATOM     86  C   UNL     1      -2.537 -19.278  -9.779  1.00  0.00     0.020 A 
ATOM     87  C   UNL     1      -2.008 -20.148  -8.823  1.00  0.00     0.054 A 
BRANCH  87  88
ATOM     88  S   UNL     1      -1.974 -21.935  -9.130  1.00  0.00     0.124 S 
ATOM     89  O   UNL     1      -0.557 -22.171  -9.393  1.00  0.00    -0.237 OA
ATOM     90  O   UNL     1      -2.480 -22.486  -7.875  1.00  0.00    -0.237 OA
ATOM     91  O   UNL     1      -2.858 -22.105 -10.280  1.00  0.00    -0.744 OA
ENDBRANCH  87  88
ENDBRANCH  61  82
ENDBRANCH  35  36
ENDBRANCH  27  30
ENDBRANCH  25  26
ENDBRANCH  24  25
ENDBRANCH   1  24
TORSDOF 18
