REMARK SMILES O=C(NCCCCNC(=O)c1c(OCc2ccccn2)cnc2ccccc12)c1ccc(-c2c3nc(c(-c4ccc(S(=O)(=O)[O-])cc4)c4ccc([nH]4)c(-c4ccc(S(=O)(=O)[O-])cc4)c4nc(c(-c5ccc(S(=O)(=O)[O-])cc5)c5ccc2[nH]5)C=C4)C=C3)cc1
REMARK SMILES IDX 5 1 4 2 3 3 1 4 2 5 29 7 30 8 88 9 31 10 87 11 32 12 33 13
REMARK SMILES IDX 34 14 81 15 35 16 86 17 80 18 82 19 36 20 85 21 79 22 78 23
REMARK SMILES IDX 37 25 67 26 48 27 66 28 49 29 52 30 65 31 83 32 50 33 51 34
REMARK SMILES IDX 64 36 84 37 53 38 38 39 39 40 47 41 40 42 46 43 41 44 42 45
REMARK SMILES IDX 43 46 44 47 45 48 68 49 69 50 77 51 70 52 76 53 71 54 72 55
REMARK SMILES IDX 73 56 74 57 75 58 54 59 55 60 63 61 56 62 62 63 57 64 58 65
REMARK SMILES IDX 59 66 60 67 61 68 6 69 7 70 8 71 9 72 10 74 11 75 12 76
REMARK SMILES IDX 28 77 21 78 23 79 27 80 22 81 24 82 26 83 25 84 13 85 14 86
REMARK SMILES IDX 15 87 16 88 20 89 17 90 19 91 18 92
REMARK H PARENT 3 6 82 24 52 35 8 73
REMARK Flexibility Score: inf
ROOT
ATOM      1  C   UNL     1       4.970  -0.523   2.421  1.00  0.00     0.023 C 
ENDROOT
BRANCH   1   2
ATOM      2  C   UNL     1       4.606  -0.875   0.981  1.00  0.00     0.116 C 
BRANCH   2   3
ATOM      3  N   UNL     1       3.171  -0.946   0.759  1.00  0.00    -0.352 N 
ATOM      4  O   UNL     1       1.142  -0.298   0.032  1.00  0.00    -0.269 OA
ATOM      5  C   UNL     1       2.362  -0.169  -0.035  1.00  0.00     0.251 C 
ATOM      6  H   UNL     1       2.707  -1.661   1.252  1.00  0.00     0.163 HD
BRANCH   5   7
ATOM      7  C   UNL     1       2.950   0.838  -0.945  1.00  0.00     0.039 A 
ATOM      8  C   UNL     1       4.030   0.521  -1.774  1.00  0.00     0.014 A 
ATOM      9  C   UNL     1       2.392   2.118  -0.983  1.00  0.00     0.014 A 
ATOM     10  C   UNL     1       4.636   1.517  -2.538  1.00  0.00     0.010 A 
ATOM     11  C   UNL     1       2.957   3.097  -1.804  1.00  0.00     0.010 A 
ATOM     12  C   UNL     1       4.103   2.814  -2.564  1.00  0.00    -0.014 A 
BRANCH  12  13
ATOM     13  C   UNL     1       4.715   3.865  -3.416  1.00  0.00     0.031 A 
ATOM     14  C   UNL     1       5.335   5.088  -2.798  1.00  0.00     0.074 A 
ATOM     15  C   UNL     1       4.675   3.734  -4.755  1.00  0.00     0.049 A 
ATOM     16  N   UNL     1       5.828   6.149  -3.385  1.00  0.00    -0.248 NA
ATOM     17  C   UNL     1       5.399   5.129  -1.329  1.00  0.00     0.031 C 
ATOM     18  C   UNL     1       4.108   2.591  -5.473  1.00  0.00     0.029 A 
ATOM     19  N   UNL     1       5.104   4.574  -5.752  1.00  0.00    -0.354 N 
ATOM     20  C   UNL     1       6.235   6.996  -2.361  1.00  0.00     0.074 A 
ATOM     21  C   UNL     1       5.911   6.333  -1.115  1.00  0.00     0.031 C 
ATOM     22  C   UNL     1       4.227   2.799  -6.792  1.00  0.00     0.029 A 
ATOM     23  C   UNL     1       4.819   4.114  -7.014  1.00  0.00     0.049 A 
ATOM     24  H   UNL     1       5.571   5.423  -5.578  1.00  0.00     0.167 HD
ATOM     25  C   UNL     1       6.821   8.216  -2.452  1.00  0.00     0.031 A 
ATOM     26  C   UNL     1       4.976   4.695  -8.219  1.00  0.00     0.031 A 
ATOM     27  C   UNL     1       7.124   8.873  -3.697  1.00  0.00     0.049 A 
ATOM     28  C   UNL     1       5.584   6.064  -8.300  1.00  0.00     0.074 A 
ATOM     29  C   UNL     1       7.745  10.093  -3.897  1.00  0.00     0.029 A 
ATOM     30  N   UNL     1       6.817   8.371  -4.954  1.00  0.00    -0.354 N 
ATOM     31  N   UNL     1       5.994   6.838  -7.323  1.00  0.00    -0.248 NA
ATOM     32  C   UNL     1       5.759   6.638  -9.640  1.00  0.00     0.031 C 
ATOM     33  C   UNL     1       7.759  10.357  -5.271  1.00  0.00     0.029 A 
ATOM     34  C   UNL     1       7.210   9.269  -5.932  1.00  0.00     0.049 A 
ATOM     35  H   UNL     1       6.384   7.503  -5.125  1.00  0.00     0.167 HD
ATOM     36  C   UNL     1       6.503   7.979  -7.932  1.00  0.00     0.074 A 
ATOM     37  C   UNL     1       6.349   7.795  -9.361  1.00  0.00     0.031 C 
ATOM     38  C   UNL     1       7.056   9.073  -7.354  1.00  0.00     0.031 A 
BRANCH  25  39
ATOM     39  C   UNL     1       7.120   8.939  -1.163  1.00  0.00    -0.014 A 
ATOM     40  C   UNL     1       8.114   8.486  -0.277  1.00  0.00     0.010 A 
ATOM     41  C   UNL     1       6.394  10.100  -0.836  1.00  0.00     0.010 A 
ATOM     42  C   UNL     1       8.327   9.137   0.942  1.00  0.00     0.020 A 
ATOM     43  C   UNL     1       6.625  10.773   0.368  1.00  0.00     0.020 A 
ATOM     44  C   UNL     1       7.572  10.269   1.262  1.00  0.00     0.054 A 
BRANCH  44  45
ATOM     45  S   UNL     1       7.843  11.076   2.864  1.00  0.00     0.124 S 
ATOM     46  O   UNL     1       7.209  10.134   3.784  1.00  0.00    -0.237 OA
ATOM     47  O   UNL     1       9.299  11.148   2.946  1.00  0.00    -0.237 OA
ATOM     48  O   UNL     1       7.165  12.362   2.725  1.00  0.00    -0.744 OA
ENDBRANCH  44  45
ENDBRANCH  25  39
BRANCH  26  49
ATOM     49  C   UNL     1       4.524   3.965  -9.434  1.00  0.00    -0.014 A 
ATOM     50  C   UNL     1       5.456   3.386 -10.310  1.00  0.00     0.010 A 
ATOM     51  C   UNL     1       3.149   3.767  -9.665  1.00  0.00     0.010 A 
ATOM     52  C   UNL     1       5.022   2.611 -11.390  1.00  0.00     0.020 A 
ATOM     53  C   UNL     1       2.712   2.971 -10.727  1.00  0.00     0.020 A 
ATOM     54  C   UNL     1       3.653   2.399 -11.584  1.00  0.00     0.054 A 
BRANCH  54  55
ATOM     55  S   UNL     1       3.121   1.302 -12.928  1.00  0.00     0.124 S 
ATOM     56  O   UNL     1       3.379   2.121 -14.109  1.00  0.00    -0.237 OA
ATOM     57  O   UNL     1       3.997   0.146 -12.756  1.00  0.00    -0.237 OA
ATOM     58  O   UNL     1       1.712   1.055 -12.632  1.00  0.00    -0.744 OA
ENDBRANCH  54  55
ENDBRANCH  26  49
BRANCH  38  59
ATOM     59  C   UNL     1       7.589  10.152  -8.259  1.00  0.00    -0.014 A 
ATOM     60  C   UNL     1       6.729  11.036  -8.933  1.00  0.00     0.010 A 
ATOM     61  C   UNL     1       8.980  10.344  -8.351  1.00  0.00     0.010 A 
ATOM     62  C   UNL     1       7.253  12.092  -9.684  1.00  0.00     0.020 A 
ATOM     63  C   UNL     1       9.506  11.412  -9.080  1.00  0.00     0.020 A 
ATOM     64  C   UNL     1       8.638  12.279  -9.745  1.00  0.00     0.054 A 
BRANCH  64  65
ATOM     65  S   UNL     1       9.289  13.711 -10.649  1.00  0.00     0.124 S 
ATOM     66  O   UNL     1       9.068  13.321 -12.039  1.00  0.00    -0.237 OA
ATOM     67  O   UNL     1       8.450  14.804 -10.162  1.00  0.00    -0.237 OA
ATOM     68  O   UNL     1      10.688  13.777 -10.235  1.00  0.00    -0.744 OA
ENDBRANCH  64  65
ENDBRANCH  38  59
ENDBRANCH  12  13
ENDBRANCH   5   7
ENDBRANCH   2   3
ENDBRANCH   1   2
BRANCH   1  69
ATOM     69  C   UNL     1       4.491  -1.507   3.488  1.00  0.00     0.023 C 
BRANCH  69  70
ATOM     70  C   UNL     1       4.838  -2.970   3.243  1.00  0.00     0.116 C 
BRANCH  70  71
ATOM     71  N   UNL     1       6.264  -3.221   3.118  1.00  0.00    -0.352 N 
ATOM     72  C   UNL     1       6.999  -4.271   3.621  1.00  0.00     0.255 C 
ATOM     73  H   UNL     1       6.772  -2.552   2.605  1.00  0.00     0.163 HD
ATOM     74  O   UNL     1       8.188  -4.388   3.341  1.00  0.00    -0.269 OA
BRANCH  72  75
ATOM     75  C   UNL     1       6.345  -5.284   4.478  1.00  0.00     0.092 A 
ATOM     76  C   UNL     1       6.742  -5.374   5.818  1.00  0.00     0.151 A 
ATOM     77  C   UNL     1       5.335  -6.131   3.942  1.00  0.00     0.017 A 
ATOM     78  C   UNL     1       6.116  -6.355   6.559  1.00  0.00     0.159 A 
ATOM     79  C   UNL     1       4.692  -6.988   4.853  1.00  0.00     0.071 A 
ATOM     80  C   UNL     1       4.915  -6.152   2.586  1.00  0.00     0.011 A 
ATOM     81  N   UNL     1       5.091  -7.124   6.123  1.00  0.00    -0.252 NA
ATOM     82  C   UNL     1       3.593  -7.722   4.431  1.00  0.00     0.029 A 
ATOM     83  C   UNL     1       3.814  -6.904   2.182  1.00  0.00     0.001 A 
ATOM     84  C   UNL     1       3.133  -7.671   3.115  1.00  0.00     0.002 A 
BRANCH  76  85
ATOM     85  O   UNL     1       7.674  -4.495   6.287  1.00  0.00    -0.485 OA
BRANCH  85  86
ATOM     86  C   UNL     1       8.046  -4.503   7.673  1.00  0.00     0.285 C 
BRANCH  86  87
ATOM     87  C   UNL     1       7.011  -3.890   8.599  1.00  0.00     0.078 A 
ATOM     88  C   UNL     1       6.316  -4.682   9.515  1.00  0.00     0.027 A 
ATOM     89  N   UNL     1       6.787  -2.557   8.496  1.00  0.00    -0.258 NA
ATOM     90  C   UNL     1       5.323  -4.104  10.301  1.00  0.00     0.004 A 
ATOM     91  C   UNL     1       5.837  -2.015   9.291  1.00  0.00     0.111 A 
ATOM     92  C   UNL     1       5.076  -2.743  10.189  1.00  0.00     0.020 A 
ENDBRANCH  86  87
ENDBRANCH  85  86
ENDBRANCH  76  85
ENDBRANCH  72  75
ENDBRANCH  70  71
ENDBRANCH  69  70
ENDBRANCH   1  69
TORSDOF 17
