REMARK SMILES N#C/C(=C/c1cccc(OC2CCCC2)c1)C(=O)NCCCCNC(=O)c1ccc(-c2c3nc(c(-c4ccc(S(=O)(=O)[O-])cc4)c4ccc([nH]4)c(-c4ccc(S(=O)(=O)[O-])cc4)c4nc(c(-c5ccc(S(=O)(=O)[O-])cc5)c5ccc2[nH]5)C=C4)C=C3)cc1
REMARK SMILES IDX 21 1 20 2 19 3 17 4 18 5 3 7 4 8 2 9 1 10 5 11 6 12 16 13
REMARK SMILES IDX 7 14 9 15 8 16 10 17 11 18 12 19 15 20 13 21 14 22 22 23
REMARK SMILES IDX 23 24 24 25 25 26 26 28 27 29 28 30 86 31 29 32 85 33 30 34
REMARK SMILES IDX 31 35 32 36 79 37 33 38 84 39 78 40 80 41 34 42 83 43 77 44
REMARK SMILES IDX 76 45 35 47 65 48 46 49 64 50 47 51 50 52 63 53 81 54 48 55
REMARK SMILES IDX 49 56 62 58 82 59 51 60 36 61 37 62 45 63 38 64 44 65 39 66
REMARK SMILES IDX 40 67 41 68 42 69 43 70 66 71 67 72 75 73 68 74 74 75 69 76
REMARK SMILES IDX 70 77 71 78 72 79 73 80 52 81 53 82 61 83 54 84 60 85 55 86
REMARK SMILES IDX 56 87 57 88 58 89 59 90
REMARK H PARENT 19 6 24 27 80 46 50 57
REMARK Flexibility Score: inf
ROOT
ATOM      1  C   UNL     1       7.582   1.948  -1.818  1.00  0.00     0.023 C 
ENDROOT
BRANCH   1   2
ATOM      2  C   UNL     1       6.597   1.052  -1.073  1.00  0.00     0.116 C 
BRANCH   2   3
ATOM      3  N   UNL     1       5.707   1.714  -0.139  1.00  0.00    -0.351 N 
ATOM      4  C   UNL     1       4.538   1.288   0.435  1.00  0.00     0.261 C 
ATOM      5  O   UNL     1       4.002   2.032   1.259  1.00  0.00    -0.268 OA
ATOM      6  H   UNL     1       5.989   2.619   0.127  1.00  0.00     0.163 HD
BRANCH   4   7
ATOM      7  C   UNL     1       3.856   0.009   0.066  1.00  0.00     0.117 C 
ATOM      8  C   UNL     1       4.365  -1.228  -0.149  1.00  0.00     0.033 C 
BRANCH   7   9
ATOM      9  C   UNL     1       2.336   0.009   0.066  1.00  0.00     0.105 C 
ATOM     10  N   UNL     1       1.075   0.009   0.066  1.00  0.00    -0.192 NA
ENDBRANCH   7   9
BRANCH   8  11
ATOM     11  C   UNL     1       5.738  -1.706  -0.002  1.00  0.00    -0.020 A 
ATOM     12  C   UNL     1       6.418  -2.284  -1.079  1.00  0.00     0.008 A 
ATOM     13  C   UNL     1       6.385  -1.547   1.226  1.00  0.00     0.054 A 
ATOM     14  C   UNL     1       7.767  -2.610  -0.945  1.00  0.00     0.004 A 
ATOM     15  C   UNL     1       7.744  -1.807   1.351  1.00  0.00     0.120 A 
ATOM     16  C   UNL     1       8.428  -2.354   0.261  1.00  0.00     0.046 A 
BRANCH  15  17
ATOM     17  O   UNL     1       8.512  -1.534   2.442  1.00  0.00    -0.490 OA
BRANCH  17  18
ATOM     18  C   UNL     1       8.028  -0.786   3.556  1.00  0.00     0.173 C 
ATOM     19  C   UNL     1       7.474   0.616   3.282  1.00  0.00     0.045 C 
ATOM     20  C   UNL     1       7.004  -1.517   4.433  1.00  0.00     0.045 C 
ATOM     21  C   UNL     1       6.549   0.874   4.461  1.00  0.00     0.004 C 
ATOM     22  C   UNL     1       5.930  -0.483   4.769  1.00  0.00     0.004 C 
ENDBRANCH  17  18
ENDBRANCH  15  17
ENDBRANCH   8  11
ENDBRANCH   4   7
ENDBRANCH   2   3
ENDBRANCH   1   2
BRANCH   1  23
ATOM     23  C   UNL     1       8.648   2.653  -0.974  1.00  0.00     0.023 C 
BRANCH  23  24
ATOM     24  C   UNL     1       9.439   1.819   0.035  1.00  0.00     0.116 C 
BRANCH  24  25
ATOM     25  N   UNL     1      10.173   0.698  -0.529  1.00  0.00    -0.352 N 
ATOM     26  C   UNL     1      11.470   0.285  -0.310  1.00  0.00     0.251 C 
ATOM     27  H   UNL     1       9.664   0.147  -1.168  1.00  0.00     0.163 HD
ATOM     28  O   UNL     1      11.886  -0.719  -0.887  1.00  0.00    -0.269 OA
BRANCH  26  29
ATOM     29  C   UNL     1      12.387   1.065   0.559  1.00  0.00     0.039 A 
ATOM     30  C   UNL     1      13.676   1.343   0.091  1.00  0.00     0.014 A 
ATOM     31  C   UNL     1      11.995   1.537   1.814  1.00  0.00     0.014 A 
ATOM     32  C   UNL     1      14.526   2.178   0.827  1.00  0.00     0.010 A 
ATOM     33  C   UNL     1      12.816   2.426   2.513  1.00  0.00     0.010 A 
ATOM     34  C   UNL     1      14.084   2.773   2.019  1.00  0.00    -0.014 A 
BRANCH  34  35
ATOM     35  C   UNL     1      14.914   3.785   2.731  1.00  0.00     0.031 A 
ATOM     36  C   UNL     1      15.428   3.523   4.122  1.00  0.00     0.074 A 
ATOM     37  C   UNL     1      15.153   4.980   2.151  1.00  0.00     0.049 A 
ATOM     38  N   UNL     1      16.130   4.305   4.903  1.00  0.00    -0.248 NA
ATOM     39  C   UNL     1      15.091   2.223   4.721  1.00  0.00     0.031 C 
ATOM     40  C   UNL     1      14.677   5.391   0.827  1.00  0.00     0.029 A 
ATOM     41  N   UNL     1      15.853   6.073   2.602  1.00  0.00    -0.354 N 
ATOM     42  C   UNL     1      16.294   3.607   6.094  1.00  0.00     0.074 A 
ATOM     43  C   UNL     1      15.588   2.351   5.943  1.00  0.00     0.031 C 
ATOM     44  C   UNL     1      15.127   6.628   0.561  1.00  0.00     0.029 A 
ATOM     45  C   UNL     1      15.893   7.115   1.704  1.00  0.00     0.049 A 
ATOM     46  H   UNL     1      16.286   6.108   3.485  1.00  0.00     0.167 HD
ATOM     47  C   UNL     1      16.979   3.966   7.207  1.00  0.00     0.031 A 
ATOM     48  C   UNL     1      16.482   8.324   1.783  1.00  0.00     0.031 A 
ATOM     49  C   UNL     1      17.701   5.202   7.356  1.00  0.00     0.049 A 
ATOM     50  C   UNL     1      17.261   8.690   3.017  1.00  0.00     0.074 A 
ATOM     51  C   UNL     1      18.475   5.625   8.423  1.00  0.00     0.029 A 
ATOM     52  N   UNL     1      17.739   6.215   6.410  1.00  0.00    -0.354 N 
ATOM     53  N   UNL     1      17.458   7.985   4.105  1.00  0.00    -0.248 NA
ATOM     54  C   UNL     1      17.911  10.008   3.024  1.00  0.00     0.031 C 
ATOM     55  C   UNL     1      18.955   6.908   8.136  1.00  0.00     0.029 A 
ATOM     56  C   UNL     1      18.515   7.265   6.872  1.00  0.00     0.049 A 
ATOM     57  H   UNL     1      17.283   6.191   5.538  1.00  0.00     0.167 HD
ATOM     58  C   UNL     1      18.285   8.760   4.910  1.00  0.00     0.074 A 
ATOM     59  C   UNL     1      18.554   9.984   4.184  1.00  0.00     0.031 C 
ATOM     60  C   UNL     1      18.784   8.476   6.139  1.00  0.00     0.031 A 
BRANCH  47  61
ATOM     61  C   UNL     1      16.968   3.001   8.363  1.00  0.00    -0.014 A 
ATOM     62  C   UNL     1      17.676   1.787   8.304  1.00  0.00     0.010 A 
ATOM     63  C   UNL     1      16.248   3.317   9.530  1.00  0.00     0.010 A 
ATOM     64  C   UNL     1      17.616   0.880   9.366  1.00  0.00     0.020 A 
ATOM     65  C   UNL     1      16.208   2.425  10.605  1.00  0.00     0.020 A 
ATOM     66  C   UNL     1      16.873   1.201  10.506  1.00  0.00     0.054 A 
BRANCH  66  67
ATOM     67  S   UNL     1      16.799   0.004  11.867  1.00  0.00     0.124 S 
ATOM     68  O   UNL     1      15.842  -0.973  11.354  1.00  0.00    -0.237 OA
ATOM     69  O   UNL     1      18.180  -0.462  11.963  1.00  0.00    -0.237 OA
ATOM     70  O   UNL     1      16.333   0.798  13.000  1.00  0.00    -0.744 OA
ENDBRANCH  66  67
ENDBRANCH  47  61
BRANCH  48  71
ATOM     71  C   UNL     1      16.401   9.266   0.634  1.00  0.00    -0.014 A 
ATOM     72  C   UNL     1      17.527   9.483  -0.180  1.00  0.00     0.010 A 
ATOM     73  C   UNL     1      15.202   9.940   0.340  1.00  0.00     0.010 A 
ATOM     74  C   UNL     1      17.460  10.369  -1.260  1.00  0.00     0.020 A 
ATOM     75  C   UNL     1      15.126  10.809  -0.753  1.00  0.00     0.020 A 
ATOM     76  C   UNL     1      16.259  11.025  -1.540  1.00  0.00     0.054 A 
BRANCH  76  77
ATOM     77  S   UNL     1      16.178  12.125  -2.981  1.00  0.00     0.124 S 
ATOM     78  O   UNL     1      16.876  13.312  -2.497  1.00  0.00    -0.237 OA
ATOM     79  O   UNL     1      16.875  11.355  -4.008  1.00  0.00    -0.237 OA
ATOM     80  O   UNL     1      14.743  12.288  -3.204  1.00  0.00    -0.744 OA
ENDBRANCH  76  77
ENDBRANCH  48  71
BRANCH  60  81
ATOM     81  C   UNL     1      19.716   9.483   6.757  1.00  0.00    -0.014 A 
ATOM     82  C   UNL     1      19.239  10.695   7.286  1.00  0.00     0.010 A 
ATOM     83  C   UNL     1      21.089   9.188   6.845  1.00  0.00     0.010 A 
ATOM     84  C   UNL     1      20.125  11.610   7.863  1.00  0.00     0.020 A 
ATOM     85  C   UNL     1      21.974  10.090   7.442  1.00  0.00     0.020 A 
ATOM     86  C   UNL     1      21.488  11.303   7.934  1.00  0.00     0.054 A 
BRANCH  86  87
ATOM     87  S   UNL     1      22.616  12.487   8.720  1.00  0.00     0.124 S 
ATOM     88  O   UNL     1      22.782  13.489   7.671  1.00  0.00    -0.237 OA
ATOM     89  O   UNL     1      21.862  12.923   9.893  1.00  0.00    -0.237 OA
ATOM     90  O   UNL     1      23.804  11.688   9.013  1.00  0.00    -0.744 OA
ENDBRANCH  86  87
ENDBRANCH  60  81
ENDBRANCH  34  35
ENDBRANCH  26  29
ENDBRANCH  24  25
ENDBRANCH  23  24
ENDBRANCH   1  23
TORSDOF 18
