REMARK SMILES CC1(C)[C@H](C(=O)NCCCCNC(=O)c2ccc(-c3c4nc(c(-c5ccc(S(=O)(=O)[O-])cc5)c5ccc([nH]5)c(-c5ccc(S(=O)(=O)[O-])cc5)c5nc(c(-c6ccc(S(=O)(=O)[O-])cc6)c6ccc3[nH]6)C=C5)C=C4)cc2)[C@H]1C(=O)Nc1cccc2[nH]ccc12
REMARK SMILES IDX 10 1 9 2 8 3 7 4 5 5 6 6 4 8 1 9 2 10 3 11 75 12 76 13 77 14
REMARK SMILES IDX 78 15 79 17 80 18 87 19 81 20 83 21 86 22 82 23 84 24 85 25
REMARK SMILES IDX 11 27 12 28 13 29 14 31 15 32 16 33 74 34 17 35 73 36 18 37
REMARK SMILES IDX 19 38 20 39 67 40 21 41 72 42 66 43 68 44 22 45 71 46 65 47
REMARK SMILES IDX 64 48 23 50 53 51 34 52 52 53 35 54 38 55 51 56 69 57 36 58
REMARK SMILES IDX 37 59 50 61 70 62 39 63 24 64 25 65 33 66 26 67 32 68 27 69
REMARK SMILES IDX 28 70 29 71 30 72 31 73 54 74 55 75 63 76 56 77 62 78 57 79
REMARK SMILES IDX 58 80 59 81 60 82 61 83 40 84 41 85 49 86 42 87 48 88 43 89
REMARK SMILES IDX 44 90 45 91 46 92 47 93
REMARK H PARENT 7 7 78 16 84 26 12 30 68 49 38 60
REMARK Flexibility Score: inf
ROOT
ATOM      1  C   UNL     1      -0.667   5.149  -1.689  1.00  0.00     0.023 C 
ENDROOT
BRANCH   1   2
ATOM      2  C   UNL     1      -0.390   3.934  -0.809  1.00  0.00     0.023 C 
BRANCH   2   3
ATOM      3  C   UNL     1      -1.624   3.178  -0.323  1.00  0.00     0.116 C 
BRANCH   3   4
ATOM      4  N   UNL     1      -2.057   2.189  -1.273  1.00  0.00    -0.356 N 
ATOM      5  C   UNL     1      -1.790   0.863  -1.438  1.00  0.00     0.224 C 
ATOM      6  O   UNL     1      -2.425   0.304  -2.335  1.00  0.00    -0.275 OA
ATOM      7  H   UNL     1      -2.679   2.546  -1.948  1.00  0.00     0.163 HD
BRANCH   5   8
ATOM      8  C   UNL     1      -0.832   0.018  -0.673  1.00  0.00     0.098 C 
ATOM      9  C   UNL     1       1.616  -0.471  -0.350  1.00  0.00     0.013 C 
ATOM     10  C   UNL     1       0.442   0.353   0.115  1.00  0.00    -0.011 C 
ATOM     11  C   UNL     1       0.964   1.592   0.788  1.00  0.00     0.013 C 
ATOM     12  C   UNL     1      -0.835  -0.180   0.797  1.00  0.00     0.098 C 
BRANCH  12  13
ATOM     13  C   UNL     1      -0.838  -1.411   1.642  1.00  0.00     0.228 C 
ATOM     14  O   UNL     1      -0.708  -1.258   2.857  1.00  0.00    -0.274 OA
ATOM     15  N   UNL     1      -1.267  -2.629   1.174  1.00  0.00    -0.325 N 
ATOM     16  H   UNL     1      -1.937  -3.091   1.727  1.00  0.00     0.169 HD
BRANCH  15  17
ATOM     17  C   UNL     1      -0.872  -3.294   0.009  1.00  0.00     0.050 A 
ATOM     18  C   UNL     1      -1.873  -3.803  -0.825  1.00  0.00     0.027 A 
ATOM     19  C   UNL     1       0.478  -3.589  -0.291  1.00  0.00     0.023 A 
ATOM     20  C   UNL     1      -1.545  -4.415  -2.034  1.00  0.00     0.004 A 
ATOM     21  C   UNL     1       0.776  -4.145  -1.538  1.00  0.00     0.047 A 
ATOM     22  C   UNL     1       1.716  -3.516   0.416  1.00  0.00     0.030 A 
ATOM     23  C   UNL     1      -0.214  -4.543  -2.441  1.00  0.00     0.027 A 
ATOM     24  N   UNL     1       2.148  -4.176  -1.654  1.00  0.00    -0.361 N 
ATOM     25  C   UNL     1       2.728  -3.843  -0.460  1.00  0.00     0.083 A 
ATOM     26  H   UNL     1       2.640  -4.405  -2.476  1.00  0.00     0.166 HD
ENDBRANCH  15  17
ENDBRANCH  12  13
ENDBRANCH   5   8
ENDBRANCH   3   4
ENDBRANCH   2   3
ENDBRANCH   1   2
BRANCH   1  27
ATOM     27  C   UNL     1      -1.536   6.226  -1.056  1.00  0.00     0.116 C 
BRANCH  27  28
ATOM     28  N   UNL     1      -1.063   6.687   0.245  1.00  0.00    -0.352 N 
ATOM     29  C   UNL     1      -1.111   7.965   0.757  1.00  0.00     0.251 C 
ATOM     30  H   UNL     1      -0.660   6.003   0.827  1.00  0.00     0.163 HD
ATOM     31  O   UNL     1      -0.613   8.229   1.846  1.00  0.00    -0.269 OA
BRANCH  29  32
ATOM     32  C   UNL     1      -1.734   9.019  -0.066  1.00  0.00     0.039 A 
ATOM     33  C   UNL     1      -0.972  10.131  -0.428  1.00  0.00     0.014 A 
ATOM     34  C   UNL     1      -3.014   8.823  -0.590  1.00  0.00     0.014 A 
ATOM     35  C   UNL     1      -1.456  10.998  -1.408  1.00  0.00     0.010 A 
ATOM     36  C   UNL     1      -3.458   9.642  -1.620  1.00  0.00     0.010 A 
ATOM     37  C   UNL     1      -2.673  10.723  -2.054  1.00  0.00    -0.014 A 
BRANCH  37  38
ATOM     38  C   UNL     1      -3.130  11.516  -3.222  1.00  0.00     0.031 A 
ATOM     39  C   UNL     1      -4.415  12.289  -3.146  1.00  0.00     0.074 A 
ATOM     40  C   UNL     1      -2.440  11.454  -4.379  1.00  0.00     0.049 A 
ATOM     41  N   UNL     1      -5.038  12.945  -4.089  1.00  0.00    -0.248 NA
ATOM     42  C   UNL     1      -5.105  12.301  -1.845  1.00  0.00     0.031 C 
ATOM     43  C   UNL     1      -1.200  10.702  -4.590  1.00  0.00     0.029 A 
ATOM     44  N   UNL     1      -2.694  12.020  -5.604  1.00  0.00    -0.354 N 
ATOM     45  C   UNL     1      -6.199  13.432  -3.504  1.00  0.00     0.074 A 
ATOM     46  C   UNL     1      -6.219  12.956  -2.138  1.00  0.00     0.031 C 
ATOM     47  C   UNL     1      -0.790  10.873  -5.857  1.00  0.00     0.029 A 
ATOM     48  C   UNL     1      -1.760  11.704  -6.563  1.00  0.00     0.049 A 
ATOM     49  H   UNL     1      -3.471  12.599  -5.779  1.00  0.00     0.167 HD
ATOM     50  C   UNL     1      -7.155  14.222  -4.049  1.00  0.00     0.031 A 
ATOM     51  C   UNL     1      -1.699  12.030  -7.869  1.00  0.00     0.031 A 
ATOM     52  C   UNL     1      -7.126  14.698  -5.405  1.00  0.00     0.049 A 
ATOM     53  C   UNL     1      -2.790  12.879  -8.462  1.00  0.00     0.074 A 
ATOM     54  C   UNL     1      -8.012  15.554  -6.035  1.00  0.00     0.029 A 
ATOM     55  N   UNL     1      -6.165  14.353  -6.344  1.00  0.00    -0.354 N 
ATOM     56  N   UNL     1      -3.844  13.391  -7.873  1.00  0.00    -0.248 NA
ATOM     57  C   UNL     1      -2.685  13.193  -9.894  1.00  0.00     0.031 C 
ATOM     58  C   UNL     1      -7.618  15.683  -7.370  1.00  0.00     0.029 A 
ATOM     59  C   UNL     1      -6.456  14.951  -7.558  1.00  0.00     0.049 A 
ATOM     60  H   UNL     1      -5.392  13.769  -6.173  1.00  0.00     0.167 HD
ATOM     61  C   UNL     1      -4.521  14.100  -8.858  1.00  0.00     0.074 A 
ATOM     62  C   UNL     1      -3.748  13.965 -10.077  1.00  0.00     0.031 C 
ATOM     63  C   UNL     1      -5.679  14.798  -8.763  1.00  0.00     0.031 A 
BRANCH  50  64
ATOM     64  C   UNL     1      -8.315  14.610  -3.172  1.00  0.00    -0.014 A 
ATOM     65  C   UNL     1      -8.143  15.500  -2.095  1.00  0.00     0.010 A 
ATOM     66  C   UNL     1      -9.597  14.098  -3.439  1.00  0.00     0.010 A 
ATOM     67  C   UNL     1      -9.222  15.832  -1.273  1.00  0.00     0.020 A 
ATOM     68  C   UNL     1     -10.685  14.450  -2.636  1.00  0.00     0.020 A 
ATOM     69  C   UNL     1     -10.486  15.300  -1.546  1.00  0.00     0.054 A 
BRANCH  69  70
ATOM     70  S   UNL     1     -11.871  15.755  -0.467  1.00  0.00     0.124 S 
ATOM     71  O   UNL     1     -11.576  14.988   0.740  1.00  0.00    -0.237 OA
ATOM     72  O   UNL     1     -11.718  17.203  -0.343  1.00  0.00    -0.237 OA
ATOM     73  O   UNL     1     -13.049  15.318  -1.211  1.00  0.00    -0.744 OA
ENDBRANCH  69  70
ENDBRANCH  50  64
BRANCH  51  74
ATOM     74  C   UNL     1      -0.562  11.552  -8.702  1.00  0.00    -0.014 A 
ATOM     75  C   UNL     1       0.425  12.451  -9.140  1.00  0.00     0.010 A 
ATOM     76  C   UNL     1      -0.446  10.191  -9.042  1.00  0.00     0.010 A 
ATOM     77  C   UNL     1       1.503  12.002  -9.908  1.00  0.00     0.020 A 
ATOM     78  C   UNL     1       0.644   9.733  -9.788  1.00  0.00     0.020 A 
ATOM     79  C   UNL     1       1.608  10.644 -10.224  1.00  0.00     0.054 A 
BRANCH  79  80
ATOM     80  S   UNL     1       3.050  10.073 -11.166  1.00  0.00     0.124 S 
ATOM     81  O   UNL     1       2.748  10.559 -12.509  1.00  0.00    -0.237 OA
ATOM     82  O   UNL     1       4.157  10.741 -10.485  1.00  0.00    -0.237 OA
ATOM     83  O   UNL     1       3.014   8.622 -11.001  1.00  0.00    -0.744 OA
ENDBRANCH  79  80
ENDBRANCH  51  74
BRANCH  63  84
ATOM     84  C   UNL     1      -6.183  15.480 -10.005  1.00  0.00    -0.014 A 
ATOM     85  C   UNL     1      -6.777  14.741 -11.043  1.00  0.00     0.010 A 
ATOM     86  C   UNL     1      -6.140  16.883 -10.097  1.00  0.00     0.010 A 
ATOM     87  C   UNL     1      -7.310  15.394 -12.157  1.00  0.00     0.020 A 
ATOM     88  C   UNL     1      -6.694  17.541 -11.198  1.00  0.00     0.020 A 
ATOM     89  C   UNL     1      -7.270  16.790 -12.225  1.00  0.00     0.054 A 
BRANCH  89  90
ATOM     90  S   UNL     1      -8.037  17.615 -13.647  1.00  0.00     0.124 S 
ATOM     91  O   UNL     1      -7.083  17.330 -14.715  1.00  0.00    -0.237 OA
ATOM     92  O   UNL     1      -9.325  16.935 -13.756  1.00  0.00    -0.237 OA
ATOM     93  O   UNL     1      -8.112  19.016 -13.236  1.00  0.00    -0.744 OA
ENDBRANCH  89  90
ENDBRANCH  63  84
ENDBRANCH  37  38
ENDBRANCH  29  32
ENDBRANCH  27  28
ENDBRANCH   1  27
TORSDOF 16
