REMARK SMILES CC[C@H](C(=O)NCCCCNC(=O)c1ccc(-c2c3nc(c(-c4ccc(S(=O)(=O)[O-])cc4)c4ccc([nH]4)c(-c4ccc(S(=O)(=O)[O-])cc4)c4nc(c(-c5ccc(S(=O)(=O)[O-])cc5)c5ccc2[nH]5)C=C4)C=C3)cc1)N1C(=O)c2ccc([N+](=O)[O-])cc2C1=O
REMARK SMILES IDX 9 1 8 2 7 3 6 4 4 5 5 6 3 8 2 9 1 10 74 11 75 12 86 13 76 14
REMARK SMILES IDX 77 15 85 16 87 17 78 18 84 19 79 20 80 21 81 22 82 23 83 24
REMARK SMILES IDX 10 25 11 26 12 27 13 29 14 30 15 31 73 32 16 33 72 34 17 35
REMARK SMILES IDX 18 36 19 37 66 38 20 39 71 40 65 41 67 42 21 43 70 44 64 45
REMARK SMILES IDX 63 46 22 48 52 49 33 50 51 51 34 52 37 53 50 54 68 55 35 56
REMARK SMILES IDX 36 57 49 59 69 60 38 61 23 62 24 63 32 64 25 65 31 66 26 67
REMARK SMILES IDX 27 68 28 69 29 70 30 71 53 72 54 73 62 74 55 75 61 76 56 77
REMARK SMILES IDX 57 78 58 79 59 80 60 81 39 82 40 83 48 84 41 85 47 86 42 87
REMARK SMILES IDX 43 88 44 89 45 90 46 91
REMARK H PARENT 6 7 11 28 67 47 37 58
REMARK Flexibility Score: inf
ROOT
ATOM      1  C   UNL     1       0.819  -2.926   0.267  1.00  0.00     0.023 C 
ENDROOT
BRANCH   1   2
ATOM      2  C   UNL     1       1.700  -2.100  -0.673  1.00  0.00     0.023 C 
BRANCH   2   3
ATOM      3  C   UNL     1       1.105  -0.777  -1.148  1.00  0.00     0.116 C 
BRANCH   3   4
ATOM      4  N   UNL     1       0.888   0.183  -0.091  1.00  0.00    -0.354 N 
ATOM      5  C   UNL     1       0.640   1.520  -0.137  1.00  0.00     0.243 C 
ATOM      6  O   UNL     1       0.482   2.070   0.963  1.00  0.00    -0.273 OA
ATOM      7  H   UNL     1       0.928  -0.194   0.818  1.00  0.00     0.163 HD
BRANCH   5   8
ATOM      8  C   UNL     1       0.706   2.381  -1.429  1.00  0.00     0.183 C 
BRANCH   8   9
ATOM      9  C   UNL     1       0.495   1.835  -2.848  1.00  0.00     0.032 C 
ATOM     10  C   UNL     1      -0.754   1.014  -3.118  1.00  0.00     0.006 C 
ENDBRANCH   8   9
BRANCH   8  11
ATOM     11  N   UNL     1      -0.102   3.591  -1.216  1.00  0.00    -0.262 N 
ATOM     12  C   UNL     1      -1.422   3.599  -0.857  1.00  0.00     0.262 C 
ATOM     13  C   UNL     1       0.338   4.850  -1.531  1.00  0.00     0.262 C 
ATOM     14  O   UNL     1      -2.184   2.670  -0.666  1.00  0.00    -0.269 OA
ATOM     15  C   UNL     1      -1.838   4.999  -0.816  1.00  0.00     0.053 A 
ATOM     16  C   UNL     1      -0.776   5.761  -1.271  1.00  0.00     0.060 A 
ATOM     17  O   UNL     1       1.398   5.203  -2.001  1.00  0.00    -0.269 OA
ATOM     18  C   UNL     1      -3.053   5.564  -0.475  1.00  0.00     0.022 A 
ATOM     19  C   UNL     1      -0.877   7.125  -1.469  1.00  0.00     0.100 A 
ATOM     20  C   UNL     1      -3.188   6.948  -0.642  1.00  0.00     0.086 A 
ATOM     21  C   UNL     1      -2.112   7.715  -1.157  1.00  0.00     0.270 A 
BRANCH  21  22
ATOM     22  N   UNL     1      -2.307   9.148  -1.406  1.00  0.00     0.062 N 
ATOM     23  O   UNL     1      -3.303   9.690  -0.907  1.00  0.00    -0.258 OA
ATOM     24  O   UNL     1      -1.470   9.725  -2.115  1.00  0.00    -0.258 OA
ENDBRANCH  21  22
ENDBRANCH   8  11
ENDBRANCH   5   8
ENDBRANCH   3   4
ENDBRANCH   2   3
ENDBRANCH   1   2
BRANCH   1  25
ATOM     25  C   UNL     1      -0.606  -3.194  -0.211  1.00  0.00     0.116 C 
BRANCH  25  26
ATOM     26  N   UNL     1      -0.669  -3.963  -1.448  1.00  0.00    -0.352 N 
ATOM     27  C   UNL     1      -1.161  -5.229  -1.678  1.00  0.00     0.251 C 
ATOM     28  H   UNL     1      -0.305  -3.507  -2.241  1.00  0.00     0.163 HD
ATOM     29  O   UNL     1      -1.023  -5.750  -2.781  1.00  0.00    -0.269 OA
BRANCH  27  30
ATOM     30  C   UNL     1      -1.814  -5.976  -0.582  1.00  0.00     0.039 A 
ATOM     31  C   UNL     1      -1.390  -7.277  -0.299  1.00  0.00     0.014 A 
ATOM     32  C   UNL     1      -2.807  -5.378   0.195  1.00  0.00     0.014 A 
ATOM     33  C   UNL     1      -1.877  -7.933   0.836  1.00  0.00     0.010 A 
ATOM     34  C   UNL     1      -3.231  -5.999   1.367  1.00  0.00     0.010 A 
ATOM     35  C   UNL     1      -2.754  -7.274   1.713  1.00  0.00    -0.014 A 
BRANCH  35  36
ATOM     36  C   UNL     1      -3.159  -7.865   3.017  1.00  0.00     0.031 A 
ATOM     37  C   UNL     1      -4.612  -8.126   3.306  1.00  0.00     0.074 A 
ATOM     38  C   UNL     1      -2.237  -8.057   3.982  1.00  0.00     0.049 A 
ATOM     39  N   UNL     1      -5.180  -8.474   4.433  1.00  0.00    -0.248 NA
ATOM     40  C   UNL     1      -5.553  -7.942   2.189  1.00  0.00     0.031 C 
ATOM     41  C   UNL     1      -0.798  -7.813   3.846  1.00  0.00     0.029 A 
ATOM     42  N   UNL     1      -2.376  -8.482   5.282  1.00  0.00    -0.354 N 
ATOM     43  C   UNL     1      -6.544  -8.519   4.170  1.00  0.00     0.074 A 
ATOM     44  C   UNL     1      -6.721  -8.127   2.788  1.00  0.00     0.031 C 
ATOM     45  C   UNL     1      -0.189  -8.106   5.007  1.00  0.00     0.029 A 
ATOM     46  C   UNL     1      -1.194  -8.508   5.986  1.00  0.00     0.049 A 
ATOM     47  H   UNL     1      -3.241  -8.744   5.673  1.00  0.00     0.167 HD
ATOM     48  C   UNL     1      -7.557  -8.866   4.999  1.00  0.00     0.031 A 
ATOM     49  C   UNL     1      -0.944  -8.799   7.278  1.00  0.00     0.031 A 
ATOM     50  C   UNL     1      -7.378  -9.276   6.366  1.00  0.00     0.049 A 
ATOM     51  C   UNL     1      -2.087  -9.174   8.182  1.00  0.00     0.074 A 
ATOM     52  C   UNL     1      -8.338  -9.701   7.268  1.00  0.00     0.029 A 
ATOM     53  N   UNL     1      -6.161  -9.314   7.029  1.00  0.00    -0.354 N 
ATOM     54  N   UNL     1      -3.365  -9.257   7.901  1.00  0.00    -0.248 NA
ATOM     55  C   UNL     1      -1.753  -9.499   9.577  1.00  0.00     0.031 C 
ATOM     56  C   UNL     1      -7.707  -9.955   8.490  1.00  0.00     0.029 A 
ATOM     57  C   UNL     1      -6.347  -9.740   8.333  1.00  0.00     0.049 A 
ATOM     58  H   UNL     1      -5.293  -9.075   6.631  1.00  0.00     0.167 HD
ATOM     59  C   UNL     1      -3.983  -9.672   9.075  1.00  0.00     0.074 A 
ATOM     60  C   UNL     1      -2.940  -9.830  10.067  1.00  0.00     0.031 C 
ATOM     61  C   UNL     1      -5.298  -9.905   9.307  1.00  0.00     0.031 A 
BRANCH  48  62
ATOM     62  C   UNL     1      -8.957  -8.810   4.447  1.00  0.00    -0.014 A 
ATOM     63  C   UNL     1      -9.395  -9.739   3.485  1.00  0.00     0.010 A 
ATOM     64  C   UNL     1      -9.857  -7.838   4.920  1.00  0.00     0.010 A 
ATOM     65  C   UNL     1     -10.693  -9.666   2.972  1.00  0.00     0.020 A 
ATOM     66  C   UNL     1     -11.165  -7.780   4.430  1.00  0.00     0.020 A 
ATOM     67  C   UNL     1     -11.568  -8.683   3.444  1.00  0.00     0.054 A 
BRANCH  67  68
ATOM     68  S   UNL     1     -13.250  -8.620   2.770  1.00  0.00     0.124 S 
ATOM     69  O   UNL     1     -13.019  -8.056   1.442  1.00  0.00    -0.237 OA
ATOM     70  O   UNL     1     -13.658 -10.022   2.793  1.00  0.00    -0.237 OA
ATOM     71  O   UNL     1     -13.965  -7.750   3.700  1.00  0.00    -0.744 OA
ENDBRANCH  67  68
ENDBRANCH  48  62
BRANCH  49  72
ATOM     72  C   UNL     1       0.451  -8.753   7.795  1.00  0.00    -0.014 A 
ATOM     73  C   UNL     1       1.131  -9.942   8.111  1.00  0.00     0.010 A 
ATOM     74  C   UNL     1       1.112  -7.522   7.963  1.00  0.00     0.010 A 
ATOM     75  C   UNL     1       2.439  -9.902   8.601  1.00  0.00     0.020 A 
ATOM     76  C   UNL     1       2.430  -7.480   8.427  1.00  0.00     0.020 A 
ATOM     77  C   UNL     1       3.082  -8.671   8.754  1.00  0.00     0.054 A 
BRANCH  77  78
ATOM     78  S   UNL     1       4.800  -8.646   9.340  1.00  0.00     0.124 S 
ATOM     79  O   UNL     1       4.640  -8.941  10.760  1.00  0.00    -0.237 OA
ATOM     80  O   UNL     1       5.421  -9.699   8.540  1.00  0.00    -0.237 OA
ATOM     81  O   UNL     1       5.247  -7.291   9.026  1.00  0.00    -0.744 OA
ENDBRANCH  77  78
ENDBRANCH  49  72
BRANCH  61  82
ATOM     82  C   UNL     1      -5.692 -10.402  10.672  1.00  0.00    -0.014 A 
ATOM     83  C   UNL     1      -5.720  -9.539  11.782  1.00  0.00     0.010 A 
ATOM     84  C   UNL     1      -6.124 -11.732  10.824  1.00  0.00     0.010 A 
ATOM     85  C   UNL     1      -6.164 -10.004  13.023  1.00  0.00     0.020 A 
ATOM     86  C   UNL     1      -6.591 -12.193  12.057  1.00  0.00     0.020 A 
ATOM     87  C   UNL     1      -6.601 -11.326  13.152  1.00  0.00     0.054 A 
BRANCH  87  88
ATOM     88  S   UNL     1      -7.244 -11.883  14.754  1.00  0.00     0.124 S 
ATOM     89  O   UNL     1      -6.022 -12.015  15.543  1.00  0.00    -0.237 OA
ATOM     90  O   UNL     1      -8.128 -10.786  15.144  1.00  0.00    -0.237 OA
ATOM     91  O   UNL     1      -7.922 -13.138  14.439  1.00  0.00    -0.744 OA
ENDBRANCH  87  88
ENDBRANCH  61  82
ENDBRANCH  35  36
ENDBRANCH  27  30
ENDBRANCH  25  26
ENDBRANCH   1  25
TORSDOF 17
