REMARK SMILES O=C(NCCCCNC(=O)c1nnn(-c2cccc(Br)c2)c1[C@@H]1COc2ccccc2O1)c1ccc(-c2c3nc(c(-c4ccc(S(=O)(=O)[O-])cc4)c4ccc([nH]4)c(-c4ccc(S(=O)(=O)[O-])cc4)c4nc(c(-c5ccc(S(=O)(=O)[O-])cc5)c5ccc2[nH]5)C=C4)C=C3)cc1
REMARK SMILES IDX 4 1 3 2 1 3 2 4 33 6 34 7 92 8 35 9 91 10 36 11 37 12 38 13
REMARK SMILES IDX 85 14 39 15 90 16 84 17 86 18 40 19 89 20 83 21 82 22 41 24
REMARK SMILES IDX 71 25 52 26 70 27 53 28 56 29 69 30 87 31 54 32 55 33 68 35
REMARK SMILES IDX 88 36 57 37 42 38 43 39 51 40 44 41 50 42 45 43 46 44 47 45
REMARK SMILES IDX 48 46 49 47 72 48 73 49 81 50 74 51 80 52 75 53 76 54 77 55
REMARK SMILES IDX 78 56 79 57 58 58 59 59 67 60 60 61 66 62 61 63 62 64 63 65
REMARK SMILES IDX 64 66 65 67 5 68 6 69 7 70 8 71 9 72 10 74 11 75 12 76 22 77
REMARK SMILES IDX 13 78 14 79 23 80 24 81 32 82 25 83 31 84 26 85 30 86 27 87
REMARK SMILES IDX 29 88 28 89 15 90 16 91 21 92 17 93 19 94 18 95 20 96
REMARK H PARENT 3 5 86 23 56 34 8 73
REMARK Flexibility Score: inf
ROOT
ATOM      1  C   UNL     1       4.191   1.236  -1.290  1.00  0.00     0.116 C 
ENDROOT
BRANCH   1   2
ATOM      2  N   UNL     1       2.908   1.281  -0.610  1.00  0.00    -0.352 N 
ATOM      3  O   UNL     1       1.128   0.597   0.558  1.00  0.00    -0.269 OA
ATOM      4  C   UNL     1       1.979   0.319  -0.288  1.00  0.00     0.251 C 
ATOM      5  H   UNL     1       2.650   2.186  -0.320  1.00  0.00     0.163 HD
BRANCH   4   6
ATOM      6  C   UNL     1       1.875  -0.971  -1.010  1.00  0.00     0.039 A 
ATOM      7  C   UNL     1       2.967  -1.728  -1.422  1.00  0.00     0.014 A 
ATOM      8  C   UNL     1       0.581  -1.418  -1.319  1.00  0.00     0.014 A 
ATOM      9  C   UNL     1       2.783  -2.764  -2.330  1.00  0.00     0.010 A 
ATOM     10  C   UNL     1       0.391  -2.509  -2.165  1.00  0.00     0.010 A 
ATOM     11  C   UNL     1       1.496  -3.126  -2.749  1.00  0.00    -0.014 A 
BRANCH  11  12
ATOM     12  C   UNL     1       1.392  -4.183  -3.763  1.00  0.00     0.031 A 
ATOM     13  C   UNL     1       2.134  -5.448  -3.483  1.00  0.00     0.074 A 
ATOM     14  C   UNL     1       0.622  -4.125  -4.869  1.00  0.00     0.049 A 
ATOM     15  N   UNL     1       3.087  -5.995  -4.168  1.00  0.00    -0.248 NA
ATOM     16  C   UNL     1       1.805  -6.154  -2.237  1.00  0.00     0.031 C 
ATOM     17  C   UNL     1      -0.414  -3.145  -5.203  1.00  0.00     0.029 A 
ATOM     18  N   UNL     1       0.539  -5.027  -5.892  1.00  0.00    -0.354 N 
ATOM     19  C   UNL     1       3.382  -7.197  -3.528  1.00  0.00     0.074 A 
ATOM     20  C   UNL     1       2.635  -7.195  -2.293  1.00  0.00     0.031 C 
ATOM     21  C   UNL     1      -1.180  -3.637  -6.201  1.00  0.00     0.029 A 
ATOM     22  C   UNL     1      -0.598  -4.883  -6.671  1.00  0.00     0.049 A 
ATOM     23  H   UNL     1       1.223  -5.715  -6.060  1.00  0.00     0.167 HD
ATOM     24  C   UNL     1       4.100  -8.199  -4.108  1.00  0.00     0.031 A 
ATOM     25  C   UNL     1      -1.076  -5.762  -7.582  1.00  0.00     0.031 A 
ATOM     26  C   UNL     1       4.802  -7.779  -5.286  1.00  0.00     0.049 A 
ATOM     27  C   UNL     1       0.030  -6.655  -7.996  1.00  0.00     0.074 A 
ATOM     28  C   UNL     1       5.815  -6.885  -5.562  1.00  0.00     0.029 A 
ATOM     29  N   UNL     1       4.273  -8.142  -6.500  1.00  0.00    -0.354 N 
ATOM     30  N   UNL     1       1.064  -6.268  -8.689  1.00  0.00    -0.248 NA
ATOM     31  C   UNL     1       0.161  -7.957  -7.359  1.00  0.00     0.031 C 
ATOM     32  C   UNL     1       5.561  -6.424  -6.885  1.00  0.00     0.029 A 
ATOM     33  C   UNL     1       4.405  -7.065  -7.338  1.00  0.00     0.049 A 
ATOM     34  H   UNL     1       3.874  -9.012  -6.727  1.00  0.00     0.167 HD
ATOM     35  C   UNL     1       2.105  -7.080  -8.266  1.00  0.00     0.074 A 
ATOM     36  C   UNL     1       1.463  -8.176  -7.551  1.00  0.00     0.031 C 
ATOM     37  C   UNL     1       3.400  -6.648  -8.296  1.00  0.00     0.031 A 
BRANCH  24  38
ATOM     38  C   UNL     1       3.917  -9.661  -3.781  1.00  0.00    -0.014 A 
ATOM     39  C   UNL     1       4.832 -10.605  -4.292  1.00  0.00     0.010 A 
ATOM     40  C   UNL     1       2.723 -10.160  -3.222  1.00  0.00     0.010 A 
ATOM     41  C   UNL     1       4.536 -11.975  -4.298  1.00  0.00     0.020 A 
ATOM     42  C   UNL     1       2.439 -11.526  -3.181  1.00  0.00     0.020 A 
ATOM     43  C   UNL     1       3.330 -12.423  -3.758  1.00  0.00     0.054 A 
BRANCH  43  44
ATOM     44  S   UNL     1       2.891 -14.175  -3.892  1.00  0.00     0.124 S 
ATOM     45  O   UNL     1       2.634 -14.308  -5.323  1.00  0.00    -0.237 OA
ATOM     46  O   UNL     1       4.095 -14.839  -3.400  1.00  0.00    -0.237 OA
ATOM     47  O   UNL     1       1.720 -14.300  -3.029  1.00  0.00    -0.744 OA
ENDBRANCH  43  44
ENDBRANCH  24  38
BRANCH  25  48
ATOM     48  C   UNL     1      -2.501  -6.056  -7.867  1.00  0.00    -0.014 A 
ATOM     49  C   UNL     1      -2.882  -6.770  -9.016  1.00  0.00     0.010 A 
ATOM     50  C   UNL     1      -3.474  -5.854  -6.865  1.00  0.00     0.010 A 
ATOM     51  C   UNL     1      -4.175  -7.305  -9.135  1.00  0.00     0.020 A 
ATOM     52  C   UNL     1      -4.767  -6.372  -6.982  1.00  0.00     0.020 A 
ATOM     53  C   UNL     1      -5.105  -7.115  -8.108  1.00  0.00     0.054 A 
BRANCH  53  54
ATOM     54  S   UNL     1      -6.716  -7.950  -8.192  1.00  0.00     0.124 S 
ATOM     55  O   UNL     1      -7.398  -7.201  -9.244  1.00  0.00    -0.237 OA
ATOM     56  O   UNL     1      -6.346  -9.321  -8.529  1.00  0.00    -0.237 OA
ATOM     57  O   UNL     1      -7.265  -7.772  -6.849  1.00  0.00    -0.744 OA
ENDBRANCH  53  54
ENDBRANCH  25  48
BRANCH  37  58
ATOM     58  C   UNL     1       3.743  -5.439  -9.132  1.00  0.00    -0.014 A 
ATOM     59  C   UNL     1       3.216  -4.160  -8.876  1.00  0.00     0.010 A 
ATOM     60  C   UNL     1       4.775  -5.566 -10.081  1.00  0.00     0.010 A 
ATOM     61  C   UNL     1       3.708  -3.035  -9.553  1.00  0.00     0.020 A 
ATOM     62  C   UNL     1       5.280  -4.445 -10.748  1.00  0.00     0.020 A 
ATOM     63  C   UNL     1       4.745  -3.185 -10.479  1.00  0.00     0.054 A 
BRANCH  63  64
ATOM     64  S   UNL     1       5.455  -1.708 -11.260  1.00  0.00     0.124 S 
ATOM     65  O   UNL     1       4.416  -1.323 -12.211  1.00  0.00    -0.237 OA
ATOM     66  O   UNL     1       5.641  -0.800 -10.130  1.00  0.00    -0.237 OA
ATOM     67  O   UNL     1       6.696  -2.195 -11.861  1.00  0.00    -0.744 OA
ENDBRANCH  63  64
ENDBRANCH  37  58
ENDBRANCH  11  12
ENDBRANCH   4   6
ENDBRANCH   1   2
BRANCH   1  68
ATOM     68  C   UNL     1       4.322   2.004  -2.597  1.00  0.00     0.023 C 
BRANCH  68  69
ATOM     69  C   UNL     1       3.882   3.467  -2.610  1.00  0.00     0.023 C 
BRANCH  69  70
ATOM     70  C   UNL     1       4.432   4.383  -1.520  1.00  0.00     0.116 C 
BRANCH  70  71
ATOM     71  N   UNL     1       5.879   4.453  -1.446  1.00  0.00    -0.351 N 
ATOM     72  C   UNL     1       6.638   5.491  -0.926  1.00  0.00     0.273 C 
ATOM     73  H   UNL     1       6.376   3.682  -1.803  1.00  0.00     0.163 HD
ATOM     74  O   UNL     1       7.850   5.397  -0.858  1.00  0.00    -0.267 OA
BRANCH  72  75
ATOM     75  C   UNL     1       5.921   6.703  -0.550  1.00  0.00     0.178 A 
ATOM     76  N   UNL     1       5.728   7.673  -1.493  1.00  0.00    -0.124 NA
ATOM     77  C   UNL     1       5.277   7.058   0.637  1.00  0.00     0.122 A 
ATOM     78  N   UNL     1       4.915   8.576  -0.991  1.00  0.00    -0.061 NA
ATOM     79  N   UNL     1       4.604   8.227   0.278  1.00  0.00    -0.213 N 
BRANCH  77  80
ATOM     80  C   UNL     1       5.145   6.376   1.970  1.00  0.00     0.262 C 
ATOM     81  C   UNL     1       6.339   6.580   2.906  1.00  0.00     0.281 C 
ATOM     82  O   UNL     1       4.818   4.991   1.797  1.00  0.00    -0.477 OA
ATOM     83  O   UNL     1       7.499   5.872   2.471  1.00  0.00    -0.485 OA
ATOM     84  C   UNL     1       5.885   4.143   1.925  1.00  0.00     0.162 A 
ATOM     85  C   UNL     1       7.189   4.572   2.170  1.00  0.00     0.161 A 
ATOM     86  C   UNL     1       5.629   2.796   1.687  1.00  0.00     0.050 A 
ATOM     87  C   UNL     1       8.249   3.678   2.041  1.00  0.00     0.050 A 
ATOM     88  C   UNL     1       6.688   1.897   1.563  1.00  0.00     0.004 A 
ATOM     89  C   UNL     1       8.000   2.345   1.712  1.00  0.00     0.004 A 
ENDBRANCH  77  80
BRANCH  79  90
ATOM     90  C   UNL     1       3.604   8.977   0.952  1.00  0.00     0.068 A 
ATOM     91  C   UNL     1       3.617   9.189   2.333  1.00  0.00     0.028 A 
ATOM     92  C   UNL     1       2.549   9.495   0.179  1.00  0.00     0.044 A 
ATOM     93  C   UNL     1       2.548   9.851   2.945  1.00  0.00     0.003 A 
ATOM     94  C   UNL     1       1.482  10.137   0.802  1.00  0.00     0.020 A 
ATOM     95  C   UNL     1       1.472  10.308   2.183  1.00  0.00     0.016 A 
ATOM     96  Br  UNL     1       0.022  10.746  -0.233  1.00  0.00    -0.051 Br
ENDBRANCH  79  90
ENDBRANCH  72  75
ENDBRANCH  70  71
ENDBRANCH  69  70
ENDBRANCH  68  69
ENDBRANCH   1  68
TORSDOF 16
