REMARK SMILES C[C@@H](C(=O)NCCCCNC(=O)c1ccc(-c2c3nc(c(-c4ccc(S(=O)(=O)[O-])cc4)c4ccc([nH]4)c(-c4ccc(S(=O)(=O)[O-])cc4)c4nc(c(-c5ccc(S(=O)(=O)[O-])cc5)c5ccc2[nH]5)C=C4)C=C3)cc1)c1ccc2c(c1)[nH]c1ccc(Cl)cc12
REMARK SMILES IDX 8 1 7 2 6 3 5 4 3 5 4 6 2 8 1 9 73 10 74 11 78 12 75 13
REMARK SMILES IDX 77 14 76 15 79 16 86 17 80 18 85 20 81 21 83 22 82 23 84 24
REMARK SMILES IDX 9 25 10 26 11 27 12 29 13 30 14 31 72 32 15 33 71 34 16 35
REMARK SMILES IDX 17 36 18 37 65 38 19 39 70 40 64 41 66 42 20 43 69 44 63 45
REMARK SMILES IDX 62 46 21 48 51 49 32 50 50 51 33 52 36 53 49 54 67 55 34 56
REMARK SMILES IDX 35 57 48 59 68 60 37 61 22 62 23 63 31 64 24 65 30 66 25 67
REMARK SMILES IDX 26 68 27 69 28 70 29 71 52 72 53 73 61 74 54 75 60 76 55 77
REMARK SMILES IDX 56 78 57 79 58 80 59 81 38 82 39 83 47 84 40 85 46 86 41 87
REMARK SMILES IDX 42 88 43 89 44 90 45 91
REMARK H PARENT 5 7 79 19 10 28 66 47 36 58
REMARK Flexibility Score: inf
ROOT
ATOM      1  C   UNL     1       4.943   2.482  -0.089  1.00  0.00     0.023 C 
ENDROOT
BRANCH   1   2
ATOM      2  C   UNL     1       4.117   1.210   0.094  1.00  0.00     0.023 C 
BRANCH   2   3
ATOM      3  C   UNL     1       3.241   1.183   1.347  1.00  0.00     0.116 C 
BRANCH   3   4
ATOM      4  N   UNL     1       2.188   2.183   1.305  1.00  0.00    -0.356 N 
ATOM      5  C   UNL     1       0.837   2.039   1.114  1.00  0.00     0.227 C 
ATOM      6  O   UNL     1       0.165   3.070   1.118  1.00  0.00    -0.274 OA
ATOM      7  H   UNL     1       2.493   3.110   1.433  1.00  0.00     0.163 HD
BRANCH   5   8
ATOM      8  C   UNL     1       0.262   0.632   0.912  1.00  0.00     0.105 C 
ATOM      9  C   UNL     1       0.597   0.093  -0.481  1.00  0.00     0.023 C 
BRANCH   8  10
ATOM     10  C   UNL     1      -1.232   0.417   1.153  1.00  0.00    -0.034 A 
ATOM     11  C   UNL     1      -2.227   1.347   0.826  1.00  0.00     0.005 A 
ATOM     12  C   UNL     1      -1.617  -0.853   1.625  1.00  0.00     0.031 A 
ATOM     13  C   UNL     1      -3.593   1.038   0.962  1.00  0.00     0.011 A 
ATOM     14  C   UNL     1      -2.977  -1.142   1.758  1.00  0.00     0.047 A 
ATOM     15  C   UNL     1      -3.979  -0.236   1.428  1.00  0.00     0.007 A 
ATOM     16  N   UNL     1      -3.587  -2.288   2.199  1.00  0.00    -0.355 N 
ATOM     17  C   UNL     1      -5.234  -0.886   1.674  1.00  0.00     0.009 A 
ATOM     18  C   UNL     1      -4.952  -2.144   2.208  1.00  0.00     0.047 A 
ATOM     19  H   UNL     1      -3.109  -3.104   2.473  1.00  0.00     0.167 HD
ATOM     20  C   UNL     1      -6.585  -0.516   1.511  1.00  0.00     0.031 A 
ATOM     21  C   UNL     1      -5.940  -3.032   2.644  1.00  0.00     0.028 A 
ATOM     22  C   UNL     1      -7.585  -1.403   1.927  1.00  0.00     0.041 A 
ATOM     23  C   UNL     1      -7.270  -2.632   2.502  1.00  0.00     0.022 A 
ATOM     24  Cl  UNL     1      -9.240  -0.967   1.729  1.00  0.00    -0.084 Cl
ENDBRANCH   8  10
ENDBRANCH   5   8
ENDBRANCH   3   4
ENDBRANCH   2   3
ENDBRANCH   1   2
BRANCH   1  25
ATOM     25  C   UNL     1       5.919   2.789   1.039  1.00  0.00     0.116 C 
BRANCH  25  26
ATOM     26  N   UNL     1       6.915   1.746   1.225  1.00  0.00    -0.352 N 
ATOM     27  C   UNL     1       8.280   1.863   1.370  1.00  0.00     0.251 C 
ATOM     28  H   UNL     1       6.565   0.826   1.251  1.00  0.00     0.163 HD
ATOM     29  O   UNL     1       8.980   0.861   1.377  1.00  0.00    -0.269 OA
BRANCH  27  30
ATOM     30  C   UNL     1       8.892   3.207   1.481  1.00  0.00     0.039 A 
ATOM     31  C   UNL     1      10.031   3.493   0.724  1.00  0.00     0.014 A 
ATOM     32  C   UNL     1       8.338   4.185   2.311  1.00  0.00     0.014 A 
ATOM     33  C   UNL     1      10.570   4.782   0.746  1.00  0.00     0.010 A 
ATOM     34  C   UNL     1       8.829   5.487   2.271  1.00  0.00     0.010 A 
ATOM     35  C   UNL     1       9.950   5.800   1.488  1.00  0.00    -0.014 A 
BRANCH  35  36
ATOM     36  C   UNL     1      10.452   7.199   1.449  1.00  0.00     0.031 A 
ATOM     37  C   UNL     1      10.973   7.854   2.700  1.00  0.00     0.074 A 
ATOM     38  C   UNL     1      10.379   7.901   0.301  1.00  0.00     0.049 A 
ATOM     39  N   UNL     1      11.403   9.078   2.872  1.00  0.00    -0.248 NA
ATOM     40  C   UNL     1      10.991   7.035   3.923  1.00  0.00     0.031 C 
ATOM     41  C   UNL     1       9.857   7.396  -0.971  1.00  0.00     0.029 A 
ATOM     42  N   UNL     1      10.741   9.195   0.017  1.00  0.00    -0.354 N 
ATOM     43  C   UNL     1      11.728   9.180   4.219  1.00  0.00     0.074 A 
ATOM     44  C   UNL     1      11.396   7.912   4.830  1.00  0.00     0.031 C 
ATOM     45  C   UNL     1       9.958   8.357  -1.903  1.00  0.00     0.029 A 
ATOM     46  C   UNL     1      10.510   9.561  -1.288  1.00  0.00     0.049 A 
ATOM     47  H   UNL     1      11.129   9.804   0.686  1.00  0.00     0.167 HD
ATOM     48  C   UNL     1      12.271  10.227   4.885  1.00  0.00     0.031 A 
ATOM     49  C   UNL     1      10.711  10.733  -1.921  1.00  0.00     0.031 A 
ATOM     50  C   UNL     1      12.604  11.487   4.273  1.00  0.00     0.049 A 
ATOM     51  C   UNL     1      11.298  11.889  -1.156  1.00  0.00     0.074 A 
ATOM     52  C   UNL     1      13.210  12.589   4.851  1.00  0.00     0.029 A 
ATOM     53  N   UNL     1      12.357  11.815   2.949  1.00  0.00    -0.354 N 
ATOM     54  N   UNL     1      11.665  11.942   0.103  1.00  0.00    -0.248 NA
ATOM     55  C   UNL     1      11.507  13.139  -1.899  1.00  0.00     0.031 C 
ATOM     56  C   UNL     1      13.275  13.605   3.892  1.00  0.00     0.029 A 
ATOM     57  C   UNL     1      12.770  13.113   2.698  1.00  0.00     0.049 A 
ATOM     58  H   UNL     1      11.947  11.215   2.285  1.00  0.00     0.167 HD
ATOM     59  C   UNL     1      12.172  13.222   0.295  1.00  0.00     0.074 A 
ATOM     60  C   UNL     1      12.081  13.904  -0.981  1.00  0.00     0.031 C 
ATOM     61  C   UNL     1      12.670  13.782   1.425  1.00  0.00     0.031 A 
BRANCH  48  62
ATOM     62  C   UNL     1      12.530  10.056   6.360  1.00  0.00    -0.014 A 
ATOM     63  C   UNL     1      13.530   9.183   6.826  1.00  0.00     0.010 A 
ATOM     64  C   UNL     1      11.791  10.807   7.292  1.00  0.00     0.010 A 
ATOM     65  C   UNL     1      13.754   9.029   8.197  1.00  0.00     0.020 A 
ATOM     66  C   UNL     1      12.033  10.679   8.664  1.00  0.00     0.020 A 
ATOM     67  C   UNL     1      13.001   9.776   9.107  1.00  0.00     0.054 A 
BRANCH  67  68
ATOM     68  S   UNL     1      13.326   9.568  10.880  1.00  0.00     0.124 S 
ATOM     69  O   UNL     1      12.767   8.243  11.134  1.00  0.00    -0.237 OA
ATOM     70  O   UNL     1      14.782   9.659  10.950  1.00  0.00    -0.237 OA
ATOM     71  O   UNL     1      12.604  10.677  11.498  1.00  0.00    -0.744 OA
ENDBRANCH  67  68
ENDBRANCH  48  62
BRANCH  49  72
ATOM     72  C   UNL     1      10.365  10.869  -3.363  1.00  0.00    -0.014 A 
ATOM     73  C   UNL     1      11.377  10.997  -4.331  1.00  0.00     0.010 A 
ATOM     74  C   UNL     1       9.021  10.858  -3.777  1.00  0.00     0.010 A 
ATOM     75  C   UNL     1      11.050  11.128  -5.684  1.00  0.00     0.020 A 
ATOM     76  C   UNL     1       8.691  10.958  -5.132  1.00  0.00     0.020 A 
ATOM     77  C   UNL     1       9.709  11.104  -6.077  1.00  0.00     0.054 A 
BRANCH  77  78
ATOM     78  S   UNL     1       9.312  11.221  -7.843  1.00  0.00     0.124 S 
ATOM     79  O   UNL     1       9.602  12.622  -8.128  1.00  0.00    -0.237 OA
ATOM     80  O   UNL     1      10.230  10.251  -8.436  1.00  0.00    -0.237 OA
ATOM     81  O   UNL     1       7.901  10.847  -7.902  1.00  0.00    -0.744 OA
ENDBRANCH  77  78
ENDBRANCH  49  72
BRANCH  61  82
ATOM     82  C   UNL     1      13.185  15.195   1.332  1.00  0.00    -0.014 A 
ATOM     83  C   UNL     1      12.308  16.284   1.180  1.00  0.00     0.010 A 
ATOM     84  C   UNL     1      14.566  15.439   1.454  1.00  0.00     0.010 A 
ATOM     85  C   UNL     1      12.806  17.588   1.120  1.00  0.00     0.020 A 
ATOM     86  C   UNL     1      15.064  16.743   1.425  1.00  0.00     0.020 A 
ATOM     87  C   UNL     1      14.182  17.810   1.244  1.00  0.00     0.054 A 
BRANCH  87  88
ATOM     88  S   UNL     1      14.797  19.515   1.208  1.00  0.00     0.124 S 
ATOM     89  O   UNL     1      14.645  19.864  -0.202  1.00  0.00    -0.237 OA
ATOM     90  O   UNL     1      13.893  20.202   2.127  1.00  0.00    -0.237 OA
ATOM     91  O   UNL     1      16.177  19.396   1.674  1.00  0.00    -0.744 OA
ENDBRANCH  87  88
ENDBRANCH  61  82
ENDBRANCH  35  36
ENDBRANCH  27  30
ENDBRANCH  25  26
ENDBRANCH   1  25
TORSDOF 15
