REMARK SMILES NS(=O)(=O)c1ccc(/N=N/c2ccc(O)c(C(=O)NCCCCNC(=O)c3ccc(-c4c5nc(c(-c6ccc(S(=O)(=O)[O-])cc6)c6ccc([nH]6)c(-c6ccc(S(=O)(=O)[O-])cc6)c6nc(c(-c7ccc(S(=O)(=O)[O-])cc7)c7ccc4[nH]7)C=C6)C=C5)cc3)c2)cc1
REMARK SMILES IDX 21 1 20 2 19 3 17 4 18 5 16 7 11 8 12 9 87 10 13 11 14 12
REMARK SMILES IDX 10 13 9 14 8 15 5 16 6 17 89 18 7 19 88 20 2 21 3 22 4 23
REMARK SMILES IDX 1 24 15 27 22 29 23 30 24 31 25 32 26 34 27 35 28 36 86 37
REMARK SMILES IDX 29 38 85 39 30 40 31 41 32 42 79 43 33 44 84 45 78 46 80 47
REMARK SMILES IDX 34 48 83 49 77 50 76 51 35 53 65 54 46 55 64 56 47 57 50 58
REMARK SMILES IDX 63 59 81 60 48 61 49 62 62 64 82 65 51 66 36 67 37 68 45 69
REMARK SMILES IDX 38 70 44 71 39 72 40 73 41 74 42 75 43 76 66 77 67 78 75 79
REMARK SMILES IDX 68 80 74 81 69 82 70 83 71 84 72 85 73 86 52 87 53 88 61 89
REMARK SMILES IDX 54 90 60 91 55 92 56 93 57 94 58 95 59 96
REMARK H PARENT 19 6 1 25 1 26 15 28 24 33 80 52 50 63
REMARK Flexibility Score: inf
ROOT
ATOM      1  C   UNL     1      -0.776   2.436  -9.904  1.00  0.00     0.023 C 
ENDROOT
BRANCH   1   2
ATOM      2  C   UNL     1       0.656   2.865  -9.612  1.00  0.00     0.116 C 
BRANCH   2   3
ATOM      3  N   UNL     1       1.257   3.723 -10.627  1.00  0.00    -0.352 N 
ATOM      4  C   UNL     1       1.968   4.899 -10.511  1.00  0.00     0.255 C 
ATOM      5  O   UNL     1       2.327   5.494 -11.528  1.00  0.00    -0.269 OA
ATOM      6  H   UNL     1       1.133   3.410 -11.552  1.00  0.00     0.163 HD
BRANCH   4   7
ATOM      7  C   UNL     1       2.254   5.537  -9.200  1.00  0.00     0.083 A 
ATOM      8  C   UNL     1       2.424   5.349  -6.768  1.00  0.00     0.087 A 
ATOM      9  C   UNL     1       2.388   6.744  -6.677  1.00  0.00     0.034 A 
ATOM     10  C   UNL     1       2.463   4.777  -8.051  1.00  0.00     0.048 A 
ATOM     11  C   UNL     1       2.363   7.535  -7.834  1.00  0.00     0.049 A 
ATOM     12  C   UNL     1       2.282   6.930  -9.088  1.00  0.00     0.128 A 
BRANCH   8  13
ATOM     13  N   UNL     1       2.350   4.562  -5.585  1.00  0.00    -0.151 NA
ATOM     14  N   UNL     1       1.977   3.402  -5.869  1.00  0.00    -0.151 NA
BRANCH  14  15
ATOM     15  C   UNL     1       1.716   2.566  -4.776  1.00  0.00     0.086 A 
ATOM     16  C   UNL     1       0.966   0.685  -2.840  1.00  0.00     0.082 A 
ATOM     17  C   UNL     1       1.813   0.301  -3.880  1.00  0.00     0.024 A 
ATOM     18  C   UNL     1       0.491   1.997  -2.754  1.00  0.00     0.024 A 
ATOM     19  C   UNL     1       2.181   1.245  -4.842  1.00  0.00     0.031 A 
ATOM     20  C   UNL     1       0.868   2.934  -3.723  1.00  0.00     0.031 A 
BRANCH  16  21
ATOM     21  S   UNL     1       0.452  -0.511  -1.643  1.00  0.00     0.238 S 
ATOM     22  O   UNL     1       1.118  -1.766  -1.891  1.00  0.00    -0.207 OA
ATOM     23  O   UNL     1      -0.978  -0.404  -1.459  1.00  0.00    -0.207 OA
BRANCH  21  24
ATOM     24  N   UNL     1       1.146   0.083  -0.232  1.00  0.00    -0.225 NA
ATOM     25  H   UNL     1       0.916  -0.535   0.546  1.00  0.00     0.137 HD
ATOM     26  H   UNL     1       0.785   1.018  -0.043  1.00  0.00     0.137 HD
ENDBRANCH  21  24
ENDBRANCH  16  21
ENDBRANCH  14  15
ENDBRANCH   8  13
BRANCH  12  27
ATOM     27  O   UNL     1       2.229   7.766 -10.171  1.00  0.00    -0.507 OA
ATOM     28  H   UNL     1       2.251   8.694 -10.049  1.00  0.00     0.293 HD
ENDBRANCH  12  27
ENDBRANCH   4   7
ENDBRANCH   2   3
ENDBRANCH   1   2
BRANCH   1  29
ATOM     29  C   UNL     1      -0.978   1.534 -11.114  1.00  0.00     0.023 C 
BRANCH  29  30
ATOM     30  C   UNL     1      -0.094   0.295 -11.171  1.00  0.00     0.116 C 
BRANCH  30  31
ATOM     31  N   UNL     1      -0.231  -0.583 -10.015  1.00  0.00    -0.352 N 
ATOM     32  C   UNL     1      -0.491  -1.936  -9.983  1.00  0.00     0.251 C 
ATOM     33  H   UNL     1      -0.124  -0.150  -9.137  1.00  0.00     0.163 HD
ATOM     34  O   UNL     1      -0.660  -2.513  -8.915  1.00  0.00    -0.269 OA
BRANCH  32  35
ATOM     35  C   UNL     1      -0.605  -2.671 -11.260  1.00  0.00     0.039 A 
ATOM     36  C   UNL     1      -1.754  -3.421 -11.516  1.00  0.00     0.014 A 
ATOM     37  C   UNL     1       0.383  -2.530 -12.236  1.00  0.00     0.014 A 
ATOM     38  C   UNL     1      -1.962  -3.944 -12.794  1.00  0.00     0.010 A 
ATOM     39  C   UNL     1       0.131  -2.972 -13.529  1.00  0.00     0.010 A 
ATOM     40  C   UNL     1      -1.048  -3.674 -13.827  1.00  0.00    -0.014 A 
BRANCH  40  41
ATOM     41  C   UNL     1      -1.300  -4.094 -15.230  1.00  0.00     0.031 A 
ATOM     42  C   UNL     1      -0.334  -5.022 -15.915  1.00  0.00     0.074 A 
ATOM     43  C   UNL     1      -2.334  -3.566 -15.918  1.00  0.00     0.049 A 
ATOM     44  N   UNL     1      -0.301  -5.402 -17.166  1.00  0.00    -0.248 NA
ATOM     45  C   UNL     1       0.758  -5.569 -15.092  1.00  0.00     0.031 C 
ATOM     46  C   UNL     1      -3.324  -2.630 -15.380  1.00  0.00     0.029 A 
ATOM     47  N   UNL     1      -2.716  -3.730 -17.227  1.00  0.00    -0.354 N 
ATOM     48  C   UNL     1       0.823  -6.211 -17.284  1.00  0.00     0.074 A 
ATOM     49  C   UNL     1       1.474  -6.223 -15.993  1.00  0.00     0.031 C 
ATOM     50  C   UNL     1      -4.209  -2.321 -16.342  1.00  0.00     0.029 A 
ATOM     51  C   UNL     1      -3.822  -2.991 -17.579  1.00  0.00     0.049 A 
ATOM     52  H   UNL     1      -2.242  -4.322 -17.855  1.00  0.00     0.167 HD
ATOM     53  C   UNL     1       1.264  -6.896 -18.365  1.00  0.00     0.031 A 
ATOM     54  C   UNL     1      -4.445  -2.851 -18.767  1.00  0.00     0.031 A 
ATOM     55  C   UNL     1       0.608  -6.887 -19.645  1.00  0.00     0.049 A 
ATOM     56  C   UNL     1      -3.918  -3.599 -19.963  1.00  0.00     0.074 A 
ATOM     57  C   UNL     1       0.945  -7.592 -20.787  1.00  0.00     0.029 A 
ATOM     58  N   UNL     1      -0.515  -6.135 -19.954  1.00  0.00    -0.354 N 
ATOM     59  N   UNL     1      -2.889  -4.410 -20.039  1.00  0.00    -0.248 NA
ATOM     60  C   UNL     1      -4.640  -3.422 -21.231  1.00  0.00     0.031 C 
ATOM     61  C   UNL     1       0.065  -7.216 -21.805  1.00  0.00     0.029 A 
ATOM     62  C   UNL     1      -0.867  -6.336 -21.278  1.00  0.00     0.049 A 
ATOM     63  H   UNL     1      -0.992  -5.545 -19.326  1.00  0.00     0.167 HD
ATOM     64  C   UNL     1      -2.862  -4.865 -21.353  1.00  0.00     0.074 A 
ATOM     65  C   UNL     1      -3.982  -4.248 -22.033  1.00  0.00     0.031 C 
ATOM     66  C   UNL     1      -1.991  -5.722 -21.940  1.00  0.00     0.031 A 
BRANCH  53  67
ATOM     67  C   UNL     1       2.526  -7.706 -18.212  1.00  0.00    -0.014 A 
ATOM     68  C   UNL     1       2.562  -8.854 -17.398  1.00  0.00     0.010 A 
ATOM     69  C   UNL     1       3.681  -7.339 -18.925  1.00  0.00     0.010 A 
ATOM     70  C   UNL     1       3.740  -9.592 -17.267  1.00  0.00     0.020 A 
ATOM     71  C   UNL     1       4.853  -8.094 -18.824  1.00  0.00     0.020 A 
ATOM     72  C   UNL     1       4.879  -9.207 -17.981  1.00  0.00     0.054 A 
BRANCH  72  73
ATOM     73  S   UNL     1       6.386 -10.201 -17.810  1.00  0.00     0.124 S 
ATOM     74  O   UNL     1       6.803  -9.883 -16.447  1.00  0.00    -0.237 OA
ATOM     75  O   UNL     1       5.896 -11.561 -18.015  1.00  0.00    -0.237 OA
ATOM     76  O   UNL     1       7.261  -9.691 -18.863  1.00  0.00    -0.744 OA
ENDBRANCH  72  73
ENDBRANCH  53  67
BRANCH  54  77
ATOM     77  C   UNL     1      -5.639  -1.967 -18.885  1.00  0.00    -0.014 A 
ATOM     78  C   UNL     1      -6.913  -2.513 -19.124  1.00  0.00     0.010 A 
ATOM     79  C   UNL     1      -5.511  -0.572 -18.753  1.00  0.00     0.010 A 
ATOM     80  C   UNL     1      -8.031  -1.682 -19.248  1.00  0.00     0.020 A 
ATOM     81  C   UNL     1      -6.631   0.261 -18.845  1.00  0.00     0.020 A 
ATOM     82  C   UNL     1      -7.883  -0.300 -19.103  1.00  0.00     0.054 A 
BRANCH  82  83
ATOM     83  S   UNL     1      -9.356   0.754 -19.220  1.00  0.00     0.124 S 
ATOM     84  O   UNL     1      -9.672   0.678 -20.642  1.00  0.00    -0.237 OA
ATOM     85  O   UNL     1     -10.294   0.080 -18.325  1.00  0.00    -0.237 OA
ATOM     86  O   UNL     1      -8.884   2.055 -18.750  1.00  0.00    -0.744 OA
ENDBRANCH  82  83
ENDBRANCH  54  77
BRANCH  66  87
ATOM     87  C   UNL     1      -2.231  -6.092 -23.381  1.00  0.00    -0.014 A 
ATOM     88  C   UNL     1      -1.998  -5.179 -24.423  1.00  0.00     0.010 A 
ATOM     89  C   UNL     1      -2.612  -7.410 -23.697  1.00  0.00     0.010 A 
ATOM     90  C   UNL     1      -2.156  -5.573 -25.755  1.00  0.00     0.020 A 
ATOM     91  C   UNL     1      -2.741  -7.816 -25.026  1.00  0.00     0.020 A 
ATOM     92  C   UNL     1      -2.520  -6.892 -26.048  1.00  0.00     0.054 A 
BRANCH  92  93
ATOM     93  S   UNL     1      -2.645  -7.396 -27.786  1.00  0.00     0.124 S 
ATOM     94  O   UNL     1      -3.852  -6.697 -28.219  1.00  0.00    -0.237 OA
ATOM     95  O   UNL     1      -1.393  -6.899 -28.352  1.00  0.00    -0.237 OA
ATOM     96  O   UNL     1      -2.758  -8.851 -27.719  1.00  0.00    -0.744 OA
ENDBRANCH  92  93
ENDBRANCH  66  87
ENDBRANCH  40  41
ENDBRANCH  32  35
ENDBRANCH  30  31
ENDBRANCH  29  30
ENDBRANCH   1  29
TORSDOF 19
