REMARK SMILES O=C(NC1(C(=O)NCCCCNC(=O)c2ccc(-c3c4nc(c(-c5ccc(S(=O)(=O)[O-])cc5)c5ccc([nH]5)c(-c5ccc(S(=O)(=O)[O-])cc5)c5nc(c(-c6ccc(S(=O)(=O)[O-])cc6)c6ccc3[nH]6)C=C5)C=C4)cc2)Cc2ccccc2C1)OCC1c2ccccc2-c2ccccc21
REMARK SMILES IDX 9 1 8 2 7 3 5 4 6 5 4 7 75 8 82 9 76 10 81 11 77 12 80 13
REMARK SMILES IDX 78 14 79 15 3 16 1 17 2 18 83 20 84 21 85 22 86 23 97 24
REMARK SMILES IDX 87 25 91 26 92 27 96 28 88 29 90 30 93 31 95 32 89 33 94 34
REMARK SMILES IDX 10 35 11 36 12 37 13 38 14 40 15 41 16 42 74 43 17 44 73 45
REMARK SMILES IDX 18 46 19 47 20 48 67 49 21 50 72 51 66 52 68 53 22 54 71 55
REMARK SMILES IDX 65 56 64 57 23 59 53 60 34 61 52 62 35 63 38 64 51 65 69 66
REMARK SMILES IDX 36 67 37 68 50 70 70 71 39 72 24 73 25 74 33 75 26 76 32 77
REMARK SMILES IDX 27 78 28 79 29 80 30 81 31 82 54 83 55 84 63 85 56 86 62 87
REMARK SMILES IDX 57 88 58 89 59 90 60 91 61 92 40 93 41 94 49 95 42 96 48 97
REMARK SMILES IDX 43 98 44 99 45 100 46 101 47 102
REMARK H PARENT 7 6 3 19 12 39 68 58 38 69
REMARK Flexibility Score: inf
ROOT
ATOM      1  C   UNL     1       8.787  -0.924   0.852  1.00  0.00     0.023 C 
ENDROOT
BRANCH   1   2
ATOM      2  C   UNL     1       8.006   0.389   0.758  1.00  0.00     0.116 C 
BRANCH   2   3
ATOM      3  N   UNL     1       6.626   0.247   0.288  1.00  0.00    -0.354 N 
ATOM      4  C   UNL     1       5.680   1.137   0.773  1.00  0.00     0.246 C 
ATOM      5  O   UNL     1       5.622   2.255   0.262  1.00  0.00    -0.272 OA
ATOM      6  H   UNL     1       6.378  -0.459  -0.352  1.00  0.00     0.163 HD
BRANCH   4   7
ATOM      7  C   UNL     1       4.707   0.698   1.953  1.00  0.00     0.130 C 
ATOM      8  C   UNL     1       4.898   1.811   3.025  1.00  0.00     0.075 C 
ATOM      9  C   UNL     1       5.171  -0.604   2.672  1.00  0.00     0.075 C 
ATOM     10  C   UNL     1       6.130   1.313   3.713  1.00  0.00    -0.042 A 
ATOM     11  C   UNL     1       6.241  -0.077   3.578  1.00  0.00    -0.042 A 
ATOM     12  C   UNL     1       7.139   2.058   4.291  1.00  0.00     0.004 A 
ATOM     13  C   UNL     1       7.313  -0.768   4.107  1.00  0.00     0.004 A 
ATOM     14  C   UNL     1       8.263   1.378   4.760  1.00  0.00     0.000 A 
ATOM     15  C   UNL     1       8.339  -0.025   4.692  1.00  0.00     0.000 A 
BRANCH   7  16
ATOM     16  N   UNL     1       3.249   0.571   1.684  1.00  0.00    -0.306 N 
ATOM     17  O   UNL     1       1.529  -0.011   0.348  1.00  0.00    -0.225 OA
ATOM     18  C   UNL     1       2.594   0.561   0.497  1.00  0.00     0.408 C 
ATOM     19  H   UNL     1       2.679   0.480   2.481  1.00  0.00     0.168 HD
BRANCH  18  20
ATOM     20  O   UNL     1       3.235   1.259  -0.451  1.00  0.00    -0.449 OA
BRANCH  20  21
ATOM     21  C   UNL     1       3.466   0.527  -1.645  1.00  0.00     0.248 C 
BRANCH  21  22
ATOM     22  C   UNL     1       4.093   1.391  -2.755  1.00  0.00     0.088 C 
ATOM     23  C   UNL     1       5.501   0.897  -3.102  1.00  0.00    -0.029 A 
ATOM     24  C   UNL     1       4.351   2.875  -2.491  1.00  0.00    -0.029 A 
ATOM     25  C   UNL     1       5.939  -0.410  -3.279  1.00  0.00     0.005 A 
ATOM     26  C   UNL     1       6.403   1.980  -3.128  1.00  0.00    -0.014 A 
ATOM     27  C   UNL     1       5.690   3.198  -2.812  1.00  0.00    -0.014 A 
ATOM     28  C   UNL     1       3.497   3.846  -1.985  1.00  0.00     0.005 A 
ATOM     29  C   UNL     1       7.307  -0.632  -3.423  1.00  0.00     0.000 A 
ATOM     30  C   UNL     1       7.760   1.759  -3.293  1.00  0.00     0.009 A 
ATOM     31  C   UNL     1       6.157   4.500  -2.710  1.00  0.00     0.009 A 
ATOM     32  C   UNL     1       3.987   5.148  -1.826  1.00  0.00     0.000 A 
ATOM     33  C   UNL     1       8.209   0.443  -3.436  1.00  0.00     0.001 A 
ATOM     34  C   UNL     1       5.296   5.479  -2.211  1.00  0.00     0.001 A 
ENDBRANCH  21  22
ENDBRANCH  20  21
ENDBRANCH  18  20
ENDBRANCH   7  16
ENDBRANCH   4   7
ENDBRANCH   2   3
ENDBRANCH   1   2
BRANCH   1  35
ATOM     35  C   UNL     1       9.693  -1.297  -0.329  1.00  0.00     0.023 C 
BRANCH  35  36
ATOM     36  C   UNL     1      10.634  -0.226  -0.877  1.00  0.00     0.116 C 
BRANCH  36  37
ATOM     37  N   UNL     1      11.653   0.251   0.038  1.00  0.00    -0.352 N 
ATOM     38  C   UNL     1      12.865   0.814  -0.311  1.00  0.00     0.251 C 
ATOM     39  H   UNL     1      11.463   0.164   1.000  1.00  0.00     0.163 HD
ATOM     40  O   UNL     1      13.653   1.195   0.547  1.00  0.00    -0.269 OA
BRANCH  38  41
ATOM     41  C   UNL     1      13.224   0.905  -1.747  1.00  0.00     0.039 A 
ATOM     42  C   UNL     1      14.331   0.192  -2.210  1.00  0.00     0.014 A 
ATOM     43  C   UNL     1      12.441   1.645  -2.640  1.00  0.00     0.014 A 
ATOM     44  C   UNL     1      14.627   0.178  -3.578  1.00  0.00     0.010 A 
ATOM     45  C   UNL     1      12.713   1.593  -4.011  1.00  0.00     0.010 A 
ATOM     46  C   UNL     1      13.810   0.859  -4.497  1.00  0.00    -0.014 A 
BRANCH  46  47
ATOM     47  C   UNL     1      14.116   0.817  -5.956  1.00  0.00     0.031 A 
ATOM     48  C   UNL     1      14.574   2.059  -6.677  1.00  0.00     0.074 A 
ATOM     49  C   UNL     1      13.982  -0.336  -6.645  1.00  0.00     0.049 A 
ATOM     50  N   UNL     1      14.931   2.202  -7.928  1.00  0.00    -0.248 NA
ATOM     51  C   UNL     1      14.623   3.303  -5.893  1.00  0.00     0.031 C 
ATOM     52  C   UNL     1      13.518  -1.608  -6.086  1.00  0.00     0.029 A 
ATOM     53  N   UNL     1      14.234  -0.629  -7.965  1.00  0.00    -0.354 N 
ATOM     54  C   UNL     1      15.247   3.548  -8.083  1.00  0.00     0.074 A 
ATOM     55  C   UNL     1      14.984   4.188  -6.812  1.00  0.00     0.031 C 
ATOM     56  C   UNL     1      13.552  -2.549  -7.046  1.00  0.00     0.029 A 
ATOM     57  C   UNL     1      14.013  -1.947  -8.294  1.00  0.00     0.049 A 
ATOM     58  H   UNL     1      14.544   0.043  -8.614  1.00  0.00     0.167 HD
ATOM     59  C   UNL     1      15.734   4.192  -9.171  1.00  0.00     0.031 A 
ATOM     60  C   UNL     1      14.172  -2.602  -9.462  1.00  0.00     0.031 A 
ATOM     61  C   UNL     1      15.999   3.563 -10.438  1.00  0.00     0.049 A 
ATOM     62  C   UNL     1      14.697  -1.862 -10.665  1.00  0.00     0.074 A 
ATOM     63  C   UNL     1      16.532   4.128 -11.584  1.00  0.00     0.029 A 
ATOM     64  N   UNL     1      15.749   2.231 -10.730  1.00  0.00    -0.354 N 
ATOM     65  N   UNL     1      15.055  -0.604 -10.767  1.00  0.00    -0.248 NA
ATOM     66  C   UNL     1      14.854  -2.635 -11.906  1.00  0.00     0.031 C 
ATOM     67  C   UNL     1      16.559   3.150 -12.584  1.00  0.00     0.029 A 
ATOM     68  C   UNL     1      16.097   1.961 -12.044  1.00  0.00     0.049 A 
ATOM     69  H   UNL     1      15.378   1.574 -10.098  1.00  0.00     0.167 HD
ATOM     70  C   UNL     1      15.507  -0.443 -12.073  1.00  0.00     0.074 A 
ATOM     71  C   UNL     1      15.390  -1.734 -12.719  1.00  0.00     0.031 C 
ATOM     72  C   UNL     1      15.979   0.673 -12.680  1.00  0.00     0.031 A 
BRANCH  59  73
ATOM     73  C   UNL     1      16.015   5.667  -9.035  1.00  0.00    -0.014 A 
ATOM     74  C   UNL     1      17.082   6.129  -8.243  1.00  0.00     0.010 A 
ATOM     75  C   UNL     1      15.229   6.600  -9.736  1.00  0.00     0.010 A 
ATOM     76  C   UNL     1      17.329   7.499  -8.116  1.00  0.00     0.020 A 
ATOM     77  C   UNL     1      15.491   7.970  -9.634  1.00  0.00     0.020 A 
ATOM     78  C   UNL     1      16.528   8.411  -8.809  1.00  0.00     0.054 A 
BRANCH  78  79
ATOM     79  S   UNL     1      16.879  10.182  -8.635  1.00  0.00     0.124 S 
ATOM     80  O   UNL     1      16.400  10.451  -7.281  1.00  0.00    -0.237 OA
ATOM     81  O   UNL     1      18.328  10.241  -8.810  1.00  0.00    -0.237 OA
ATOM     82  O   UNL     1      16.099  10.798  -9.705  1.00  0.00    -0.744 OA
ENDBRANCH  78  79
ENDBRANCH  59  73
BRANCH  60  83
ATOM     83  C   UNL     1      13.858  -4.057  -9.551  1.00  0.00    -0.014 A 
ATOM     84  C   UNL     1      14.888  -5.003  -9.699  1.00  0.00     0.010 A 
ATOM     85  C   UNL     1      12.525  -4.503  -9.490  1.00  0.00     0.010 A 
ATOM     86  C   UNL     1      14.591  -6.366  -9.800  1.00  0.00     0.020 A 
ATOM     87  C   UNL     1      12.226  -5.867  -9.563  1.00  0.00     0.020 A 
ATOM     88  C   UNL     1      13.261  -6.790  -9.729  1.00  0.00     0.054 A 
BRANCH  88  89
ATOM     89  S   UNL     1      12.903  -8.568  -9.805  1.00  0.00     0.124 S 
ATOM     90  O   UNL     1      13.127  -8.863 -11.216  1.00  0.00    -0.237 OA
ATOM     91  O   UNL     1      13.883  -9.127  -8.877  1.00  0.00    -0.237 OA
ATOM     92  O   UNL     1      11.514  -8.655  -9.358  1.00  0.00    -0.744 OA
ENDBRANCH  88  89
ENDBRANCH  60  83
BRANCH  72  93
ATOM     93  C   UNL     1      16.440   0.552 -14.110  1.00  0.00    -0.014 A 
ATOM     94  C   UNL     1      15.522   0.393 -15.163  1.00  0.00     0.010 A 
ATOM     95  C   UNL     1      17.811   0.660 -14.408  1.00  0.00     0.010 A 
ATOM     96  C   UNL     1      15.969   0.316 -16.485  1.00  0.00     0.020 A 
ATOM     97  C   UNL     1      18.260   0.611 -15.731  1.00  0.00     0.020 A 
ATOM     98  C   UNL     1      17.336   0.425 -16.761  1.00  0.00     0.054 A 
BRANCH  98  99
ATOM     99  S   UNL     1      17.887   0.370 -18.489  1.00  0.00     0.124 S 
ATOM    100  O   UNL     1      17.737  -1.046 -18.810  1.00  0.00    -0.237 OA
ATOM    101  O   UNL     1      16.946   1.269 -19.154  1.00  0.00    -0.237 OA
ATOM    102  O   UNL     1      19.264   0.854 -18.429  1.00  0.00    -0.744 OA
ENDBRANCH  98  99
ENDBRANCH  72  93
ENDBRANCH  46  47
ENDBRANCH  38  41
ENDBRANCH  36  37
ENDBRANCH  35  36
ENDBRANCH   1  35
TORSDOF 18
