REMARK SMILES CC(C)(C)c1cc(NC(=O)CSC[C@H]([NH3+])C(=O)NCCCCNC(=O)c2ccc(-c3c4nc(c(-c5ccc(S(=O)(=O)[O-])cc5)c5ccc([nH]5)c(-c5ccc(S(=O)(=O)[O-])cc5)c5nc(c(-c6ccc(S(=O)(=O)[O-])cc6)c6ccc3[nH]6)C=C5)C=C4)cc2)on1
REMARK SMILES IDX 19 1 18 2 16 3 17 4 14 6 13 7 12 8 11 9 9 10 8 11 10 13 7 14
REMARK SMILES IDX 5 15 6 16 87 17 86 18 2 19 1 20 3 21 4 22 15 23 20 27 21 28
REMARK SMILES IDX 22 29 23 30 24 31 25 33 26 34 27 35 85 36 28 37 84 38 29 39
REMARK SMILES IDX 30 40 31 41 78 42 32 43 83 44 77 45 79 46 33 47 82 48 76 49
REMARK SMILES IDX 75 50 34 52 64 53 45 54 63 55 46 56 49 57 62 58 80 59 47 60
REMARK SMILES IDX 48 61 61 63 81 64 50 65 35 66 36 67 44 68 37 69 43 70 38 71
REMARK SMILES IDX 39 72 40 73 41 74 42 75 65 76 66 77 74 78 67 79 73 80 68 81
REMARK SMILES IDX 69 82 70 83 71 84 72 85 51 86 52 87 60 88 53 89 59 90 54 91
REMARK SMILES IDX 55 92 56 93 57 94 58 95
REMARK H PARENT 18 5 8 12 15 24 15 25 15 26 23 32 79 51 49 62
REMARK Flexibility Score: inf
ROOT
ATOM      1  C   UNL     1       6.167  -2.804  -6.493  1.00  0.00     0.116 C 
ENDROOT
BRANCH   1   2
ATOM      2  N   UNL     1       6.876  -4.063  -6.365  1.00  0.00    -0.351 N 
ATOM      3  C   UNL     1       6.435  -5.322  -6.096  1.00  0.00     0.279 C 
ATOM      4  O   UNL     1       7.268  -6.231  -6.058  1.00  0.00    -0.268 OA
ATOM      5  H   UNL     1       7.849  -3.994  -6.497  1.00  0.00     0.163 HD
BRANCH   3   6
ATOM      6  C   UNL     1       4.945  -5.611  -5.860  1.00  0.00     0.280 C 
BRANCH   6   7
ATOM      7  C   UNL     1       4.120  -5.380  -7.138  1.00  0.00     0.145 C 
BRANCH   7   8
ATOM      8  S   UNL     1       4.087  -6.785  -8.307  1.00  0.00    -0.145 SA
BRANCH   8   9
ATOM      9  C   UNL     1       5.715  -6.686  -9.135  1.00  0.00     0.170 C 
BRANCH   9  10
ATOM     10  C   UNL     1       6.085  -5.317  -9.681  1.00  0.00     0.236 C 
ATOM     11  N   UNL     1       5.463  -4.730 -10.739  1.00  0.00    -0.294 N 
ATOM     12  H   UNL     1       5.800  -3.839 -10.988  1.00  0.00     0.173 HD
ATOM     13  O   UNL     1       7.013  -4.671  -9.176  1.00  0.00    -0.274 OA
BRANCH  11  14
ATOM     14  C   UNL     1       4.436  -5.205 -11.504  1.00  0.00     0.231 A 
ATOM     15  C   UNL     1       2.764  -5.534 -12.906  1.00  0.00     0.091 A 
ATOM     16  C   UNL     1       3.738  -4.584 -12.508  1.00  0.00     0.097 A 
ATOM     17  N   UNL     1       2.905  -6.671 -12.209  1.00  0.00    -0.082 NA
ATOM     18  O   UNL     1       3.957  -6.460 -11.345  1.00  0.00    -0.338 OA
BRANCH  15  19
ATOM     19  C   UNL     1       1.681  -5.426 -13.958  1.00  0.00     0.008 C 
ATOM     20  C   UNL     1       1.619  -4.014 -14.576  1.00  0.00     0.018 C 
ATOM     21  C   UNL     1       0.301  -5.729 -13.337  1.00  0.00     0.018 C 
ATOM     22  C   UNL     1       1.960  -6.436 -15.088  1.00  0.00     0.018 C 
ENDBRANCH  15  19
ENDBRANCH  11  14
ENDBRANCH   9  10
ENDBRANCH   8   9
ENDBRANCH   7   8
ENDBRANCH   6   7
BRANCH   6  23
ATOM     23  N   UNL     1       4.442  -4.835  -4.695  1.00  0.00    -0.347 N 
ATOM     24  H   UNL     1       4.535  -3.837  -4.886  1.00  0.00     0.345 HD
ATOM     25  H   UNL     1       4.986  -5.074  -3.867  1.00  0.00     0.345 HD
ATOM     26  H   UNL     1       3.460  -5.060  -4.535  1.00  0.00     0.345 HD
ENDBRANCH   6  23
ENDBRANCH   3   6
ENDBRANCH   1   2
BRANCH   1  27
ATOM     27  C   UNL     1       6.754  -1.746  -5.567  1.00  0.00     0.023 C 
BRANCH  27  28
ATOM     28  C   UNL     1       8.181  -1.326  -5.922  1.00  0.00     0.023 C 
BRANCH  28  29
ATOM     29  C   UNL     1       8.359  -0.786  -7.338  1.00  0.00     0.116 C 
BRANCH  29  30
ATOM     30  N   UNL     1       7.540   0.391  -7.595  1.00  0.00    -0.352 N 
ATOM     31  C   UNL     1       7.919   1.625  -8.064  1.00  0.00     0.251 C 
ATOM     32  H   UNL     1       6.580   0.287  -7.405  1.00  0.00     0.163 HD
ATOM     33  O   UNL     1       7.115   2.553  -8.064  1.00  0.00    -0.269 OA
BRANCH  31  34
ATOM     34  C   UNL     1       9.302   1.833  -8.544  1.00  0.00     0.039 A 
ATOM     35  C   UNL     1      10.008   2.957  -8.110  1.00  0.00     0.014 A 
ATOM     36  C   UNL     1       9.904   0.910  -9.402  1.00  0.00     0.014 A 
ATOM     37  C   UNL     1      11.345   3.117  -8.482  1.00  0.00     0.010 A 
ATOM     38  C   UNL     1      11.257   1.031  -9.707  1.00  0.00     0.010 A 
ATOM     39  C   UNL     1      11.992   2.135  -9.251  1.00  0.00    -0.014 A 
BRANCH  39  40
ATOM     40  C   UNL     1      13.437   2.240  -9.582  1.00  0.00     0.031 A 
ATOM     41  C   UNL     1      13.879   2.357 -11.016  1.00  0.00     0.074 A 
ATOM     42  C   UNL     1      14.354   2.163  -8.596  1.00  0.00     0.049 A 
ATOM     43  N   UNL     1      15.092   2.398 -11.503  1.00  0.00    -0.248 NA
ATOM     44  C   UNL     1      12.820   2.410 -12.037  1.00  0.00     0.031 C 
ATOM     45  C   UNL     1      14.056   2.006  -7.170  1.00  0.00     0.029 A 
ATOM     46  N   UNL     1      15.726   2.197  -8.645  1.00  0.00    -0.354 N 
ATOM     47  C   UNL     1      14.944   2.465 -12.883  1.00  0.00     0.074 A 
ATOM     48  C   UNL     1      13.525   2.408 -13.159  1.00  0.00     0.031 C 
ATOM     49  C   UNL     1      15.207   1.987  -6.479  1.00  0.00     0.029 A 
ATOM     50  C   UNL     1      16.326   2.084  -7.412  1.00  0.00     0.049 A 
ATOM     51  H   UNL     1      16.233   2.295  -9.483  1.00  0.00     0.167 HD
ATOM     52  C   UNL     1      15.900   2.584 -13.835  1.00  0.00     0.031 A 
ATOM     53  C   UNL     1      17.628   2.052  -7.069  1.00  0.00     0.031 A 
ATOM     54  C   UNL     1      17.311   2.650 -13.557  1.00  0.00     0.049 A 
ATOM     55  C   UNL     1      18.673   2.170  -8.147  1.00  0.00     0.074 A 
ATOM     56  C   UNL     1      18.355   2.825 -14.448  1.00  0.00     0.029 A 
ATOM     57  N   UNL     1      17.876   2.539 -12.296  1.00  0.00    -0.354 N 
ATOM     58  N   UNL     1      18.509   2.301  -9.442  1.00  0.00    -0.248 NA
ATOM     59  C   UNL     1      20.077   2.147  -7.715  1.00  0.00     0.031 C 
ATOM     60  C   UNL     1      19.555   2.764 -13.733  1.00  0.00     0.029 A 
ATOM     61  C   UNL     1      19.256   2.617 -12.387  1.00  0.00     0.049 A 
ATOM     62  H   UNL     1      17.371   2.422 -11.459  1.00  0.00     0.167 HD
ATOM     63  C   UNL     1      19.789   2.407  -9.975  1.00  0.00     0.074 A 
ATOM     64  C   UNL     1      20.713   2.340  -8.862  1.00  0.00     0.031 C 
ATOM     65  C   UNL     1      20.164   2.549 -11.271  1.00  0.00     0.031 A 
BRANCH  52  66
ATOM     66  C   UNL     1      15.451   2.648 -15.272  1.00  0.00    -0.014 A 
ATOM     67  C   UNL     1      14.759   3.768 -15.769  1.00  0.00     0.010 A 
ATOM     68  C   UNL     1      15.762   1.593 -16.150  1.00  0.00     0.010 A 
ATOM     69  C   UNL     1      14.351   3.814 -17.104  1.00  0.00     0.020 A 
ATOM     70  C   UNL     1      15.382   1.648 -17.494  1.00  0.00     0.020 A 
ATOM     71  C   UNL     1      14.663   2.752 -17.958  1.00  0.00     0.054 A 
BRANCH  71  72
ATOM     72  S   UNL     1      14.139   2.850 -19.692  1.00  0.00     0.124 S 
ATOM     73  O   UNL     1      12.695   2.657 -19.580  1.00  0.00    -0.237 OA
ATOM     74  O   UNL     1      14.564   4.192 -20.079  1.00  0.00    -0.237 OA
ATOM     75  O   UNL     1      14.864   1.758 -20.337  1.00  0.00    -0.744 OA
ENDBRANCH  71  72
ENDBRANCH  52  66
BRANCH  53  76
ATOM     76  C   UNL     1      18.020   1.914  -5.639  1.00  0.00    -0.014 A 
ATOM     77  C   UNL     1      18.614   2.988  -4.954  1.00  0.00     0.010 A 
ATOM     78  C   UNL     1      17.794   0.707  -4.951  1.00  0.00     0.010 A 
ATOM     79  C   UNL     1      18.994   2.853  -3.615  1.00  0.00     0.020 A 
ATOM     80  C   UNL     1      18.145   0.578  -3.604  1.00  0.00     0.020 A 
ATOM     81  C   UNL     1      18.755   1.648  -2.948  1.00  0.00     0.054 A 
BRANCH  81  82
ATOM     82  S   UNL     1      19.213   1.512  -1.198  1.00  0.00     0.124 S 
ATOM     83  O   UNL     1      20.669   1.437  -1.271  1.00  0.00    -0.237 OA
ATOM     84  O   UNL     1      18.669   2.744  -0.633  1.00  0.00    -0.237 OA
ATOM     85  O   UNL     1      18.544   0.288  -0.764  1.00  0.00    -0.744 OA
ENDBRANCH  81  82
ENDBRANCH  53  76
BRANCH  65  86
ATOM     86  C   UNL     1      21.637   2.681 -11.557  1.00  0.00    -0.014 A 
ATOM     87  C   UNL     1      22.509   1.586 -11.431  1.00  0.00     0.010 A 
ATOM     88  C   UNL     1      22.144   3.911 -12.017  1.00  0.00     0.010 A 
ATOM     89  C   UNL     1      23.867   1.727 -11.728  1.00  0.00     0.020 A 
ATOM     90  C   UNL     1      23.495   4.048 -12.344  1.00  0.00     0.020 A 
ATOM     91  C   UNL     1      24.352   2.957 -12.184  1.00  0.00     0.054 A 
BRANCH  91  92
ATOM     92  S   UNL     1      26.110   3.101 -12.607  1.00  0.00     0.124 S 
ATOM     93  O   UNL     1      26.741   3.093 -11.290  1.00  0.00    -0.237 OA
ATOM     94  O   UNL     1      26.341   1.911 -13.422  1.00  0.00    -0.237 OA
ATOM     95  O   UNL     1      26.190   4.369 -13.329  1.00  0.00    -0.744 OA
ENDBRANCH  91  92
ENDBRANCH  65  86
ENDBRANCH  39  40
ENDBRANCH  31  34
ENDBRANCH  29  30
ENDBRANCH  28  29
ENDBRANCH  27  28
ENDBRANCH   1  27
TORSDOF 21
