REMARK SMILES O=C(NCCCCNC(=O)[C@@H]1CS[C@H](c2ncc(-c3ccccc3)s2)[NH2+]1)c1ccc(-c2c3nc(c(-c4ccc(S(=O)(=O)[O-])cc4)c4ccc([nH]4)c(-c4ccc(S(=O)(=O)[O-])cc4)c4nc(c(-c5ccc(S(=O)(=O)[O-])cc5)c5ccc2[nH]5)C=C4)C=C3)cc1
REMARK SMILES IDX 5 1 4 2 3 3 1 4 2 5 27 7 28 8 86 9 29 10 85 11 30 12 31 13
REMARK SMILES IDX 32 14 79 15 33 16 84 17 78 18 80 19 34 20 83 21 77 22 76 23
REMARK SMILES IDX 35 25 65 26 46 27 64 28 47 29 50 30 63 31 81 32 48 33 49 34
REMARK SMILES IDX 62 36 82 37 51 38 36 39 37 40 45 41 38 42 44 43 39 44 40 45
REMARK SMILES IDX 41 46 42 47 43 48 66 49 67 50 75 51 68 52 74 53 69 54 70 55
REMARK SMILES IDX 71 56 72 57 73 58 52 59 53 60 61 61 54 62 60 63 55 64 56 65
REMARK SMILES IDX 57 66 58 67 59 68 6 69 7 70 8 71 9 72 10 74 11 75 12 76
REMARK SMILES IDX 26 77 13 78 14 79 15 82 16 83 25 84 17 85 18 86 19 87 20 88
REMARK SMILES IDX 24 89 21 90 23 91 22 92
REMARK H PARENT 3 6 80 24 50 35 8 73 26 80 26 81
REMARK Flexibility Score: inf
ROOT
ATOM      1  C   UNL     1       6.830  10.065  -3.712  1.00  0.00     0.023 C 
ENDROOT
BRANCH   1   2
ATOM      2  C   UNL     1       5.535  10.834  -3.961  1.00  0.00     0.116 C 
BRANCH   2   3
ATOM      3  N   UNL     1       5.433  12.079  -3.210  1.00  0.00    -0.352 N 
ATOM      4  O   UNL     1       4.967  14.274  -2.918  1.00  0.00    -0.269 OA
ATOM      5  C   UNL     1       4.918  13.285  -3.633  1.00  0.00     0.251 C 
ATOM      6  H   UNL     1       5.775  12.055  -2.287  1.00  0.00     0.163 HD
BRANCH   5   7
ATOM      7  C   UNL     1       4.337  13.357  -4.987  1.00  0.00     0.039 A 
ATOM      8  C   UNL     1       3.371  12.426  -5.378  1.00  0.00     0.014 A 
ATOM      9  C   UNL     1       4.826  14.303  -5.890  1.00  0.00     0.014 A 
ATOM     10  C   UNL     1       3.004  12.348  -6.714  1.00  0.00     0.010 A 
ATOM     11  C   UNL     1       4.394  14.271  -7.217  1.00  0.00     0.010 A 
ATOM     12  C   UNL     1       3.508  13.270  -7.646  1.00  0.00    -0.014 A 
BRANCH  12  13
ATOM     13  C   UNL     1       3.051  13.194  -9.055  1.00  0.00     0.031 A 
ATOM     14  C   UNL     1       4.002  12.846 -10.168  1.00  0.00     0.074 A 
ATOM     15  C   UNL     1       1.748  13.411  -9.315  1.00  0.00     0.049 A 
ATOM     16  N   UNL     1       3.754  12.724 -11.447  1.00  0.00    -0.248 NA
ATOM     17  C   UNL     1       5.408  12.608  -9.805  1.00  0.00     0.031 C 
ATOM     18  C   UNL     1       0.736  13.758  -8.312  1.00  0.00     0.029 A 
ATOM     19  N   UNL     1       1.044  13.352 -10.489  1.00  0.00    -0.354 N 
ATOM     20  C   UNL     1       4.972  12.421 -12.046  1.00  0.00     0.074 A 
ATOM     21  C   UNL     1       5.962  12.389 -10.991  1.00  0.00     0.031 C 
ATOM     22  C   UNL     1      -0.464  13.832  -8.905  1.00  0.00     0.029 A 
ATOM     23  C   UNL     1      -0.298  13.602 -10.335  1.00  0.00     0.049 A 
ATOM     24  H   UNL     1       1.460  13.149 -11.358  1.00  0.00     0.167 HD
ATOM     25  C   UNL     1       5.236  12.191 -13.355  1.00  0.00     0.031 A 
ATOM     26  C   UNL     1      -1.288  13.660 -11.245  1.00  0.00     0.031 A 
ATOM     27  C   UNL     1       4.242  12.216 -14.397  1.00  0.00     0.049 A 
ATOM     28  C   UNL     1      -0.964  13.414 -12.688  1.00  0.00     0.074 A 
ATOM     29  C   UNL     1       4.407  11.972 -15.750  1.00  0.00     0.029 A 
ATOM     30  N   UNL     1       2.899  12.503 -14.205  1.00  0.00    -0.354 N 
ATOM     31  N   UNL     1       0.193  13.114 -13.229  1.00  0.00    -0.248 NA
ATOM     32  C   UNL     1      -2.075  13.517 -13.641  1.00  0.00     0.031 C 
ATOM     33  C   UNL     1       3.171  12.152 -16.381  1.00  0.00     0.029 A 
ATOM     34  C   UNL     1       2.227  12.461 -15.415  1.00  0.00     0.049 A 
ATOM     35  H   UNL     1       2.484  12.707 -13.336  1.00  0.00     0.167 HD
ATOM     36  C   UNL     1      -0.053  12.983 -14.589  1.00  0.00     0.074 A 
ATOM     37  C   UNL     1      -1.471  13.214 -14.783  1.00  0.00     0.031 C 
ATOM     38  C   UNL     1       0.818  12.702 -15.588  1.00  0.00     0.031 A 
BRANCH  25  39
ATOM     39  C   UNL     1       6.665  11.916 -13.747  1.00  0.00    -0.014 A 
ATOM     40  C   UNL     1       7.271  10.678 -13.470  1.00  0.00     0.010 A 
ATOM     41  C   UNL     1       7.389  12.888 -14.462  1.00  0.00     0.010 A 
ATOM     42  C   UNL     1       8.586  10.428 -13.876  1.00  0.00     0.020 A 
ATOM     43  C   UNL     1       8.696  12.634 -14.889  1.00  0.00     0.020 A 
ATOM     44  C   UNL     1       9.291  11.410 -14.580  1.00  0.00     0.054 A 
BRANCH  44  45
ATOM     45  S   UNL     1      10.985  11.048 -15.122  1.00  0.00     0.124 S 
ATOM     46  O   UNL     1      11.730  11.158 -13.870  1.00  0.00    -0.237 OA
ATOM     47  O   UNL     1      10.868   9.698 -15.666  1.00  0.00    -0.237 OA
ATOM     48  O   UNL     1      11.264  12.091 -16.107  1.00  0.00    -0.744 OA
ENDBRANCH  44  45
ENDBRANCH  25  39
BRANCH  26  49
ATOM     49  C   UNL     1      -2.669  13.986 -10.804  1.00  0.00    -0.014 A 
ATOM     50  C   UNL     1      -3.671  13.001 -10.802  1.00  0.00     0.010 A 
ATOM     51  C   UNL     1      -2.974  15.280 -10.342  1.00  0.00     0.010 A 
ATOM     52  C   UNL     1      -4.958  13.308 -10.352  1.00  0.00     0.020 A 
ATOM     53  C   UNL     1      -4.252  15.581  -9.866  1.00  0.00     0.020 A 
ATOM     54  C   UNL     1      -5.239  14.595  -9.885  1.00  0.00     0.054 A 
BRANCH  54  55
ATOM     55  S   UNL     1      -6.896  14.956  -9.242  1.00  0.00     0.124 S 
ATOM     56  O   UNL     1      -7.665  15.133 -10.470  1.00  0.00    -0.237 OA
ATOM     57  O   UNL     1      -7.206  13.757  -8.467  1.00  0.00    -0.237 OA
ATOM     58  O   UNL     1      -6.695  16.166  -8.447  1.00  0.00    -0.744 OA
ENDBRANCH  54  55
ENDBRANCH  26  49
BRANCH  38  59
ATOM     59  C   UNL     1       0.253  12.610 -16.978  1.00  0.00    -0.014 A 
ATOM     60  C   UNL     1      -0.117  13.767 -17.686  1.00  0.00     0.010 A 
ATOM     61  C   UNL     1       0.120  11.353 -17.593  1.00  0.00     0.010 A 
ATOM     62  C   UNL     1      -0.642  13.665 -18.976  1.00  0.00     0.020 A 
ATOM     63  C   UNL     1      -0.383  11.248 -18.891  1.00  0.00     0.020 A 
ATOM     64  C   UNL     1      -0.775  12.405 -19.569  1.00  0.00     0.054 A 
BRANCH  64  65
ATOM     65  S   UNL     1      -1.428  12.297 -21.258  1.00  0.00     0.124 S 
ATOM     66  O   UNL     1      -2.859  12.489 -21.042  1.00  0.00    -0.237 OA
ATOM     67  O   UNL     1      -0.742  13.392 -21.940  1.00  0.00    -0.237 OA
ATOM     68  O   UNL     1      -1.037  10.958 -21.693  1.00  0.00    -0.744 OA
ENDBRANCH  64  65
ENDBRANCH  38  59
ENDBRANCH  12  13
ENDBRANCH   5   7
ENDBRANCH   2   3
ENDBRANCH   1   2
BRANCH   1  69
ATOM     69  C   UNL     1       7.175   9.819  -2.244  1.00  0.00     0.023 C 
BRANCH  69  70
ATOM     70  C   UNL     1       6.074   9.128  -1.449  1.00  0.00     0.116 C 
BRANCH  70  71
ATOM     71  N   UNL     1       6.146   7.685  -1.550  1.00  0.00    -0.351 N 
ATOM     72  C   UNL     1       6.240   6.669  -0.656  1.00  0.00     0.279 C 
ATOM     73  H   UNL     1       6.121   7.368  -2.481  1.00  0.00     0.163 HD
ATOM     74  O   UNL     1       6.104   5.539  -1.151  1.00  0.00    -0.268 OA
BRANCH  72  75
ATOM     75  C   UNL     1       6.632   6.787   0.834  1.00  0.00     0.284 C 
ATOM     76  C   UNL     1       5.957   5.667   1.657  1.00  0.00     0.151 C 
ATOM     77  N   UNL     1       6.418   8.049   1.539  1.00  0.00    -0.319 N 
ATOM     78  S   UNL     1       4.891   6.466   2.900  1.00  0.00    -0.085 SA
ATOM     79  C   UNL     1       5.111   8.109   2.176  1.00  0.00     0.303 C 
ATOM     80  H   UNL     1       6.494   8.815   0.871  1.00  0.00     0.348 HD
ATOM     81  H   UNL     1       7.126   8.122   2.270  1.00  0.00     0.348 HD
BRANCH  79  82
ATOM     82  C   UNL     1       3.970   8.589   1.287  1.00  0.00     0.162 A 
ATOM     83  N   UNL     1       3.602   9.855   1.196  1.00  0.00    -0.242 NA
ATOM     84  S   UNL     1       3.057   7.524   0.289  1.00  0.00    -0.112 S 
ATOM     85  C   UNL     1       2.541   9.982   0.312  1.00  0.00     0.132 A 
ATOM     86  C   UNL     1       2.129   8.829  -0.337  1.00  0.00     0.055 A 
BRANCH  86  87
ATOM     87  C   UNL     1       1.111   8.626  -1.390  1.00  0.00    -0.007 A 
ATOM     88  C   UNL     1       0.739   7.345  -1.840  1.00  0.00     0.009 A 
ATOM     89  C   UNL     1       0.491   9.729  -2.003  1.00  0.00     0.009 A 
ATOM     90  C   UNL     1      -0.199   7.173  -2.863  1.00  0.00     0.001 A 
ATOM     91  C   UNL     1      -0.450   9.558  -3.025  1.00  0.00     0.001 A 
ATOM     92  C   UNL     1      -0.792   8.280  -3.457  1.00  0.00     0.000 A 
ENDBRANCH  86  87
ENDBRANCH  79  82
ENDBRANCH  72  75
ENDBRANCH  70  71
ENDBRANCH  69  70
ENDBRANCH   1  69
TORSDOF 16
