REMARK SMILES C[C@](Nc1ccc(C(N)=O)nn1)(C(=O)NCCCCNC(=O)c1ccc(-c2c3nc(c(-c4ccc(S(=O)(=O)[O-])cc4)c4ccc([nH]4)c(-c4ccc(S(=O)(=O)[O-])cc4)c4nc(c(-c5ccc(S(=O)(=O)[O-])cc5)c5ccc2[nH]5)C=C4)C=C3)cc1)c1ccccc1
REMARK SMILES IDX 17 1 16 2 15 3 13 4 14 5 2 7 1 8 83 9 84 10 88 11 85 12
REMARK SMILES IDX 87 13 86 14 3 15 4 17 5 18 12 19 6 20 11 21 7 22 8 23 9 24
REMARK SMILES IDX 10 25 18 28 19 29 20 30 21 31 22 33 23 34 24 35 82 36 25 37
REMARK SMILES IDX 81 38 26 39 27 40 28 41 75 42 29 43 80 44 74 45 76 46 30 47
REMARK SMILES IDX 79 48 73 49 72 50 31 52 61 53 42 54 60 55 43 56 46 57 59 58
REMARK SMILES IDX 77 59 44 60 45 61 58 63 78 64 47 65 32 66 33 67 41 68 34 69
REMARK SMILES IDX 40 70 35 71 36 72 37 73 38 74 39 75 62 76 63 77 71 78 64 79
REMARK SMILES IDX 70 80 65 81 66 82 67 83 68 84 69 85 48 86 49 87 57 88 50 89
REMARK SMILES IDX 56 90 51 91 52 92 53 93 54 94 55 95
REMARK H PARENT 15 6 3 16 9 26 9 27 20 32 76 51 46 62
REMARK Flexibility Score: inf
ROOT
ATOM      1  C   UNL     1      -1.274  -2.725   0.539  1.00  0.00     0.023 C 
ENDROOT
BRANCH   1   2
ATOM      2  C   UNL     1      -0.886  -2.176  -0.831  1.00  0.00     0.116 C 
BRANCH   2   3
ATOM      3  N   UNL     1      -1.488  -0.880  -1.086  1.00  0.00    -0.354 N 
ATOM      4  C   UNL     1      -0.955   0.331  -1.436  1.00  0.00     0.250 C 
ATOM      5  O   UNL     1      -1.793   1.151  -1.826  1.00  0.00    -0.272 OA
ATOM      6  H   UNL     1      -2.468  -0.871  -0.989  1.00  0.00     0.163 HD
BRANCH   4   7
ATOM      7  C   UNL     1       0.621   0.601  -1.449  1.00  0.00     0.140 C 
ATOM      8  C   UNL     1       1.057  -0.097  -2.760  1.00  0.00     0.051 C 
BRANCH   7   9
ATOM      9  C   UNL     1       1.003   2.112  -1.461  1.00  0.00    -0.013 A 
ATOM     10  C   UNL     1       2.320   2.516  -1.771  1.00  0.00     0.007 A 
ATOM     11  C   UNL     1       0.109   3.147  -1.133  1.00  0.00     0.007 A 
ATOM     12  C   UNL     1       2.709   3.860  -1.800  1.00  0.00     0.000 A 
ATOM     13  C   UNL     1       0.485   4.497  -1.191  1.00  0.00     0.000 A 
ATOM     14  C   UNL     1       1.784   4.855  -1.526  1.00  0.00     0.000 A 
ENDBRANCH   7   9
BRANCH   7  15
ATOM     15  N   UNL     1       1.204   0.014  -0.220  1.00  0.00    -0.351 N 
ATOM     16  H   UNL     1       0.721   0.249   0.606  1.00  0.00     0.163 HD
BRANCH  15  17
ATOM     17  C   UNL     1       2.289  -0.793  -0.021  1.00  0.00     0.149 A 
ATOM     18  C   UNL     1       3.424  -0.818  -0.813  1.00  0.00     0.051 A 
ATOM     19  N   UNL     1       2.215  -1.654   1.020  1.00  0.00    -0.132 NA
ATOM     20  C   UNL     1       4.457  -1.719  -0.557  1.00  0.00     0.040 A 
ATOM     21  N   UNL     1       3.211  -2.588   1.270  1.00  0.00    -0.143 NA
ATOM     22  C   UNL     1       4.307  -2.605   0.486  1.00  0.00     0.150 A 
BRANCH  22  23
ATOM     23  C   UNL     1       5.344  -3.637   0.749  1.00  0.00     0.269 C 
ATOM     24  N   UNL     1       5.030  -4.606   1.661  1.00  0.00    -0.364 N 
ATOM     25  O   UNL     1       6.421  -3.639   0.161  1.00  0.00    -0.268 OA
ATOM     26  H   UNL     1       4.160  -4.585   2.122  1.00  0.00     0.160 HD
ATOM     27  H   UNL     1       5.674  -5.324   1.858  1.00  0.00     0.160 HD
ENDBRANCH  22  23
ENDBRANCH  15  17
ENDBRANCH   7  15
ENDBRANCH   4   7
ENDBRANCH   2   3
ENDBRANCH   1   2
BRANCH   1  28
ATOM     28  C   UNL     1      -2.770  -3.001   0.720  1.00  0.00     0.023 C 
BRANCH  28  29
ATOM     29  C   UNL     1      -3.406  -3.899  -0.338  1.00  0.00     0.116 C 
BRANCH  29  30
ATOM     30  N   UNL     1      -2.778  -5.208  -0.421  1.00  0.00    -0.352 N 
ATOM     31  C   UNL     1      -3.363  -6.451  -0.449  1.00  0.00     0.251 C 
ATOM     32  H   UNL     1      -1.794  -5.203  -0.464  1.00  0.00     0.163 HD
ATOM     33  O   UNL     1      -2.664  -7.458  -0.381  1.00  0.00    -0.269 OA
BRANCH  31  34
ATOM     34  C   UNL     1      -4.835  -6.571  -0.529  1.00  0.00     0.039 A 
ATOM     35  C   UNL     1      -5.488  -7.449   0.341  1.00  0.00     0.014 A 
ATOM     36  C   UNL     1      -5.570  -5.813  -1.444  1.00  0.00     0.014 A 
ATOM     37  C   UNL     1      -6.884  -7.514   0.338  1.00  0.00     0.010 A 
ATOM     38  C   UNL     1      -6.962  -5.828  -1.397  1.00  0.00     0.010 A 
ATOM     39  C   UNL     1      -7.634  -6.677  -0.504  1.00  0.00    -0.014 A 
BRANCH  39  40
ATOM     40  C   UNL     1      -9.120  -6.668  -0.457  1.00  0.00     0.031 A 
ATOM     41  C   UNL     1      -9.921  -7.090  -1.659  1.00  0.00     0.074 A 
ATOM     42  C   UNL     1      -9.749  -6.218   0.648  1.00  0.00     0.049 A 
ATOM     43  N   UNL     1     -11.219  -7.097  -1.824  1.00  0.00    -0.248 NA
ATOM     44  C   UNL     1      -9.165  -7.542  -2.839  1.00  0.00     0.031 C 
ATOM     45  C   UNL     1      -9.088  -5.745   1.867  1.00  0.00     0.029 A 
ATOM     46  N   UNL     1     -11.087  -6.081   0.925  1.00  0.00    -0.354 N 
ATOM     47  C   UNL     1     -11.434  -7.533  -3.126  1.00  0.00     0.074 A 
ATOM     48  C   UNL     1     -10.133  -7.737  -3.723  1.00  0.00     0.031 C 
ATOM     49  C   UNL     1     -10.021  -5.398   2.768  1.00  0.00     0.029 A 
ATOM     50  C   UNL     1     -11.344  -5.581   2.180  1.00  0.00     0.049 A 
ATOM     51  H   UNL     1     -11.796  -6.318   0.284  1.00  0.00     0.167 HD
ATOM     52  C   UNL     1     -12.609  -7.760  -3.762  1.00  0.00     0.031 A 
ATOM     53  C   UNL     1     -12.512  -5.295   2.789  1.00  0.00     0.031 A 
ATOM     54  C   UNL     1     -13.902  -7.569  -3.162  1.00  0.00     0.049 A 
ATOM     55  C   UNL     1     -13.802  -5.543   2.055  1.00  0.00     0.074 A 
ATOM     56  C   UNL     1     -15.149  -7.830  -3.704  1.00  0.00     0.029 A 
ATOM     57  N   UNL     1     -14.119  -7.065  -1.888  1.00  0.00    -0.354 N 
ATOM     58  N   UNL     1     -13.985  -6.023   0.848  1.00  0.00    -0.248 NA
ATOM     59  C   UNL     1     -15.045  -5.220   2.771  1.00  0.00     0.031 C 
ATOM     60  C   UNL     1     -16.120  -7.432  -2.780  1.00  0.00     0.029 A 
ATOM     61  C   UNL     1     -15.478  -6.982  -1.637  1.00  0.00     0.049 A 
ATOM     62  H   UNL     1     -13.411  -6.805  -1.255  1.00  0.00     0.167 HD
ATOM     63  C   UNL     1     -15.363  -6.088   0.672  1.00  0.00     0.074 A 
ATOM     64  C   UNL     1     -15.965  -5.613   1.901  1.00  0.00     0.031 C 
ATOM     65  C   UNL     1     -16.065  -6.508  -0.409  1.00  0.00     0.031 A 
BRANCH  52  66
ATOM     66  C   UNL     1     -12.549  -8.235  -5.191  1.00  0.00    -0.014 A 
ATOM     67  C   UNL     1     -12.092  -9.526  -5.512  1.00  0.00     0.010 A 
ATOM     68  C   UNL     1     -13.003  -7.395  -6.225  1.00  0.00     0.010 A 
ATOM     69  C   UNL     1     -12.052  -9.954  -6.841  1.00  0.00     0.020 A 
ATOM     70  C   UNL     1     -12.993  -7.830  -7.554  1.00  0.00     0.020 A 
ATOM     71  C   UNL     1     -12.502  -9.101  -7.855  1.00  0.00     0.054 A 
BRANCH  71  72
ATOM     72  S   UNL     1     -12.463  -9.694  -9.569  1.00  0.00     0.124 S 
ATOM     73  O   UNL     1     -11.031  -9.674  -9.861  1.00  0.00    -0.237 OA
ATOM     74  O   UNL     1     -13.063 -11.021  -9.462  1.00  0.00    -0.237 OA
ATOM     75  O   UNL     1     -13.259  -8.709 -10.295  1.00  0.00    -0.744 OA
ENDBRANCH  71  72
ENDBRANCH  52  66
BRANCH  53  76
ATOM     76  C   UNL     1     -12.517  -4.755   4.177  1.00  0.00    -0.014 A 
ATOM     77  C   UNL     1     -12.986  -5.539   5.246  1.00  0.00     0.010 A 
ATOM     78  C   UNL     1     -12.052  -3.453   4.439  1.00  0.00     0.010 A 
ATOM     79  C   UNL     1     -13.010  -5.025   6.546  1.00  0.00     0.020 A 
ATOM     80  C   UNL     1     -12.047  -2.946   5.741  1.00  0.00     0.020 A 
ATOM     81  C   UNL     1     -12.539  -3.732   6.785  1.00  0.00     0.054 A 
BRANCH  81  82
ATOM     82  S   UNL     1     -12.540  -3.102   8.487  1.00  0.00     0.124 S 
ATOM     83  O   UNL     1     -13.959  -2.857   8.719  1.00  0.00    -0.237 OA
ATOM     84  O   UNL     1     -11.957  -4.213   9.235  1.00  0.00    -0.237 OA
ATOM     85  O   UNL     1     -11.702  -1.907   8.409  1.00  0.00    -0.744 OA
ENDBRANCH  81  82
ENDBRANCH  53  76
BRANCH  65  86
ATOM     86  C   UNL     1     -17.568  -6.511  -0.303  1.00  0.00    -0.014 A 
ATOM     87  C   UNL     1     -18.303  -5.313  -0.301  1.00  0.00     0.010 A 
ATOM     88  C   UNL     1     -18.256  -7.738  -0.262  1.00  0.00     0.010 A 
ATOM     89  C   UNL     1     -19.699  -5.341  -0.228  1.00  0.00     0.020 A 
ATOM     90  C   UNL     1     -19.651  -7.771  -0.219  1.00  0.00     0.020 A 
ATOM     91  C   UNL     1     -20.364  -6.571  -0.188  1.00  0.00     0.054 A 
BRANCH  91  92
ATOM     92  S   UNL     1     -22.177  -6.582  -0.139  1.00  0.00     0.124 S 
ATOM     93  O   UNL     1     -22.447  -6.153   1.230  1.00  0.00    -0.237 OA
ATOM     94  O   UNL     1     -22.531  -5.620  -1.180  1.00  0.00    -0.237 OA
ATOM     95  O   UNL     1     -22.524  -7.969  -0.438  1.00  0.00    -0.744 OA
ENDBRANCH  91  92
ENDBRANCH  65  86
ENDBRANCH  39  40
ENDBRANCH  31  34
ENDBRANCH  29  30
ENDBRANCH  28  29
ENDBRANCH   1  28
TORSDOF 18
