REMARK SMILES CCOc1ccc(CNC(=O)Cc2c(C(=O)NCCCCNC(=O)c3ccc(-c4c5nc(c(-c6ccc(S(=O)(=O)[O-])cc6)c6ccc([nH]6)c(-c6ccc(S(=O)(=O)[O-])cc6)c6nc(c(-c7ccc(S(=O)(=O)[O-])cc7)c7ccc4[nH]7)C=C6)C=C5)cc3)c(C)cn2C)cc1
REMARK SMILES IDX 18 1 17 2 15 3 16 4 14 6 13 7 88 8 85 9 87 10 89 11 86 12
REMARK SMILES IDX 12 13 10 14 9 15 11 17 8 18 7 19 4 20 5 21 91 22 6 23 90 24
REMARK SMILES IDX 3 25 2 26 1 27 19 28 20 29 21 30 22 31 23 32 24 34 25 35
REMARK SMILES IDX 26 36 84 37 27 38 83 39 28 40 29 41 30 42 77 43 31 44 82 45
REMARK SMILES IDX 76 46 78 47 32 48 81 49 75 50 74 51 33 53 63 54 44 55 62 56
REMARK SMILES IDX 45 57 48 58 61 59 79 60 46 61 47 62 60 64 80 65 49 66 34 67
REMARK SMILES IDX 35 68 43 69 36 70 42 71 37 72 38 73 39 74 40 75 41 76 64 77
REMARK SMILES IDX 65 78 73 79 66 80 72 81 67 82 68 83 69 84 70 85 71 86 50 87
REMARK SMILES IDX 51 88 59 89 52 90 58 91 53 92 54 93 55 94 56 95 57 96
REMARK H PARENT 17 5 9 16 22 33 78 52 48 63
REMARK Flexibility Score: inf
ROOT
ATOM      1  C   UNL     1       6.664  -2.141   5.714  1.00  0.00     0.116 C 
ENDROOT
BRANCH   1   2
ATOM      2  N   UNL     1       7.556  -1.138   5.206  1.00  0.00    -0.352 N 
ATOM      3  C   UNL     1       7.609   0.225   5.210  1.00  0.00     0.253 C 
ATOM      4  O   UNL     1       8.643   0.631   4.664  1.00  0.00    -0.269 OA
ATOM      5  H   UNL     1       8.325  -1.534   4.734  1.00  0.00     0.163 HD
BRANCH   3   6
ATOM      6  C   UNL     1       6.600   1.179   5.752  1.00  0.00     0.064 A 
ATOM      7  C   UNL     1       6.800   2.583   5.628  1.00  0.00     0.040 A 
ATOM      8  N   UNL     1       5.776   3.236   6.279  1.00  0.00    -0.353 N 
ATOM      9  C   UNL     1       5.300   1.055   6.397  1.00  0.00    -0.020 A 
ATOM     10  C   UNL     1       4.886   2.326   6.746  1.00  0.00     0.089 A 
ATOM     11  C   UNL     1       5.554   4.666   6.364  1.00  0.00     0.149 C 
ATOM     12  C   UNL     1       4.412  -0.098   6.699  1.00  0.00     0.047 C 
BRANCH   7  13
ATOM     13  C   UNL     1       7.903   3.375   4.946  1.00  0.00     0.154 C 
BRANCH  13  14
ATOM     14  C   UNL     1       7.383   4.301   3.852  1.00  0.00     0.226 C 
ATOM     15  N   UNL     1       6.789   3.815   2.726  1.00  0.00    -0.352 N 
ATOM     16  H   UNL     1       6.470   4.498   2.093  1.00  0.00     0.163 HD
ATOM     17  O   UNL     1       7.491   5.528   3.954  1.00  0.00    -0.275 OA
BRANCH  15  18
ATOM     18  C   UNL     1       6.558   2.445   2.323  1.00  0.00     0.151 C 
BRANCH  18  19
ATOM     19  C   UNL     1       5.088   2.152   2.130  1.00  0.00    -0.029 A 
ATOM     20  C   UNL     1       2.359   1.534   1.795  1.00  0.00     0.119 A 
ATOM     21  C   UNL     1       2.798   2.103   2.982  1.00  0.00     0.047 A 
ATOM     22  C   UNL     1       3.267   1.301   0.765  1.00  0.00     0.047 A 
ATOM     23  C   UNL     1       4.151   2.413   3.139  1.00  0.00     0.009 A 
ATOM     24  C   UNL     1       4.626   1.584   0.939  1.00  0.00     0.009 A 
BRANCH  20  25
ATOM     25  O   UNL     1       1.013   1.359   1.637  1.00  0.00    -0.494 OA
BRANCH  25  26
ATOM     26  C   UNL     1       0.617  -0.004   1.455  1.00  0.00     0.226 C 
ATOM     27  C   UNL     1       0.603  -0.396  -0.013  1.00  0.00     0.049 C 
ENDBRANCH  25  26
ENDBRANCH  20  25
ENDBRANCH  18  19
ENDBRANCH  15  18
ENDBRANCH  13  14
ENDBRANCH   7  13
ENDBRANCH   3   6
ENDBRANCH   1   2
BRANCH   1  28
ATOM     28  C   UNL     1       5.794  -2.751   4.612  1.00  0.00     0.023 C 
BRANCH  28  29
ATOM     29  C   UNL     1       6.426  -3.942   3.872  1.00  0.00     0.023 C 
BRANCH  29  30
ATOM     30  C   UNL     1       6.758  -5.142   4.754  1.00  0.00     0.116 C 
BRANCH  30  31
ATOM     31  N   UNL     1       5.588  -5.704   5.428  1.00  0.00    -0.352 N 
ATOM     32  C   UNL     1       5.573  -6.673   6.420  1.00  0.00     0.251 C 
ATOM     33  H   UNL     1       4.712  -5.354   5.146  1.00  0.00     0.163 HD
ATOM     34  O   UNL     1       4.587  -7.360   6.617  1.00  0.00    -0.269 OA
BRANCH  32  35
ATOM     35  C   UNL     1       6.782  -6.825   7.251  1.00  0.00     0.039 A 
ATOM     36  C   UNL     1       7.320  -8.077   7.559  1.00  0.00     0.014 A 
ATOM     37  C   UNL     1       7.401  -5.653   7.677  1.00  0.00     0.014 A 
ATOM     38  C   UNL     1       8.540  -8.131   8.233  1.00  0.00     0.010 A 
ATOM     39  C   UNL     1       8.667  -5.705   8.199  1.00  0.00     0.010 A 
ATOM     40  C   UNL     1       9.217  -6.937   8.532  1.00  0.00    -0.014 A 
BRANCH  40  41
ATOM     41  C   UNL     1      10.571  -6.945   9.075  1.00  0.00     0.031 A 
ATOM     42  C   UNL     1      11.558  -7.675   8.234  1.00  0.00     0.074 A 
ATOM     43  C   UNL     1      10.947  -6.157  10.108  1.00  0.00     0.049 A 
ATOM     44  N   UNL     1      12.122  -8.806   8.493  1.00  0.00    -0.248 NA
ATOM     45  C   UNL     1      11.827  -7.179   6.872  1.00  0.00     0.031 C 
ATOM     46  C   UNL     1      10.148  -5.148  10.817  1.00  0.00     0.029 A 
ATOM     47  N   UNL     1      12.176  -5.997  10.667  1.00  0.00    -0.354 N 
ATOM     48  C   UNL     1      13.012  -9.037   7.449  1.00  0.00     0.074 A 
ATOM     49  C   UNL     1      12.629  -8.134   6.394  1.00  0.00     0.031 C 
ATOM     50  C   UNL     1      10.966  -4.324  11.509  1.00  0.00     0.029 A 
ATOM     51  C   UNL     1      12.319  -4.846  11.439  1.00  0.00     0.049 A 
ATOM     52  H   UNL     1      12.907  -6.643  10.536  1.00  0.00     0.167 HD
ATOM     53  C   UNL     1      14.159  -9.747   7.643  1.00  0.00     0.031 A 
ATOM     54  C   UNL     1      13.471  -4.342  11.954  1.00  0.00     0.031 A 
ATOM     55  C   UNL     1      14.146 -10.425   8.916  1.00  0.00     0.049 A 
ATOM     56  C   UNL     1      14.449  -5.458  11.983  1.00  0.00     0.074 A 
ATOM     57  C   UNL     1      13.323 -11.359   9.515  1.00  0.00     0.029 A 
ATOM     58  N   UNL     1      14.855  -9.832   9.936  1.00  0.00    -0.354 N 
ATOM     59  N   UNL     1      14.300  -6.514  12.732  1.00  0.00    -0.248 NA
ATOM     60  C   UNL     1      15.323  -5.627  10.834  1.00  0.00     0.031 C 
ATOM     61  C   UNL     1      13.222 -10.936  10.873  1.00  0.00     0.029 A 
ATOM     62  C   UNL     1      14.061  -9.834  11.053  1.00  0.00     0.049 A 
ATOM     63  H   UNL     1      15.768  -9.472   9.875  1.00  0.00     0.167 HD
ATOM     64  C   UNL     1      14.666  -7.576  11.918  1.00  0.00     0.074 A 
ATOM     65  C   UNL     1      15.377  -6.962  10.795  1.00  0.00     0.031 C 
ATOM     66  C   UNL     1      14.110  -8.814  12.081  1.00  0.00     0.031 A 
BRANCH  53  67
ATOM     67  C   UNL     1      15.453  -9.484   6.907  1.00  0.00    -0.014 A 
ATOM     68  C   UNL     1      16.566 -10.306   7.188  1.00  0.00     0.010 A 
ATOM     69  C   UNL     1      15.701  -8.306   6.175  1.00  0.00     0.010 A 
ATOM     70  C   UNL     1      17.864  -9.925   6.824  1.00  0.00     0.020 A 
ATOM     71  C   UNL     1      16.986  -7.938   5.768  1.00  0.00     0.020 A 
ATOM     72  C   UNL     1      18.064  -8.735   6.126  1.00  0.00     0.054 A 
BRANCH  72  73
ATOM     73  S   UNL     1      19.751  -8.209   5.739  1.00  0.00     0.124 S 
ATOM     74  O   UNL     1      20.299  -7.958   7.069  1.00  0.00    -0.237 OA
ATOM     75  O   UNL     1      20.284  -9.376   5.042  1.00  0.00    -0.237 OA
ATOM     76  O   UNL     1      19.557  -7.026   4.905  1.00  0.00    -0.744 OA
ENDBRANCH  72  73
ENDBRANCH  53  67
BRANCH  54  77
ATOM     77  C   UNL     1      13.883  -2.918  12.082  1.00  0.00    -0.014 A 
ATOM     78  C   UNL     1      15.041  -2.557  12.800  1.00  0.00     0.010 A 
ATOM     79  C   UNL     1      13.311  -1.942  11.240  1.00  0.00     0.010 A 
ATOM     80  C   UNL     1      15.649  -1.300  12.618  1.00  0.00     0.020 A 
ATOM     81  C   UNL     1      13.908  -0.687  11.057  1.00  0.00     0.020 A 
ATOM     82  C   UNL     1      15.091  -0.382  11.724  1.00  0.00     0.054 A 
BRANCH  82  83
ATOM     83  S   UNL     1      15.992   1.149  11.328  1.00  0.00     0.124 S 
ATOM     84  O   UNL     1      15.835   1.929  12.552  1.00  0.00    -0.237 OA
ATOM     85  O   UNL     1      17.342   0.664  11.056  1.00  0.00    -0.237 OA
ATOM     86  O   UNL     1      15.280   1.673  10.163  1.00  0.00    -0.744 OA
ENDBRANCH  82  83
ENDBRANCH  54  77
BRANCH  66  87
ATOM     87  C   UNL     1      13.324  -9.091  13.344  1.00  0.00    -0.014 A 
ATOM     88  C   UNL     1      12.178  -8.377  13.749  1.00  0.00     0.010 A 
ATOM     89  C   UNL     1      13.707 -10.216  14.095  1.00  0.00     0.010 A 
ATOM     90  C   UNL     1      11.469  -8.752  14.902  1.00  0.00     0.020 A 
ATOM     91  C   UNL     1      12.995 -10.607  15.229  1.00  0.00     0.020 A 
ATOM     92  C   UNL     1      11.890  -9.863  15.640  1.00  0.00     0.054 A 
BRANCH  92  93
ATOM     93  S   UNL     1      10.986 -10.345  17.138  1.00  0.00     0.124 S 
ATOM     94  O   UNL     1      11.256  -9.231  18.043  1.00  0.00    -0.237 OA
ATOM     95  O   UNL     1       9.608 -10.454  16.666  1.00  0.00    -0.237 OA
ATOM     96  O   UNL     1      11.602 -11.615  17.523  1.00  0.00    -0.744 OA
ENDBRANCH  92  93
ENDBRANCH  66  87
ENDBRANCH  40  41
ENDBRANCH  32  35
ENDBRANCH  30  31
ENDBRANCH  29  30
ENDBRANCH  28  29
ENDBRANCH   1  28
TORSDOF 20
