REMARK SMILES O=C(CN1C(=O)/C(=C/c2cccs2)SC1=S)Nc1ccc(O)cc1C(=O)NCCCCNC(=O)c1ccc(-c2c3nc(c(-c4ccc(S(=O)(=O)[O-])cc4)c4ccc([nH]4)c(-c4ccc(S(=O)(=O)[O-])cc4)c4nc(c(-c5ccc(S(=O)(=O)[O-])cc5)c5ccc2[nH]5)C=C4)C=C3)cc1
REMARK SMILES IDX 29 1 28 2 27 3 25 4 26 5 24 7 18 8 19 9 20 10 23 11 21 12
REMARK SMILES IDX 17 13 1 14 2 15 3 17 4 18 5 19 15 20 6 21 7 22 14 23 16 24
REMARK SMILES IDX 8 25 9 26 10 27 13 28 11 29 12 30 22 31 30 33 31 34 32 35
REMARK SMILES IDX 33 36 34 38 35 39 36 40 94 41 37 42 93 43 38 44 39 45 40 46
REMARK SMILES IDX 87 47 41 48 92 49 86 50 88 51 42 52 91 53 85 54 84 55 43 57
REMARK SMILES IDX 73 58 54 59 72 60 55 61 58 62 71 63 89 64 56 65 57 66 70 68
REMARK SMILES IDX 90 69 59 70 44 71 45 72 53 73 46 74 52 75 47 76 48 77 49 78
REMARK SMILES IDX 50 79 51 80 74 81 75 82 83 83 76 84 82 85 77 86 78 87 79 88
REMARK SMILES IDX 80 89 81 90 60 91 61 92 69 93 62 94 68 95 63 96 64 97 65 98
REMARK SMILES IDX 66 99 67 100
REMARK H PARENT 27 6 17 16 22 32 32 37 88 56 58 67
REMARK Flexibility Score: inf
ROOT
ATOM      1  C   UNL     1       5.046   1.306  -0.131  1.00  0.00     0.023 C 
ENDROOT
BRANCH   1   2
ATOM      2  C   UNL     1       5.191   1.568   1.366  1.00  0.00     0.116 C 
BRANCH   2   3
ATOM      3  N   UNL     1       4.598   2.855   1.644  1.00  0.00    -0.352 N 
ATOM      4  C   UNL     1       3.322   3.232   1.973  1.00  0.00     0.253 C 
ATOM      5  O   UNL     1       3.068   4.437   1.905  1.00  0.00    -0.269 OA
ATOM      6  H   UNL     1       5.231   3.606   1.586  1.00  0.00     0.163 HD
BRANCH   4   7
ATOM      7  C   UNL     1       2.281   2.326   2.542  1.00  0.00     0.067 A 
ATOM      8  C   UNL     1       1.633   1.225   1.930  1.00  0.00     0.054 A 
ATOM      9  C   UNL     1       0.543   0.627   2.586  1.00  0.00     0.031 A 
ATOM     10  C   UNL     1       0.041   1.144   3.780  1.00  0.00     0.048 A 
ATOM     11  C   UNL     1       1.754   2.835   3.747  1.00  0.00     0.062 A 
ATOM     12  C   UNL     1       0.639   2.261   4.338  1.00  0.00     0.116 A 
BRANCH   8  13
ATOM     13  N   UNL     1       2.033   0.714   0.680  1.00  0.00    -0.324 N 
ATOM     14  O   UNL     1       0.045  -0.120  -0.201  1.00  0.00    -0.273 OA
ATOM     15  C   UNL     1       1.258   0.060  -0.270  1.00  0.00     0.244 C 
ATOM     16  H   UNL     1       2.982   0.836   0.450  1.00  0.00     0.170 HD
BRANCH  15  17
ATOM     17  C   UNL     1       2.069  -0.481  -1.469  1.00  0.00     0.227 C 
BRANCH  17  18
ATOM     18  N   UNL     1       2.572   0.400  -2.536  1.00  0.00    -0.283 N 
ATOM     19  C   UNL     1       2.497   1.775  -2.446  1.00  0.00     0.266 C 
ATOM     20  C   UNL     1       3.254  -0.090  -3.637  1.00  0.00     0.148 C 
ATOM     21  O   UNL     1       1.895   2.404  -1.587  1.00  0.00    -0.268 OA
ATOM     22  C   UNL     1       3.370   2.419  -3.468  1.00  0.00     0.081 C 
ATOM     23  S   UNL     1       3.928   1.237  -4.574  1.00  0.00    -0.054 SA
ATOM     24  S   UNL     1       3.474  -1.685  -4.073  1.00  0.00    -0.052 S 
ATOM     25  C   UNL     1       3.753   3.692  -3.293  1.00  0.00     0.040 C 
BRANCH  25  26
ATOM     26  C   UNL     1       4.791   4.357  -4.011  1.00  0.00     0.028 A 
ATOM     27  C   UNL     1       5.128   4.377  -5.354  1.00  0.00     0.020 A 
ATOM     28  S   UNL     1       5.876   5.364  -3.114  1.00  0.00    -0.144 S 
ATOM     29  C   UNL     1       6.268   5.191  -5.635  1.00  0.00     0.012 A 
ATOM     30  C   UNL     1       6.776   5.777  -4.501  1.00  0.00     0.065 A 
ENDBRANCH  25  26
ENDBRANCH  17  18
ENDBRANCH  15  17
ENDBRANCH   8  13
BRANCH  12  31
ATOM     31  O   UNL     1       0.135   2.849   5.458  1.00  0.00    -0.508 OA
ATOM     32  H   UNL     1      -0.618   2.485   5.881  1.00  0.00     0.293 HD
ENDBRANCH  12  31
ENDBRANCH   4   7
ENDBRANCH   2   3
ENDBRANCH   1   2
BRANCH   1  33
ATOM     33  C   UNL     1       6.183   1.770  -1.010  1.00  0.00     0.023 C 
BRANCH  33  34
ATOM     34  C   UNL     1       7.357   0.825  -0.998  1.00  0.00     0.116 C 
BRANCH  34  35
ATOM     35  N   UNL     1       7.014  -0.520  -1.465  1.00  0.00    -0.352 N 
ATOM     36  C   UNL     1       7.527  -1.241  -2.520  1.00  0.00     0.251 C 
ATOM     37  H   UNL     1       6.311  -0.976  -0.949  1.00  0.00     0.163 HD
ATOM     38  O   UNL     1       7.043  -2.326  -2.821  1.00  0.00    -0.269 OA
BRANCH  36  39
ATOM     39  C   UNL     1       8.654  -0.676  -3.282  1.00  0.00     0.039 A 
ATOM     40  C   UNL     1       8.645  -0.694  -4.677  1.00  0.00     0.014 A 
ATOM     41  C   UNL     1       9.687  -0.051  -2.587  1.00  0.00     0.014 A 
ATOM     42  C   UNL     1       9.639  -0.001  -5.373  1.00  0.00     0.010 A 
ATOM     43  C   UNL     1      10.560   0.770  -3.270  1.00  0.00     0.010 A 
ATOM     44  C   UNL     1      10.576   0.773  -4.671  1.00  0.00    -0.014 A 
BRANCH  44  45
ATOM     45  C   UNL     1      11.659   1.542  -5.330  1.00  0.00     0.031 A 
ATOM     46  C   UNL     1      13.085   1.257  -4.928  1.00  0.00     0.074 A 
ATOM     47  C   UNL     1      11.372   2.555  -6.169  1.00  0.00     0.049 A 
ATOM     48  N   UNL     1      14.168   1.947  -5.166  1.00  0.00    -0.248 NA
ATOM     49  C   UNL     1      13.305   0.071  -4.077  1.00  0.00     0.031 C 
ATOM     50  C   UNL     1      10.033   2.953  -6.609  1.00  0.00     0.029 A 
ATOM     51  N   UNL     1      12.205   3.448  -6.792  1.00  0.00    -0.354 N 
ATOM     52  C   UNL     1      15.176   1.314  -4.447  1.00  0.00     0.074 A 
ATOM     53  C   UNL     1      14.563   0.237  -3.706  1.00  0.00     0.031 C 
ATOM     54  C   UNL     1      10.140   3.982  -7.466  1.00  0.00     0.029 A 
ATOM     55  C   UNL     1      11.546   4.354  -7.588  1.00  0.00     0.049 A 
ATOM     56  H   UNL     1      13.183   3.441  -6.681  1.00  0.00     0.167 HD
ATOM     57  C   UNL     1      16.503   1.582  -4.429  1.00  0.00     0.031 A 
ATOM     58  C   UNL     1      12.027   5.374  -8.325  1.00  0.00     0.031 A 
ATOM     59  C   UNL     1      17.109   2.615  -5.221  1.00  0.00     0.049 A 
ATOM     60  C   UNL     1      13.508   5.638  -8.321  1.00  0.00     0.074 A 
ATOM     61  C   UNL     1      18.448   2.936  -5.341  1.00  0.00     0.029 A 
ATOM     62  N   UNL     1      16.409   3.481  -6.048  1.00  0.00    -0.354 N 
ATOM     63  N   UNL     1      14.455   5.016  -7.657  1.00  0.00    -0.248 NA
ATOM     64  C   UNL     1      13.987   6.737  -9.169  1.00  0.00     0.031 C 
ATOM     65  C   UNL     1      18.555   4.021  -6.217  1.00  0.00     0.029 A 
ATOM     66  C   UNL     1      17.287   4.341  -6.681  1.00  0.00     0.049 A 
ATOM     67  H   UNL     1      15.432   3.482  -6.168  1.00  0.00     0.167 HD
ATOM     68  C   UNL     1      15.646   5.627  -8.035  1.00  0.00     0.074 A 
ATOM     69  C   UNL     1      15.299   6.662  -8.988  1.00  0.00     0.031 C 
ATOM     70  C   UNL     1      16.912   5.355  -7.634  1.00  0.00     0.031 A 
BRANCH  57  71
ATOM     71  C   UNL     1      17.367   0.734  -3.531  1.00  0.00    -0.014 A 
ATOM     72  C   UNL     1      17.547  -0.640  -3.779  1.00  0.00     0.010 A 
ATOM     73  C   UNL     1      17.991   1.312  -2.412  1.00  0.00     0.010 A 
ATOM     74  C   UNL     1      18.271  -1.433  -2.886  1.00  0.00     0.020 A 
ATOM     75  C   UNL     1      18.750   0.529  -1.536  1.00  0.00     0.020 A 
ATOM     76  C   UNL     1      18.861  -0.844  -1.764  1.00  0.00     0.054 A 
BRANCH  76  77
ATOM     77  S   UNL     1      19.785  -1.898  -0.614  1.00  0.00     0.124 S 
ATOM     78  O   UNL     1      18.708  -2.591   0.089  1.00  0.00    -0.237 OA
ATOM     79  O   UNL     1      20.585  -2.728  -1.511  1.00  0.00    -0.237 OA
ATOM     80  O   UNL     1      20.545  -0.946   0.193  1.00  0.00    -0.744 OA
ENDBRANCH  76  77
ENDBRANCH  57  71
BRANCH  58  81
ATOM     81  C   UNL     1      11.101   6.183  -9.162  1.00  0.00    -0.014 A 
ATOM     82  C   UNL     1      11.108   6.033 -10.560  1.00  0.00     0.010 A 
ATOM     83  C   UNL     1      10.187   7.076  -8.575  1.00  0.00     0.010 A 
ATOM     84  C   UNL     1      10.225   6.767 -11.358  1.00  0.00     0.020 A 
ATOM     85  C   UNL     1       9.284   7.793  -9.367  1.00  0.00     0.020 A 
ATOM     86  C   UNL     1       9.315   7.639 -10.755  1.00  0.00     0.054 A 
BRANCH  86  87
ATOM     87  S   UNL     1       8.133   8.527 -11.807  1.00  0.00     0.124 S 
ATOM     88  O   UNL     1       8.986   9.521 -12.450  1.00  0.00    -0.237 OA
ATOM     89  O   UNL     1       7.628   7.468 -12.676  1.00  0.00    -0.237 OA
ATOM     90  O   UNL     1       7.161   9.057 -10.853  1.00  0.00    -0.744 OA
ENDBRANCH  86  87
ENDBRANCH  58  81
BRANCH  70  91
ATOM     91  C   UNL     1      18.023   6.153  -8.259  1.00  0.00    -0.014 A 
ATOM     92  C   UNL     1      18.251   7.492  -7.900  1.00  0.00     0.010 A 
ATOM     93  C   UNL     1      18.899   5.521  -9.162  1.00  0.00     0.010 A 
ATOM     94  C   UNL     1      19.324   8.194  -8.453  1.00  0.00     0.020 A 
ATOM     95  C   UNL     1      19.988   6.212  -9.695  1.00  0.00     0.020 A 
ATOM     96  C   UNL     1      20.188   7.549  -9.344  1.00  0.00     0.054 A 
BRANCH  96  97
ATOM     97  S   UNL     1      21.609   8.464 -10.000  1.00  0.00     0.124 S 
ATOM     98  O   UNL     1      20.974   9.362 -10.961  1.00  0.00    -0.237 OA
ATOM     99  O   UNL     1      22.155   9.106  -8.806  1.00  0.00    -0.237 OA
ATOM    100  O   UNL     1      22.453   7.423 -10.582  1.00  0.00    -0.744 OA
ENDBRANCH  96  97
ENDBRANCH  70  91
ENDBRANCH  44  45
ENDBRANCH  36  39
ENDBRANCH  34  35
ENDBRANCH  33  34
ENDBRANCH   1  33
TORSDOF 19
