REMARK SMILES Cc1cc(CNC(=O)C[C@H](C)CC(=O)NCCCCNC(=O)c2ccc(-c3c4nc(c(-c5ccc(S(=O)(=O)[O-])cc5)c5ccc([nH]5)c(-c5ccc(S(=O)(=O)[O-])cc5)c5nc(c(-c6ccc(S(=O)(=O)[O-])cc6)c6ccc3[nH]6)C=C5)C=C4)cc2)cc(C)c1F
REMARK SMILES IDX 16 1 15 2 13 3 14 4 12 6 10 7 11 8 9 9 7 10 6 11 8 13 5 14
REMARK SMILES IDX 4 15 1 16 2 17 3 18 86 19 84 20 87 21 83 22 85 23 17 24
REMARK SMILES IDX 18 25 19 26 20 27 21 28 22 30 23 31 24 32 82 33 25 34 81 35
REMARK SMILES IDX 26 36 27 37 28 38 75 39 29 40 80 41 74 42 76 43 30 44 79 45
REMARK SMILES IDX 73 46 72 47 31 49 61 50 42 51 60 52 43 53 46 54 59 55 77 56
REMARK SMILES IDX 44 57 45 58 58 60 78 61 47 62 32 63 33 64 41 65 34 66 40 67
REMARK SMILES IDX 35 68 36 69 37 70 38 71 39 72 62 73 63 74 71 75 64 76 70 77
REMARK SMILES IDX 65 78 66 79 67 80 68 81 69 82 48 83 49 84 57 85 50 86 56 87
REMARK SMILES IDX 51 88 52 89 53 90 54 91 55 92
REMARK H PARENT 15 5 6 12 20 29 76 48 46 59
REMARK Flexibility Score: inf
ROOT
ATOM      1  C   UNL     1      -3.281  -4.988  -4.794  1.00  0.00     0.116 C 
ENDROOT
BRANCH   1   2
ATOM      2  N   UNL     1      -3.266  -5.185  -3.358  1.00  0.00    -0.356 N 
ATOM      3  C   UNL     1      -3.158  -4.271  -2.351  1.00  0.00     0.220 C 
ATOM      4  O   UNL     1      -3.152  -4.671  -1.186  1.00  0.00    -0.275 OA
ATOM      5  H   UNL     1      -3.345  -6.121  -3.064  1.00  0.00     0.163 HD
BRANCH   3   6
ATOM      6  C   UNL     1      -3.024  -2.790  -2.667  1.00  0.00     0.103 C 
BRANCH   6   7
ATOM      7  C   UNL     1      -1.594  -2.263  -2.500  1.00  0.00     0.004 C 
ATOM      8  C   UNL     1      -0.497  -3.049  -3.219  1.00  0.00     0.009 C 
BRANCH   7   9
ATOM      9  C   UNL     1      -1.424  -0.753  -2.741  1.00  0.00     0.103 C 
BRANCH   9  10
ATOM     10  C   UNL     1      -2.282   0.117  -3.652  1.00  0.00     0.220 C 
ATOM     11  N   UNL     1      -2.534  -0.103  -4.958  1.00  0.00    -0.352 N 
ATOM     12  H   UNL     1      -2.854   0.704  -5.422  1.00  0.00     0.163 HD
ATOM     13  O   UNL     1      -2.694   1.200  -3.214  1.00  0.00    -0.275 OA
BRANCH  11  14
ATOM     14  C   UNL     1      -2.444  -1.249  -5.836  1.00  0.00     0.151 C 
BRANCH  14  15
ATOM     15  C   UNL     1      -3.793  -1.557  -6.466  1.00  0.00    -0.028 A 
ATOM     16  C   UNL     1      -7.496  -1.517  -5.510  1.00  0.00     0.047 C 
ATOM     17  C   UNL     1      -6.232  -1.723  -6.289  1.00  0.00    -0.015 A 
ATOM     18  C   UNL     1      -4.989  -1.391  -5.738  1.00  0.00     0.012 A 
ATOM     19  C   UNL     1      -6.278  -2.205  -7.597  1.00  0.00     0.129 A 
ATOM     20  C   UNL     1      -5.114  -2.392  -8.347  1.00  0.00    -0.015 A 
ATOM     21  F   UNL     1      -7.471  -2.496  -8.140  1.00  0.00    -0.206 F 
ATOM     22  C   UNL     1      -3.872  -2.076  -7.768  1.00  0.00     0.012 A 
ATOM     23  C   UNL     1      -5.183  -2.928  -9.747  1.00  0.00     0.047 C 
ENDBRANCH  14  15
ENDBRANCH  11  14
ENDBRANCH   9  10
ENDBRANCH   7   9
ENDBRANCH   6   7
ENDBRANCH   3   6
ENDBRANCH   1   2
BRANCH   1  24
ATOM     24  C   UNL     1      -1.947  -5.355  -5.439  1.00  0.00     0.023 C 
BRANCH  24  25
ATOM     25  C   UNL     1      -1.776  -6.844  -5.715  1.00  0.00     0.023 C 
BRANCH  25  26
ATOM     26  C   UNL     1      -2.752  -7.401  -6.740  1.00  0.00     0.116 C 
BRANCH  26  27
ATOM     27  N   UNL     1      -2.646  -6.737  -8.033  1.00  0.00    -0.352 N 
ATOM     28  C   UNL     1      -2.490  -7.313  -9.272  1.00  0.00     0.251 C 
ATOM     29  H   UNL     1      -2.692  -5.754  -8.017  1.00  0.00     0.163 HD
ATOM     30  O   UNL     1      -2.265  -6.629 -10.258  1.00  0.00    -0.269 OA
BRANCH  28  31
ATOM     31  C   UNL     1      -2.585  -8.783  -9.366  1.00  0.00     0.039 A 
ATOM     32  C   UNL     1      -1.532  -9.503  -9.930  1.00  0.00     0.014 A 
ATOM     33  C   UNL     1      -3.690  -9.435  -8.809  1.00  0.00     0.014 A 
ATOM     34  C   UNL     1      -1.562 -10.897  -9.886  1.00  0.00     0.010 A 
ATOM     35  C   UNL     1      -3.682 -10.818  -8.702  1.00  0.00     0.010 A 
ATOM     36  C   UNL     1      -2.626 -11.560  -9.252  1.00  0.00    -0.014 A 
BRANCH  36  37
ATOM     37  C   UNL     1      -2.699 -13.037  -9.210  1.00  0.00     0.031 A 
ATOM     38  C   UNL     1      -3.782 -13.732  -9.987  1.00  0.00     0.074 A 
ATOM     39  C   UNL     1      -1.846 -13.741  -8.441  1.00  0.00     0.049 A 
ATOM     40  N   UNL     1      -4.082 -15.003 -10.022  1.00  0.00    -0.248 NA
ATOM     41  C   UNL     1      -4.658 -12.881 -10.811  1.00  0.00     0.031 C 
ATOM     42  C   UNL     1      -0.774 -13.172  -7.620  1.00  0.00     0.029 A 
ATOM     43  N   UNL     1      -1.752 -15.091  -8.223  1.00  0.00    -0.354 N 
ATOM     44  C   UNL     1      -5.190 -15.100 -10.854  1.00  0.00     0.074 A 
ATOM     45  C   UNL     1      -5.539 -13.760 -11.265  1.00  0.00     0.031 C 
ATOM     46  C   UNL     1      -0.113 -14.171  -7.011  1.00  0.00     0.029 A 
ATOM     47  C   UNL     1      -0.731 -15.444  -7.373  1.00  0.00     0.049 A 
ATOM     48  H   UNL     1      -2.359 -15.747  -8.636  1.00  0.00     0.167 HD
ATOM     49  C   UNL     1      -5.844 -16.211 -11.261  1.00  0.00     0.031 A 
ATOM     50  C   UNL     1      -0.336 -16.657  -6.939  1.00  0.00     0.031 A 
ATOM     51  C   UNL     1      -5.474 -17.544 -10.879  1.00  0.00     0.049 A 
ATOM     52  C   UNL     1      -1.068 -17.880  -7.417  1.00  0.00     0.074 A 
ATOM     53  C   UNL     1      -6.048 -18.740 -11.271  1.00  0.00     0.029 A 
ATOM     54  N   UNL     1      -4.423 -17.857 -10.032  1.00  0.00    -0.354 N 
ATOM     55  N   UNL     1      -2.104 -17.955  -8.218  1.00  0.00    -0.248 NA
ATOM     56  C   UNL     1      -0.575 -19.181  -6.943  1.00  0.00     0.031 C 
ATOM     57  C   UNL     1      -5.357 -19.778 -10.639  1.00  0.00     0.029 A 
ATOM     58  C   UNL     1      -4.331 -19.228  -9.886  1.00  0.00     0.049 A 
ATOM     59  H   UNL     1      -3.831 -17.201  -9.598  1.00  0.00     0.167 HD
ATOM     60  C   UNL     1      -2.371 -19.311  -8.364  1.00  0.00     0.074 A 
ATOM     61  C   UNL     1      -1.390 -20.021  -7.570  1.00  0.00     0.031 C 
ATOM     62  C   UNL     1      -3.340 -19.912  -9.097  1.00  0.00     0.031 A 
BRANCH  49  63
ATOM     63  C   UNL     1      -7.014 -16.026 -12.183  1.00  0.00    -0.014 A 
ATOM     64  C   UNL     1      -6.816 -15.689 -13.534  1.00  0.00     0.010 A 
ATOM     65  C   UNL     1      -8.321 -16.230 -11.707  1.00  0.00     0.010 A 
ATOM     66  C   UNL     1      -7.909 -15.534 -14.389  1.00  0.00     0.020 A 
ATOM     67  C   UNL     1      -9.416 -16.096 -12.566  1.00  0.00     0.020 A 
ATOM     68  C   UNL     1      -9.202 -15.742 -13.900  1.00  0.00     0.054 A 
BRANCH  68  69
ATOM     69  S   UNL     1     -10.595 -15.557 -15.045  1.00  0.00     0.124 S 
ATOM     70  O   UNL     1     -10.503 -14.145 -15.409  1.00  0.00    -0.237 OA
ATOM     71  O   UNL     1     -10.258 -16.502 -16.105  1.00  0.00    -0.237 OA
ATOM     72  O   UNL     1     -11.759 -15.913 -14.238  1.00  0.00    -0.744 OA
ENDBRANCH  68  69
ENDBRANCH  49  63
BRANCH  50  73
ATOM     73  C   UNL     1       0.840 -16.766  -6.038  1.00  0.00    -0.014 A 
ATOM     74  C   UNL     1       2.085 -17.173  -6.549  1.00  0.00     0.010 A 
ATOM     75  C   UNL     1       0.737 -16.415  -4.680  1.00  0.00     0.010 A 
ATOM     76  C   UNL     1       3.209 -17.219  -5.720  1.00  0.00     0.020 A 
ATOM     77  C   UNL     1       1.863 -16.445  -3.852  1.00  0.00     0.020 A 
ATOM     78  C   UNL     1       3.093 -16.844  -4.379  1.00  0.00     0.054 A 
BRANCH  78  79
ATOM     79  S   UNL     1       4.586 -16.848  -3.347  1.00  0.00     0.124 S 
ATOM     80  O   UNL     1       4.972 -18.255  -3.367  1.00  0.00    -0.237 OA
ATOM     81  O   UNL     1       5.466 -15.939  -4.078  1.00  0.00    -0.237 OA
ATOM     82  O   UNL     1       4.115 -16.347  -2.058  1.00  0.00    -0.744 OA
ENDBRANCH  78  79
ENDBRANCH  50  73
BRANCH  62  83
ATOM     83  C   UNL     1      -3.381 -21.413  -9.110  1.00  0.00    -0.014 A 
ATOM     84  C   UNL     1      -3.951 -22.127  -8.044  1.00  0.00     0.010 A 
ATOM     85  C   UNL     1      -2.956 -22.104 -10.260  1.00  0.00     0.010 A 
ATOM     86  C   UNL     1      -4.098 -23.514  -8.128  1.00  0.00     0.020 A 
ATOM     87  C   UNL     1      -3.117 -23.488 -10.354  1.00  0.00     0.020 A 
ATOM     88  C   UNL     1      -3.689 -24.183  -9.287  1.00  0.00     0.054 A 
BRANCH  88  89
ATOM     89  S   UNL     1      -3.960 -25.973  -9.394  1.00  0.00     0.124 S 
ATOM     90  O   UNL     1      -3.114 -26.477  -8.315  1.00  0.00    -0.237 OA
ATOM     91  O   UNL     1      -5.399 -26.087  -9.169  1.00  0.00    -0.237 OA
ATOM     92  O   UNL     1      -3.515 -26.314 -10.743  1.00  0.00    -0.744 OA
ENDBRANCH  88  89
ENDBRANCH  62  83
ENDBRANCH  36  37
ENDBRANCH  28  31
ENDBRANCH  26  27
ENDBRANCH  25  26
ENDBRANCH  24  25
ENDBRANCH   1  24
TORSDOF 19
