REMARK SMILES O=C(NCCCCNC(=O)[C@@H]1[C@@H](C(=O)Nc2ccc(F)c(F)c2)[C@H]2C=C[C@@H]1O2)c1ccc(-c2c3nc(c(-c4ccc(S(=O)(=O)[O-])cc4)c4ccc([nH]4)c(-c4ccc(S(=O)(=O)[O-])cc4)c4nc(c(-c5ccc(S(=O)(=O)[O-])cc5)c5ccc2[nH]5)C=C4)C=C3)cc1
REMARK SMILES IDX 5 1 4 2 3 3 1 4 2 5 29 7 30 8 88 9 31 10 87 11 32 12 33 13
REMARK SMILES IDX 34 14 81 15 35 16 86 17 80 18 82 19 36 20 85 21 79 22 78 23
REMARK SMILES IDX 37 25 67 26 48 27 66 28 49 29 52 30 65 31 83 32 50 33 51 34
REMARK SMILES IDX 64 36 84 37 53 38 38 39 39 40 47 41 40 42 46 43 41 44 42 45
REMARK SMILES IDX 43 46 44 47 45 48 68 49 69 50 77 51 70 52 76 53 71 54 72 55
REMARK SMILES IDX 73 56 74 57 75 58 54 59 55 60 63 61 56 62 62 63 57 64 58 65
REMARK SMILES IDX 59 66 60 67 61 68 6 69 7 70 8 71 9 72 10 74 11 75 12 76
REMARK SMILES IDX 27 77 24 78 26 79 28 80 25 81 13 82 14 83 15 84 16 86 17 87
REMARK SMILES IDX 23 88 18 89 21 90 19 91 22 92 20 93
REMARK H PARENT 3 6 82 24 52 35 8 73 15 85
REMARK Flexibility Score: inf
ROOT
ATOM      1  C   UNL     1       4.493  -1.910   1.162  1.00  0.00     0.023 C 
ENDROOT
BRANCH   1   2
ATOM      2  C   UNL     1       4.187  -1.353  -0.221  1.00  0.00     0.116 C 
BRANCH   2   3
ATOM      3  N   UNL     1       2.767  -1.073  -0.381  1.00  0.00    -0.352 N 
ATOM      4  O   UNL     1       0.888   0.152  -0.382  1.00  0.00    -0.269 OA
ATOM      5  C   UNL     1       2.108   0.125  -0.520  1.00  0.00     0.251 C 
ATOM      6  H   UNL     1       2.187  -1.869  -0.391  1.00  0.00     0.163 HD
BRANCH   5   7
ATOM      7  C   UNL     1       2.849   1.370  -0.831  1.00  0.00     0.039 A 
ATOM      8  C   UNL     1       3.950   1.358  -1.687  1.00  0.00     0.014 A 
ATOM      9  C   UNL     1       2.393   2.586  -0.309  1.00  0.00     0.014 A 
ATOM     10  C   UNL     1       4.678   2.522  -1.906  1.00  0.00     0.010 A 
ATOM     11  C   UNL     1       3.059   3.776  -0.623  1.00  0.00     0.010 A 
ATOM     12  C   UNL     1       4.219   3.751  -1.412  1.00  0.00    -0.014 A 
BRANCH  12  13
ATOM     13  C   UNL     1       4.911   5.003  -1.815  1.00  0.00     0.031 A 
ATOM     14  C   UNL     1       5.543   5.907  -0.794  1.00  0.00     0.074 A 
ATOM     15  C   UNL     1       4.966   5.315  -3.126  1.00  0.00     0.049 A 
ATOM     16  N   UNL     1       6.147   7.053  -0.976  1.00  0.00    -0.248 NA
ATOM     17  C   UNL     1       5.483   5.476   0.611  1.00  0.00     0.031 C 
ATOM     18  C   UNL     1       4.386   4.512  -4.209  1.00  0.00     0.029 A 
ATOM     19  N   UNL     1       5.544   6.374  -3.777  1.00  0.00    -0.354 N 
ATOM     20  C   UNL     1       6.509   7.499   0.290  1.00  0.00     0.074 A 
ATOM     21  C   UNL     1       6.042   6.505   1.233  1.00  0.00     0.031 C 
ATOM     22  C   UNL     1       4.683   5.077  -5.386  1.00  0.00     0.029 A 
ATOM     23  C   UNL     1       5.395   6.325  -5.144  1.00  0.00     0.049 A 
ATOM     24  H   UNL     1       6.019   7.099  -3.312  1.00  0.00     0.167 HD
ATOM     25  C   UNL     1       7.166   8.635   0.631  1.00  0.00     0.031 A 
ATOM     26  C   UNL     1       5.759   7.199  -6.101  1.00  0.00     0.031 A 
ATOM     27  C   UNL     1       7.622   9.616  -0.320  1.00  0.00     0.049 A 
ATOM     28  C   UNL     1       6.460   8.460  -5.697  1.00  0.00     0.074 A 
ATOM     29  C   UNL     1       8.315  10.791  -0.081  1.00  0.00     0.029 A 
ATOM     30  N   UNL     1       7.429   9.541  -1.693  1.00  0.00    -0.354 N 
ATOM     31  N   UNL     1       6.800   8.859  -4.494  1.00  0.00    -0.248 NA
ATOM     32  C   UNL     1       6.823   9.390  -6.772  1.00  0.00     0.031 C 
ATOM     33  C   UNL     1       8.493  11.450  -1.302  1.00  0.00     0.029 A 
ATOM     34  C   UNL     1       7.969  10.656  -2.311  1.00  0.00     0.049 A 
ATOM     35  H   UNL     1       6.974   8.802  -2.159  1.00  0.00     0.167 HD
ATOM     36  C   UNL     1       7.435  10.081  -4.668  1.00  0.00     0.074 A 
ATOM     37  C   UNL     1       7.444  10.347  -6.094  1.00  0.00     0.031 C 
ATOM     38  C   UNL     1       7.965  10.906  -3.732  1.00  0.00     0.031 A 
BRANCH  25  39
ATOM     39  C   UNL     1       7.388   8.897   2.100  1.00  0.00    -0.014 A 
ATOM     40  C   UNL     1       8.289   8.127   2.858  1.00  0.00     0.010 A 
ATOM     41  C   UNL     1       6.694   9.948   2.729  1.00  0.00     0.010 A 
ATOM     42  C   UNL     1       8.450   8.367   4.226  1.00  0.00     0.020 A 
ATOM     43  C   UNL     1       6.874  10.210   4.091  1.00  0.00     0.020 A 
ATOM     44  C   UNL     1       7.734   9.402   4.836  1.00  0.00     0.054 A 
BRANCH  44  45
ATOM     45  S   UNL     1       7.956   9.688   6.614  1.00  0.00     0.124 S 
ATOM     46  O   UNL     1       7.228   8.561   7.192  1.00  0.00    -0.237 OA
ATOM     47  O   UNL     1       9.407   9.642   6.769  1.00  0.00    -0.237 OA
ATOM     48  O   UNL     1       7.350  10.999   6.834  1.00  0.00    -0.744 OA
ENDBRANCH  44  45
ENDBRANCH  25  39
BRANCH  26  49
ATOM     49  C   UNL     1       5.437   6.900  -7.523  1.00  0.00    -0.014 A 
ATOM     50  C   UNL     1       6.452   6.553  -8.430  1.00  0.00     0.010 A 
ATOM     51  C   UNL     1       4.098   6.893  -7.958  1.00  0.00     0.010 A 
ATOM     52  C   UNL     1       6.133   6.201  -9.745  1.00  0.00     0.020 A 
ATOM     53  C   UNL     1       3.773   6.513  -9.262  1.00  0.00     0.020 A 
ATOM     54  C   UNL     1       4.795   6.175 -10.150  1.00  0.00     0.054 A 
BRANCH  54  55
ATOM     55  S   UNL     1       4.400   5.631 -11.835  1.00  0.00     0.124 S 
ATOM     56  O   UNL     1       4.821   6.779 -12.632  1.00  0.00    -0.237 OA
ATOM     57  O   UNL     1       5.215   4.428 -11.978  1.00  0.00    -0.237 OA
ATOM     58  O   UNL     1       2.958   5.394 -11.789  1.00  0.00    -0.744 OA
ENDBRANCH  54  55
ENDBRANCH  26  49
BRANCH  38  59
ATOM     59  C   UNL     1       8.637  12.159  -4.222  1.00  0.00    -0.014 A 
ATOM     60  C   UNL     1       7.891  13.247  -4.707  1.00  0.00     0.010 A 
ATOM     61  C   UNL     1      10.038  12.266  -4.141  1.00  0.00     0.010 A 
ATOM     62  C   UNL     1       8.537  14.413  -5.125  1.00  0.00     0.020 A 
ATOM     63  C   UNL     1      10.684  13.440  -4.532  1.00  0.00     0.020 A 
ATOM     64  C   UNL     1       9.930  14.503  -5.033  1.00  0.00     0.054 A 
BRANCH  64  65
ATOM     65  S   UNL     1      10.741  16.047  -5.529  1.00  0.00     0.124 S 
ATOM     66  O   UNL     1      10.647  15.986  -6.985  1.00  0.00    -0.237 OA
ATOM     67  O   UNL     1       9.913  17.065  -4.888  1.00  0.00    -0.237 OA
ATOM     68  O   UNL     1      12.092  15.919  -4.986  1.00  0.00    -0.744 OA
ENDBRANCH  64  65
ENDBRANCH  38  59
ENDBRANCH  12  13
ENDBRANCH   5   7
ENDBRANCH   2   3
ENDBRANCH   1   2
BRANCH   1  69
ATOM     69  C   UNL     1       3.987  -3.338   1.376  1.00  0.00     0.023 C 
BRANCH  69  70
ATOM     70  C   UNL     1       4.802  -4.417   0.666  1.00  0.00     0.116 C 
BRANCH  70  71
ATOM     71  N   UNL     1       6.204  -4.429   1.062  1.00  0.00    -0.356 N 
ATOM     72  C   UNL     1       6.922  -5.290   1.838  1.00  0.00     0.227 C 
ATOM     73  H   UNL     1       6.729  -3.678   0.703  1.00  0.00     0.163 HD
ATOM     74  O   UNL     1       8.129  -5.077   1.955  1.00  0.00    -0.275 OA
BRANCH  72  75
ATOM     75  C   UNL     1       6.232  -6.420   2.562  1.00  0.00     0.127 C 
ATOM     76  C   UNL     1       6.193  -6.213   4.101  1.00  0.00     0.127 C 
ATOM     77  C   UNL     1       7.079  -7.713   2.461  1.00  0.00     0.155 C 
ATOM     78  C   UNL     1       6.666  -7.593   4.591  1.00  0.00     0.155 C 
ATOM     79  C   UNL     1       6.176  -8.871   2.763  1.00  0.00     0.004 C 
ATOM     80  O   UNL     1       7.824  -7.706   3.713  1.00  0.00    -0.365 OA
ATOM     81  C   UNL     1       5.892  -8.773   4.069  1.00  0.00     0.004 C 
BRANCH  76  82
ATOM     82  C   UNL     1       4.845  -5.816   4.632  1.00  0.00     0.231 C 
ATOM     83  O   UNL     1       3.962  -6.662   4.816  1.00  0.00    -0.274 OA
ATOM     84  N   UNL     1       4.500  -4.527   4.912  1.00  0.00    -0.326 N 
ATOM     85  H   UNL     1       3.598  -4.473   5.304  1.00  0.00     0.169 HD
BRANCH  84  86
ATOM     86  C   UNL     1       5.087  -3.250   4.792  1.00  0.00     0.044 A 
ATOM     87  C   UNL     1       6.358  -2.956   4.293  1.00  0.00     0.029 A 
ATOM     88  C   UNL     1       4.257  -2.171   5.142  1.00  0.00     0.068 A 
ATOM     89  C   UNL     1       6.775  -1.629   4.105  1.00  0.00     0.044 A 
ATOM     90  C   UNL     1       4.673  -0.853   4.951  1.00  0.00     0.160 A 
ATOM     91  C   UNL     1       5.923  -0.583   4.423  1.00  0.00     0.158 A 
ATOM     92  F   UNL     1       3.833   0.146   5.249  1.00  0.00    -0.204 F 
ATOM     93  F   UNL     1       6.309   0.677   4.191  1.00  0.00    -0.204 F 
ENDBRANCH  84  86
ENDBRANCH  76  82
ENDBRANCH  72  75
ENDBRANCH  70  71
ENDBRANCH  69  70
ENDBRANCH   1  69
TORSDOF 16
