REMARK SMILES O=C(CCC(=O)Nc1ncccn1)NCCCCNC(=O)c1ccc(-c2c3nc(c(-c4ccc(S(=O)(=O)[O-])cc4)c4ccc([nH]4)c(-c4ccc(S(=O)(=O)[O-])cc4)c4nc(c(-c5ccc(S(=O)(=O)[O-])cc5)c5ccc2[nH]5)C=C4)C=C3)cc1
REMARK SMILES IDX 16 1 15 2 14 3 1 4 2 5 3 7 4 8 5 9 6 10 7 11 8 13 9 14 13 15
REMARK SMILES IDX 10 16 12 17 11 18 17 19 18 20 19 21 20 22 21 24 22 25 23 26
REMARK SMILES IDX 81 27 24 28 80 29 25 30 26 31 27 32 74 33 28 34 79 35 73 36
REMARK SMILES IDX 75 37 29 38 78 39 72 40 71 41 30 43 60 44 41 45 59 46 42 47
REMARK SMILES IDX 45 48 58 49 76 50 43 51 44 52 57 54 77 55 46 56 31 57 32 58
REMARK SMILES IDX 40 59 33 60 39 61 34 62 35 63 36 64 37 65 38 66 61 67 62 68
REMARK SMILES IDX 70 69 63 70 69 71 64 72 65 73 66 74 67 75 68 76 47 77 48 78
REMARK SMILES IDX 56 79 49 80 55 81 50 82 51 83 52 84 53 85 54 86
REMARK H PARENT 14 6 7 12 19 23 75 42 45 53
REMARK Flexibility Score: inf
ROOT
ATOM      1  C   UNL     1       2.781  -1.150   3.632  1.00  0.00     0.023 C 
ENDROOT
BRANCH   1   2
ATOM      2  C   UNL     1       2.212  -0.455   2.400  1.00  0.00     0.116 C 
BRANCH   2   3
ATOM      3  N   UNL     1       3.011  -0.635   1.204  1.00  0.00    -0.356 N 
ATOM      4  O   UNL     1       1.246  -1.019  -0.225  1.00  0.00    -0.275 OA
ATOM      5  C   UNL     1       2.441  -0.806  -0.041  1.00  0.00     0.220 C 
ATOM      6  H   UNL     1       3.993  -0.634   1.282  1.00  0.00     0.163 HD
BRANCH   5   7
ATOM      7  C   UNL     1       3.426  -0.683  -1.187  1.00  0.00     0.110 C 
BRANCH   7   8
ATOM      8  C   UNL     1       3.698   0.763  -1.593  1.00  0.00     0.110 C 
BRANCH   8   9
ATOM      9  C   UNL     1       4.469   1.529  -0.536  1.00  0.00     0.227 C 
ATOM     10  O   UNL     1       5.678   1.312  -0.394  1.00  0.00    -0.275 OA
ATOM     11  N   UNL     1       3.884   2.406   0.315  1.00  0.00    -0.295 N 
ATOM     12  H   UNL     1       4.514   2.951   0.839  1.00  0.00     0.173 HD
BRANCH  11  13
ATOM     13  C   UNL     1       2.549   2.664   0.570  1.00  0.00     0.229 A 
ATOM     14  N   UNL     1       2.326   3.397   1.669  1.00  0.00    -0.221 NA
ATOM     15  N   UNL     1       1.588   2.078  -0.143  1.00  0.00    -0.221 NA
ATOM     16  C   UNL     1       1.048   3.479   2.092  1.00  0.00     0.117 A 
ATOM     17  C   UNL     1       0.330   2.164   0.326  1.00  0.00     0.117 A 
ATOM     18  C   UNL     1      -0.001   2.854   1.463  1.00  0.00     0.040 A 
ENDBRANCH  11  13
ENDBRANCH   8   9
ENDBRANCH   7   8
ENDBRANCH   5   7
ENDBRANCH   2   3
ENDBRANCH   1   2
BRANCH   1  19
ATOM     19  C   UNL     1       4.224  -0.785   3.992  1.00  0.00     0.023 C 
BRANCH  19  20
ATOM     20  C   UNL     1       4.497   0.701   4.213  1.00  0.00     0.116 C 
BRANCH  20  21
ATOM     21  N   UNL     1       3.888   1.213   5.431  1.00  0.00    -0.352 N 
ATOM     22  C   UNL     1       4.471   1.645   6.599  1.00  0.00     0.251 C 
ATOM     23  H   UNL     1       2.904   1.256   5.418  1.00  0.00     0.163 HD
ATOM     24  O   UNL     1       3.759   1.891   7.575  1.00  0.00    -0.269 OA
BRANCH  22  25
ATOM     25  C   UNL     1       5.941   1.790   6.709  1.00  0.00     0.039 A 
ATOM     26  C   UNL     1       6.587   1.296   7.847  1.00  0.00     0.014 A 
ATOM     27  C   UNL     1       6.687   2.420   5.709  1.00  0.00     0.014 A 
ATOM     28  C   UNL     1       7.982   1.357   7.940  1.00  0.00     0.010 A 
ATOM     29  C   UNL     1       8.081   2.414   5.769  1.00  0.00     0.010 A 
ATOM     30  C   UNL     1       8.746   1.874   6.881  1.00  0.00    -0.014 A 
BRANCH  30  31
ATOM     31  C   UNL     1      10.235   1.828   6.905  1.00  0.00     0.031 A 
ATOM     32  C   UNL     1      11.045   3.097   6.886  1.00  0.00     0.074 A 
ATOM     33  C   UNL     1      10.865   0.635   6.879  1.00  0.00     0.049 A 
ATOM     34  N   UNL     1      12.345   3.244   6.833  1.00  0.00    -0.248 NA
ATOM     35  C   UNL     1      10.299   4.366   6.913  1.00  0.00     0.031 C 
ATOM     36  C   UNL     1      10.204  -0.672   6.860  1.00  0.00     0.029 A 
ATOM     37  N   UNL     1      12.204   0.328   6.858  1.00  0.00    -0.354 N 
ATOM     38  C   UNL     1      12.573   4.615   6.805  1.00  0.00     0.074 A 
ATOM     39  C   UNL     1      11.275   5.257   6.805  1.00  0.00     0.031 C 
ATOM     40  C   UNL     1      11.137  -1.637   6.858  1.00  0.00     0.029 A 
ATOM     41  C   UNL     1      12.461  -1.024   6.830  1.00  0.00     0.049 A 
ATOM     42  H   UNL     1      12.914   1.010   6.863  1.00  0.00     0.167 HD
ATOM     43  C   UNL     1      13.752   5.281   6.799  1.00  0.00     0.031 A 
ATOM     44  C   UNL     1      13.626  -1.700   6.779  1.00  0.00     0.031 A 
ATOM     45  C   UNL     1      15.045   4.645   6.810  1.00  0.00     0.049 A 
ATOM     46  C   UNL     1      14.923  -0.939   6.763  1.00  0.00     0.074 A 
ATOM     47  C   UNL     1      16.294   5.242   6.848  1.00  0.00     0.029 A 
ATOM     48  N   UNL     1      15.258   3.276   6.785  1.00  0.00    -0.354 N 
ATOM     49  N   UNL     1      15.115   0.358   6.774  1.00  0.00    -0.248 NA
ATOM     50  C   UNL     1      16.159  -1.733   6.738  1.00  0.00     0.031 C 
ATOM     51  C   UNL     1      17.263   4.235   6.796  1.00  0.00     0.029 A 
ATOM     52  C   UNL     1      16.618   3.009   6.789  1.00  0.00     0.049 A 
ATOM     53  H   UNL     1      14.549   2.593   6.767  1.00  0.00     0.167 HD
ATOM     54  C   UNL     1      16.494   0.535   6.782  1.00  0.00     0.074 A 
ATOM     55  C   UNL     1      17.087  -0.786   6.788  1.00  0.00     0.031 C 
ATOM     56  C   UNL     1      17.202   1.691   6.788  1.00  0.00     0.031 A 
BRANCH  43  57
ATOM     57  C   UNL     1      13.708   6.787   6.785  1.00  0.00    -0.014 A 
ATOM     58  C   UNL     1      13.303   7.508   7.923  1.00  0.00     0.010 A 
ATOM     59  C   UNL     1      14.148   7.491   5.649  1.00  0.00     0.010 A 
ATOM     60  C   UNL     1      13.316   8.906   7.916  1.00  0.00     0.020 A 
ATOM     61  C   UNL     1      14.187   8.889   5.648  1.00  0.00     0.020 A 
ATOM     62  C   UNL     1      13.760   9.587   6.779  1.00  0.00     0.054 A 
BRANCH  62  63
ATOM     63  S   UNL     1      13.812  11.400   6.819  1.00  0.00     0.124 S 
ATOM     64  O   UNL     1      12.393  11.744   6.770  1.00  0.00    -0.237 OA
ATOM     65  O   UNL     1      14.480  11.672   8.089  1.00  0.00    -0.237 OA
ATOM     66  O   UNL     1      14.579  11.753   5.627  1.00  0.00    -0.744 OA
ENDBRANCH  62  63
ENDBRANCH  43  57
BRANCH  44  67
ATOM     67  C   UNL     1      13.611  -3.188   6.761  1.00  0.00    -0.014 A 
ATOM     68  C   UNL     1      14.006  -3.918   7.895  1.00  0.00     0.010 A 
ATOM     69  C   UNL     1      13.160  -3.883   5.623  1.00  0.00     0.010 A 
ATOM     70  C   UNL     1      13.950  -5.315   7.893  1.00  0.00     0.020 A 
ATOM     71  C   UNL     1      13.077  -5.278   5.627  1.00  0.00     0.020 A 
ATOM     72  C   UNL     1      13.477  -5.986   6.761  1.00  0.00     0.054 A 
BRANCH  72  73
ATOM     73  S   UNL     1      13.332  -7.794   6.815  1.00  0.00     0.124 S 
ATOM     74  O   UNL     1      14.728  -8.214   6.745  1.00  0.00    -0.237 OA
ATOM     75  O   UNL     1      12.666  -8.018   8.095  1.00  0.00    -0.237 OA
ATOM     76  O   UNL     1      12.524  -8.107   5.638  1.00  0.00    -0.744 OA
ENDBRANCH  72  73
ENDBRANCH  44  67
BRANCH  56  77
ATOM     77  C   UNL     1      18.704   1.590   6.832  1.00  0.00    -0.014 A 
ATOM     78  C   UNL     1      19.441   1.167   5.711  1.00  0.00     0.010 A 
ATOM     79  C   UNL     1      19.392   1.986   7.994  1.00  0.00     0.010 A 
ATOM     80  C   UNL     1      20.837   1.113   5.763  1.00  0.00     0.020 A 
ATOM     81  C   UNL     1      20.789   1.960   8.040  1.00  0.00     0.020 A 
ATOM     82  C   UNL     1      21.502   1.510   6.927  1.00  0.00     0.054 A 
BRANCH  82  83
ATOM     83  S   UNL     1      23.316   1.474   6.953  1.00  0.00     0.124 S 
ATOM     84  O   UNL     1      23.590   0.042   7.031  1.00  0.00    -0.237 OA
ATOM     85  O   UNL     1      23.667   2.112   5.687  1.00  0.00    -0.237 OA
ATOM     86  O   UNL     1      23.662   2.240   8.147  1.00  0.00    -0.744 OA
ENDBRANCH  82  83
ENDBRANCH  56  77
ENDBRANCH  30  31
ENDBRANCH  22  25
ENDBRANCH  20  21
ENDBRANCH  19  20
ENDBRANCH   1  19
TORSDOF 17
