REMARK SMILES C[C@@H]1[C@@H](C(=O)NCCCCNC(=O)c2ccc(-c3c4nc(c(-c5ccc(S(=O)(=O)[O-])cc5)c5ccc([nH]5)c(-c5ccc(S(=O)(=O)[O-])cc5)c5nc(c(-c6ccc(S(=O)(=O)[O-])cc6)c6ccc3[nH]6)C=C5)C=C4)cc2)CCN1C(=O)[C@@H]1CCCN(C(N)=O)C1
REMARK SMILES IDX 8 1 7 2 6 3 4 4 5 5 3 7 1 8 2 9 76 10 74 11 75 12 77 13
REMARK SMILES IDX 78 14 79 15 80 16 87 17 81 18 83 19 82 20 84 21 85 22 86 23
REMARK SMILES IDX 9 26 10 27 11 28 12 29 13 31 14 32 15 33 73 34 16 35 72 36
REMARK SMILES IDX 17 37 18 38 19 39 66 40 20 41 71 42 65 43 67 44 21 45 70 46
REMARK SMILES IDX 64 47 63 48 22 50 52 51 33 52 51 53 34 54 37 55 50 56 68 57
REMARK SMILES IDX 35 58 36 59 49 61 69 62 38 63 23 64 24 65 32 66 25 67 31 68
REMARK SMILES IDX 26 69 27 70 28 71 29 72 30 73 53 74 54 75 62 76 55 77 61 78
REMARK SMILES IDX 56 79 57 80 58 81 59 82 60 83 39 84 40 85 48 86 41 87 47 88
REMARK SMILES IDX 42 89 43 90 44 91 45 92 46 93
REMARK H PARENT 6 6 85 24 85 25 11 30 67 49 37 60
REMARK Flexibility Score: inf
ROOT
ATOM      1  C   UNL     1      -3.005   4.552  -1.005  1.00  0.00     0.023 C 
ENDROOT
BRANCH   1   2
ATOM      2  C   UNL     1      -2.785   3.112  -0.560  1.00  0.00     0.116 C 
BRANCH   2   3
ATOM      3  N   UNL     1      -2.139   2.292  -1.569  1.00  0.00    -0.356 N 
ATOM      4  C   UNL     1      -1.255   1.265  -1.393  1.00  0.00     0.225 C 
ATOM      5  O   UNL     1      -0.983   0.555  -2.359  1.00  0.00    -0.275 OA
ATOM      6  H   UNL     1      -2.369   2.503  -2.503  1.00  0.00     0.163 HD
BRANCH   4   7
ATOM      7  C   UNL     1      -0.682   1.038  -0.004  1.00  0.00     0.102 C 
ATOM      8  C   UNL     1       1.337   0.312   1.276  1.00  0.00     0.032 C 
ATOM      9  C   UNL     1       0.478   0.020   0.035  1.00  0.00     0.094 C 
ATOM     10  N   UNL     1      -0.189  -1.283   0.148  1.00  0.00    -0.339 N 
ATOM     11  C   UNL     1      -1.727   0.375   0.896  1.00  0.00     0.037 C 
ATOM     12  C   UNL     1      -1.573  -1.101   0.569  1.00  0.00     0.120 C 
BRANCH  10  13
ATOM     13  C   UNL     1       0.199  -2.547  -0.229  1.00  0.00     0.227 C 
ATOM     14  O   UNL     1      -0.599  -3.485  -0.067  1.00  0.00    -0.275 OA
BRANCH  13  15
ATOM     15  C   UNL     1       1.543  -2.899  -0.885  1.00  0.00     0.098 C 
ATOM     16  C   UNL     1       2.833  -2.655  -0.106  1.00  0.00     0.017 C 
ATOM     17  C   UNL     1       1.626  -2.538  -2.364  1.00  0.00     0.134 C 
ATOM     18  C   UNL     1       3.649  -1.439  -0.532  1.00  0.00     0.022 C 
ATOM     19  N   UNL     1       2.315  -1.278  -2.619  1.00  0.00    -0.324 N 
ATOM     20  C   UNL     1       3.638  -1.150  -2.026  1.00  0.00     0.121 C 
BRANCH  19  21
ATOM     21  C   UNL     1       1.946  -0.370  -3.589  1.00  0.00     0.314 C 
ATOM     22  N   UNL     1       0.748  -0.569  -4.177  1.00  0.00    -0.351 N 
ATOM     23  O   UNL     1       2.642   0.577  -3.943  1.00  0.00    -0.249 OA
ATOM     24  H   UNL     1       0.182  -1.326  -3.900  1.00  0.00     0.161 HD
ATOM     25  H   UNL     1       0.439   0.044  -4.884  1.00  0.00     0.161 HD
ENDBRANCH  19  21
ENDBRANCH  13  15
ENDBRANCH  10  13
ENDBRANCH   4   7
ENDBRANCH   2   3
ENDBRANCH   1   2
BRANCH   1  26
ATOM     26  C   UNL     1      -3.801   4.727  -2.298  1.00  0.00     0.023 C 
BRANCH  26  27
ATOM     27  C   UNL     1      -5.076   3.899  -2.406  1.00  0.00     0.116 C 
BRANCH  27  28
ATOM     28  N   UNL     1      -6.001   4.128  -1.307  1.00  0.00    -0.352 N 
ATOM     29  C   UNL     1      -7.326   4.489  -1.349  1.00  0.00     0.251 C 
ATOM     30  H   UNL     1      -5.624   4.008  -0.406  1.00  0.00     0.163 HD
ATOM     31  O   UNL     1      -7.922   4.755  -0.308  1.00  0.00    -0.269 OA
BRANCH  29  32
ATOM     32  C   UNL     1      -8.012   4.590  -2.651  1.00  0.00     0.039 A 
ATOM     33  C   UNL     1      -8.747   5.742  -2.939  1.00  0.00     0.014 A 
ATOM     34  C   UNL     1      -7.900   3.567  -3.597  1.00  0.00     0.014 A 
ATOM     35  C   UNL     1      -9.315   5.897  -4.204  1.00  0.00     0.010 A 
ATOM     36  C   UNL     1      -8.396   3.761  -4.882  1.00  0.00     0.010 A 
ATOM     37  C   UNL     1      -9.115   4.924  -5.196  1.00  0.00    -0.014 A 
BRANCH  37  38
ATOM     38  C   UNL     1      -9.667   5.093  -6.564  1.00  0.00     0.031 A 
ATOM     39  C   UNL     1     -10.697   4.126  -7.080  1.00  0.00     0.074 A 
ATOM     40  C   UNL     1      -9.200   6.076  -7.360  1.00  0.00     0.049 A 
ATOM     41  N   UNL     1     -11.256   4.067  -8.261  1.00  0.00    -0.248 NA
ATOM     42  C   UNL     1     -11.136   3.067  -6.155  1.00  0.00     0.031 C 
ATOM     43  C   UNL     1      -8.172   7.053  -6.990  1.00  0.00     0.029 A 
ATOM     44  N   UNL     1      -9.528   6.413  -8.649  1.00  0.00    -0.354 N 
ATOM     45  C   UNL     1     -12.093   2.958  -8.228  1.00  0.00     0.074 A 
ATOM     46  C   UNL     1     -11.927   2.341  -6.930  1.00  0.00     0.031 C 
ATOM     47  C   UNL     1      -7.978   7.896  -8.017  1.00  0.00     0.029 A 
ATOM     48  C   UNL     1      -8.835   7.499  -9.130  1.00  0.00     0.049 A 
ATOM     49  H   UNL     1     -10.197   5.923  -9.180  1.00  0.00     0.167 HD
ATOM     50  C   UNL     1     -12.941   2.505  -9.181  1.00  0.00     0.031 A 
ATOM     51  C   UNL     1      -8.883   8.107 -10.331  1.00  0.00     0.031 A 
ATOM     52  C   UNL     1     -13.115   3.131 -10.464  1.00  0.00     0.049 A 
ATOM     53  C   UNL     1      -9.835   7.589 -11.375  1.00  0.00     0.074 A 
ATOM     54  C   UNL     1     -13.985   2.781 -11.482  1.00  0.00     0.029 A 
ATOM     55  N   UNL     1     -12.407   4.239 -10.904  1.00  0.00    -0.354 N 
ATOM     56  N   UNL     1     -10.660   6.571 -11.304  1.00  0.00    -0.248 NA
ATOM     57  C   UNL     1      -9.874   8.311 -12.654  1.00  0.00     0.031 C 
ATOM     58  C   UNL     1     -13.771   3.652 -12.556  1.00  0.00     0.029 A 
ATOM     59  C   UNL     1     -12.809   4.579 -12.184  1.00  0.00     0.049 A 
ATOM     60  H   UNL     1     -11.720   4.715 -10.383  1.00  0.00     0.167 HD
ATOM     61  C   UNL     1     -11.341   6.551 -12.517  1.00  0.00     0.074 A 
ATOM     62  C   UNL     1     -10.836   7.663 -13.297  1.00  0.00     0.031 C 
ATOM     63  C   UNL     1     -12.300   5.693 -12.944  1.00  0.00     0.031 A 
BRANCH  50  64
ATOM     64  C   UNL     1     -13.741   1.268  -8.865  1.00  0.00    -0.014 A 
ATOM     65  C   UNL     1     -14.760   1.290  -7.895  1.00  0.00     0.010 A 
ATOM     66  C   UNL     1     -13.481   0.071  -9.556  1.00  0.00     0.010 A 
ATOM     67  C   UNL     1     -15.469   0.126  -7.585  1.00  0.00     0.020 A 
ATOM     68  C   UNL     1     -14.210  -1.088  -9.271  1.00  0.00     0.020 A 
ATOM     69  C   UNL     1     -15.185  -1.058  -8.272  1.00  0.00     0.054 A 
BRANCH  69  70
ATOM     70  S   UNL     1     -16.125  -2.551  -7.856  1.00  0.00     0.124 S 
ATOM     71  O   UNL     1     -15.548  -2.919  -6.565  1.00  0.00    -0.237 OA
ATOM     72  O   UNL     1     -17.501  -2.062  -7.811  1.00  0.00    -0.237 OA
ATOM     73  O   UNL     1     -15.828  -3.466  -8.954  1.00  0.00    -0.744 OA
ENDBRANCH  69  70
ENDBRANCH  50  64
BRANCH  51  74
ATOM     74  C   UNL     1      -8.025   9.293 -10.599  1.00  0.00    -0.014 A 
ATOM     75  C   UNL     1      -8.594  10.575 -10.697  1.00  0.00     0.010 A 
ATOM     76  C   UNL     1      -6.632   9.152 -10.739  1.00  0.00     0.010 A 
ATOM     77  C   UNL     1      -7.790  11.691 -10.947  1.00  0.00     0.020 A 
ATOM     78  C   UNL     1      -5.821  10.269 -10.962  1.00  0.00     0.020 A 
ATOM     79  C   UNL     1      -6.407  11.531 -11.075  1.00  0.00     0.054 A 
BRANCH  79  80
ATOM     80  S   UNL     1      -5.378  13.001 -11.341  1.00  0.00     0.124 S 
ATOM     81  O   UNL     1      -5.669  13.328 -12.733  1.00  0.00    -0.237 OA
ATOM     82  O   UNL     1      -5.900  13.937 -10.348  1.00  0.00    -0.237 OA
ATOM     83  O   UNL     1      -4.022  12.521 -11.080  1.00  0.00    -0.744 OA
ENDBRANCH  79  80
ENDBRANCH  51  74
BRANCH  63  84
ATOM     84  C   UNL     1     -12.904   5.947 -14.299  1.00  0.00    -0.014 A 
ATOM     85  C   UNL     1     -12.185   5.697 -15.481  1.00  0.00     0.010 A 
ATOM     86  C   UNL     1     -14.236   6.393 -14.386  1.00  0.00     0.010 A 
ATOM     87  C   UNL     1     -12.778   5.920 -16.727  1.00  0.00     0.020 A 
ATOM     88  C   UNL     1     -14.841   6.589 -15.630  1.00  0.00     0.020 A 
ATOM     89  C   UNL     1     -14.102   6.366 -16.793  1.00  0.00     0.054 A 
BRANCH  89  90
ATOM     90  S   UNL     1     -14.863   6.608 -18.421  1.00  0.00     0.124 S 
ATOM     91  O   UNL     1     -14.230   7.844 -18.872  1.00  0.00    -0.237 OA
ATOM     92  O   UNL     1     -14.469   5.400 -19.142  1.00  0.00    -0.237 OA
ATOM     93  O   UNL     1     -16.290   6.710 -18.125  1.00  0.00    -0.744 OA
ENDBRANCH  89  90
ENDBRANCH  63  84
ENDBRANCH  37  38
ENDBRANCH  29  32
ENDBRANCH  27  28
ENDBRANCH  26  27
ENDBRANCH   1  26
TORSDOF 17
