REMARK SMILES Cc1cccc(CN(C)c2ccc(C(=O)NCCCCNC(=O)c3ccc(-c4c5nc(c(-c6ccc(S(=O)(=O)[O-])cc6)c6ccc([nH]6)c(-c6ccc(S(=O)(=O)[O-])cc6)c6nc(c(-c7ccc(S(=O)(=O)[O-])cc7)c7ccc4[nH]7)C=C6)C=C5)cc3)cc2C)n1
REMARK SMILES IDX 18 1 17 2 16 3 14 4 15 5 13 7 10 8 11 9 85 10 12 11 84 12
REMARK SMILES IDX 86 13 8 14 9 15 7 16 6 17 1 18 2 19 3 20 87 21 4 22 5 23
REMARK SMILES IDX 19 24 20 25 21 26 22 27 23 29 24 30 25 31 83 32 26 33 82 34
REMARK SMILES IDX 27 35 28 36 29 37 76 38 30 39 81 40 75 41 77 42 31 43 80 44
REMARK SMILES IDX 74 45 73 46 32 48 62 49 43 50 61 51 44 52 47 53 60 54 78 55
REMARK SMILES IDX 45 56 46 57 59 59 79 60 48 61 33 62 34 63 42 64 35 65 41 66
REMARK SMILES IDX 36 67 37 68 38 69 39 70 40 71 63 72 64 73 72 74 65 75 71 76
REMARK SMILES IDX 66 77 67 78 68 79 69 80 70 81 49 82 50 83 58 84 51 85 57 86
REMARK SMILES IDX 52 87 53 88 54 89 55 90 56 91
REMARK H PARENT 16 6 21 28 77 47 47 58
REMARK Flexibility Score: inf
ROOT
ATOM      1  C   UNL     1       0.611  -1.579   6.121  1.00  0.00     0.023 C 
ENDROOT
BRANCH   1   2
ATOM      2  C   UNL     1      -0.839  -1.241   5.755  1.00  0.00     0.116 C 
BRANCH   2   3
ATOM      3  N   UNL     1      -1.461  -0.204   6.580  1.00  0.00    -0.352 N 
ATOM      4  C   UNL     1      -1.986   1.045   6.308  1.00  0.00     0.251 C 
ATOM      5  O   UNL     1      -2.424   1.707   7.251  1.00  0.00    -0.269 OA
ATOM      6  H   UNL     1      -1.518  -0.449   7.532  1.00  0.00     0.163 HD
BRANCH   4   7
ATOM      7  C   UNL     1      -2.004   1.651   4.949  1.00  0.00     0.040 A 
ATOM      8  C   UNL     1      -1.726   2.872   2.363  1.00  0.00     0.040 A 
ATOM      9  C   UNL     1      -1.893   1.494   2.555  1.00  0.00     0.027 A 
ATOM     10  C   UNL     1      -1.916   3.659   3.518  1.00  0.00    -0.027 A 
ATOM     11  C   UNL     1      -2.097   0.898   3.800  1.00  0.00     0.016 A 
ATOM     12  C   UNL     1      -1.992   3.045   4.798  1.00  0.00     0.019 A 
ATOM     13  C   UNL     1      -2.101   5.153   3.462  1.00  0.00     0.046 C 
BRANCH   8  14
ATOM     14  N   UNL     1      -1.381   3.395   1.113  1.00  0.00    -0.368 N 
ATOM     15  C   UNL     1      -0.212   4.274   1.063  1.00  0.00     0.144 C 
BRANCH  14  16
ATOM     16  C   UNL     1      -1.736   2.725  -0.162  1.00  0.00     0.172 C 
BRANCH  16  17
ATOM     17  C   UNL     1      -1.022   1.401  -0.440  1.00  0.00     0.060 A 
ATOM     18  C   UNL     1       2.407   0.084  -0.145  1.00  0.00     0.067 C 
ATOM     19  C   UNL     1       0.920   0.123  -0.331  1.00  0.00     0.038 A 
ATOM     20  C   UNL     1       0.195  -1.061  -0.434  1.00  0.00     0.023 A 
ATOM     21  N   UNL     1       0.334   1.350  -0.346  1.00  0.00    -0.256 NA
ATOM     22  C   UNL     1      -1.180  -0.992  -0.609  1.00  0.00     0.004 A 
ATOM     23  C   UNL     1      -1.798   0.253  -0.639  1.00  0.00     0.026 A 
ENDBRANCH  16  17
ENDBRANCH  14  16
ENDBRANCH   8  14
ENDBRANCH   4   7
ENDBRANCH   2   3
ENDBRANCH   1   2
BRANCH   1  24
ATOM     24  C   UNL     1       0.856  -2.188   7.499  1.00  0.00     0.023 C 
BRANCH  24  25
ATOM     25  C   UNL     1       0.134  -3.498   7.767  1.00  0.00     0.116 C 
BRANCH  25  26
ATOM     26  N   UNL     1       0.743  -4.706   7.230  1.00  0.00    -0.352 N 
ATOM     27  C   UNL     1       0.456  -5.960   7.783  1.00  0.00     0.251 C 
ATOM     28  H   UNL     1       1.364  -4.640   6.469  1.00  0.00     0.163 HD
ATOM     29  O   UNL     1       1.283  -6.703   8.265  1.00  0.00    -0.269 OA
BRANCH  27  30
ATOM     30  C   UNL     1      -0.979  -6.342   7.716  1.00  0.00     0.039 A 
ATOM     31  C   UNL     1      -1.412  -7.317   6.814  1.00  0.00     0.014 A 
ATOM     32  C   UNL     1      -1.895  -5.554   8.405  1.00  0.00     0.014 A 
ATOM     33  C   UNL     1      -2.768  -7.379   6.476  1.00  0.00     0.010 A 
ATOM     34  C   UNL     1      -3.201  -5.527   7.977  1.00  0.00     0.010 A 
ATOM     35  C   UNL     1      -3.638  -6.420   6.993  1.00  0.00    -0.014 A 
BRANCH  35  36
ATOM     36  C   UNL     1      -5.022  -6.215   6.584  1.00  0.00     0.031 A 
ATOM     37  C   UNL     1      -6.121  -6.561   7.517  1.00  0.00     0.074 A 
ATOM     38  C   UNL     1      -5.291  -5.490   5.475  1.00  0.00     0.049 A 
ATOM     39  N   UNL     1      -7.365  -6.642   7.184  1.00  0.00    -0.248 NA
ATOM     40  C   UNL     1      -5.887  -6.872   8.924  1.00  0.00     0.031 C 
ATOM     41  C   UNL     1      -6.548  -4.822   5.145  1.00  0.00     0.029 A 
ATOM     42  N   UNL     1      -4.541  -5.378   4.304  1.00  0.00    -0.354 N 
ATOM     43  C   UNL     1      -8.101  -6.671   8.348  1.00  0.00     0.074 A 
ATOM     44  C   UNL     1      -7.136  -6.905   9.396  1.00  0.00     0.031 C 
ATOM     45  C   UNL     1      -6.607  -4.658   3.815  1.00  0.00     0.029 A 
ATOM     46  C   UNL     1      -5.474  -5.368   3.250  1.00  0.00     0.049 A 
ATOM     47  H   UNL     1      -3.561  -5.318   4.230  1.00  0.00     0.167 HD
ATOM     48  C   UNL     1      -9.427  -6.356   8.315  1.00  0.00     0.031 A 
ATOM     49  C   UNL     1      -5.551  -6.358   2.309  1.00  0.00     0.031 A 
ATOM     50  C   UNL     1      -9.906  -6.136   6.948  1.00  0.00     0.049 A 
ATOM     51  C   UNL     1      -6.894  -7.073   2.284  1.00  0.00     0.074 A 
ATOM     52  C   UNL     1     -10.273  -5.025   6.208  1.00  0.00     0.029 A 
ATOM     53  N   UNL     1      -9.801  -7.178   6.042  1.00  0.00    -0.354 N 
ATOM     54  N   UNL     1      -7.897  -6.788   3.068  1.00  0.00    -0.248 NA
ATOM     55  C   UNL     1      -7.175  -8.234   1.437  1.00  0.00     0.031 C 
ATOM     56  C   UNL     1     -10.380  -5.417   4.840  1.00  0.00     0.029 A 
ATOM     57  C   UNL     1     -10.091  -6.766   4.757  1.00  0.00     0.049 A 
ATOM     58  H   UNL     1      -9.550  -8.098   6.284  1.00  0.00     0.167 HD
ATOM     59  C   UNL     1      -8.888  -7.719   2.908  1.00  0.00     0.074 A 
ATOM     60  C   UNL     1      -8.401  -8.594   1.858  1.00  0.00     0.031 C 
ATOM     61  C   UNL     1     -10.010  -7.742   3.684  1.00  0.00     0.031 A 
BRANCH  48  62
ATOM     62  C   UNL     1     -10.247  -6.026   9.546  1.00  0.00    -0.014 A 
ATOM     63  C   UNL     1     -11.392  -5.212   9.423  1.00  0.00     0.010 A 
ATOM     64  C   UNL     1      -9.931  -6.449  10.851  1.00  0.00     0.010 A 
ATOM     65  C   UNL     1     -12.113  -4.763  10.541  1.00  0.00     0.020 A 
ATOM     66  C   UNL     1     -10.618  -5.980  11.981  1.00  0.00     0.020 A 
ATOM     67  C   UNL     1     -11.701  -5.126  11.819  1.00  0.00     0.054 A 
BRANCH  67  68
ATOM     68  S   UNL     1     -12.591  -4.475  13.256  1.00  0.00     0.124 S 
ATOM     69  O   UNL     1     -12.496  -3.031  13.057  1.00  0.00    -0.237 OA
ATOM     70  O   UNL     1     -13.922  -5.049  13.087  1.00  0.00    -0.237 OA
ATOM     71  O   UNL     1     -11.833  -4.989  14.395  1.00  0.00    -0.744 OA
ENDBRANCH  67  68
ENDBRANCH  48  62
BRANCH  49  72
ATOM     72  C   UNL     1      -4.233  -6.988   2.005  1.00  0.00    -0.014 A 
ATOM     73  C   UNL     1      -3.277  -6.179   1.351  1.00  0.00     0.010 A 
ATOM     74  C   UNL     1      -3.792  -8.095   2.752  1.00  0.00     0.010 A 
ATOM     75  C   UNL     1      -1.916  -6.334   1.623  1.00  0.00     0.020 A 
ATOM     76  C   UNL     1      -2.424  -8.261   3.011  1.00  0.00     0.020 A 
ATOM     77  C   UNL     1      -1.511  -7.322   2.519  1.00  0.00     0.054 A 
BRANCH  77  78
ATOM     78  S   UNL     1       0.175  -7.223   3.197  1.00  0.00     0.124 S 
ATOM     79  O   UNL     1       0.993  -7.120   1.994  1.00  0.00    -0.237 OA
ATOM     80  O   UNL     1       0.100  -6.010   4.015  1.00  0.00    -0.237 OA
ATOM     81  O   UNL     1       0.306  -8.467   3.947  1.00  0.00    -0.744 OA
ENDBRANCH  77  78
ENDBRANCH  49  72
BRANCH  61  82
ATOM     82  C   UNL     1     -11.123  -8.741   3.522  1.00  0.00    -0.014 A 
ATOM     83  C   UNL     1     -11.630  -9.102   2.264  1.00  0.00     0.010 A 
ATOM     84  C   UNL     1     -11.790  -9.248   4.661  1.00  0.00     0.010 A 
ATOM     85  C   UNL     1     -12.719  -9.979   2.149  1.00  0.00     0.020 A 
ATOM     86  C   UNL     1     -12.887 -10.106   4.558  1.00  0.00     0.020 A 
ATOM     87  C   UNL     1     -13.334 -10.482   3.298  1.00  0.00     0.054 A 
BRANCH  87  88
ATOM     88  S   UNL     1     -14.759 -11.587   3.131  1.00  0.00     0.124 S 
ATOM     89  O   UNL     1     -15.548 -10.939   2.087  1.00  0.00    -0.237 OA
ATOM     90  O   UNL     1     -14.120 -12.843   2.746  1.00  0.00    -0.237 OA
ATOM     91  O   UNL     1     -15.366 -11.577   4.460  1.00  0.00    -0.744 OA
ENDBRANCH  87  88
ENDBRANCH  61  82
ENDBRANCH  35  36
ENDBRANCH  27  30
ENDBRANCH  25  26
ENDBRANCH  24  25
ENDBRANCH   1  24
TORSDOF 17
