REMARK SMILES O=C(NCCCCNC(=O)[C@@H]1C[NH2+]CCN1C(=O)N[C@@H]1CCOC1)c1ccc(-c2c3nc(c(-c4ccc(S(=O)(=O)[O-])cc4)c4ccc([nH]4)c(-c4ccc(S(=O)(=O)[O-])cc4)c4nc(c(-c5ccc(S(=O)(=O)[O-])cc5)c5ccc2[nH]5)C=C4)C=C3)cc1
REMARK SMILES IDX 5 1 4 2 3 3 1 4 2 5 25 7 26 8 84 9 27 10 83 11 28 12 29 13
REMARK SMILES IDX 30 14 77 15 31 16 82 17 76 18 78 19 32 20 81 21 75 22 74 23
REMARK SMILES IDX 33 25 63 26 44 27 62 28 45 29 48 30 61 31 79 32 46 33 47 34
REMARK SMILES IDX 60 36 80 37 49 38 34 39 35 40 43 41 36 42 42 43 37 44 38 45
REMARK SMILES IDX 39 46 40 47 41 48 64 49 65 50 73 51 66 52 72 53 67 54 68 55
REMARK SMILES IDX 69 56 70 57 71 58 50 59 51 60 59 61 52 62 58 63 53 64 54 65
REMARK SMILES IDX 55 66 56 67 57 68 6 69 7 70 8 71 9 72 10 74 11 75 12 76
REMARK SMILES IDX 16 77 13 78 15 79 14 80 17 83 18 84 19 85 20 87 21 88 24 89
REMARK SMILES IDX 22 90 23 91
REMARK H PARENT 3 6 78 24 48 35 8 73 13 81 13 82 19 86
REMARK Flexibility Score: inf
ROOT
ATOM      1  C   UNL     1       4.312  -2.537   0.310  1.00  0.00     0.023 C 
ENDROOT
BRANCH   1   2
ATOM      2  C   UNL     1       4.246  -1.227  -0.468  1.00  0.00     0.116 C 
BRANCH   2   3
ATOM      3  N   UNL     1       2.871  -0.792  -0.685  1.00  0.00    -0.352 N 
ATOM      4  O   UNL     1       0.944   0.279  -0.205  1.00  0.00    -0.269 OA
ATOM      5  C   UNL     1       2.170   0.224  -0.084  1.00  0.00     0.251 C 
ATOM      6  H   UNL     1       2.372  -1.302  -1.363  1.00  0.00     0.163 HD
BRANCH   5   7
ATOM      7  C   UNL     1       2.883   1.240   0.714  1.00  0.00     0.039 A 
ATOM      8  C   UNL     1       4.068   1.798   0.233  1.00  0.00     0.014 A 
ATOM      9  C   UNL     1       2.369   1.644   1.950  1.00  0.00     0.014 A 
ATOM     10  C   UNL     1       4.828   2.619   1.056  1.00  0.00     0.010 A 
ATOM     11  C   UNL     1       3.087   2.553   2.735  1.00  0.00     0.010 A 
ATOM     12  C   UNL     1       4.345   3.014   2.314  1.00  0.00    -0.014 A 
BRANCH  12  13
ATOM     13  C   UNL     1       5.164   3.934   3.148  1.00  0.00     0.031 A 
ATOM     14  C   UNL     1       5.694   3.505   4.491  1.00  0.00     0.074 A 
ATOM     15  C   UNL     1       5.468   5.154   2.661  1.00  0.00     0.049 A 
ATOM     16  N   UNL     1       6.465   4.164   5.319  1.00  0.00    -0.248 NA
ATOM     17  C   UNL     1       5.306   2.170   4.973  1.00  0.00     0.031 C 
ATOM     18  C   UNL     1       5.015   5.684   1.371  1.00  0.00     0.029 A 
ATOM     19  N   UNL     1       6.250   6.158   3.173  1.00  0.00    -0.354 N 
ATOM     20  C   UNL     1       6.630   3.341   6.428  1.00  0.00     0.074 A 
ATOM     21  C   UNL     1       5.859   2.143   6.178  1.00  0.00     0.031 C 
ATOM     22  C   UNL     1       5.577   6.883   1.165  1.00  0.00     0.029 A 
ATOM     23  C   UNL     1       6.368   7.243   2.336  1.00  0.00     0.049 A 
ATOM     24  H   UNL     1       6.684   6.107   4.055  1.00  0.00     0.167 HD
ATOM     25  C   UNL     1       7.358   3.564   7.550  1.00  0.00     0.031 A 
ATOM     26  C   UNL     1       7.028   8.405   2.492  1.00  0.00     0.031 A 
ATOM     27  C   UNL     1       8.126   4.760   7.790  1.00  0.00     0.049 A 
ATOM     28  C   UNL     1       7.803   8.637   3.757  1.00  0.00     0.074 A 
ATOM     29  C   UNL     1       8.927   5.064   8.878  1.00  0.00     0.029 A 
ATOM     30  N   UNL     1       8.183   5.853   6.937  1.00  0.00    -0.354 N 
ATOM     31  N   UNL     1       7.973   7.831   4.778  1.00  0.00    -0.248 NA
ATOM     32  C   UNL     1       8.480   9.932   3.888  1.00  0.00     0.031 C 
ATOM     33  C   UNL     1       9.415   6.364   8.713  1.00  0.00     0.029 A 
ATOM     34  C   UNL     1       8.982   6.842   7.487  1.00  0.00     0.049 A 
ATOM     35  H   UNL     1       7.723   5.916   6.069  1.00  0.00     0.167 HD
ATOM     36  C   UNL     1       8.808   8.509   5.658  1.00  0.00     0.074 A 
ATOM     37  C   UNL     1       9.116   9.784   5.041  1.00  0.00     0.031 C 
ATOM     38  C   UNL     1       9.281   8.108   6.864  1.00  0.00     0.031 A 
BRANCH  25  39
ATOM     39  C   UNL     1       7.328   2.509   8.629  1.00  0.00    -0.014 A 
ATOM     40  C   UNL     1       7.938   1.253   8.453  1.00  0.00     0.010 A 
ATOM     41  C   UNL     1       6.710   2.797   9.861  1.00  0.00     0.010 A 
ATOM     42  C   UNL     1       7.890   0.293   9.468  1.00  0.00     0.020 A 
ATOM     43  C   UNL     1       6.687   1.851  10.890  1.00  0.00     0.020 A 
ATOM     44  C   UNL     1       7.261   0.597  10.680  1.00  0.00     0.054 A 
BRANCH  44  45
ATOM     45  S   UNL     1       7.221  -0.665  11.983  1.00  0.00     0.124 S 
ATOM     46  O   UNL     1       6.268  -1.629  11.438  1.00  0.00    -0.237 OA
ATOM     47  O   UNL     1       8.610  -1.115  12.034  1.00  0.00    -0.237 OA
ATOM     48  O   UNL     1       6.762   0.066  13.161  1.00  0.00    -0.744 OA
ENDBRANCH  44  45
ENDBRANCH  25  39
BRANCH  26  49
ATOM     49  C   UNL     1       6.983   9.434   1.417  1.00  0.00    -0.014 A 
ATOM     50  C   UNL     1       8.137   9.746   0.676  1.00  0.00     0.010 A 
ATOM     51  C   UNL     1       5.777  10.092   1.114  1.00  0.00     0.010 A 
ATOM     52  C   UNL     1       8.089  10.710  -0.334  1.00  0.00     0.020 A 
ATOM     53  C   UNL     1       5.718  11.032   0.082  1.00  0.00     0.020 A 
ATOM     54  C   UNL     1       6.878  11.344  -0.627  1.00  0.00     0.054 A 
BRANCH  54  55
ATOM     55  S   UNL     1       6.831  12.556  -1.976  1.00  0.00     0.124 S 
ATOM     56  O   UNL     1       7.557  13.682  -1.397  1.00  0.00    -0.237 OA
ATOM     57  O   UNL     1       7.513  11.849  -3.057  1.00  0.00    -0.237 OA
ATOM     58  O   UNL     1       5.402  12.774  -2.189  1.00  0.00    -0.744 OA
ENDBRANCH  54  55
ENDBRANCH  26  49
BRANCH  38  59
ATOM     59  C   UNL     1      10.233   9.037   7.573  1.00  0.00    -0.014 A 
ATOM     60  C   UNL     1       9.806  10.261   8.118  1.00  0.00     0.010 A 
ATOM     61  C   UNL     1      11.581   8.658   7.716  1.00  0.00     0.010 A 
ATOM     62  C   UNL     1      10.719  11.109   8.750  1.00  0.00     0.020 A 
ATOM     63  C   UNL     1      12.489   9.487   8.377  1.00  0.00     0.020 A 
ATOM     64  C   UNL     1      12.056  10.717   8.872  1.00  0.00     0.054 A 
BRANCH  64  65
ATOM     65  S   UNL     1      13.218  11.826   9.715  1.00  0.00     0.124 S 
ATOM     66  O   UNL     1      13.391  12.890   8.729  1.00  0.00    -0.237 OA
ATOM     67  O   UNL     1      12.486  12.200  10.922  1.00  0.00    -0.237 OA
ATOM     68  O   UNL     1      14.395  10.989   9.940  1.00  0.00    -0.744 OA
ENDBRANCH  64  65
ENDBRANCH  38  59
ENDBRANCH  12  13
ENDBRANCH   5   7
ENDBRANCH   2   3
ENDBRANCH   1   2
BRANCH   1  69
ATOM     69  C   UNL     1       3.698  -3.739  -0.422  1.00  0.00     0.023 C 
BRANCH  69  70
ATOM     70  C   UNL     1       4.471  -4.194  -1.667  1.00  0.00     0.116 C 
BRANCH  70  71
ATOM     71  N   UNL     1       5.741  -4.778  -1.280  1.00  0.00    -0.354 N 
ATOM     72  C   UNL     1       6.564  -5.679  -1.890  1.00  0.00     0.248 C 
ATOM     73  H   UNL     1       6.074  -4.464  -0.408  1.00  0.00     0.163 HD
ATOM     74  O   UNL     1       7.422  -6.183  -1.153  1.00  0.00    -0.272 OA
BRANCH  72  75
ATOM     75  C   UNL     1       6.310  -6.223  -3.326  1.00  0.00     0.231 C 
ATOM     76  C   UNL     1       6.971  -7.644  -3.390  1.00  0.00     0.296 C 
ATOM     77  N   UNL     1       6.269  -5.624  -4.726  1.00  0.00    -0.302 N 
ATOM     78  N   UNL     1       6.292  -8.576  -4.327  1.00  0.00    -0.343 N 
ATOM     79  C   UNL     1       5.474  -6.551  -5.576  1.00  0.00     0.183 C 
ATOM     80  C   UNL     1       6.167  -7.942  -5.650  1.00  0.00     0.282 C 
ATOM     81  H   UNL     1       5.364  -8.801  -3.969  1.00  0.00     0.346 HD
ATOM     82  H   UNL     1       6.841  -9.431  -4.412  1.00  0.00     0.346 HD
BRANCH  77  83
ATOM     83  C   UNL     1       7.249  -5.048  -5.497  1.00  0.00     0.318 C 
ATOM     84  O   UNL     1       7.452  -5.432  -6.664  1.00  0.00    -0.249 OA
ATOM     85  N   UNL     1       7.993  -3.981  -5.250  1.00  0.00    -0.333 N 
ATOM     86  H   UNL     1       8.543  -3.825  -6.052  1.00  0.00     0.165 HD
BRANCH  85  87
ATOM     87  C   UNL     1       8.344  -2.935  -4.288  1.00  0.00     0.112 C 
ATOM     88  C   UNL     1       9.828  -3.037  -3.985  1.00  0.00     0.056 C 
ATOM     89  C   UNL     1       7.777  -3.072  -2.913  1.00  0.00     0.185 C 
ATOM     90  C   UNL     1       9.822  -4.188  -3.007  1.00  0.00     0.162 C 
ATOM     91  O   UNL     1       8.644  -3.977  -2.215  1.00  0.00    -0.379 OA
ENDBRANCH  85  87
ENDBRANCH  77  83
ENDBRANCH  72  75
ENDBRANCH  70  71
ENDBRANCH  69  70
ENDBRANCH   1  69
TORSDOF 16
