REMARK SMILES O=C(NCCCCNC(=O)[C@@H]1CC=CC[C@@H]1C(=O)Nc1sc2c(c1C(=O)N1CCCCC1)CCCC2)c1ccc(-c2c3nc(c(-c4ccc(S(=O)(=O)[O-])cc4)c4ccc([nH]4)c(-c4ccc(S(=O)(=O)[O-])cc4)c4nc(c(-c5ccc(S(=O)(=O)[O-])cc5)c5ccc2[nH]5)C=C4)C=C3)cc1
REMARK SMILES IDX 5 1 4 2 3 3 1 4 2 5 37 7 38 8 96 9 39 10 95 11 40 12 41 13
REMARK SMILES IDX 42 14 89 15 43 16 94 17 88 18 90 19 44 20 93 21 87 22 86 23
REMARK SMILES IDX 45 25 75 26 56 27 74 28 57 29 60 30 73 31 91 32 58 33 59 34
REMARK SMILES IDX 72 36 92 37 61 38 46 39 47 40 55 41 48 42 54 43 49 44 50 45
REMARK SMILES IDX 51 46 52 47 53 48 76 49 77 50 85 51 78 52 84 53 79 54 80 55
REMARK SMILES IDX 81 56 82 57 83 58 62 59 63 60 71 61 64 62 70 63 65 64 66 65
REMARK SMILES IDX 67 66 68 67 69 68 6 69 7 70 8 71 9 72 10 74 11 75 12 76
REMARK SMILES IDX 16 77 13 78 15 79 14 80 17 81 18 82 19 83 20 85 21 86 24 87
REMARK SMILES IDX 22 88 23 89 36 90 33 91 35 92 34 93 25 94 26 95 27 96 28 97
REMARK SMILES IDX 32 98 29 99 31 100 30 101
REMARK H PARENT 3 6 90 24 60 35 8 73 19 84
REMARK Flexibility Score: inf
ROOT
ATOM      1  C   UNL     1      10.433   4.125   7.239  1.00  0.00     0.023 C 
ENDROOT
BRANCH   1   2
ATOM      2  C   UNL     1      10.354   4.076   8.761  1.00  0.00     0.116 C 
BRANCH   2   3
ATOM      3  N   UNL     1      10.185   2.731   9.284  1.00  0.00    -0.352 N 
ATOM      4  O   UNL     1      10.466   1.041  10.751  1.00  0.00    -0.269 OA
ATOM      5  C   UNL     1      10.604   2.232  10.493  1.00  0.00     0.251 C 
ATOM      6  H   UNL     1       9.711   2.097   8.698  1.00  0.00     0.163 HD
BRANCH   5   7
ATOM      7  C   UNL     1      11.257   3.138  11.459  1.00  0.00     0.039 A 
ATOM      8  C   UNL     1      10.670   4.359  11.803  1.00  0.00     0.014 A 
ATOM      9  C   UNL     1      12.476   2.754  12.021  1.00  0.00     0.014 A 
ATOM     10  C   UNL     1      11.348   5.239  12.640  1.00  0.00     0.010 A 
ATOM     11  C   UNL     1      13.131   3.615  12.903  1.00  0.00     0.010 A 
ATOM     12  C   UNL     1      12.578   4.868  13.206  1.00  0.00    -0.014 A 
BRANCH  12  13
ATOM     13  C   UNL     1      13.224   5.760  14.196  1.00  0.00     0.031 A 
ATOM     14  C   UNL     1      14.501   6.482  13.877  1.00  0.00     0.074 A 
ATOM     15  C   UNL     1      12.638   5.900  15.401  1.00  0.00     0.049 A 
ATOM     16  N   UNL     1      15.196   7.287  14.639  1.00  0.00    -0.248 NA
ATOM     17  C   UNL     1      15.077   6.273  12.540  1.00  0.00     0.031 C 
ATOM     18  C   UNL     1      11.406   5.225  15.823  1.00  0.00     0.029 A 
ATOM     19  N   UNL     1      12.996   6.650  16.489  1.00  0.00    -0.354 N 
ATOM     20  C   UNL     1      16.300   7.665  13.887  1.00  0.00     0.074 A 
ATOM     21  C   UNL     1      16.189   6.997  12.608  1.00  0.00     0.031 C 
ATOM     22  C   UNL     1      11.102   5.607  17.072  1.00  0.00     0.029 A 
ATOM     23  C   UNL     1      12.136   6.515  17.553  1.00  0.00     0.049 A 
ATOM     24  H   UNL     1      13.791   7.231  16.508  1.00  0.00     0.167 HD
ATOM     25  C   UNL     1      17.312   8.495  14.237  1.00  0.00     0.031 A 
ATOM     26  C   UNL     1      12.187   7.041  18.790  1.00  0.00     0.031 A 
ATOM     27  C   UNL     1      17.405   9.168  15.506  1.00  0.00     0.049 A 
ATOM     28  C   UNL     1      13.329   7.940  19.153  1.00  0.00     0.074 A 
ATOM     29  C   UNL     1      18.350  10.089  15.923  1.00  0.00     0.029 A 
ATOM     30  N   UNL     1      16.530   8.984  16.565  1.00  0.00    -0.354 N 
ATOM     31  N   UNL     1      14.331   8.335  18.404  1.00  0.00    -0.248 NA
ATOM     32  C   UNL     1      13.356   8.456  20.527  1.00  0.00     0.031 C 
ATOM     33  C   UNL     1      18.073  10.429  17.252  1.00  0.00     0.029 A 
ATOM     34  C   UNL     1      16.936   9.744  17.649  1.00  0.00     0.049 A 
ATOM     35  H   UNL     1      15.739   8.399  16.549  1.00  0.00     0.167 HD
ATOM     36  C   UNL     1      15.113   9.140  19.219  1.00  0.00     0.074 A 
ATOM     37  C   UNL     1      14.455   9.199  20.509  1.00  0.00     0.031 C 
ATOM     38  C   UNL     1      16.278   9.768  18.929  1.00  0.00     0.031 A 
BRANCH  25  39
ATOM     39  C   UNL     1      18.419   8.716  13.244  1.00  0.00    -0.014 A 
ATOM     40  C   UNL     1      18.258   9.601  12.164  1.00  0.00     0.010 A 
ATOM     41  C   UNL     1      19.668   8.101  13.449  1.00  0.00     0.010 A 
ATOM     42  C   UNL     1      19.325   9.858  11.298  1.00  0.00     0.020 A 
ATOM     43  C   UNL     1      20.740   8.366  12.592  1.00  0.00     0.020 A 
ATOM     44  C   UNL     1      20.559   9.238  11.517  1.00  0.00     0.054 A 
BRANCH  44  45
ATOM     45  S   UNL     1      21.945   9.630  10.411  1.00  0.00     0.124 S 
ATOM     46  O   UNL     1      21.611   8.847   9.223  1.00  0.00    -0.237 OA
ATOM     47  O   UNL     1      21.837  11.078  10.258  1.00  0.00    -0.237 OA
ATOM     48  O   UNL     1      23.118   9.171  11.150  1.00  0.00    -0.744 OA
ENDBRANCH  44  45
ENDBRANCH  25  39
BRANCH  26  49
ATOM     49  C   UNL     1      11.142   6.684  19.782  1.00  0.00    -0.014 A 
ATOM     50  C   UNL     1      10.148   7.609  20.140  1.00  0.00     0.010 A 
ATOM     51  C   UNL     1      11.123   5.397  20.350  1.00  0.00     0.010 A 
ATOM     52  C   UNL     1       9.155   7.255  21.058  1.00  0.00     0.020 A 
ATOM     53  C   UNL     1      10.121   5.034  21.251  1.00  0.00     0.020 A 
ATOM     54  C   UNL     1       9.149   5.970  21.609  1.00  0.00     0.054 A 
BRANCH  54  55
ATOM     55  S   UNL     1       7.822   5.499  22.753  1.00  0.00     0.124 S 
ATOM     56  O   UNL     1       8.330   6.000  24.026  1.00  0.00    -0.237 OA
ATOM     57  O   UNL     1       6.662   6.203  22.212  1.00  0.00    -0.237 OA
ATOM     58  O   UNL     1       7.770   4.044  22.625  1.00  0.00    -0.744 OA
ENDBRANCH  54  55
ENDBRANCH  26  49
BRANCH  38  59
ATOM     59  C   UNL     1      16.918  10.553  20.037  1.00  0.00    -0.014 A 
ATOM     60  C   UNL     1      17.632   9.895  21.054  1.00  0.00     0.010 A 
ATOM     61  C   UNL     1      16.832  11.956  20.046  1.00  0.00     0.010 A 
ATOM     62  C   UNL     1      18.230  10.629  22.080  1.00  0.00     0.020 A 
ATOM     63  C   UNL     1      17.445  12.693  21.062  1.00  0.00     0.020 A 
ATOM     64  C   UNL     1      18.128  12.023  22.080  1.00  0.00     0.054 A 
BRANCH  64  65
ATOM     65  S   UNL     1      18.943  12.962  23.401  1.00  0.00     0.124 S 
ATOM     66  O   UNL     1      17.987  12.836  24.497  1.00  0.00    -0.237 OA
ATOM     67  O   UNL     1      20.204  12.246  23.581  1.00  0.00    -0.237 OA
ATOM     68  O   UNL     1      19.074  14.304  22.837  1.00  0.00    -0.744 OA
ENDBRANCH  64  65
ENDBRANCH  38  59
ENDBRANCH  12  13
ENDBRANCH   5   7
ENDBRANCH   2   3
ENDBRANCH   1   2
BRANCH   1  69
ATOM     69  C   UNL     1       9.274   3.449   6.505  1.00  0.00     0.023 C 
BRANCH  69  70
ATOM     70  C   UNL     1       7.882   3.874   6.972  1.00  0.00     0.116 C 
BRANCH  70  71
ATOM     71  N   UNL     1       7.566   5.236   6.583  1.00  0.00    -0.356 N 
ATOM     72  C   UNL     1       6.947   5.677   5.447  1.00  0.00     0.224 C 
ATOM     73  H   UNL     1       7.833   5.935   7.222  1.00  0.00     0.163 HD
ATOM     74  O   UNL     1       6.860   6.885   5.244  1.00  0.00    -0.275 OA
BRANCH  72  75
ATOM     75  C   UNL     1       6.405   4.644   4.476  1.00  0.00     0.095 C 
ATOM     76  C   UNL     1       6.427   5.161   3.037  1.00  0.00     0.041 C 
ATOM     77  C   UNL     1       5.028   4.078   4.890  1.00  0.00     0.095 C 
ATOM     78  C   UNL     1       5.857   4.141   2.094  1.00  0.00    -0.030 C 
ATOM     79  C   UNL     1       4.551   2.999   3.914  1.00  0.00     0.041 C 
ATOM     80  C   UNL     1       5.040   3.156   2.497  1.00  0.00    -0.030 C 
BRANCH  77  81
ATOM     81  C   UNL     1       4.023   5.104   5.465  1.00  0.00     0.229 C 
ATOM     82  O   UNL     1       3.842   5.092   6.694  1.00  0.00    -0.274 OA
ATOM     83  N   UNL     1       3.449   6.133   4.784  1.00  0.00    -0.317 N 
ATOM     84  H   UNL     1       3.163   6.887   5.348  1.00  0.00     0.170 HD
BRANCH  83  85
ATOM     85  C   UNL     1       3.201   6.299   3.444  1.00  0.00     0.108 A 
ATOM     86  S   UNL     1       2.374   5.077   2.607  1.00  0.00    -0.122 S 
ATOM     87  C   UNL     1       3.321   7.455   2.676  1.00  0.00     0.078 A 
ATOM     88  C   UNL     1       2.822   5.764   1.126  1.00  0.00     0.011 A 
ATOM     89  C   UNL     1       3.293   7.059   1.272  1.00  0.00    -0.019 A 
ATOM     90  C   UNL     1       2.755   4.990  -0.152  1.00  0.00     0.047 C 
ATOM     91  C   UNL     1       3.855   7.803   0.091  1.00  0.00     0.037 C 
ATOM     92  C   UNL     1       3.740   5.587  -1.165  1.00  0.00     0.006 C 
ATOM     93  C   UNL     1       3.571   7.106  -1.251  1.00  0.00     0.005 C 
BRANCH  87  94
ATOM     94  C   UNL     1       3.718   8.736   3.288  1.00  0.00     0.257 C 
ATOM     95  O   UNL     1       4.189   8.768   4.424  1.00  0.00    -0.269 OA
ATOM     96  N   UNL     1       3.552   9.915   2.566  1.00  0.00    -0.339 N 
ATOM     97  C   UNL     1       4.454  11.026   2.853  1.00  0.00     0.120 C 
ATOM     98  C   UNL     1       2.341  10.247   1.818  1.00  0.00     0.120 C 
ATOM     99  C   UNL     1       3.728  12.185   3.526  1.00  0.00     0.022 C 
ATOM    100  C   UNL     1       1.587  11.407   2.473  1.00  0.00     0.022 C 
ATOM    101  C   UNL     1       2.510  12.603   2.706  1.00  0.00     0.004 C 
ENDBRANCH  87  94
ENDBRANCH  83  85
ENDBRANCH  77  81
ENDBRANCH  72  75
ENDBRANCH  70  71
ENDBRANCH  69  70
ENDBRANCH   1  69
TORSDOF 17
