REMARK SMILES O=C(NCCCCNC(=O)c1ccc(-c2c3nc(c(-c4ccc(S(=O)(=O)[O-])cc4)c4ccc([nH]4)c(-c4ccc(S(=O)(=O)[O-])cc4)c4nc(c(-c5ccc(S(=O)(=O)[O-])cc5)c5ccc2[nH]5)C=C4)C=C3)cc1)c1ccc(/C=C/c2ccc3cccc(O)c3n2)cc1
REMARK SMILES IDX 5 1 4 2 3 3 1 4 2 5 71 7 72 8 89 9 73 10 88 11 74 12 75 13
REMARK SMILES IDX 76 14 77 15 78 16 87 17 79 18 86 19 80 20 84 21 81 22 83 23
REMARK SMILES IDX 82 24 85 25 6 27 7 28 8 29 9 30 10 32 11 33 12 34 70 35
REMARK SMILES IDX 13 36 69 37 14 38 15 39 16 40 63 41 17 42 68 43 62 44 64 45
REMARK SMILES IDX 18 46 67 47 61 48 60 49 19 51 49 52 30 53 48 54 31 55 34 56
REMARK SMILES IDX 47 57 65 58 32 59 33 60 46 62 66 63 35 64 20 65 21 66 29 67
REMARK SMILES IDX 22 68 28 69 23 70 24 71 25 72 26 73 27 74 50 75 51 76 59 77
REMARK SMILES IDX 52 78 58 79 53 80 54 81 55 82 56 83 57 84 36 85 37 86 45 87
REMARK SMILES IDX 38 88 44 89 39 90 40 91 41 92 42 93 43 94
REMARK H PARENT 3 6 85 26 8 31 64 50 34 61
REMARK Flexibility Score: inf
ROOT
ATOM      1  C   UNL     1       4.929   0.578   2.188  1.00  0.00     0.023 C 
ENDROOT
BRANCH   1   2
ATOM      2  C   UNL     1       4.600  -0.308   0.985  1.00  0.00     0.116 C 
BRANCH   2   3
ATOM      3  N   UNL     1       3.171  -0.463   0.795  1.00  0.00    -0.352 N 
ATOM      4  O   UNL     1       1.153  -0.128  -0.136  1.00  0.00    -0.269 OA
ATOM      5  C   UNL     1       2.375  -0.077  -0.250  1.00  0.00     0.251 C 
ATOM      6  H   UNL     1       2.700  -0.916   1.532  1.00  0.00     0.163 HD
BRANCH   5   7
ATOM      7  C   UNL     1       2.955   0.425  -1.512  1.00  0.00     0.039 A 
ATOM      8  C   UNL     1       3.896  -0.305  -2.250  1.00  0.00     0.014 A 
ATOM      9  C   UNL     1       2.451   1.620  -2.019  1.00  0.00     0.014 A 
ATOM     10  C   UNL     1       4.353   0.177  -3.489  1.00  0.00     0.009 A 
ATOM     11  C   UNL     1       2.905   2.092  -3.250  1.00  0.00     0.009 A 
ATOM     12  C   UNL     1       3.856   1.378  -4.004  1.00  0.00    -0.026 A 
BRANCH  12  13
ATOM     13  C   UNL     1       4.321   2.021  -5.241  1.00  0.00     0.010 C 
ATOM     14  C   UNL     1       5.316   1.698  -6.093  1.00  0.00     0.029 C 
BRANCH  14  15
ATOM     15  C   UNL     1       5.831   2.860  -6.868  1.00  0.00     0.064 A 
ATOM     16  C   UNL     1       6.691   3.639  -6.099  1.00  0.00     0.029 A 
ATOM     17  N   UNL     1       4.989   3.392  -7.791  1.00  0.00    -0.245 NA
ATOM     18  C   UNL     1       6.368   4.981  -5.956  1.00  0.00     0.013 A 
ATOM     19  C   UNL     1       4.756   4.725  -7.717  1.00  0.00     0.113 A 
ATOM     20  C   UNL     1       5.322   5.523  -6.707  1.00  0.00     0.004 A 
ATOM     21  C   UNL     1       3.883   5.354  -8.605  1.00  0.00     0.141 A 
ATOM     22  C   UNL     1       4.825   6.814  -6.460  1.00  0.00     0.010 A 
ATOM     23  C   UNL     1       3.434   6.659  -8.416  1.00  0.00     0.048 A 
ATOM     24  C   UNL     1       3.861   7.369  -7.298  1.00  0.00     0.005 A 
BRANCH  21  25
ATOM     25  O   UNL     1       3.438   4.677  -9.715  1.00  0.00    -0.506 OA
ATOM     26  H   UNL     1       2.851   5.095 -10.314  1.00  0.00     0.293 HD
ENDBRANCH  21  25
ENDBRANCH  14  15
ENDBRANCH  12  13
ENDBRANCH   5   7
ENDBRANCH   2   3
ENDBRANCH   1   2
BRANCH   1  27
ATOM     27  C   UNL     1       4.427   0.072   3.543  1.00  0.00     0.023 C 
BRANCH  27  28
ATOM     28  C   UNL     1       4.817  -1.356   3.907  1.00  0.00     0.116 C 
BRANCH  28  29
ATOM     29  N   UNL     1       6.256  -1.565   3.933  1.00  0.00    -0.352 N 
ATOM     30  C   UNL     1       7.039  -2.164   4.891  1.00  0.00     0.251 C 
ATOM     31  H   UNL     1       6.742  -1.226   3.146  1.00  0.00     0.163 HD
ATOM     32  O   UNL     1       8.261  -2.124   4.781  1.00  0.00    -0.269 OA
BRANCH  30  33
ATOM     33  C   UNL     1       6.420  -2.826   6.063  1.00  0.00     0.039 A 
ATOM     34  C   UNL     1       6.992  -2.634   7.323  1.00  0.00     0.014 A 
ATOM     35  C   UNL     1       5.295  -3.644   5.928  1.00  0.00     0.014 A 
ATOM     36  C   UNL     1       6.404  -3.213   8.451  1.00  0.00     0.010 A 
ATOM     37  C   UNL     1       4.663  -4.154   7.061  1.00  0.00     0.010 A 
ATOM     38  C   UNL     1       5.216  -3.954   8.335  1.00  0.00    -0.014 A 
BRANCH  38  39
ATOM     39  C   UNL     1       4.559  -4.545   9.532  1.00  0.00     0.031 A 
ATOM     40  C   UNL     1       4.422  -6.041   9.660  1.00  0.00     0.074 A 
ATOM     41  C   UNL     1       4.054  -3.740  10.489  1.00  0.00     0.049 A 
ATOM     42  N   UNL     1       3.854  -6.740  10.610  1.00  0.00    -0.248 NA
ATOM     43  C   UNL     1       4.975  -6.858   8.567  1.00  0.00     0.031 C 
ATOM     44  C   UNL     1       4.081  -2.275  10.467  1.00  0.00     0.029 A 
ATOM     45  N   UNL     1       3.417  -4.040  11.668  1.00  0.00    -0.354 N 
ATOM     46  C   UNL     1       3.980  -8.071  10.229  1.00  0.00     0.074 A 
ATOM     47  C   UNL     1       4.615  -8.080   8.931  1.00  0.00     0.031 C 
ATOM     48  C   UNL     1       3.513  -1.807  11.590  1.00  0.00     0.029 A 
ATOM     49  C   UNL     1       3.048  -2.932  12.395  1.00  0.00     0.049 A 
ATOM     50  H   UNL     1       3.241  -4.962  11.965  1.00  0.00     0.167 HD
ATOM     51  C   UNL     1       3.629  -9.189  10.910  1.00  0.00     0.031 A 
ATOM     52  C   UNL     1       2.406  -2.831  13.575  1.00  0.00     0.031 A 
ATOM     53  C   UNL     1       2.999  -9.183  12.203  1.00  0.00     0.049 A 
ATOM     54  C   UNL     1       2.014  -4.089  14.306  1.00  0.00     0.074 A 
ATOM     55  C   UNL     1       2.623 -10.263  12.984  1.00  0.00     0.029 A 
ATOM     56  N   UNL     1       2.660  -8.041  12.913  1.00  0.00    -0.354 N 
ATOM     57  N   UNL     1       2.185  -5.339  13.947  1.00  0.00    -0.248 NA
ATOM     58  C   UNL     1       1.363  -3.920  15.612  1.00  0.00     0.031 C 
ATOM     59  C   UNL     1       2.018  -9.773  14.146  1.00  0.00     0.029 A 
ATOM     60  C   UNL     1       2.075  -8.389  14.118  1.00  0.00     0.049 A 
ATOM     61  H   UNL     1       2.812  -7.119  12.604  1.00  0.00     0.167 HD
ATOM     62  C   UNL     1       1.698  -6.105  15.002  1.00  0.00     0.074 A 
ATOM     63  C   UNL     1       1.243  -5.176  16.017  1.00  0.00     0.031 C 
ATOM     64  C   UNL     1       1.634  -7.454  15.122  1.00  0.00     0.031 A 
BRANCH  51  65
ATOM     65  C   UNL     1       3.938 -10.518  10.268  1.00  0.00    -0.014 A 
ATOM     66  C   UNL     1       5.268 -10.957  10.126  1.00  0.00     0.010 A 
ATOM     67  C   UNL     1       2.893 -11.357   9.840  1.00  0.00     0.010 A 
ATOM     68  C   UNL     1       5.549 -12.190   9.533  1.00  0.00     0.020 A 
ATOM     69  C   UNL     1       3.169 -12.606   9.275  1.00  0.00     0.020 A 
ATOM     70  C   UNL     1       4.497 -13.008   9.111  1.00  0.00     0.054 A 
BRANCH  70  71
ATOM     71  S   UNL     1       4.893 -14.617   8.375  1.00  0.00     0.124 S 
ATOM     72  O   UNL     1       5.441 -14.227   7.077  1.00  0.00    -0.237 OA
ATOM     73  O   UNL     1       5.857 -15.173   9.321  1.00  0.00    -0.237 OA
ATOM     74  O   UNL     1       3.605 -15.303   8.325  1.00  0.00    -0.744 OA
ENDBRANCH  70  71
ENDBRANCH  51  65
BRANCH  52  75
ATOM     75  C   UNL     1       2.098  -1.492  14.152  1.00  0.00    -0.014 A 
ATOM     76  C   UNL     1       2.734  -1.049  15.325  1.00  0.00     0.010 A 
ATOM     77  C   UNL     1       1.143  -0.659  13.540  1.00  0.00     0.010 A 
ATOM     78  C   UNL     1       2.392   0.180  15.898  1.00  0.00     0.020 A 
ATOM     79  C   UNL     1       0.822   0.585  14.091  1.00  0.00     0.020 A 
ATOM     80  C   UNL     1       1.435   0.988  15.278  1.00  0.00     0.054 A 
BRANCH  80  81
ATOM     81  S   UNL     1       1.016   2.586  16.029  1.00  0.00     0.124 S 
ATOM     82  O   UNL     1       0.221   2.179  17.183  1.00  0.00    -0.237 OA
ATOM     83  O   UNL     1       2.331   3.147  16.331  1.00  0.00    -0.237 OA
ATOM     84  O   UNL     1       0.281   3.276  14.972  1.00  0.00    -0.744 OA
ENDBRANCH  80  81
ENDBRANCH  52  75
BRANCH  64  85
ATOM     85  C   UNL     1       1.107  -8.008  16.421  1.00  0.00    -0.014 A 
ATOM     86  C   UNL     1      -0.247  -7.887  16.780  1.00  0.00     0.010 A 
ATOM     87  C   UNL     1       1.988  -8.682  17.288  1.00  0.00     0.010 A 
ATOM     88  C   UNL     1      -0.699  -8.381  18.007  1.00  0.00     0.020 A 
ATOM     89  C   UNL     1       1.533  -9.206  18.500  1.00  0.00     0.020 A 
ATOM     90  C   UNL     1       0.196  -9.032  18.863  1.00  0.00     0.054 A 
BRANCH  90  91
ATOM     91  S   UNL     1      -0.415  -9.672  20.445  1.00  0.00     0.124 S 
ATOM     92  O   UNL     1      -0.579  -8.448  21.224  1.00  0.00    -0.237 OA
ATOM     93  O   UNL     1      -1.655 -10.344  20.063  1.00  0.00    -0.237 OA
ATOM     94  O   UNL     1       0.654 -10.559  20.897  1.00  0.00    -0.744 OA
ENDBRANCH  90  91
ENDBRANCH  64  85
ENDBRANCH  38  39
ENDBRANCH  30  33
ENDBRANCH  28  29
ENDBRANCH  27  28
ENDBRANCH   1  27
TORSDOF 17
