REMARK SMILES CC(C)(CC(=O)NCCCCNC(=O)c1ccc(-c2c3nc(c(-c4ccc(S(=O)(=O)[O-])cc4)c4ccc([nH]4)c(-c4ccc(S(=O)(=O)[O-])cc4)c4nc(c(-c5ccc(S(=O)(=O)[O-])cc5)c5ccc2[nH]5)C=C4)C=C3)cc1)c1c(F)cc(F)cc1F
REMARK SMILES IDX 10 1 9 2 8 3 7 4 5 5 6 6 4 8 2 9 1 10 3 11 75 12 76 13 82 14
REMARK SMILES IDX 77 15 78 16 81 17 83 18 79 19 80 20 11 21 12 22 13 23 14 25
REMARK SMILES IDX 15 26 16 27 74 28 17 29 73 30 18 31 19 32 20 33 67 34 21 35
REMARK SMILES IDX 72 36 66 37 68 38 22 39 71 40 65 41 64 42 23 44 53 45 34 46
REMARK SMILES IDX 52 47 35 48 38 49 51 50 69 51 36 52 37 53 50 55 70 56 39 57
REMARK SMILES IDX 24 58 25 59 33 60 26 61 32 62 27 63 28 64 29 65 30 66 31 67
REMARK SMILES IDX 54 68 55 69 63 70 56 71 62 72 57 73 58 74 59 75 60 76 61 77
REMARK SMILES IDX 40 78 41 79 49 80 42 81 48 82 43 83 44 84 45 85 46 86 47 87
REMARK H PARENT 7 7 12 24 68 43 38 54
REMARK Flexibility Score: inf
ROOT
ATOM      1  C   UNL     1       0.609   0.109   3.936  1.00  0.00     0.023 C 
ENDROOT
BRANCH   1   2
ATOM      2  C   UNL     1       0.784  -0.229   2.460  1.00  0.00     0.023 C 
BRANCH   2   3
ATOM      3  C   UNL     1      -0.508  -0.530   1.703  1.00  0.00     0.116 C 
BRANCH   3   4
ATOM      4  N   UNL     1      -1.180   0.696   1.336  1.00  0.00    -0.356 N 
ATOM      5  C   UNL     1      -1.272   1.312   0.129  1.00  0.00     0.220 C 
ATOM      6  O   UNL     1      -1.845   2.402   0.087  1.00  0.00    -0.275 OA
ATOM      7  H   UNL     1      -1.641   1.156   2.074  1.00  0.00     0.163 HD
BRANCH   5   8
ATOM      8  C   UNL     1      -0.727   0.663  -1.139  1.00  0.00     0.111 C 
BRANCH   8   9
ATOM      9  C   UNL     1       0.758   0.956  -1.528  1.00  0.00     0.004 C 
ATOM     10  C   UNL     1       1.673  -0.159  -0.971  1.00  0.00     0.017 C 
ATOM     11  C   UNL     1       0.892   0.783  -3.069  1.00  0.00     0.017 C 
BRANCH   9  12
ATOM     12  C   UNL     1       1.174   2.387  -1.147  1.00  0.00     0.030 A 
ATOM     13  C   UNL     1       2.188   2.691  -0.223  1.00  0.00     0.132 A 
ATOM     14  C   UNL     1       0.491   3.492  -1.694  1.00  0.00     0.132 A 
ATOM     15  F   UNL     1       2.912   1.725   0.356  1.00  0.00    -0.206 F 
ATOM     16  C   UNL     1       2.495   4.002   0.142  1.00  0.00     0.079 A 
ATOM     17  C   UNL     1       0.785   4.807  -1.343  1.00  0.00     0.079 A 
ATOM     18  F   UNL     1      -0.497   3.300  -2.581  1.00  0.00    -0.206 F 
ATOM     19  C   UNL     1       1.786   5.049  -0.421  1.00  0.00     0.129 A 
ATOM     20  F   UNL     1       2.077   6.309  -0.073  1.00  0.00    -0.207 F 
ENDBRANCH   9  12
ENDBRANCH   8   9
ENDBRANCH   5   8
ENDBRANCH   3   4
ENDBRANCH   2   3
ENDBRANCH   1   2
BRANCH   1  21
ATOM     21  C   UNL     1      -0.040  -0.982   4.772  1.00  0.00     0.116 C 
BRANCH  21  22
ATOM     22  N   UNL     1       0.620  -2.275   4.661  1.00  0.00    -0.352 N 
ATOM     23  C   UNL     1       0.864  -3.201   5.647  1.00  0.00     0.251 C 
ATOM     24  H   UNL     1       0.934  -2.517   3.760  1.00  0.00     0.163 HD
ATOM     25  O   UNL     1       1.523  -4.206   5.400  1.00  0.00    -0.269 OA
BRANCH  23  26
ATOM     26  C   UNL     1       0.358  -2.949   7.011  1.00  0.00     0.039 A 
ATOM     27  C   UNL     1       1.226  -3.108   8.094  1.00  0.00     0.014 A 
ATOM     28  C   UNL     1      -0.950  -2.501   7.212  1.00  0.00     0.014 A 
ATOM     29  C   UNL     1       0.799  -2.749   9.373  1.00  0.00     0.010 A 
ATOM     30  C   UNL     1      -1.339  -2.055   8.469  1.00  0.00     0.010 A 
ATOM     31  C   UNL     1      -0.474  -2.185   9.564  1.00  0.00    -0.014 A 
BRANCH  31  32
ATOM     32  C   UNL     1      -0.923  -1.740  10.906  1.00  0.00     0.031 A 
ATOM     33  C   UNL     1      -2.113  -2.397  11.555  1.00  0.00     0.074 A 
ATOM     34  C   UNL     1      -0.300  -0.711  11.513  1.00  0.00     0.049 A 
ATOM     35  N   UNL     1      -2.675  -2.131  12.705  1.00  0.00    -0.248 NA
ATOM     36  C   UNL     1      -2.778  -3.471  10.797  1.00  0.00     0.031 C 
ATOM     37  C   UNL     1       0.824   0.049  10.958  1.00  0.00     0.029 A 
ATOM     38  N   UNL     1      -0.523  -0.126  12.734  1.00  0.00    -0.354 N 
ATOM     39  C   UNL     1      -3.767  -2.987  12.797  1.00  0.00     0.074 A 
ATOM     40  C   UNL     1      -3.825  -3.736  11.563  1.00  0.00     0.031 C 
ATOM     41  C   UNL     1       1.216   0.971  11.852  1.00  0.00     0.029 A 
ATOM     42  C   UNL     1       0.355   0.891  13.028  1.00  0.00     0.049 A 
ATOM     43  H   UNL     1      -1.244  -0.408  13.342  1.00  0.00     0.167 HD
ATOM     44  C   UNL     1      -4.629  -3.155  13.828  1.00  0.00     0.031 A 
ATOM     45  C   UNL     1       0.460   1.664  14.125  1.00  0.00     0.031 A 
ATOM     46  C   UNL     1      -4.552  -2.427  15.065  1.00  0.00     0.049 A 
ATOM     47  C   UNL     1      -0.485   1.435  15.272  1.00  0.00     0.074 A 
ATOM     48  C   UNL     1      -5.336  -2.564  16.196  1.00  0.00     0.029 A 
ATOM     49  N   UNL     1      -3.629  -1.428  15.335  1.00  0.00    -0.354 N 
ATOM     50  N   UNL     1      -1.469   0.572  15.368  1.00  0.00    -0.248 NA
ATOM     51  C   UNL     1      -0.294   2.271  16.464  1.00  0.00     0.031 C 
ATOM     52  C   UNL     1      -4.910  -1.621  17.138  1.00  0.00     0.029 A 
ATOM     53  C   UNL     1      -3.830  -0.931  16.611  1.00  0.00     0.049 A 
ATOM     54  H   UNL     1      -2.933  -1.118  14.711  1.00  0.00     0.167 HD
ATOM     55  C   UNL     1      -1.999   0.745  16.641  1.00  0.00     0.074 A 
ATOM     56  C   UNL     1      -1.215   1.781  17.283  1.00  0.00     0.031 C 
ATOM     57  C   UNL     1      -3.040   0.103  17.229  1.00  0.00     0.031 A 
BRANCH  44  58
ATOM     58  C   UNL     1      -5.723  -4.175  13.654  1.00  0.00    -0.014 A 
ATOM     59  C   UNL     1      -5.431  -5.551  13.618  1.00  0.00     0.010 A 
ATOM     60  C   UNL     1      -7.061  -3.757  13.543  1.00  0.00     0.010 A 
ATOM     61  C   UNL     1      -6.449  -6.487  13.424  1.00  0.00     0.020 A 
ATOM     62  C   UNL     1      -8.087  -4.693  13.377  1.00  0.00     0.020 A 
ATOM     63  C   UNL     1      -7.771  -6.051  13.299  1.00  0.00     0.054 A 
BRANCH  63  64
ATOM     64  S   UNL     1      -9.076  -7.288  13.061  1.00  0.00     0.124 S 
ATOM     65  O   UNL     1      -8.878  -7.669  11.665  1.00  0.00    -0.237 OA
ATOM     66  O   UNL     1      -8.733  -8.312  14.045  1.00  0.00    -0.237 OA
ATOM     67  O   UNL     1     -10.307  -6.551  13.338  1.00  0.00    -0.744 OA
ENDBRANCH  63  64
ENDBRANCH  44  58
BRANCH  45  68
ATOM     68  C   UNL     1       1.528   2.697  14.208  1.00  0.00    -0.014 A 
ATOM     69  C   UNL     1       2.635   2.509  15.055  1.00  0.00     0.010 A 
ATOM     70  C   UNL     1       1.454   3.866  13.429  1.00  0.00     0.010 A 
ATOM     71  C   UNL     1       3.639   3.479  15.136  1.00  0.00     0.020 A 
ATOM     72  C   UNL     1       2.469   4.827  13.489  1.00  0.00     0.020 A 
ATOM     73  C   UNL     1       3.550   4.632  14.352  1.00  0.00     0.054 A 
BRANCH  73  74
ATOM     74  S   UNL     1       4.890   5.852  14.432  1.00  0.00     0.124 S 
ATOM     75  O   UNL     1       4.628   6.507  15.710  1.00  0.00    -0.237 OA
ATOM     76  O   UNL     1       6.085   5.014  14.384  1.00  0.00    -0.237 OA
ATOM     77  O   UNL     1       4.670   6.678  13.247  1.00  0.00    -0.744 OA
ENDBRANCH  73  74
ENDBRANCH  45  68
BRANCH  57  78
ATOM     78  C   UNL     1      -3.369   0.484  18.646  1.00  0.00    -0.014 A 
ATOM     79  C   UNL     1      -3.982   1.713  18.946  1.00  0.00     0.010 A 
ATOM     80  C   UNL     1      -3.095  -0.421  19.688  1.00  0.00     0.010 A 
ATOM     81  C   UNL     1      -4.278   2.048  20.269  1.00  0.00     0.020 A 
ATOM     82  C   UNL     1      -3.414  -0.101  21.009  1.00  0.00     0.020 A 
ATOM     83  C   UNL     1      -3.988   1.140  21.293  1.00  0.00     0.054 A 
BRANCH  83  84
ATOM     84  S   UNL     1      -4.406   1.585  23.001  1.00  0.00     0.124 S 
ATOM     85  O   UNL     1      -3.344   2.529  23.336  1.00  0.00    -0.237 OA
ATOM     86  O   UNL     1      -5.741   2.162  22.866  1.00  0.00    -0.237 OA
ATOM     87  O   UNL     1      -4.354   0.309  23.712  1.00  0.00    -0.744 OA
ENDBRANCH  83  84
ENDBRANCH  57  78
ENDBRANCH  31  32
ENDBRANCH  23  26
ENDBRANCH  21  22
ENDBRANCH   1  21
TORSDOF 16
