REMARK SMILES Cc1csc([C@H](C)Nc2cc(C)c(N)c(C(=O)NCCCCNC(=O)c3ccc(-c4c5nc(c(-c6ccc(S(=O)(=O)[O-])cc6)c6ccc([nH]6)c(-c6ccc(S(=O)(=O)[O-])cc6)c6nc(c(-c7ccc(S(=O)(=O)[O-])cc7)c7ccc4[nH]7)C=C6)C=C5)cc3)c2)n1
REMARK SMILES IDX 20 1 19 2 18 3 16 4 17 5 15 7 9 8 10 9 86 10 11 11 12 12
REMARK SMILES IDX 13 13 8 14 6 16 7 17 5 18 1 19 2 20 3 21 87 22 4 23 14 24
REMARK SMILES IDX 21 27 22 28 23 29 24 30 25 32 26 33 27 34 85 35 28 36 84 37
REMARK SMILES IDX 29 38 30 39 31 40 78 41 32 42 83 43 77 44 79 45 33 46 82 47
REMARK SMILES IDX 76 48 75 49 34 51 64 52 45 53 63 54 46 55 49 56 62 57 80 58
REMARK SMILES IDX 47 59 48 60 61 62 81 63 50 64 35 65 36 66 44 67 37 68 43 69
REMARK SMILES IDX 38 70 39 71 40 72 41 73 42 74 65 75 66 76 74 77 67 78 73 79
REMARK SMILES IDX 68 80 69 81 70 82 71 83 72 84 51 85 52 86 60 87 53 88 59 89
REMARK SMILES IDX 54 90 55 91 56 92 57 93 58 94
REMARK H PARENT 18 6 8 15 14 25 14 26 23 31 79 50 49 61
REMARK Flexibility Score: inf
ROOT
ATOM      1  C   UNL     1      -0.011   1.696   5.559  1.00  0.00     0.023 C 
ENDROOT
BRANCH   1   2
ATOM      2  C   UNL     1       0.233   3.193   5.779  1.00  0.00     0.116 C 
BRANCH   2   3
ATOM      3  N   UNL     1       1.555   3.420   6.329  1.00  0.00    -0.352 N 
ATOM      4  C   UNL     1       2.786   3.667   5.768  1.00  0.00     0.253 C 
ATOM      5  O   UNL     1       3.720   3.784   6.568  1.00  0.00    -0.269 OA
ATOM      6  H   UNL     1       1.577   3.390   7.313  1.00  0.00     0.163 HD
BRANCH   4   7
ATOM      7  C   UNL     1       3.049   3.821   4.292  1.00  0.00     0.065 A 
ATOM      8  C   UNL     1       2.391   3.474   1.950  1.00  0.00     0.036 A 
ATOM      9  C   UNL     1       3.527   4.157   1.536  1.00  0.00     0.031 A 
ATOM     10  C   UNL     1       2.182   3.307   3.321  1.00  0.00     0.041 A 
ATOM     11  C   UNL     1       4.464   4.637   2.469  1.00  0.00    -0.025 A 
ATOM     12  C   UNL     1       5.688   5.351   1.961  1.00  0.00     0.046 C 
ATOM     13  C   UNL     1       4.240   4.461   3.856  1.00  0.00     0.047 A 
BRANCH   8  14
ATOM     14  N   UNL     1       1.358   3.119   1.097  1.00  0.00    -0.376 N 
ATOM     15  H   UNL     1       0.434   3.336   1.361  1.00  0.00     0.161 HD
BRANCH  14  16
ATOM     16  C   UNL     1       1.580   2.433  -0.182  1.00  0.00     0.135 C 
ATOM     17  C   UNL     1       0.655   1.206  -0.150  1.00  0.00     0.039 C 
BRANCH  16  18
ATOM     18  C   UNL     1       1.332   3.318  -1.405  1.00  0.00     0.115 A 
ATOM     19  C   UNL     1       1.162   6.637  -2.815  1.00  0.00     0.067 C 
ATOM     20  C   UNL     1       1.125   5.163  -2.638  1.00  0.00     0.049 A 
ATOM     21  C   UNL     1       0.884   4.220  -3.616  1.00  0.00     0.090 A 
ATOM     22  N   UNL     1       1.360   4.640  -1.378  1.00  0.00    -0.244 NA
ATOM     23  S   UNL     1       1.032   2.646  -2.966  1.00  0.00    -0.125 S 
ENDBRANCH  16  18
ENDBRANCH  14  16
ENDBRANCH   8  14
BRANCH  13  24
ATOM     24  N   UNL     1       5.115   5.066   4.768  1.00  0.00    -0.398 N 
ATOM     25  H   UNL     1       5.936   5.505   4.446  1.00  0.00     0.156 HD
ATOM     26  H   UNL     1       4.909   5.052   5.731  1.00  0.00     0.156 HD
ENDBRANCH  13  24
ENDBRANCH   4   7
ENDBRANCH   2   3
ENDBRANCH   1   2
BRANCH   1  27
ATOM     27  C   UNL     1      -0.400   0.927   6.826  1.00  0.00     0.023 C 
BRANCH  27  28
ATOM     28  C   UNL     1      -1.722   1.353   7.456  1.00  0.00     0.116 C 
BRANCH  28  29
ATOM     29  N   UNL     1      -2.851   1.252   6.545  1.00  0.00    -0.352 N 
ATOM     30  C   UNL     1      -4.176   1.043   6.848  1.00  0.00     0.251 C 
ATOM     31  H   UNL     1      -2.640   1.345   5.588  1.00  0.00     0.163 HD
ATOM     32  O   UNL     1      -4.996   0.879   5.955  1.00  0.00    -0.269 OA
BRANCH  30  33
ATOM     33  C   UNL     1      -4.586   0.972   8.267  1.00  0.00     0.039 A 
ATOM     34  C   UNL     1      -5.359  -0.114   8.687  1.00  0.00     0.014 A 
ATOM     35  C   UNL     1      -4.183   1.949   9.180  1.00  0.00     0.014 A 
ATOM     36  C   UNL     1      -5.672  -0.254  10.040  1.00  0.00     0.010 A 
ATOM     37  C   UNL     1      -4.441   1.774  10.536  1.00  0.00     0.010 A 
ATOM     38  C   UNL     1      -5.186   0.671  10.979  1.00  0.00    -0.014 A 
BRANCH  38  39
ATOM     39  C   UNL     1      -5.441   0.495  12.430  1.00  0.00     0.031 A 
ATOM     40  C   UNL     1      -6.281   1.494  13.177  1.00  0.00     0.074 A 
ATOM     41  C   UNL     1      -4.859  -0.528  13.087  1.00  0.00     0.049 A 
ATOM     42  N   UNL     1      -6.571   1.537  14.452  1.00  0.00    -0.248 NA
ATOM     43  C   UNL     1      -6.847   2.604  12.393  1.00  0.00     0.031 C 
ATOM     44  C   UNL     1      -3.982  -1.535  12.484  1.00  0.00     0.029 A 
ATOM     45  N   UNL     1      -4.913  -0.886  14.411  1.00  0.00    -0.354 N 
ATOM     46  C   UNL     1      -7.335   2.685  14.627  1.00  0.00     0.074 A 
ATOM     47  C   UNL     1      -7.426   3.333  13.337  1.00  0.00     0.031 C 
ATOM     48  C   UNL     1      -3.600  -2.408  13.430  1.00  0.00     0.029 A 
ATOM     49  C   UNL     1      -4.175  -2.007  14.709  1.00  0.00     0.049 A 
ATOM     50  H   UNL     1      -5.430  -0.387  15.083  1.00  0.00     0.167 HD
ATOM     51  C   UNL     1      -7.923   3.148  15.756  1.00  0.00     0.031 A 
ATOM     52  C   UNL     1      -3.982  -2.641  15.882  1.00  0.00     0.031 A 
ATOM     53  C   UNL     1      -7.844   2.491  17.034  1.00  0.00     0.049 A 
ATOM     54  C   UNL     1      -4.659  -2.118  17.118  1.00  0.00     0.074 A 
ATOM     55  C   UNL     1      -8.454   2.848  18.223  1.00  0.00     0.029 A 
ATOM     56  N   UNL     1      -7.109   1.343  17.288  1.00  0.00    -0.354 N 
ATOM     57  N   UNL     1      -5.434  -1.068  17.250  1.00  0.00    -0.248 NA
ATOM     58  C   UNL     1      -4.447  -2.874  18.360  1.00  0.00     0.031 C 
ATOM     59  C   UNL     1      -8.056   1.937  19.208  1.00  0.00     0.029 A 
ATOM     60  C   UNL     1      -7.238   0.986  18.620  1.00  0.00     0.049 A 
ATOM     61  H   UNL     1      -6.576   0.854  16.621  1.00  0.00     0.167 HD
ATOM     62  C   UNL     1      -5.823  -1.052  18.585  1.00  0.00     0.074 A 
ATOM     63  C   UNL     1      -5.209  -2.203  19.214  1.00  0.00     0.031 C 
ATOM     64  C   UNL     1      -6.619  -0.164  19.230  1.00  0.00     0.031 A 
BRANCH  51  65
ATOM     65  C   UNL     1      -8.703   4.431  15.654  1.00  0.00    -0.014 A 
ATOM     66  C   UNL     1      -9.932   4.480  14.970  1.00  0.00     0.010 A 
ATOM     67  C   UNL     1      -8.218   5.597  16.274  1.00  0.00     0.010 A 
ATOM     68  C   UNL     1     -10.638   5.681  14.868  1.00  0.00     0.020 A 
ATOM     69  C   UNL     1      -8.936   6.794  16.197  1.00  0.00     0.020 A 
ATOM     70  C   UNL     1     -10.132   6.832  15.478  1.00  0.00     0.054 A 
BRANCH  70  71
ATOM     71  S   UNL     1     -11.077   8.375  15.344  1.00  0.00     0.124 S 
ATOM     72  O   UNL     1     -10.809   8.771  13.963  1.00  0.00    -0.237 OA
ATOM     73  O   UNL     1     -12.444   7.940  15.617  1.00  0.00    -0.237 OA
ATOM     74  O   UNL     1     -10.484   9.235  16.365  1.00  0.00    -0.744 OA
ENDBRANCH  70  71
ENDBRANCH  51  65
BRANCH  52  75
ATOM     75  C   UNL     1      -3.127  -3.858  15.935  1.00  0.00    -0.014 A 
ATOM     76  C   UNL     1      -3.707  -5.127  16.108  1.00  0.00     0.010 A 
ATOM     77  C   UNL     1      -1.732  -3.756  15.792  1.00  0.00     0.010 A 
ATOM     78  C   UNL     1      -2.905  -6.271  16.155  1.00  0.00     0.020 A 
ATOM     79  C   UNL     1      -0.929  -4.901  15.814  1.00  0.00     0.020 A 
ATOM     80  C   UNL     1      -1.521  -6.151  16.006  1.00  0.00     0.054 A 
BRANCH  80  81
ATOM     81  S   UNL     1      -0.505  -7.654  16.014  1.00  0.00     0.124 S 
ATOM     82  O   UNL     1      -0.478  -7.995  17.432  1.00  0.00    -0.237 OA
ATOM     83  O   UNL     1      -1.270  -8.559  15.159  1.00  0.00    -0.237 OA
ATOM     84  O   UNL     1       0.768  -7.208  15.451  1.00  0.00    -0.744 OA
ENDBRANCH  80  81
ENDBRANCH  52  75
BRANCH  64  85
ATOM     85  C   UNL     1      -6.898  -0.418  20.686  1.00  0.00    -0.014 A 
ATOM     86  C   UNL     1      -5.914  -0.195  21.666  1.00  0.00     0.010 A 
ATOM     87  C   UNL     1      -8.180  -0.840  21.083  1.00  0.00     0.010 A 
ATOM     88  C   UNL     1      -6.199  -0.419  23.015  1.00  0.00     0.020 A 
ATOM     89  C   UNL     1      -8.476  -1.040  22.433  1.00  0.00     0.020 A 
ATOM     90  C   UNL     1      -7.479  -0.843  23.390  1.00  0.00     0.054 A 
BRANCH  90  91
ATOM     91  S   UNL     1      -7.838  -1.088  25.151  1.00  0.00     0.124 S 
ATOM     92  O   UNL     1      -7.174  -2.360  25.422  1.00  0.00    -0.237 OA
ATOM     93  O   UNL     1      -7.228   0.085  25.771  1.00  0.00    -0.237 OA
ATOM     94  O   UNL     1      -9.298  -1.123  25.204  1.00  0.00    -0.744 OA
ENDBRANCH  90  91
ENDBRANCH  64  85
ENDBRANCH  38  39
ENDBRANCH  30  33
ENDBRANCH  28  29
ENDBRANCH  27  28
ENDBRANCH   1  27
TORSDOF 18
