REMARK SMILES CCOC(=O)C1=NN(c2cc(F)cc(F)c2)[C@@H](C(=O)NCCCCNC(=O)c2ccc(-c3c4nc(c(-c5ccc(S(=O)(=O)[O-])cc5)c5ccc([nH]5)c(-c5ccc(S(=O)(=O)[O-])cc5)c5nc(c(-c6ccc(S(=O)(=O)[O-])cc6)c6ccc3[nH]6)C=C5)C=C4)cc2)C1
REMARK SMILES IDX 22 1 21 2 20 3 18 4 19 5 17 7 6 8 7 9 88 10 8 11 4 12 5 13
REMARK SMILES IDX 3 14 2 15 1 16 9 17 10 18 16 19 11 20 14 21 12 22 13 23
REMARK SMILES IDX 15 24 23 25 24 26 25 27 26 28 27 30 28 31 29 32 87 33 30 34
REMARK SMILES IDX 86 35 31 36 32 37 33 38 80 39 34 40 85 41 79 42 81 43 35 44
REMARK SMILES IDX 84 45 78 46 77 47 36 49 66 50 47 51 65 52 48 53 51 54 64 55
REMARK SMILES IDX 82 56 49 57 50 58 63 60 83 61 52 62 37 63 38 64 46 65 39 66
REMARK SMILES IDX 45 67 40 68 41 69 42 70 43 71 44 72 67 73 68 74 76 75 69 76
REMARK SMILES IDX 75 77 70 78 71 79 72 80 73 81 74 82 53 83 54 84 62 85 55 86
REMARK SMILES IDX 61 87 56 88 57 89 58 90 59 91 60 92
REMARK H PARENT 20 6 25 29 81 48 51 59
REMARK Flexibility Score: inf
ROOT
ATOM      1  C   UNL     1       3.378   8.965   5.360  1.00  0.00     0.023 C 
ENDROOT
BRANCH   1   2
ATOM      2  C   UNL     1       2.737   7.633   4.974  1.00  0.00     0.116 C 
BRANCH   2   3
ATOM      3  N   UNL     1       2.203   7.649   3.625  1.00  0.00    -0.354 N 
ATOM      4  C   UNL     1       2.370   6.768   2.592  1.00  0.00     0.245 C 
ATOM      5  O   UNL     1       1.675   6.944   1.589  1.00  0.00    -0.273 OA
ATOM      6  H   UNL     1       1.627   8.420   3.420  1.00  0.00     0.163 HD
BRANCH   4   7
ATOM      7  C   UNL     1       3.347   5.591   2.732  1.00  0.00     0.203 C 
ATOM      8  C   UNL     1       2.938   3.497   1.863  1.00  0.00     0.148 C 
ATOM      9  N   UNL     1       3.743   4.026   0.997  1.00  0.00    -0.169 NA
ATOM     10  C   UNL     1       2.565   4.319   3.048  1.00  0.00     0.103 C 
ATOM     11  N   UNL     1       4.018   5.281   1.461  1.00  0.00    -0.252 N 
BRANCH   8  12
ATOM     12  C   UNL     1       2.410   2.096   1.750  1.00  0.00     0.354 C 
ATOM     13  O   UNL     1       3.050   1.132   2.123  1.00  0.00    -0.245 OA
BRANCH  12  14
ATOM     14  O   UNL     1       1.155   2.137   1.264  1.00  0.00    -0.461 OA
BRANCH  14  15
ATOM     15  C   UNL     1       0.496   0.867   1.156  1.00  0.00     0.230 C 
ATOM     16  C   UNL     1       0.831   0.209  -0.169  1.00  0.00     0.049 C 
ENDBRANCH  14  15
ENDBRANCH  12  14
ENDBRANCH   8  12
BRANCH  11  17
ATOM     17  C   UNL     1       4.915   6.112   0.795  1.00  0.00     0.066 A 
ATOM     18  C   UNL     1       5.464   7.257   1.396  1.00  0.00     0.067 A 
ATOM     19  C   UNL     1       5.316   5.827  -0.523  1.00  0.00     0.067 A 
ATOM     20  C   UNL     1       6.368   8.066   0.707  1.00  0.00     0.128 A 
ATOM     21  C   UNL     1       6.210   6.654  -1.201  1.00  0.00     0.128 A 
ATOM     22  F   UNL     1       6.885   9.138   1.325  1.00  0.00    -0.207 F 
ATOM     23  C   UNL     1       6.746   7.778  -0.593  1.00  0.00     0.078 A 
ATOM     24  F   UNL     1       6.559   6.356  -2.460  1.00  0.00    -0.207 F 
ENDBRANCH  11  17
ENDBRANCH   4   7
ENDBRANCH   2   3
ENDBRANCH   1   2
BRANCH   1  25
ATOM     25  C   UNL     1       2.432  10.174   5.403  1.00  0.00     0.023 C 
BRANCH  25  26
ATOM     26  C   UNL     1       1.151  10.005   6.222  1.00  0.00     0.116 C 
BRANCH  26  27
ATOM     27  N   UNL     1       1.403   9.605   7.595  1.00  0.00    -0.352 N 
ATOM     28  C   UNL     1       0.698   9.901   8.736  1.00  0.00     0.251 C 
ATOM     29  H   UNL     1       2.197   9.039   7.728  1.00  0.00     0.163 HD
ATOM     30  O   UNL     1       1.140   9.531   9.821  1.00  0.00    -0.269 OA
BRANCH  28  31
ATOM     31  C   UNL     1      -0.559  10.684   8.681  1.00  0.00     0.039 A 
ATOM     32  C   UNL     1      -0.738  11.707   9.620  1.00  0.00     0.014 A 
ATOM     33  C   UNL     1      -1.572  10.399   7.761  1.00  0.00     0.014 A 
ATOM     34  C   UNL     1      -1.903  12.478   9.603  1.00  0.00     0.010 A 
ATOM     35  C   UNL     1      -2.727  11.185   7.730  1.00  0.00     0.010 A 
ATOM     36  C   UNL     1      -2.898  12.234   8.646  1.00  0.00    -0.014 A 
BRANCH  36  37
ATOM     37  C   UNL     1      -4.110  13.084   8.582  1.00  0.00     0.031 A 
ATOM     38  C   UNL     1      -5.428  12.578   9.089  1.00  0.00     0.074 A 
ATOM     39  C   UNL     1      -4.034  14.303   8.017  1.00  0.00     0.049 A 
ATOM     40  N   UNL     1      -6.602  13.154   9.040  1.00  0.00    -0.248 NA
ATOM     41  C   UNL     1      -5.428  11.250   9.718  1.00  0.00     0.031 C 
ATOM     42  C   UNL     1      -2.821  14.902   7.457  1.00  0.00     0.029 A 
ATOM     43  N   UNL     1      -5.003  15.250   7.811  1.00  0.00    -0.354 N 
ATOM     44  C   UNL     1      -7.491  12.245   9.597  1.00  0.00     0.074 A 
ATOM     45  C   UNL     1      -6.715  11.085   9.990  1.00  0.00     0.031 C 
ATOM     46  C   UNL     1      -3.120  16.119   6.973  1.00  0.00     0.029 A 
ATOM     47  C   UNL     1      -4.543  16.377   7.177  1.00  0.00     0.049 A 
ATOM     48  H   UNL     1      -5.940  15.133   8.091  1.00  0.00     0.167 HD
ATOM     49  C   UNL     1      -8.831  12.357   9.760  1.00  0.00     0.031 A 
ATOM     50  C   UNL     1      -5.192  17.493   6.796  1.00  0.00     0.031 A 
ATOM     51  C   UNL     1      -9.608  13.512   9.403  1.00  0.00     0.049 A 
ATOM     52  C   UNL     1      -6.661  17.631   7.060  1.00  0.00     0.074 A 
ATOM     53  C   UNL     1     -10.969  13.720   9.556  1.00  0.00     0.029 A 
ATOM     54  N   UNL     1      -9.091  14.662   8.830  1.00  0.00    -0.354 N 
ATOM     55  N   UNL     1      -7.481  16.764   7.601  1.00  0.00    -0.248 NA
ATOM     56  C   UNL     1      -7.288  18.900   6.665  1.00  0.00     0.031 C 
ATOM     57  C   UNL     1     -11.273  15.001   9.074  1.00  0.00     0.029 A 
ATOM     58  C   UNL     1     -10.101  15.587   8.625  1.00  0.00     0.049 A 
ATOM     59  H   UNL     1      -8.143  14.802   8.601  1.00  0.00     0.167 HD
ATOM     60  C   UNL     1      -8.725  17.381   7.610  1.00  0.00     0.074 A 
ATOM     61  C   UNL     1      -8.548  18.698   7.030  1.00  0.00     0.031 C 
ATOM     62  C   UNL     1      -9.909  16.894   8.055  1.00  0.00     0.031 A 
BRANCH  49  63
ATOM     63  C   UNL     1      -9.533  11.163  10.336  1.00  0.00    -0.014 A 
ATOM     64  C   UNL     1      -9.614  10.981  11.727  1.00  0.00     0.010 A 
ATOM     65  C   UNL     1     -10.079  10.195   9.475  1.00  0.00     0.010 A 
ATOM     66  C   UNL     1     -10.192   9.822  12.251  1.00  0.00     0.020 A 
ATOM     67  C   UNL     1     -10.661   9.038   9.996  1.00  0.00     0.020 A 
ATOM     68  C   UNL     1     -10.692   8.848  11.381  1.00  0.00     0.054 A 
BRANCH  68  69
ATOM     69  S   UNL     1     -11.404   7.319  12.050  1.00  0.00     0.124 S 
ATOM     70  O   UNL     1     -10.257   6.415  12.011  1.00  0.00    -0.237 OA
ATOM     71  O   UNL     1     -11.848   7.708  13.386  1.00  0.00    -0.237 OA
ATOM     72  O   UNL     1     -12.476   7.011  11.107  1.00  0.00    -0.744 OA
ENDBRANCH  68  69
ENDBRANCH  49  63
BRANCH  50  73
ATOM     73  C   UNL     1      -4.432  18.572   6.121  1.00  0.00    -0.014 A 
ATOM     74  C   UNL     1      -3.859  19.609   6.876  1.00  0.00     0.010 A 
ATOM     75  C   UNL     1      -4.222  18.524   4.732  1.00  0.00     0.010 A 
ATOM     76  C   UNL     1      -3.072  20.581   6.253  1.00  0.00     0.020 A 
ATOM     77  C   UNL     1      -3.431  19.491   4.108  1.00  0.00     0.020 A 
ATOM     78  C   UNL     1      -2.861  20.514   4.873  1.00  0.00     0.054 A 
BRANCH  78  79
ATOM     79  S   UNL     1      -1.755  21.710   4.073  1.00  0.00     0.124 S 
ATOM     80  O   UNL     1      -2.692  22.732   3.619  1.00  0.00    -0.237 OA
ATOM     81  O   UNL     1      -0.860  22.110   5.157  1.00  0.00    -0.237 OA
ATOM     82  O   UNL     1      -1.123  20.918   3.020  1.00  0.00    -0.744 OA
ENDBRANCH  78  79
ENDBRANCH  50  73
BRANCH  62  83
ATOM     83  C   UNL     1     -11.100  17.798   7.934  1.00  0.00    -0.014 A 
ATOM     84  C   UNL     1     -11.858  17.819   6.750  1.00  0.00     0.010 A 
ATOM     85  C   UNL     1     -11.477  18.614   9.013  1.00  0.00     0.010 A 
ATOM     86  C   UNL     1     -12.967  18.662   6.639  1.00  0.00     0.020 A 
ATOM     87  C   UNL     1     -12.588  19.455   8.906  1.00  0.00     0.020 A 
ATOM     88  C   UNL     1     -13.319  19.483   7.715  1.00  0.00     0.054 A 
BRANCH  88  89
ATOM     89  S   UNL     1     -14.776  20.557   7.585  1.00  0.00     0.124 S 
ATOM     90  O   UNL     1     -14.192  21.800   7.088  1.00  0.00    -0.237 OA
ATOM     91  O   UNL     1     -15.635  19.846   6.640  1.00  0.00    -0.237 OA
ATOM     92  O   UNL     1     -15.279  20.605   8.956  1.00  0.00    -0.744 OA
ENDBRANCH  88  89
ENDBRANCH  62  83
ENDBRANCH  36  37
ENDBRANCH  28  31
ENDBRANCH  26  27
ENDBRANCH  25  26
ENDBRANCH   1  25
TORSDOF 18
