REMARK SMILES Cc1cc(C(=O)NCCCCNC(=O)c2ccc(-c3c4nc(c(-c5ccc(S(=O)(=O)[O-])cc5)c5ccc([nH]5)c(-c5ccc(S(=O)(=O)[O-])cc5)c5nc(c(-c6ccc(S(=O)(=O)[O-])cc6)c6ccc3[nH]6)C=C5)C=C4)cc2)ccc1NC(=O)c1ccc(=O)n(CCOc2ccccc2)n1
REMARK SMILES IDX 8 1 7 2 5 3 6 4 4 6 1 7 2 8 3 9 77 10 76 11 75 12 78 13
REMARK SMILES IDX 79 14 80 16 81 17 82 18 96 19 83 20 86 21 84 22 85 23 87 24
REMARK SMILES IDX 88 25 89 26 90 27 91 28 95 29 92 30 94 31 93 32 9 33 10 34
REMARK SMILES IDX 11 35 12 36 13 37 14 39 15 40 16 41 74 42 17 43 73 44 18 45
REMARK SMILES IDX 19 46 20 47 67 48 21 49 72 50 66 51 68 52 22 53 71 54 65 55
REMARK SMILES IDX 64 56 23 58 53 59 34 60 52 61 35 62 38 63 51 64 69 65 36 66
REMARK SMILES IDX 37 67 50 69 70 70 39 71 24 72 25 73 33 74 26 75 32 76 27 77
REMARK SMILES IDX 28 78 29 79 30 80 31 81 54 82 55 83 63 84 56 85 62 86 57 87
REMARK SMILES IDX 58 88 59 89 60 90 61 91 40 92 41 93 49 94 42 95 48 96 43 97
REMARK SMILES IDX 44 98 45 99 46 100 47 101
REMARK H PARENT 7 5 78 15 12 38 68 57 38 68
REMARK Flexibility Score: inf
ROOT
ATOM      1  C   UNL     1      -3.931  -1.515  -0.019  1.00  0.00     0.116 C 
ENDROOT
BRANCH   1   2
ATOM      2  N   UNL     1      -2.977  -2.607  -0.236  1.00  0.00    -0.352 N 
ATOM      3  C   UNL     1      -1.599  -2.641  -0.244  1.00  0.00     0.251 C 
ATOM      4  O   UNL     1      -1.025  -3.729  -0.212  1.00  0.00    -0.269 OA
ATOM      5  H   UNL     1      -3.399  -3.479  -0.409  1.00  0.00     0.163 HD
BRANCH   3   6
ATOM      6  C   UNL     1      -0.772  -1.408  -0.287  1.00  0.00     0.040 A 
ATOM      7  C   UNL     1       2.724  -0.325   0.753  1.00  0.00     0.046 C 
ATOM      8  C   UNL     1       1.296  -0.203   0.298  1.00  0.00    -0.027 A 
ATOM      9  C   UNL     1       0.510  -1.385   0.283  1.00  0.00     0.019 A 
ATOM     10  C   UNL     1       0.736   0.983  -0.198  1.00  0.00     0.044 A 
ATOM     11  C   UNL     1      -0.410   0.863  -0.978  1.00  0.00     0.027 A 
ATOM     12  C   UNL     1      -1.166  -0.303  -1.015  1.00  0.00     0.016 A 
BRANCH  10  13
ATOM     13  N   UNL     1       1.308   2.246   0.083  1.00  0.00    -0.320 N 
ATOM     14  C   UNL     1       0.693   3.489   0.187  1.00  0.00     0.276 C 
ATOM     15  H   UNL     1       2.282   2.245   0.225  1.00  0.00     0.170 HD
ATOM     16  O   UNL     1       1.330   4.514   0.406  1.00  0.00    -0.267 OA
BRANCH  14  17
ATOM     17  C   UNL     1      -0.813   3.589   0.031  1.00  0.00     0.149 A 
ATOM     18  C   UNL     1      -1.276   4.050  -1.295  1.00  0.00     0.042 A 
ATOM     19  N   UNL     1      -1.594   3.220   1.004  1.00  0.00    -0.164 NA
ATOM     20  C   UNL     1      -2.482   3.606  -1.648  1.00  0.00     0.076 A 
ATOM     21  N   UNL     1      -2.925   3.006   0.644  1.00  0.00    -0.226 N 
ATOM     22  C   UNL     1      -3.278   2.810  -0.685  1.00  0.00     0.266 A 
ATOM     23  O   UNL     1      -4.183   2.101  -1.104  1.00  0.00    -0.268 OA
BRANCH  21  24
ATOM     24  C   UNL     1      -3.889   2.743   1.717  1.00  0.00     0.190 C 
BRANCH  24  25
ATOM     25  C   UNL     1      -4.509   4.047   2.255  1.00  0.00     0.253 C 
BRANCH  25  26
ATOM     26  O   UNL     1      -5.776   4.348   1.642  1.00  0.00    -0.492 OA
BRANCH  26  27
ATOM     27  C   UNL     1      -5.694   5.313   0.681  1.00  0.00     0.119 A 
ATOM     28  C   UNL     1      -5.836   6.658   1.005  1.00  0.00     0.046 A 
ATOM     29  C   UNL     1      -5.595   4.931  -0.650  1.00  0.00     0.046 A 
ATOM     30  C   UNL     1      -5.757   7.622  -0.006  1.00  0.00     0.004 A 
ATOM     31  C   UNL     1      -5.450   5.886  -1.652  1.00  0.00     0.004 A 
ATOM     32  C   UNL     1      -5.521   7.237  -1.328  1.00  0.00     0.000 A 
ENDBRANCH  26  27
ENDBRANCH  25  26
ENDBRANCH  24  25
ENDBRANCH  21  24
ENDBRANCH  14  17
ENDBRANCH  10  13
ENDBRANCH   3   6
ENDBRANCH   1   2
BRANCH   1  33
ATOM     33  C   UNL     1      -4.686  -1.079  -1.286  1.00  0.00     0.023 C 
BRANCH  33  34
ATOM     34  C   UNL     1      -5.545  -2.150  -1.957  1.00  0.00     0.023 C 
BRANCH  34  35
ATOM     35  C   UNL     1      -6.819  -2.466  -1.184  1.00  0.00     0.116 C 
BRANCH  35  36
ATOM     36  N   UNL     1      -8.045  -2.091  -1.879  1.00  0.00    -0.352 N 
ATOM     37  C   UNL     1      -9.352  -2.423  -1.549  1.00  0.00     0.251 C 
ATOM     38  H   UNL     1      -7.931  -1.533  -2.683  1.00  0.00     0.163 HD
ATOM     39  O   UNL     1     -10.275  -2.290  -2.332  1.00  0.00    -0.269 OA
BRANCH  37  40
ATOM     40  C   UNL     1      -9.605  -2.833  -0.150  1.00  0.00     0.039 A 
ATOM     41  C   UNL     1     -10.359  -1.962   0.646  1.00  0.00     0.014 A 
ATOM     42  C   UNL     1      -8.856  -3.857   0.417  1.00  0.00     0.014 A 
ATOM     43  C   UNL     1     -10.188  -1.980   2.027  1.00  0.00     0.010 A 
ATOM     44  C   UNL     1      -8.592  -3.792   1.768  1.00  0.00     0.010 A 
ATOM     45  C   UNL     1      -9.216  -2.819   2.564  1.00  0.00    -0.014 A 
BRANCH  45  46
ATOM     46  C   UNL     1      -8.705  -2.720   3.925  1.00  0.00     0.031 A 
ATOM     47  C   UNL     1      -9.010  -3.794   4.897  1.00  0.00     0.074 A 
ATOM     48  C   UNL     1      -7.804  -1.756   4.223  1.00  0.00     0.049 A 
ATOM     49  N   UNL     1      -8.830  -3.711   6.173  1.00  0.00    -0.248 NA
ATOM     50  C   UNL     1      -9.617  -5.059   4.490  1.00  0.00     0.031 C 
ATOM     51  C   UNL     1      -6.880  -1.741   5.355  1.00  0.00     0.029 A 
ATOM     52  N   UNL     1      -7.678  -0.477   3.675  1.00  0.00    -0.354 N 
ATOM     53  C   UNL     1      -8.962  -4.982   6.688  1.00  0.00     0.074 A 
ATOM     54  C   UNL     1      -9.567  -5.752   5.629  1.00  0.00     0.031 C 
ATOM     55  C   UNL     1      -6.527  -0.470   5.603  1.00  0.00     0.029 A 
ATOM     56  C   UNL     1      -7.346   0.370   4.745  1.00  0.00     0.049 A 
ATOM     57  H   UNL     1      -7.798  -0.222   2.732  1.00  0.00     0.167 HD
ATOM     58  C   UNL     1      -8.389  -5.279   7.890  1.00  0.00     0.031 A 
ATOM     59  C   UNL     1      -8.139   1.393   5.184  1.00  0.00     0.031 A 
ATOM     60  C   UNL     1      -7.897  -4.071   8.555  1.00  0.00     0.049 A 
ATOM     61  C   UNL     1      -8.526   1.251   6.640  1.00  0.00     0.074 A 
ATOM     62  C   UNL     1      -6.633  -3.527   8.714  1.00  0.00     0.029 A 
ATOM     63  N   UNL     1      -8.802  -3.077   8.912  1.00  0.00    -0.354 N 
ATOM     64  N   UNL     1      -8.437   0.134   7.307  1.00  0.00    -0.248 NA
ATOM     65  C   UNL     1      -9.069   2.338   7.451  1.00  0.00     0.031 C 
ATOM     66  C   UNL     1      -6.789  -2.159   9.064  1.00  0.00     0.029 A 
ATOM     67  C   UNL     1      -8.144  -1.887   9.156  1.00  0.00     0.049 A 
ATOM     68  H   UNL     1      -9.776  -3.203   8.981  1.00  0.00     0.167 HD
ATOM     69  C   UNL     1      -8.879   0.322   8.588  1.00  0.00     0.074 A 
ATOM     70  C   UNL     1      -9.262   1.722   8.632  1.00  0.00     0.031 C 
ATOM     71  C   UNL     1      -8.896  -0.689   9.505  1.00  0.00     0.031 A 
BRANCH  58  72
ATOM     72  C   UNL     1      -8.005  -6.686   8.317  1.00  0.00    -0.014 A 
ATOM     73  C   UNL     1      -7.006  -6.866   9.299  1.00  0.00     0.010 A 
ATOM     74  C   UNL     1      -8.505  -7.868   7.737  1.00  0.00     0.010 A 
ATOM     75  C   UNL     1      -6.476  -8.132   9.607  1.00  0.00     0.020 A 
ATOM     76  C   UNL     1      -7.973  -9.136   8.017  1.00  0.00     0.020 A 
ATOM     77  C   UNL     1      -6.946  -9.260   8.941  1.00  0.00     0.054 A 
BRANCH  77  78
ATOM     78  S   UNL     1      -6.205 -10.876   9.283  1.00  0.00     0.124 S 
ATOM     79  O   UNL     1      -4.803 -10.660   8.931  1.00  0.00    -0.237 OA
ATOM     80  O   UNL     1      -6.478 -11.053  10.706  1.00  0.00    -0.237 OA
ATOM     81  O   UNL     1      -6.928 -11.786   8.396  1.00  0.00    -0.744 OA
ENDBRANCH  77  78
ENDBRANCH  58  72
BRANCH  59  82
ATOM     82  C   UNL     1      -8.984   2.018   4.129  1.00  0.00    -0.014 A 
ATOM     83  C   UNL     1      -8.322   2.805   3.166  1.00  0.00     0.010 A 
ATOM     84  C   UNL     1     -10.248   1.487   3.818  1.00  0.00     0.010 A 
ATOM     85  C   UNL     1      -8.807   2.888   1.858  1.00  0.00     0.020 A 
ATOM     86  C   UNL     1     -10.743   1.580   2.508  1.00  0.00     0.020 A 
ATOM     87  C   UNL     1      -9.978   2.212   1.523  1.00  0.00     0.054 A 
BRANCH  87  88
ATOM     88  S   UNL     1     -10.356   1.984  -0.242  1.00  0.00     0.124 S 
ATOM     89  O   UNL     1     -10.395   3.354  -0.742  1.00  0.00    -0.237 OA
ATOM     90  O   UNL     1      -9.220   1.178  -0.686  1.00  0.00    -0.237 OA
ATOM     91  O   UNL     1     -11.640   1.289  -0.219  1.00  0.00    -0.744 OA
ENDBRANCH  87  88
ENDBRANCH  59  82
BRANCH  71  92
ATOM     92  C   UNL     1      -9.560  -0.632  10.858  1.00  0.00    -0.014 A 
ATOM     93  C   UNL     1     -10.645   0.203  11.164  1.00  0.00     0.010 A 
ATOM     94  C   UNL     1      -9.171  -1.570  11.845  1.00  0.00     0.010 A 
ATOM     95  C   UNL     1     -11.274   0.148  12.416  1.00  0.00     0.020 A 
ATOM     96  C   UNL     1      -9.819  -1.664  13.079  1.00  0.00     0.020 A 
ATOM     97  C   UNL     1     -10.855  -0.784  13.367  1.00  0.00     0.054 A 
BRANCH  97  98
ATOM     98  S   UNL     1     -11.717  -0.896  14.955  1.00  0.00     0.124 S 
ATOM     99  O   UNL     1     -10.993   0.084  15.759  1.00  0.00    -0.237 OA
ATOM    100  O   UNL     1     -13.090  -0.533  14.610  1.00  0.00    -0.237 OA
ATOM    101  O   UNL     1     -11.530  -2.291  15.346  1.00  0.00    -0.744 OA
ENDBRANCH  97  98
ENDBRANCH  71  92
ENDBRANCH  45  46
ENDBRANCH  37  40
ENDBRANCH  35  36
ENDBRANCH  34  35
ENDBRANCH  33  34
ENDBRANCH   1  33
TORSDOF 20
