REMARK SMILES CC(=O)Oc1ccccc1C(=O)NCCCCNC(=O)c1ccc(-c2c3nc(c(-c4ccc(S(=O)(=O)[O-])cc4)c4ccc([nH]4)c(-c4ccc(S(=O)(=O)[O-])cc4)c4nc(c(-c5ccc(S(=O)(=O)[O-])cc5)c5ccc2[nH]5)C=C4)C=C3)cc1
REMARK SMILES IDX 16 1 15 2 14 3 13 4 11 5 12 6 10 8 5 9 6 10 7 11 9 12 8 13
REMARK SMILES IDX 4 14 2 15 1 16 3 17 17 18 18 19 19 20 20 22 21 23 22 24
REMARK SMILES IDX 80 25 23 26 79 27 24 28 25 29 26 30 73 31 27 32 78 33 72 34
REMARK SMILES IDX 74 35 28 36 77 37 71 38 70 39 29 41 59 42 40 43 58 44 41 45
REMARK SMILES IDX 44 46 57 47 75 48 42 49 43 50 56 52 76 53 45 54 30 55 31 56
REMARK SMILES IDX 39 57 32 58 38 59 33 60 34 61 35 62 36 63 37 64 60 65 61 66
REMARK SMILES IDX 69 67 62 68 68 69 63 70 64 71 65 72 66 73 67 74 46 75 47 76
REMARK SMILES IDX 55 77 48 78 54 79 49 80 50 81 51 82 52 83 53 84
REMARK H PARENT 13 7 18 21 74 40 44 51
REMARK Flexibility Score: inf
ROOT
ATOM      1  C   UNL     1      -1.069   1.889  -1.194  1.00  0.00     0.023 C 
ENDROOT
BRANCH   1   2
ATOM      2  C   UNL     1      -0.676   0.729  -2.107  1.00  0.00     0.023 C 
BRANCH   2   3
ATOM      3  C   UNL     1      -0.443  -0.620  -1.447  1.00  0.00     0.116 C 
BRANCH   3   4
ATOM      4  N   UNL     1      -1.599  -1.294  -0.911  1.00  0.00    -0.352 N 
ATOM      5  C   UNL     1      -1.808  -2.640  -0.695  1.00  0.00     0.255 C 
ATOM      6  O   UNL     1      -2.863  -2.967  -0.148  1.00  0.00    -0.269 OA
ATOM      7  H   UNL     1      -2.349  -0.708  -0.663  1.00  0.00     0.163 HD
BRANCH   5   8
ATOM      8  C   UNL     1      -0.895  -3.719  -1.186  1.00  0.00     0.082 A 
ATOM      9  C   UNL     1       0.506  -3.724  -1.221  1.00  0.00     0.143 A 
ATOM     10  C   UNL     1       1.213  -4.778  -1.823  1.00  0.00     0.048 A 
ATOM     11  C   UNL     1       0.534  -5.879  -2.337  1.00  0.00     0.004 A 
ATOM     12  C   UNL     1      -1.555  -4.868  -1.673  1.00  0.00     0.018 A 
ATOM     13  C   UNL     1      -0.851  -5.935  -2.244  1.00  0.00     0.001 A 
BRANCH   9  14
ATOM     14  O   UNL     1       1.323  -2.674  -0.777  1.00  0.00    -0.426 OA
BRANCH  14  15
ATOM     15  C   UNL     1       1.449  -2.496   0.595  1.00  0.00     0.308 C 
ATOM     16  C   UNL     1       2.353  -1.318   0.844  1.00  0.00     0.139 C 
ATOM     17  O   UNL     1       0.944  -3.190   1.468  1.00  0.00    -0.252 OA
ENDBRANCH  14  15
ENDBRANCH   9  14
ENDBRANCH   5   8
ENDBRANCH   3   4
ENDBRANCH   2   3
ENDBRANCH   1   2
BRANCH   1  18
ATOM     18  C   UNL     1      -0.250   2.107   0.077  1.00  0.00     0.116 C 
BRANCH  18  19
ATOM     19  N   UNL     1       1.180   2.288  -0.132  1.00  0.00    -0.352 N 
ATOM     20  C   UNL     1       2.039   3.222   0.409  1.00  0.00     0.251 C 
ATOM     21  H   UNL     1       1.596   1.647  -0.754  1.00  0.00     0.163 HD
ATOM     22  O   UNL     1       3.230   3.193   0.112  1.00  0.00    -0.269 OA
BRANCH  20  23
ATOM     23  C   UNL     1       1.520   4.298   1.287  1.00  0.00     0.039 A 
ATOM     24  C   UNL     1       1.872   5.619   0.997  1.00  0.00     0.014 A 
ATOM     25  C   UNL     1       0.646   4.027   2.343  1.00  0.00     0.014 A 
ATOM     26  C   UNL     1       1.257   6.668   1.685  1.00  0.00     0.010 A 
ATOM     27  C   UNL     1      -0.027   5.075   2.971  1.00  0.00     0.010 A 
ATOM     28  C   UNL     1       0.252   6.408   2.632  1.00  0.00    -0.014 A 
BRANCH  28  29
ATOM     29  C   UNL     1      -0.554   7.522   3.204  1.00  0.00     0.031 A 
ATOM     30  C   UNL     1      -0.531   7.824   4.677  1.00  0.00     0.074 A 
ATOM     31  C   UNL     1      -1.349   8.244   2.386  1.00  0.00     0.049 A 
ATOM     32  N   UNL     1      -1.136   8.786   5.329  1.00  0.00    -0.248 NA
ATOM     33  C   UNL     1       0.252   6.920   5.533  1.00  0.00     0.031 C 
ATOM     34  C   UNL     1      -1.513   8.014   0.948  1.00  0.00     0.029 A 
ATOM     35  N   UNL     1      -2.160   9.323   2.640  1.00  0.00    -0.354 N 
ATOM     36  C   UNL     1      -0.809   8.603   6.667  1.00  0.00     0.074 A 
ATOM     37  C   UNL     1      -0.002   7.403   6.741  1.00  0.00     0.031 C 
ATOM     38  C   UNL     1      -2.327   8.952   0.440  1.00  0.00     0.029 A 
ATOM     39  C   UNL     1      -2.777   9.826   1.518  1.00  0.00     0.049 A 
ATOM     40  H   UNL     1      -2.288   9.700   3.540  1.00  0.00     0.167 HD
ATOM     41  C   UNL     1      -1.132   9.373   7.736  1.00  0.00     0.031 A 
ATOM     42  C   UNL     1      -3.607  10.878   1.365  1.00  0.00     0.031 A 
ATOM     43  C   UNL     1      -1.948  10.558   7.662  1.00  0.00     0.049 A 
ATOM     44  C   UNL     1      -3.958  11.711   2.566  1.00  0.00     0.074 A 
ATOM     45  C   UNL     1      -2.287  11.435   8.678  1.00  0.00     0.029 A 
ATOM     46  N   UNL     1      -2.565  11.026   6.511  1.00  0.00    -0.354 N 
ATOM     47  N   UNL     1      -3.564  11.573   3.810  1.00  0.00    -0.248 NA
ATOM     48  C   UNL     1      -4.855  12.852   2.338  1.00  0.00     0.031 C 
ATOM     49  C   UNL     1      -3.159  12.396   8.155  1.00  0.00     0.029 A 
ATOM     50  C   UNL     1      -3.310  12.159   6.798  1.00  0.00     0.049 A 
ATOM     51  H   UNL     1      -2.486  10.614   5.620  1.00  0.00     0.167 HD
ATOM     52  C   UNL     1      -4.151  12.621   4.511  1.00  0.00     0.074 A 
ATOM     53  C   UNL     1      -4.902  13.399   3.546  1.00  0.00     0.031 C 
ATOM     54  C   UNL     1      -4.075  12.912   5.834  1.00  0.00     0.031 A 
BRANCH  41  55
ATOM     55  C   UNL     1      -0.606   8.943   9.083  1.00  0.00    -0.014 A 
ATOM     56  C   UNL     1       0.770   8.988   9.376  1.00  0.00     0.010 A 
ATOM     57  C   UNL     1      -1.500   8.510  10.080  1.00  0.00     0.010 A 
ATOM     58  C   UNL     1       1.247   8.558  10.618  1.00  0.00     0.020 A 
ATOM     59  C   UNL     1      -1.030   8.111  11.335  1.00  0.00     0.020 A 
ATOM     60  C   UNL     1       0.343   8.117  11.588  1.00  0.00     0.054 A 
BRANCH  60  61
ATOM     61  S   UNL     1       0.990   7.569  13.192  1.00  0.00     0.124 S 
ATOM     62  O   UNL     1       1.623   6.300  12.843  1.00  0.00    -0.237 OA
ATOM     63  O   UNL     1       1.906   8.648  13.552  1.00  0.00    -0.237 OA
ATOM     64  O   UNL     1      -0.202   7.461  14.030  1.00  0.00    -0.744 OA
ENDBRANCH  60  61
ENDBRANCH  41  55
BRANCH  42  65
ATOM     65  C   UNL     1      -4.135  11.217   0.014  1.00  0.00    -0.014 A 
ATOM     66  C   UNL     1      -3.698  12.374  -0.655  1.00  0.00     0.010 A 
ATOM     67  C   UNL     1      -5.058  10.368  -0.624  1.00  0.00     0.010 A 
ATOM     68  C   UNL     1      -4.180  12.681  -1.931  1.00  0.00     0.020 A 
ATOM     69  C   UNL     1      -5.520  10.655  -1.912  1.00  0.00     0.020 A 
ATOM     70  C   UNL     1      -5.083  11.815  -2.555  1.00  0.00     0.054 A 
BRANCH  70  71
ATOM     71  S   UNL     1      -5.638  12.195  -4.240  1.00  0.00     0.124 S 
ATOM     72  O   UNL     1      -6.522  13.335  -4.019  1.00  0.00    -0.237 OA
ATOM     73  O   UNL     1      -4.383  12.490  -4.925  1.00  0.00    -0.237 OA
ATOM     74  O   UNL     1      -6.298  10.964  -4.669  1.00  0.00    -0.744 OA
ENDBRANCH  70  71
ENDBRANCH  42  65
BRANCH  54  75
ATOM     75  C   UNL     1      -4.819  14.133   6.311  1.00  0.00    -0.014 A 
ATOM     76  C   UNL     1      -6.225  14.170   6.336  1.00  0.00     0.010 A 
ATOM     77  C   UNL     1      -4.099  15.257   6.758  1.00  0.00     0.010 A 
ATOM     78  C   UNL     1      -6.896  15.324   6.749  1.00  0.00     0.020 A 
ATOM     79  C   UNL     1      -4.766  16.401   7.205  1.00  0.00     0.020 A 
ATOM     80  C   UNL     1      -6.162  16.434   7.176  1.00  0.00     0.054 A 
BRANCH  80  81
ATOM     81  S   UNL     1      -7.056  17.916   7.717  1.00  0.00     0.124 S 
ATOM     82  O   UNL     1      -7.548  18.453   6.451  1.00  0.00    -0.237 OA
ATOM     83  O   UNL     1      -8.077  17.368   8.607  1.00  0.00    -0.237 OA
ATOM     84  O   UNL     1      -6.030  18.720   8.377  1.00  0.00    -0.744 OA
ENDBRANCH  80  81
ENDBRANCH  54  75
ENDBRANCH  28  29
ENDBRANCH  20  23
ENDBRANCH  18  19
ENDBRANCH   1  18
TORSDOF 16
