REMARK SMILES C#CCOc1ccc(/C=C(\Sc2nc(C)n[nH]2)C(=O)NCCCCNC(=O)c2ccc(-c3c4nc(c(-c5ccc(S(=O)(=O)[O-])cc5)c5ccc([nH]5)c(-c5ccc(S(=O)(=O)[O-])cc5)c5nc(c(-c6ccc(S(=O)(=O)[O-])cc6)c6ccc3[nH]6)C=C5)C=C4)cc2)cc1
REMARK SMILES IDX 22 1 21 2 20 3 18 4 19 5 10 7 9 8 8 9 5 10 6 11 89 12 7 13
REMARK SMILES IDX 88 14 4 15 3 16 2 17 1 18 11 19 12 20 13 21 17 22 14 23
REMARK SMILES IDX 16 24 15 26 23 27 24 28 25 29 26 30 27 32 28 33 29 34 87 35
REMARK SMILES IDX 30 36 86 37 31 38 32 39 33 40 80 41 34 42 85 43 79 44 81 45
REMARK SMILES IDX 35 46 84 47 78 48 77 49 36 51 66 52 47 53 65 54 48 55 51 56
REMARK SMILES IDX 64 57 82 58 49 59 50 60 63 62 83 63 52 64 37 65 38 66 46 67
REMARK SMILES IDX 39 68 45 69 40 70 41 71 42 72 43 73 44 74 67 75 68 76 76 77
REMARK SMILES IDX 69 78 75 79 70 80 71 81 72 82 73 83 74 84 53 85 54 86 62 87
REMARK SMILES IDX 55 88 61 89 56 90 57 91 58 92 59 93 60 94
REMARK H PARENT 20 6 17 25 25 31 81 50 51 61
REMARK Flexibility Score: inf
ROOT
ATOM      1  C   UNL     1      -4.769  -8.325   5.741  1.00  0.00     0.023 C 
ENDROOT
BRANCH   1   2
ATOM      2  C   UNL     1      -3.703  -7.552   6.537  1.00  0.00     0.116 C 
BRANCH   2   3
ATOM      3  N   UNL     1      -2.372  -7.757   5.995  1.00  0.00    -0.352 N 
ATOM      4  C   UNL     1      -1.632  -7.058   5.082  1.00  0.00     0.258 C 
ATOM      5  O   UNL     1      -0.528  -7.524   4.788  1.00  0.00    -0.269 OA
ATOM      6  H   UNL     1      -1.914  -8.551   6.353  1.00  0.00     0.163 HD
BRANCH   4   7
ATOM      7  C   UNL     1      -2.106  -5.758   4.456  1.00  0.00     0.081 C 
ATOM      8  C   UNL     1      -1.105  -4.863   4.310  1.00  0.00     0.029 C 
BRANCH   8   9
ATOM      9  C   UNL     1      -1.154  -3.565   3.643  1.00  0.00    -0.024 A 
ATOM     10  C   UNL     1      -1.777  -1.303   2.108  1.00  0.00     0.120 A 
ATOM     11  C   UNL     1      -2.078  -1.338   3.473  1.00  0.00     0.047 A 
ATOM     12  C   UNL     1      -1.036  -2.357   1.559  1.00  0.00     0.047 A 
ATOM     13  C   UNL     1      -1.765  -2.463   4.243  1.00  0.00     0.012 A 
ATOM     14  C   UNL     1      -0.695  -3.469   2.331  1.00  0.00     0.012 A 
BRANCH  10  15
ATOM     15  O   UNL     1      -2.312  -0.232   1.422  1.00  0.00    -0.481 OA
BRANCH  15  16
ATOM     16  C   UNL     1      -1.900   0.015   0.063  1.00  0.00     0.318 C 
BRANCH  16  17
ATOM     17  C   UNL     1      -0.380   0.015   0.063  1.00  0.00    -0.065 C 
ATOM     18  C   UNL     1       0.924   0.015   0.063  1.00  0.00     0.007 C 
ENDBRANCH  16  17
ENDBRANCH  15  16
ENDBRANCH  10  15
ENDBRANCH   8   9
BRANCH   7  19
ATOM     19  S   UNL     1      -3.754  -5.744   3.935  1.00  0.00    -0.045 SA
BRANCH  19  20
ATOM     20  C   UNL     1      -4.110  -4.283   3.143  1.00  0.00     0.188 A 
ATOM     21  N   UNL     1      -4.030  -4.047   1.858  1.00  0.00    -0.206 NA
ATOM     22  N   UNL     1      -4.839  -3.302   3.746  1.00  0.00    -0.254 N 
ATOM     23  C   UNL     1      -4.673  -2.844   1.731  1.00  0.00     0.148 A 
ATOM     24  N   UNL     1      -5.228  -2.368   2.855  1.00  0.00    -0.158 NA
ATOM     25  H   UNL     1      -5.053  -3.278   4.706  1.00  0.00     0.192 HD
ATOM     26  C   UNL     1      -4.706  -2.130   0.444  1.00  0.00     0.092 C 
ENDBRANCH  19  20
ENDBRANCH   7  19
ENDBRANCH   4   7
ENDBRANCH   2   3
ENDBRANCH   1   2
BRANCH   1  27
ATOM     27  C   UNL     1      -4.845  -9.833   6.002  1.00  0.00     0.023 C 
BRANCH  27  28
ATOM     28  C   UNL     1      -5.341 -10.207   7.387  1.00  0.00     0.116 C 
BRANCH  28  29
ATOM     29  N   UNL     1      -6.694  -9.710   7.673  1.00  0.00    -0.352 N 
ATOM     30  C   UNL     1      -7.352  -9.671   8.899  1.00  0.00     0.251 C 
ATOM     31  H   UNL     1      -7.198  -9.361   6.903  1.00  0.00     0.163 HD
ATOM     32  O   UNL     1      -8.563  -9.606   8.974  1.00  0.00    -0.269 OA
BRANCH  30  33
ATOM     33  C   UNL     1      -6.510  -9.668  10.108  1.00  0.00     0.039 A 
ATOM     34  C   UNL     1      -6.773 -10.438  11.244  1.00  0.00     0.014 A 
ATOM     35  C   UNL     1      -5.355  -8.908  10.009  1.00  0.00     0.014 A 
ATOM     36  C   UNL     1      -5.807 -10.475  12.251  1.00  0.00     0.010 A 
ATOM     37  C   UNL     1      -4.312  -9.193  10.832  1.00  0.00     0.010 A 
ATOM     38  C   UNL     1      -4.573  -9.849  12.022  1.00  0.00    -0.014 A 
BRANCH  38  39
ATOM     39  C   UNL     1      -3.479  -9.839  12.973  1.00  0.00     0.031 A 
ATOM     40  C   UNL     1      -2.959 -11.169  13.359  1.00  0.00     0.074 A 
ATOM     41  C   UNL     1      -2.830  -8.691  13.277  1.00  0.00     0.049 A 
ATOM     42  N   UNL     1      -3.130 -11.752  14.495  1.00  0.00    -0.248 NA
ATOM     43  C   UNL     1      -2.304 -12.014  12.349  1.00  0.00     0.031 C 
ATOM     44  C   UNL     1      -3.032  -7.336  12.738  1.00  0.00     0.029 A 
ATOM     45  N   UNL     1      -1.736  -8.528  14.057  1.00  0.00    -0.354 N 
ATOM     46  C   UNL     1      -2.425 -12.946  14.430  1.00  0.00     0.074 A 
ATOM     47  C   UNL     1      -2.094 -13.139  13.040  1.00  0.00     0.031 C 
ATOM     48  C   UNL     1      -1.948  -6.574  13.006  1.00  0.00     0.029 A 
ATOM     49  C   UNL     1      -1.068  -7.322  13.883  1.00  0.00     0.049 A 
ATOM     50  H   UNL     1      -1.437  -9.211  14.699  1.00  0.00     0.167 HD
ATOM     51  C   UNL     1      -1.985 -13.565  15.560  1.00  0.00     0.031 A 
ATOM     52  C   UNL     1       0.139  -6.986  14.405  1.00  0.00     0.031 A 
ATOM     53  C   UNL     1      -2.483 -12.909  16.745  1.00  0.00     0.049 A 
ATOM     54  C   UNL     1       0.341  -7.869  15.586  1.00  0.00     0.074 A 
ATOM     55  C   UNL     1      -3.741 -12.679  17.264  1.00  0.00     0.029 A 
ATOM     56  N   UNL     1      -1.647 -11.986  17.336  1.00  0.00    -0.354 N 
ATOM     57  N   UNL     1      -0.426  -7.811  16.642  1.00  0.00    -0.248 NA
ATOM     58  C   UNL     1       1.022  -9.142  15.389  1.00  0.00     0.031 C 
ATOM     59  C   UNL     1      -3.693 -11.338  17.745  1.00  0.00     0.029 A 
ATOM     60  C   UNL     1      -2.390 -10.857  17.582  1.00  0.00     0.049 A 
ATOM     61  H   UNL     1      -0.693 -12.112  17.544  1.00  0.00     0.167 HD
ATOM     62  C   UNL     1      -0.684  -9.136  16.970  1.00  0.00     0.074 A 
ATOM     63  C   UNL     1       0.315  -9.909  16.227  1.00  0.00     0.031 C 
ATOM     64  C   UNL     1      -1.859  -9.508  17.566  1.00  0.00     0.031 A 
BRANCH  51  65
ATOM     65  C   UNL     1      -0.828 -14.518  15.633  1.00  0.00    -0.014 A 
ATOM     66  C   UNL     1      -0.617 -15.225  16.834  1.00  0.00     0.010 A 
ATOM     67  C   UNL     1       0.202 -14.546  14.673  1.00  0.00     0.010 A 
ATOM     68  C   UNL     1       0.596 -15.871  17.091  1.00  0.00     0.020 A 
ATOM     69  C   UNL     1       1.403 -15.221  14.905  1.00  0.00     0.020 A 
ATOM     70  C   UNL     1       1.605 -15.850  16.128  1.00  0.00     0.054 A 
BRANCH  70  71
ATOM     71  S   UNL     1       3.208 -16.590  16.523  1.00  0.00     0.124 S 
ATOM     72  O   UNL     1       3.678 -15.731  17.605  1.00  0.00    -0.237 OA
ATOM     73  O   UNL     1       2.835 -17.948  16.907  1.00  0.00    -0.237 OA
ATOM     74  O   UNL     1       3.952 -16.483  15.270  1.00  0.00    -0.744 OA
ENDBRANCH  70  71
ENDBRANCH  51  65
BRANCH  52  75
ATOM     75  C   UNL     1       1.229  -6.235  13.726  1.00  0.00    -0.014 A 
ATOM     76  C   UNL     1       2.367  -5.790  14.425  1.00  0.00     0.010 A 
ATOM     77  C   UNL     1       1.277  -6.194  12.316  1.00  0.00     0.010 A 
ATOM     78  C   UNL     1       3.531  -5.391  13.738  1.00  0.00     0.020 A 
ATOM     79  C   UNL     1       2.428  -5.794  11.626  1.00  0.00     0.020 A 
ATOM     80  C   UNL     1       3.561  -5.420  12.341  1.00  0.00     0.054 A 
BRANCH  80  81
ATOM     81  S   UNL     1       5.124  -5.107  11.462  1.00  0.00     0.124 S 
ATOM     82  O   UNL     1       5.304  -3.671  11.649  1.00  0.00    -0.237 OA
ATOM     83  O   UNL     1       6.067  -5.962  12.177  1.00  0.00    -0.237 OA
ATOM     84  O   UNL     1       4.835  -5.523  10.090  1.00  0.00    -0.744 OA
ENDBRANCH  80  81
ENDBRANCH  52  75
BRANCH  64  85
ATOM     85  C   UNL     1      -2.799  -8.421  18.047  1.00  0.00    -0.014 A 
ATOM     86  C   UNL     1      -3.405  -7.475  17.194  1.00  0.00     0.010 A 
ATOM     87  C   UNL     1      -3.219  -8.470  19.387  1.00  0.00     0.010 A 
ATOM     88  C   UNL     1      -4.378  -6.585  17.678  1.00  0.00     0.020 A 
ATOM     89  C   UNL     1      -4.199  -7.600  19.871  1.00  0.00     0.020 A 
ATOM     90  C   UNL     1      -4.765  -6.652  19.018  1.00  0.00     0.054 A 
BRANCH  90  91
ATOM     91  S   UNL     1      -6.040  -5.518  19.639  1.00  0.00     0.124 S 
ATOM     92  O   UNL     1      -5.360  -4.226  19.601  1.00  0.00    -0.237 OA
ATOM     93  O   UNL     1      -7.124  -5.686  18.674  1.00  0.00    -0.237 OA
ATOM     94  O   UNL     1      -6.332  -6.023  20.980  1.00  0.00    -0.744 OA
ENDBRANCH  90  91
ENDBRANCH  64  85
ENDBRANCH  38  39
ENDBRANCH  30  33
ENDBRANCH  28  29
ENDBRANCH  27  28
ENDBRANCH   1  27
TORSDOF 20
