REMARK SMILES Cc1ccc(/C=C(\NC(=O)c2cccc(C)c2)C(=O)NCCCCNC(=O)c2ccc(-c3c4nc(c(-c5ccc(S(=O)(=O)[O-])cc5)c5ccc([nH]5)c(-c5ccc(S(=O)(=O)[O-])cc5)c5nc(c(-c6ccc(S(=O)(=O)[O-])cc6)c6ccc3[nH]6)C=C5)C=C4)cc2)cc1
REMARK SMILES IDX 23 1 22 2 21 3 20 4 18 5 19 6 7 8 6 9 5 10 1 11 2 12 3 13
REMARK SMILES IDX 89 14 4 15 88 16 8 17 9 18 10 20 11 21 12 22 17 23 13 24
REMARK SMILES IDX 15 25 14 26 16 27 24 28 25 29 26 30 27 32 28 33 29 34 87 35
REMARK SMILES IDX 30 36 86 37 31 38 32 39 33 40 80 41 34 42 85 43 79 44 81 45
REMARK SMILES IDX 35 46 84 47 78 48 77 49 36 51 66 52 47 53 65 54 48 55 51 56
REMARK SMILES IDX 64 57 82 58 49 59 50 60 63 62 83 63 52 64 37 65 38 66 46 67
REMARK SMILES IDX 39 68 45 69 40 70 41 71 42 72 43 73 44 74 67 75 68 76 76 77
REMARK SMILES IDX 69 78 75 79 70 80 71 81 72 82 73 83 74 84 53 85 54 86 62 87
REMARK SMILES IDX 55 88 61 89 56 90 57 91 58 92 59 93 60 94
REMARK H PARENT 20 7 8 19 25 31 81 50 51 61
REMARK Flexibility Score: inf
ROOT
ATOM      1  C   UNL     1      -7.857  -4.433   2.573  1.00  0.00     0.023 C 
ENDROOT
BRANCH   1   2
ATOM      2  C   UNL     1      -6.340  -4.267   2.650  1.00  0.00     0.023 C 
BRANCH   2   3
ATOM      3  C   UNL     1      -5.635  -3.736   1.402  1.00  0.00     0.116 C 
BRANCH   3   4
ATOM      4  N   UNL     1      -5.970  -2.377   1.002  1.00  0.00    -0.351 N 
ATOM      5  C   UNL     1      -5.229  -1.403   0.383  1.00  0.00     0.267 C 
ATOM      6  O   UNL     1      -5.810  -0.358   0.074  1.00  0.00    -0.268 OA
ATOM      7  H   UNL     1      -6.893  -2.109   1.214  1.00  0.00     0.163 HD
BRANCH   5   8
ATOM      8  C   UNL     1      -3.727  -1.529   0.163  1.00  0.00     0.107 C 
ATOM      9  C   UNL     1      -3.015  -0.376   0.161  1.00  0.00     0.040 C 
BRANCH   9  10
ATOM     10  C   UNL     1      -1.551  -0.145  -0.014  1.00  0.00    -0.023 A 
ATOM     11  C   UNL     1       2.725   0.614  -0.029  1.00  0.00     0.044 C 
ATOM     12  C   UNL     1       1.245   0.393  -0.090  1.00  0.00    -0.051 A 
ATOM     13  C   UNL     1       0.750  -0.860  -0.444  1.00  0.00     0.004 A 
ATOM     14  C   UNL     1       0.334   1.399   0.240  1.00  0.00     0.004 A 
ATOM     15  C   UNL     1      -0.627  -1.106  -0.448  1.00  0.00     0.008 A 
ATOM     16  C   UNL     1      -1.044   1.131   0.279  1.00  0.00     0.008 A 
ENDBRANCH   9  10
BRANCH   8  17
ATOM     17  N   UNL     1      -3.084  -2.727  -0.001  1.00  0.00    -0.317 N 
ATOM     18  C   UNL     1      -3.282  -3.748  -0.900  1.00  0.00     0.255 C 
ATOM     19  H   UNL     1      -2.351  -2.886   0.637  1.00  0.00     0.170 HD
ATOM     20  O   UNL     1      -2.455  -4.657  -0.948  1.00  0.00    -0.269 OA
BRANCH  18  21
ATOM     21  C   UNL     1      -4.470  -3.783  -1.768  1.00  0.00     0.040 A 
ATOM     22  C   UNL     1      -5.214  -4.959  -1.705  1.00  0.00     0.014 A 
ATOM     23  C   UNL     1      -4.918  -2.692  -2.524  1.00  0.00     0.017 A 
ATOM     24  C   UNL     1      -6.487  -4.976  -2.245  1.00  0.00     0.001 A 
ATOM     25  C   UNL     1      -6.177  -2.742  -3.135  1.00  0.00    -0.050 A 
ATOM     26  C   UNL     1      -6.965  -3.884  -2.966  1.00  0.00     0.003 A 
ATOM     27  C   UNL     1      -6.693  -1.616  -3.978  1.00  0.00     0.044 C 
ENDBRANCH  18  21
ENDBRANCH   8  17
ENDBRANCH   5   8
ENDBRANCH   3   4
ENDBRANCH   2   3
ENDBRANCH   1   2
BRANCH   1  28
ATOM     28  C   UNL     1      -8.415  -5.334   1.475  1.00  0.00     0.116 C 
BRANCH  28  29
ATOM     29  N   UNL     1      -8.314  -6.768   1.699  1.00  0.00    -0.352 N 
ATOM     30  C   UNL     1      -9.340  -7.641   1.303  1.00  0.00     0.251 C 
ATOM     31  H   UNL     1      -7.511  -7.133   2.137  1.00  0.00     0.163 HD
ATOM     32  O   UNL     1      -9.990  -8.307   2.055  1.00  0.00    -0.269 OA
BRANCH  30  33
ATOM     33  C   UNL     1      -9.585  -7.673  -0.168  1.00  0.00     0.039 A 
ATOM     34  C   UNL     1      -9.176  -8.768  -0.934  1.00  0.00     0.014 A 
ATOM     35  C   UNL     1     -10.105  -6.537  -0.781  1.00  0.00     0.014 A 
ATOM     36  C   UNL     1      -9.143  -8.659  -2.329  1.00  0.00     0.010 A 
ATOM     37  C   UNL     1     -10.003  -6.402  -2.150  1.00  0.00     0.010 A 
ATOM     38  C   UNL     1      -9.483  -7.445  -2.929  1.00  0.00    -0.014 A 
BRANCH  38  39
ATOM     39  C   UNL     1      -9.215  -7.089  -4.322  1.00  0.00     0.031 A 
ATOM     40  C   UNL     1     -10.318  -6.784  -5.261  1.00  0.00     0.074 A 
ATOM     41  C   UNL     1      -7.948  -6.786  -4.683  1.00  0.00     0.049 A 
ATOM     42  N   UNL     1     -10.157  -6.619  -6.531  1.00  0.00    -0.248 NA
ATOM     43  C   UNL     1     -11.719  -6.711  -4.853  1.00  0.00     0.031 C 
ATOM     44  C   UNL     1      -7.517  -5.924  -5.784  1.00  0.00     0.029 A 
ATOM     45  N   UNL     1      -6.756  -7.290  -4.176  1.00  0.00    -0.354 N 
ATOM     46  C   UNL     1     -11.330  -6.112  -7.037  1.00  0.00     0.074 A 
ATOM     47  C   UNL     1     -12.303  -6.327  -5.993  1.00  0.00     0.031 C 
ATOM     48  C   UNL     1      -6.218  -6.151  -6.029  1.00  0.00     0.029 A 
ATOM     49  C   UNL     1      -5.818  -7.283  -5.213  1.00  0.00     0.049 A 
ATOM     50  H   UNL     1      -6.600  -7.598  -3.254  1.00  0.00     0.167 HD
ATOM     51  C   UNL     1     -11.309  -5.439  -8.222  1.00  0.00     0.031 A 
ATOM     52  C   UNL     1      -5.202  -8.412  -5.666  1.00  0.00     0.031 A 
ATOM     53  C   UNL     1     -10.021  -5.594  -8.907  1.00  0.00     0.049 A 
ATOM     54  C   UNL     1      -5.547  -8.684  -7.113  1.00  0.00     0.074 A 
ATOM     55  C   UNL     1      -8.955  -4.742  -9.139  1.00  0.00     0.029 A 
ATOM     56  N   UNL     1      -9.582  -6.873  -9.245  1.00  0.00    -0.354 N 
ATOM     57  N   UNL     1      -6.506  -8.072  -7.754  1.00  0.00    -0.248 NA
ATOM     58  C   UNL     1      -4.870  -9.671  -7.947  1.00  0.00     0.031 C 
ATOM     59  C   UNL     1      -7.834  -5.540  -9.505  1.00  0.00     0.029 A 
ATOM     60  C   UNL     1      -8.234  -6.866  -9.549  1.00  0.00     0.049 A 
ATOM     61  H   UNL     1     -10.155  -7.673  -9.265  1.00  0.00     0.167 HD
ATOM     62  C   UNL     1      -6.600  -8.554  -9.027  1.00  0.00     0.074 A 
ATOM     63  C   UNL     1      -5.544  -9.549  -9.106  1.00  0.00     0.031 C 
ATOM     64  C   UNL     1      -7.547  -8.106  -9.902  1.00  0.00     0.031 A 
BRANCH  51  65
ATOM     65  C   UNL     1     -12.379  -4.455  -8.667  1.00  0.00    -0.014 A 
ATOM     66  C   UNL     1     -12.213  -3.729  -9.867  1.00  0.00     0.010 A 
ATOM     67  C   UNL     1     -13.515  -4.115  -7.904  1.00  0.00     0.010 A 
ATOM     68  C   UNL     1     -13.111  -2.717 -10.261  1.00  0.00     0.020 A 
ATOM     69  C   UNL     1     -14.434  -3.131  -8.295  1.00  0.00     0.020 A 
ATOM     70  C   UNL     1     -14.217  -2.421  -9.466  1.00  0.00     0.054 A 
BRANCH  70  71
ATOM     71  S   UNL     1     -15.351  -1.092  -9.945  1.00  0.00     0.124 S 
ATOM     72  O   UNL     1     -14.508   0.095  -9.823  1.00  0.00    -0.237 OA
ATOM     73  O   UNL     1     -15.726  -1.465 -11.306  1.00  0.00    -0.237 OA
ATOM     74  O   UNL     1     -16.430  -1.185  -8.962  1.00  0.00    -0.744 OA
ENDBRANCH  70  71
ENDBRANCH  51  65
BRANCH  52  75
ATOM     75  C   UNL     1      -4.962  -9.427  -4.598  1.00  0.00    -0.014 A 
ATOM     76  C   UNL     1      -3.982  -9.091  -3.635  1.00  0.00     0.010 A 
ATOM     77  C   UNL     1      -5.971 -10.344  -4.246  1.00  0.00     0.010 A 
ATOM     78  C   UNL     1      -4.134  -9.477  -2.301  1.00  0.00     0.020 A 
ATOM     79  C   UNL     1      -6.120 -10.737  -2.905  1.00  0.00     0.020 A 
ATOM     80  C   UNL     1      -5.249 -10.229  -1.934  1.00  0.00     0.054 A 
BRANCH  80  81
ATOM     81  S   UNL     1      -5.657 -10.341  -0.162  1.00  0.00     0.124 S 
ATOM     82  O   UNL     1      -4.418 -10.845   0.419  1.00  0.00    -0.237 OA
ATOM     83  O   UNL     1      -5.991  -8.952   0.163  1.00  0.00    -0.237 OA
ATOM     84  O   UNL     1      -6.786 -11.266  -0.138  1.00  0.00    -0.744 OA
ENDBRANCH  80  81
ENDBRANCH  52  75
BRANCH  64  85
ATOM     85  C   UNL     1      -7.869  -8.764 -11.218  1.00  0.00    -0.014 A 
ATOM     86  C   UNL     1      -7.650 -10.127 -11.478  1.00  0.00     0.010 A 
ATOM     87  C   UNL     1      -8.552  -8.021 -12.209  1.00  0.00     0.010 A 
ATOM     88  C   UNL     1      -8.024 -10.705 -12.698  1.00  0.00     0.020 A 
ATOM     89  C   UNL     1      -8.971  -8.598 -13.410  1.00  0.00     0.020 A 
ATOM     90  C   UNL     1      -8.677  -9.935 -13.659  1.00  0.00     0.054 A 
BRANCH  90  91
ATOM     91  S   UNL     1      -9.211 -10.701 -15.210  1.00  0.00     0.124 S 
ATOM     92  O   UNL     1      -8.046 -10.490 -16.065  1.00  0.00    -0.237 OA
ATOM     93  O   UNL     1      -9.461 -12.089 -14.824  1.00  0.00    -0.237 OA
ATOM     94  O   UNL     1     -10.404  -9.940 -15.571  1.00  0.00    -0.744 OA
ENDBRANCH  90  91
ENDBRANCH  64  85
ENDBRANCH  38  39
ENDBRANCH  30  33
ENDBRANCH  28  29
ENDBRANCH   1  28
TORSDOF 17
