REMARK SMILES CS(=O)(=O)c1ccc(/C=C(/C(=O)NCCCCNC(=O)c2ccc(-c3c4nc(c(-c5ccc(S(=O)(=O)[O-])cc5)c5ccc([nH]5)c(-c5ccc(S(=O)(=O)[O-])cc5)c5nc(c(-c6ccc(S(=O)(=O)[O-])cc6)c6ccc3[nH]6)C=C5)C=C4)cc2)c2ccc(F)cc2)cc1
REMARK SMILES IDX 16 1 15 2 14 3 13 4 11 5 12 6 10 8 9 9 8 10 5 11 6 12 89 13
REMARK SMILES IDX 7 14 88 15 2 16 1 17 3 18 4 19 81 20 82 21 87 22 83 23 86 24
REMARK SMILES IDX 84 25 85 26 17 27 18 28 19 29 20 31 21 32 22 33 80 34 23 35
REMARK SMILES IDX 79 36 24 37 25 38 26 39 73 40 27 41 78 42 72 43 74 44 28 45
REMARK SMILES IDX 77 46 71 47 70 48 29 50 59 51 40 52 58 53 41 54 44 55 57 56
REMARK SMILES IDX 75 57 42 58 43 59 56 61 76 62 45 63 30 64 31 65 39 66 32 67
REMARK SMILES IDX 38 68 33 69 34 70 35 71 36 72 37 73 60 74 61 75 69 76 62 77
REMARK SMILES IDX 68 78 63 79 64 80 65 81 66 82 67 83 46 84 47 85 55 86 48 87
REMARK SMILES IDX 54 88 49 89 50 90 51 91 52 92 53 93
REMARK H PARENT 13 7 18 30 74 49 44 60
REMARK Flexibility Score: inf
ROOT
ATOM      1  C   UNL     1       3.920  -8.799   6.646  1.00  0.00     0.023 C 
ENDROOT
BRANCH   1   2
ATOM      2  C   UNL     1       3.557  -7.551   5.827  1.00  0.00     0.023 C 
BRANCH   2   3
ATOM      3  C   UNL     1       3.943  -7.631   4.348  1.00  0.00     0.116 C 
BRANCH   3   4
ATOM      4  N   UNL     1       3.058  -8.538   3.644  1.00  0.00    -0.352 N 
ATOM      5  C   UNL     1       1.960  -8.371   2.862  1.00  0.00     0.251 C 
ATOM      6  O   UNL     1       1.428  -9.406   2.451  1.00  0.00    -0.269 OA
ATOM      7  H   UNL     1       3.308  -9.483   3.758  1.00  0.00     0.163 HD
BRANCH   5   8
ATOM      8  C   UNL     1       1.430  -7.022   2.417  1.00  0.00     0.047 C 
ATOM      9  C   UNL     1       1.530  -5.910   3.181  1.00  0.00     0.022 C 
BRANCH   9  10
ATOM     10  C   UNL     1       1.170  -4.508   2.869  1.00  0.00    -0.025 A 
ATOM     11  C   UNL     1       0.694  -1.811   2.246  1.00  0.00     0.067 A 
ATOM     12  C   UNL     1      -0.251  -2.780   1.909  1.00  0.00     0.021 A 
ATOM     13  C   UNL     1       1.846  -2.161   2.948  1.00  0.00     0.021 A 
ATOM     14  C   UNL     1      -0.018  -4.119   2.240  1.00  0.00     0.009 A 
ATOM     15  C   UNL     1       2.082  -3.507   3.250  1.00  0.00     0.009 A 
BRANCH  11  16
ATOM     16  S   UNL     1       0.402  -0.111   1.821  1.00  0.00     0.175 S 
ATOM     17  C   UNL     1       1.097   0.030   0.194  1.00  0.00     0.163 C 
ATOM     18  O   UNL     1       1.186   0.712   2.716  1.00  0.00    -0.224 OA
ATOM     19  O   UNL     1      -1.036   0.072   1.709  1.00  0.00    -0.224 OA
ENDBRANCH  11  16
ENDBRANCH   9  10
BRANCH   8  20
ATOM     20  C   UNL     1       0.631  -7.007   1.165  1.00  0.00    -0.013 A 
ATOM     21  C   UNL     1      -0.621  -7.653   1.160  1.00  0.00     0.012 A 
ATOM     22  C   UNL     1       1.043  -6.311   0.019  1.00  0.00     0.012 A 
ATOM     23  C   UNL     1      -1.458  -7.579   0.048  1.00  0.00     0.040 A 
ATOM     24  C   UNL     1       0.196  -6.229  -1.091  1.00  0.00     0.040 A 
ATOM     25  C   UNL     1      -1.046  -6.857  -1.063  1.00  0.00     0.123 A 
ATOM     26  F   UNL     1      -1.863  -6.753  -2.119  1.00  0.00    -0.207 F 
ENDBRANCH   8  20
ENDBRANCH   5   8
ENDBRANCH   3   4
ENDBRANCH   2   3
ENDBRANCH   1   2
BRANCH   1  27
ATOM     27  C   UNL     1       5.409  -9.136   6.701  1.00  0.00     0.116 C 
BRANCH  27  28
ATOM     28  N   UNL     1       6.224  -8.037   7.194  1.00  0.00    -0.352 N 
ATOM     29  C   UNL     1       7.370  -8.082   7.950  1.00  0.00     0.251 C 
ATOM     30  H   UNL     1       5.912  -7.136   6.951  1.00  0.00     0.163 HD
ATOM     31  O   UNL     1       7.865  -7.039   8.367  1.00  0.00    -0.269 OA
BRANCH  29  32
ATOM     32  C   UNL     1       7.978  -9.386   8.292  1.00  0.00     0.039 A 
ATOM     33  C   UNL     1       8.345  -9.624   9.618  1.00  0.00     0.014 A 
ATOM     34  C   UNL     1       8.173 -10.370   7.319  1.00  0.00     0.014 A 
ATOM     35  C   UNL     1       8.845 -10.876   9.982  1.00  0.00     0.010 A 
ATOM     36  C   UNL     1       8.616 -11.636   7.695  1.00  0.00     0.010 A 
ATOM     37  C   UNL     1       8.950 -11.904   9.031  1.00  0.00    -0.014 A 
BRANCH  37  38
ATOM     38  C   UNL     1       9.372 -13.270   9.430  1.00  0.00     0.031 A 
ATOM     39  C   UNL     1      10.661 -13.854   8.920  1.00  0.00     0.074 A 
ATOM     40  C   UNL     1       8.559 -14.008  10.212  1.00  0.00     0.049 A 
ATOM     41  N   UNL     1      11.177 -15.034   9.149  1.00  0.00    -0.248 NA
ATOM     42  C   UNL     1      11.463 -13.012   8.018  1.00  0.00     0.031 C 
ATOM     43  C   UNL     1       7.258 -13.575  10.728  1.00  0.00     0.029 A 
ATOM     44  N   UNL     1       8.705 -15.279  10.708  1.00  0.00    -0.354 N 
ATOM     45  C   UNL     1      12.355 -15.083   8.414  1.00  0.00     0.074 A 
ATOM     46  C   UNL     1      12.454 -13.832   7.694  1.00  0.00     0.031 C 
ATOM     47  C   UNL     1       6.739 -14.551  11.490  1.00  0.00     0.029 A 
ATOM     48  C   UNL     1       7.652 -15.689  11.491  1.00  0.00     0.049 A 
ATOM     49  H   UNL     1       9.489 -15.844  10.521  1.00  0.00     0.167 HD
ATOM     50  C   UNL     1      13.280 -16.072   8.357  1.00  0.00     0.031 A 
ATOM     51  C   UNL     1       7.442 -16.851  12.140  1.00  0.00     0.031 A 
ATOM     52  C   UNL     1      13.182 -17.313   9.079  1.00  0.00     0.049 A 
ATOM     53  C   UNL     1       8.488 -17.929  12.068  1.00  0.00     0.074 A 
ATOM     54  C   UNL     1      14.095 -18.352   9.132  1.00  0.00     0.029 A 
ATOM     55  N   UNL     1      12.107 -17.686   9.872  1.00  0.00    -0.354 N 
ATOM     56  N   UNL     1       9.630 -17.926  11.424  1.00  0.00    -0.248 NA
ATOM     57  C   UNL     1       8.221 -19.160  12.824  1.00  0.00     0.031 C 
ATOM     58  C   UNL     1      13.551 -19.373   9.921  1.00  0.00     0.029 A 
ATOM     59  C   UNL     1      12.323 -18.947  10.402  1.00  0.00     0.049 A 
ATOM     60  H   UNL     1      11.308 -17.135  10.035  1.00  0.00     0.167 HD
ATOM     61  C   UNL     1      10.229 -19.147  11.713  1.00  0.00     0.074 A 
ATOM     62  C   UNL     1       9.331 -19.852  12.607  1.00  0.00     0.031 C 
ATOM     63  C   UNL     1      11.415 -19.641  11.279  1.00  0.00     0.031 A 
BRANCH  50  64
ATOM     64  C   UNL     1      14.481 -15.848   7.477  1.00  0.00    -0.014 A 
ATOM     65  C   UNL     1      15.471 -14.911   7.827  1.00  0.00     0.010 A 
ATOM     66  C   UNL     1      14.642 -16.606   6.303  1.00  0.00     0.010 A 
ATOM     67  C   UNL     1      16.577 -14.706   6.997  1.00  0.00     0.020 A 
ATOM     68  C   UNL     1      15.761 -16.423   5.485  1.00  0.00     0.020 A 
ATOM     69  C   UNL     1      16.712 -15.461   5.828  1.00  0.00     0.054 A 
BRANCH  69  70
ATOM     70  S   UNL     1      18.166 -15.186   4.779  1.00  0.00     0.124 S 
ATOM     71  O   UNL     1      17.844 -13.907   4.150  1.00  0.00    -0.237 OA
ATOM     72  O   UNL     1      19.260 -15.151   5.747  1.00  0.00    -0.237 OA
ATOM     73  O   UNL     1      18.169 -16.338   3.882  1.00  0.00    -0.744 OA
ENDBRANCH  69  70
ENDBRANCH  50  64
BRANCH  51  74
ATOM     74  C   UNL     1       6.199 -17.043  12.935  1.00  0.00    -0.014 A 
ATOM     75  C   UNL     1       6.247 -17.052  14.340  1.00  0.00     0.010 A 
ATOM     76  C   UNL     1       4.959 -17.201  12.290  1.00  0.00     0.010 A 
ATOM     77  C   UNL     1       5.079 -17.232  15.086  1.00  0.00     0.020 A 
ATOM     78  C   UNL     1       3.786 -17.355  13.034  1.00  0.00     0.020 A 
ATOM     79  C   UNL     1       3.855 -17.382  14.428  1.00  0.00     0.054 A 
BRANCH  79  80
ATOM     80  S   UNL     1       2.344 -17.558  15.417  1.00  0.00     0.124 S 
ATOM     81  O   UNL     1       2.444 -18.939  15.879  1.00  0.00    -0.237 OA
ATOM     82  O   UNL     1       2.515 -16.532  16.443  1.00  0.00    -0.237 OA
ATOM     83  O   UNL     1       1.276 -17.294  14.456  1.00  0.00    -0.744 OA
ENDBRANCH  79  80
ENDBRANCH  51  74
BRANCH  63  84
ATOM     84  C   UNL     1      11.816 -21.001  11.783  1.00  0.00    -0.014 A 
ATOM     85  C   UNL     1      11.171 -22.165  11.328  1.00  0.00     0.010 A 
ATOM     86  C   UNL     1      12.873 -21.117  12.705  1.00  0.00     0.010 A 
ATOM     87  C   UNL     1      11.547 -23.418  11.819  1.00  0.00     0.020 A 
ATOM     88  C   UNL     1      13.269 -22.370  13.178  1.00  0.00     0.020 A 
ATOM     89  C   UNL     1      12.590 -23.512  12.746  1.00  0.00     0.054 A 
BRANCH  89  90
ATOM     90  S   UNL     1      13.075 -25.151  13.354  1.00  0.00     0.124 S 
ATOM     91  O   UNL     1      12.004 -25.451  14.300  1.00  0.00    -0.237 OA
ATOM     92  O   UNL     1      13.083 -25.957  12.136  1.00  0.00    -0.237 OA
ATOM     93  O   UNL     1      14.389 -24.922  13.952  1.00  0.00    -0.744 OA
ENDBRANCH  89  90
ENDBRANCH  63  84
ENDBRANCH  37  38
ENDBRANCH  29  32
ENDBRANCH  27  28
ENDBRANCH   1  27
TORSDOF 17
