REMARK SMILES CCc1ncc(CC(=O)NCCCCNC(=O)c2ccc(-c3c4nc(c(-c5ccc(S(=O)(=O)[O-])cc5)c5ccc([nH]5)c(-c5ccc(S(=O)(=O)[O-])cc5)c5nc(c(-c6ccc(S(=O)(=O)[O-])cc6)c6ccc3[nH]6)C=C5)C=C4)cc2)c(=O)[nH]1
REMARK SMILES IDX 13 1 12 2 11 3 10 4 8 5 9 6 7 8 6 9 3 10 4 11 80 12 5 13
REMARK SMILES IDX 78 14 79 16 2 17 1 18 14 19 15 20 16 21 17 23 18 24 19 25
REMARK SMILES IDX 77 26 20 27 76 28 21 29 22 30 23 31 70 32 24 33 75 34 69 35
REMARK SMILES IDX 71 36 25 37 74 38 68 39 67 40 26 42 56 43 37 44 55 45 38 46
REMARK SMILES IDX 41 47 54 48 72 49 39 50 40 51 53 53 73 54 42 55 27 56 28 57
REMARK SMILES IDX 36 58 29 59 35 60 30 61 31 62 32 63 33 64 34 65 57 66 58 67
REMARK SMILES IDX 66 68 59 69 65 70 60 71 61 72 62 73 63 74 64 75 43 76 44 77
REMARK SMILES IDX 52 78 45 79 51 80 46 81 47 82 48 83 49 84 50 85
REMARK H PARENT 10 7 80 15 15 22 71 41 41 52
REMARK Flexibility Score: inf
ROOT
ATOM      1  C   UNL     1      -2.402  -0.351   6.524  1.00  0.00     0.023 C 
ENDROOT
BRANCH   1   2
ATOM      2  C   UNL     1      -1.350   0.444   5.745  1.00  0.00     0.023 C 
BRANCH   2   3
ATOM      3  C   UNL     1      -0.436   1.304   6.620  1.00  0.00     0.116 C 
BRANCH   3   4
ATOM      4  N   UNL     1       0.466   0.485   7.407  1.00  0.00    -0.356 N 
ATOM      5  C   UNL     1       1.781   0.197   7.180  1.00  0.00     0.224 C 
ATOM      6  O   UNL     1       2.344  -0.618   7.912  1.00  0.00    -0.275 OA
ATOM      7  H   UNL     1       0.077   0.081   8.216  1.00  0.00     0.163 HD
BRANCH   5   8
ATOM      8  C   UNL     1       2.533   0.889   6.052  1.00  0.00     0.143 C 
BRANCH   8   9
ATOM      9  C   UNL     1       2.111   0.386   4.708  1.00  0.00     0.045 A 
ATOM     10  C   UNL     1       1.141  -0.507   2.308  1.00  0.00     0.108 A 
ATOM     11  N   UNL     1       1.702  -1.363   3.100  1.00  0.00    -0.243 NA
ATOM     12  N   UNL     1       1.023   0.818   2.610  1.00  0.00    -0.310 N 
ATOM     13  C   UNL     1       2.157  -0.893   4.305  1.00  0.00     0.123 A 
ATOM     14  C   UNL     1       1.550   1.355   3.744  1.00  0.00     0.254 A 
ATOM     15  H   UNL     1       0.541   1.407   1.985  1.00  0.00     0.171 HD
ATOM     16  O   UNL     1       1.534   2.564   3.949  1.00  0.00    -0.269 OA
BRANCH  10  17
ATOM     17  C   UNL     1       0.553  -0.949   0.988  1.00  0.00     0.072 C 
ATOM     18  C   UNL     1       1.100  -0.151  -0.184  1.00  0.00     0.012 C 
ENDBRANCH  10  17
ENDBRANCH   8   9
ENDBRANCH   5   8
ENDBRANCH   3   4
ENDBRANCH   2   3
ENDBRANCH   1   2
BRANCH   1  19
ATOM     19  C   UNL     1      -3.337   0.491   7.383  1.00  0.00     0.116 C 
BRANCH  19  20
ATOM     20  N   UNL     1      -4.086   1.470   6.612  1.00  0.00    -0.352 N 
ATOM     21  C   UNL     1      -5.400   1.846   6.743  1.00  0.00     0.251 C 
ATOM     22  H   UNL     1      -3.582   1.926   5.899  1.00  0.00     0.163 HD
ATOM     23  O   UNL     1      -5.910   2.583   5.902  1.00  0.00    -0.269 OA
BRANCH  21  24
ATOM     24  C   UNL     1      -6.202   1.340   7.878  1.00  0.00     0.039 A 
ATOM     25  C   UNL     1      -7.508   0.904   7.640  1.00  0.00     0.014 A 
ATOM     26  C   UNL     1      -5.673   1.294   9.171  1.00  0.00     0.014 A 
ATOM     27  C   UNL     1      -8.265   0.384   8.691  1.00  0.00     0.010 A 
ATOM     28  C   UNL     1      -6.397   0.696  10.197  1.00  0.00     0.010 A 
ATOM     29  C   UNL     1      -7.708   0.252   9.974  1.00  0.00    -0.014 A 
BRANCH  29  30
ATOM     30  C   UNL     1      -8.497  -0.320  11.097  1.00  0.00     0.031 A 
ATOM     31  C   UNL     1      -8.816   0.525  12.303  1.00  0.00     0.074 A 
ATOM     32  C   UNL     1      -8.892  -1.607  11.052  1.00  0.00     0.049 A 
ATOM     33  N   UNL     1      -9.475   0.200  13.386  1.00  0.00    -0.248 NA
ATOM     34  C   UNL     1      -8.307   1.906  12.303  1.00  0.00     0.031 C 
ATOM     35  C   UNL     1      -8.602  -2.545   9.964  1.00  0.00     0.029 A 
ATOM     36  N   UNL     1      -9.621  -2.351  11.945  1.00  0.00    -0.354 N 
ATOM     37  C   UNL     1      -9.452   1.330  14.196  1.00  0.00     0.074 A 
ATOM     38  C   UNL     1      -8.655   2.324  13.511  1.00  0.00     0.031 C 
ATOM     39  C   UNL     1      -9.173  -3.728  10.241  1.00  0.00     0.029 A 
ATOM     40  C   UNL     1      -9.835  -3.647  11.540  1.00  0.00     0.049 A 
ATOM     41  H   UNL     1      -9.960  -1.990  12.796  1.00  0.00     0.167 HD
ATOM     42  C   UNL     1     -10.062   1.537  15.388  1.00  0.00     0.031 A 
ATOM     43  C   UNL     1     -10.485  -4.660  12.145  1.00  0.00     0.031 A 
ATOM     44  C   UNL     1     -10.853   0.545  16.068  1.00  0.00     0.049 A 
ATOM     45  C   UNL     1     -11.150  -4.414  13.472  1.00  0.00     0.074 A 
ATOM     46  C   UNL     1     -11.545   0.665  17.260  1.00  0.00     0.029 A 
ATOM     47  N   UNL     1     -11.056  -0.751  15.617  1.00  0.00    -0.354 N 
ATOM     48  N   UNL     1     -11.171  -3.317  14.192  1.00  0.00    -0.248 NA
ATOM     49  C   UNL     1     -11.896  -5.535  14.057  1.00  0.00     0.031 C 
ATOM     50  C   UNL     1     -12.120  -0.575  17.558  1.00  0.00     0.029 A 
ATOM     51  C   UNL     1     -11.846  -1.447  16.516  1.00  0.00     0.049 A 
ATOM     52  H   UNL     1     -10.692  -1.121  14.780  1.00  0.00     0.167 HD
ATOM     53  C   UNL     1     -11.957  -3.608  15.303  1.00  0.00     0.074 A 
ATOM     54  C   UNL     1     -12.405  -4.978  15.147  1.00  0.00     0.031 C 
ATOM     55  C   UNL     1     -12.281  -2.813  16.353  1.00  0.00     0.031 A 
BRANCH  42  56
ATOM     56  C   UNL     1      -9.890   2.892  16.028  1.00  0.00    -0.014 A 
ATOM     57  C   UNL     1     -10.450   4.046  15.447  1.00  0.00     0.010 A 
ATOM     58  C   UNL     1      -9.175   3.014  17.233  1.00  0.00     0.010 A 
ATOM     59  C   UNL     1     -10.251   5.301  16.028  1.00  0.00     0.020 A 
ATOM     60  C   UNL     1      -9.003   4.264  17.836  1.00  0.00     0.020 A 
ATOM     61  C   UNL     1      -9.524   5.402  17.218  1.00  0.00     0.054 A 
BRANCH  61  62
ATOM     62  S   UNL     1      -9.287   7.044  17.951  1.00  0.00     0.124 S 
ATOM     63  O   UNL     1      -8.337   7.653  17.023  1.00  0.00    -0.237 OA
ATOM     64  O   UNL     1     -10.635   7.604  17.925  1.00  0.00    -0.237 OA
ATOM     65  O   UNL     1      -8.759   6.757  19.282  1.00  0.00    -0.744 OA
ENDBRANCH  61  62
ENDBRANCH  42  56
BRANCH  43  66
ATOM     66  C   UNL     1     -10.550  -5.994  11.486  1.00  0.00    -0.014 A 
ATOM     67  C   UNL     1     -11.760  -6.480  10.958  1.00  0.00     0.010 A 
ATOM     68  C   UNL     1      -9.387  -6.777  11.358  1.00  0.00     0.010 A 
ATOM     69  C   UNL     1     -11.808  -7.728  10.329  1.00  0.00     0.020 A 
ATOM     70  C   UNL     1      -9.425  -8.010  10.703  1.00  0.00     0.020 A 
ATOM     71  C   UNL     1     -10.638  -8.483  10.200  1.00  0.00     0.054 A 
BRANCH  71  72
ATOM     72  S   UNL     1     -10.713 -10.069   9.323  1.00  0.00     0.124 S 
ATOM     73  O   UNL     1     -11.434 -10.909  10.273  1.00  0.00    -0.237 OA
ATOM     74  O   UNL     1     -11.440  -9.721   8.105  1.00  0.00    -0.237 OA
ATOM     75  O   UNL     1      -9.307 -10.415   9.121  1.00  0.00    -0.744 OA
ENDBRANCH  71  72
ENDBRANCH  43  66
BRANCH  55  76
ATOM     76  C   UNL     1     -13.198  -3.388  17.401  1.00  0.00    -0.014 A 
ATOM     77  C   UNL     1     -12.774  -4.405  18.274  1.00  0.00     0.010 A 
ATOM     78  C   UNL     1     -14.499  -2.868  17.538  1.00  0.00     0.010 A 
ATOM     79  C   UNL     1     -13.647  -4.922  19.235  1.00  0.00     0.020 A 
ATOM     80  C   UNL     1     -15.364  -3.358  18.520  1.00  0.00     0.020 A 
ATOM     81  C   UNL     1     -14.938  -4.396  19.350  1.00  0.00     0.054 A 
BRANCH  81  82
ATOM     82  S   UNL     1     -16.044  -5.066  20.622  1.00  0.00     0.124 S 
ATOM     83  O   UNL     1     -16.378  -6.377  20.074  1.00  0.00    -0.237 OA
ATOM     84  O   UNL     1     -15.194  -5.079  21.811  1.00  0.00    -0.237 OA
ATOM     85  O   UNL     1     -17.147  -4.108  20.663  1.00  0.00    -0.744 OA
ENDBRANCH  81  82
ENDBRANCH  55  76
ENDBRANCH  29  30
ENDBRANCH  21  24
ENDBRANCH  19  20
ENDBRANCH   1  19
TORSDOF 16
