REMARK SMILES Cn1ccnc(N[C@H]2C=C[C@H](C(=O)NCCCCNC(=O)c3ccc(-c4c5nc(c(-c6ccc(S(=O)(=O)[O-])cc6)c6ccc([nH]6)c(-c6ccc(S(=O)(=O)[O-])cc6)c6nc(c(-c7ccc(S(=O)(=O)[O-])cc7)c7ccc4[nH]7)C=C6)C=C5)cc3)C2)c1=O
REMARK SMILES IDX 17 1 16 2 15 3 14 4 12 5 13 6 11 8 8 9 9 10 82 11 10 12 7 13
REMARK SMILES IDX 6 15 1 16 2 17 3 18 83 19 4 20 84 21 5 22 18 23 19 24 20 25
REMARK SMILES IDX 21 27 22 28 23 29 81 30 24 31 80 32 25 33 26 34 27 35 74 36
REMARK SMILES IDX 28 37 79 38 73 39 75 40 29 41 78 42 72 43 71 44 30 46 60 47
REMARK SMILES IDX 41 48 59 49 42 50 45 51 58 52 76 53 43 54 44 55 57 57 77 58
REMARK SMILES IDX 46 59 31 60 32 61 40 62 33 63 39 64 34 65 35 66 36 67 37 68
REMARK SMILES IDX 38 69 61 70 62 71 70 72 63 73 69 74 64 75 65 76 66 77 67 78
REMARK SMILES IDX 68 79 47 80 48 81 56 82 49 83 55 84 50 85 51 86 52 87 53 88
REMARK SMILES IDX 54 89
REMARK H PARENT 14 7 7 14 19 26 75 45 45 56
REMARK Flexibility Score: inf
ROOT
ATOM      1  C   UNL     1      -7.846  -4.229  -1.219  1.00  0.00     0.023 C 
ENDROOT
BRANCH   1   2
ATOM      2  C   UNL     1      -6.837  -3.122  -0.921  1.00  0.00     0.023 C 
BRANCH   2   3
ATOM      3  C   UNL     1      -5.544  -3.587  -0.263  1.00  0.00     0.116 C 
BRANCH   3   4
ATOM      4  N   UNL     1      -4.805  -4.542  -1.072  1.00  0.00    -0.356 N 
ATOM      5  C   UNL     1      -3.451  -4.599  -1.286  1.00  0.00     0.227 C 
ATOM      6  O   UNL     1      -2.987  -5.558  -1.903  1.00  0.00    -0.274 OA
ATOM      7  H   UNL     1      -5.343  -5.233  -1.522  1.00  0.00     0.163 HD
BRANCH   5   8
ATOM      8  C   UNL     1      -2.596  -3.460  -0.741  1.00  0.00     0.103 C 
ATOM      9  C   UNL     1      -0.235  -3.579  -0.078  1.00  0.00     0.104 C 
ATOM     10  C   UNL     1      -1.129  -3.650   1.103  1.00  0.00    -0.006 C 
ATOM     11  C   UNL     1      -1.156  -3.425  -1.289  1.00  0.00     0.046 C 
ATOM     12  C   UNL     1      -2.415  -3.617   0.746  1.00  0.00    -0.016 C 
BRANCH   9  13
ATOM     13  N   UNL     1       0.751  -2.542   0.066  1.00  0.00    -0.359 N 
ATOM     14  H   UNL     1       1.666  -2.888   0.179  1.00  0.00     0.162 HD
BRANCH  13  15
ATOM     15  C   UNL     1       0.684  -1.166   0.080  1.00  0.00     0.193 A 
ATOM     16  C   UNL     1      -1.639   1.893   0.014  1.00  0.00     0.153 C 
ATOM     17  N   UNL     1      -0.460   1.053   0.038  1.00  0.00    -0.314 N 
ATOM     18  C   UNL     1       0.800   1.591   0.006  1.00  0.00     0.109 A 
ATOM     19  C   UNL     1      -0.639  -0.327   0.102  1.00  0.00     0.293 A 
ATOM     20  C   UNL     1       1.877   0.801   0.031  1.00  0.00     0.131 A 
ATOM     21  O   UNL     1      -1.745  -0.843   0.168  1.00  0.00    -0.265 OA
ATOM     22  N   UNL     1       1.855  -0.566   0.066  1.00  0.00    -0.233 NA
ENDBRANCH  13  15
ENDBRANCH   9  13
ENDBRANCH   5   8
ENDBRANCH   3   4
ENDBRANCH   2   3
ENDBRANCH   1   2
BRANCH   1  23
ATOM     23  C   UNL     1      -8.202  -5.120  -0.034  1.00  0.00     0.116 C 
BRANCH  23  24
ATOM     24  N   UNL     1      -8.826  -4.389   1.059  1.00  0.00    -0.352 N 
ATOM     25  C   UNL     1     -10.055  -4.575   1.647  1.00  0.00     0.251 C 
ATOM     26  H   UNL     1      -8.289  -3.652   1.432  1.00  0.00     0.163 HD
ATOM     27  O   UNL     1     -10.476  -3.759   2.462  1.00  0.00    -0.269 OA
BRANCH  25  28
ATOM     28  C   UNL     1     -10.884  -5.740   1.266  1.00  0.00     0.039 A 
ATOM     29  C   UNL     1     -12.228  -5.534   0.944  1.00  0.00     0.014 A 
ATOM     30  C   UNL     1     -10.330  -7.020   1.186  1.00  0.00     0.014 A 
ATOM     31  C   UNL     1     -12.988  -6.595   0.445  1.00  0.00     0.010 A 
ATOM     32  C   UNL     1     -11.066  -8.056   0.616  1.00  0.00     0.010 A 
ATOM     33  C   UNL     1     -12.396  -7.849   0.220  1.00  0.00    -0.014 A 
BRANCH  33  34
ATOM     34  C   UNL     1     -13.127  -8.930  -0.492  1.00  0.00     0.031 A 
ATOM     35  C   UNL     1     -13.427 -10.234   0.192  1.00  0.00     0.074 A 
ATOM     36  C   UNL     1     -13.450  -8.760  -1.790  1.00  0.00     0.049 A 
ATOM     37  N   UNL     1     -14.001 -11.305  -0.295  1.00  0.00    -0.248 NA
ATOM     38  C   UNL     1     -13.012 -10.359   1.597  1.00  0.00     0.031 C 
ATOM     39  C   UNL     1     -13.182  -7.554  -2.579  1.00  0.00     0.029 A 
ATOM     40  N   UNL     1     -14.068  -9.604  -2.680  1.00  0.00    -0.354 N 
ATOM     41  C   UNL     1     -14.008 -12.234   0.739  1.00  0.00     0.074 A 
ATOM     42  C   UNL     1     -13.336 -11.617   1.862  1.00  0.00     0.031 C 
ATOM     43  C   UNL     1     -13.660  -7.724  -3.821  1.00  0.00     0.029 A 
ATOM     44  C   UNL     1     -14.218  -9.068  -3.937  1.00  0.00     0.049 A 
ATOM     45  H   UNL     1     -14.374 -10.509  -2.440  1.00  0.00     0.167 HD
ATOM     46  C   UNL     1     -14.539 -13.481   0.756  1.00  0.00     0.031 A 
ATOM     47  C   UNL     1     -14.732  -9.597  -5.065  1.00  0.00     0.031 A 
ATOM     48  C   UNL     1     -15.192 -14.096  -0.371  1.00  0.00     0.049 A 
ATOM     49  C   UNL     1     -15.263 -11.003  -5.038  1.00  0.00     0.074 A 
ATOM     50  C   UNL     1     -15.808 -15.334  -0.438  1.00  0.00     0.029 A 
ATOM     51  N   UNL     1     -15.299 -13.529  -1.633  1.00  0.00    -0.354 N 
ATOM     52  N   UNL     1     -15.334 -11.836  -4.028  1.00  0.00    -0.248 NA
ATOM     53  C   UNL     1     -15.781 -11.540  -6.303  1.00  0.00     0.031 C 
ATOM     54  C   UNL     1     -16.223 -15.545  -1.757  1.00  0.00     0.029 A 
ATOM     55  C   UNL     1     -15.928 -14.411  -2.498  1.00  0.00     0.049 A 
ATOM     56  H   UNL     1     -14.975 -12.633  -1.879  1.00  0.00     0.167 HD
ATOM     57  C   UNL     1     -15.918 -12.993  -4.532  1.00  0.00     0.074 A 
ATOM     58  C   UNL     1     -16.202 -12.742  -5.931  1.00  0.00     0.031 C 
ATOM     59  C   UNL     1     -16.190 -14.158  -3.894  1.00  0.00     0.031 A 
BRANCH  46  60
ATOM     60  C   UNL     1     -14.413 -14.272   2.034  1.00  0.00    -0.014 A 
ATOM     61  C   UNL     1     -15.101 -13.888   3.201  1.00  0.00     0.010 A 
ATOM     62  C   UNL     1     -13.613 -15.429   2.066  1.00  0.00     0.010 A 
ATOM     63  C   UNL     1     -14.945 -14.612   4.386  1.00  0.00     0.020 A 
ATOM     64  C   UNL     1     -13.481 -16.175   3.241  1.00  0.00     0.020 A 
ATOM     65  C   UNL     1     -14.131 -15.748   4.400  1.00  0.00     0.054 A 
BRANCH  65  66
ATOM     66  S   UNL     1     -13.946 -16.663   5.955  1.00  0.00     0.124 S 
ATOM     67  O   UNL     1     -13.131 -15.746   6.748  1.00  0.00    -0.237 OA
ATOM     68  O   UNL     1     -15.328 -16.820   6.400  1.00  0.00    -0.237 OA
ATOM     69  O   UNL     1     -13.279 -17.899   5.553  1.00  0.00    -0.744 OA
ENDBRANCH  65  66
ENDBRANCH  46  60
BRANCH  47  70
ATOM     70  C   UNL     1     -14.771  -8.784  -6.311  1.00  0.00    -0.014 A 
ATOM     71  C   UNL     1     -15.996  -8.320  -6.821  1.00  0.00     0.010 A 
ATOM     72  C   UNL     1     -13.579  -8.436  -6.976  1.00  0.00     0.010 A 
ATOM     73  C   UNL     1     -16.030  -7.526  -7.971  1.00  0.00     0.020 A 
ATOM     74  C   UNL     1     -13.607  -7.617  -8.108  1.00  0.00     0.020 A 
ATOM     75  C   UNL     1     -14.834  -7.172  -8.602  1.00  0.00     0.054 A 
BRANCH  75  76
ATOM     76  S   UNL     1     -14.902  -6.076 -10.046  1.00  0.00     0.124 S 
ATOM     77  O   UNL     1     -15.480  -6.948 -11.064  1.00  0.00    -0.237 OA
ATOM     78  O   UNL     1     -15.762  -4.992  -9.577  1.00  0.00    -0.237 OA
ATOM     79  O   UNL     1     -13.505  -5.704 -10.260  1.00  0.00    -0.744 OA
ENDBRANCH  75  76
ENDBRANCH  47  70
BRANCH  59  80
ATOM     80  C   UNL     1     -16.828 -15.259  -4.700  1.00  0.00    -0.014 A 
ATOM     81  C   UNL     1     -16.096 -15.960  -5.675  1.00  0.00     0.010 A 
ATOM     82  C   UNL     1     -18.156 -15.642  -4.435  1.00  0.00     0.010 A 
ATOM     83  C   UNL     1     -16.685 -17.012  -6.382  1.00  0.00     0.020 A 
ATOM     84  C   UNL     1     -18.739 -16.712  -5.118  1.00  0.00     0.020 A 
ATOM     85  C   UNL     1     -18.002 -17.385  -6.095  1.00  0.00     0.054 A 
BRANCH  85  86
ATOM     86  S   UNL     1     -18.718 -18.796  -6.982  1.00  0.00     0.124 S 
ATOM     87  O   UNL     1     -18.887 -18.256  -8.328  1.00  0.00    -0.237 OA
ATOM     88  O   UNL     1     -17.686 -19.819  -6.839  1.00  0.00    -0.237 OA
ATOM     89  O   UNL     1     -19.960 -19.066  -6.260  1.00  0.00    -0.744 OA
ENDBRANCH  85  86
ENDBRANCH  59  80
ENDBRANCH  33  34
ENDBRANCH  25  28
ENDBRANCH  23  24
ENDBRANCH   1  23
TORSDOF 16
