REMARK SMILES CC(C)OC(=O)c1c(NC(=O)[C@H]2[C@@H](C(=O)NCCCCNC(=O)c3ccc(-c4c5nc(c(-c6ccc(S(=O)(=O)[O-])cc6)c6ccc([nH]6)c(-c6ccc(S(=O)(=O)[O-])cc6)c6nc(c(-c7ccc(S(=O)(=O)[O-])cc7)c7ccc4[nH]7)C=C6)C=C5)cc3)[C@@H]3C=C[C@H]2CC3)sc2c1CCC2
REMARK SMILES IDX 17 1 16 2 14 3 15 4 13 6 12 7 87 8 84 9 86 10 88 11 85 12
REMARK SMILES IDX 89 13 10 14 9 15 11 17 8 18 7 19 92 20 90 21 91 22 93 23
REMARK SMILES IDX 95 24 94 25 5 26 6 27 4 28 2 29 1 30 3 31 18 32 19 33 20 34
REMARK SMILES IDX 21 35 22 36 23 38 24 39 25 40 83 41 26 42 82 43 27 44 28 45
REMARK SMILES IDX 29 46 76 47 30 48 81 49 75 50 77 51 31 52 80 53 74 54 73 55
REMARK SMILES IDX 32 57 62 58 43 59 61 60 44 61 47 62 60 63 78 64 45 65 46 66
REMARK SMILES IDX 59 68 79 69 48 70 33 71 34 72 42 73 35 74 41 75 36 76 37 77
REMARK SMILES IDX 38 78 39 79 40 80 63 81 64 82 72 83 65 84 71 85 66 86 67 87
REMARK SMILES IDX 68 88 69 89 70 90 49 91 50 92 58 93 51 94 57 95 52 96 53 97
REMARK SMILES IDX 54 98 55 99 56 100
REMARK H PARENT 16 5 9 16 21 37 77 56 47 67
REMARK Flexibility Score: inf
ROOT
ATOM      1  C   UNL     1      -7.317   2.846  -2.073  1.00  0.00     0.116 C 
ENDROOT
BRANCH   1   2
ATOM      2  N   UNL     1      -7.522   1.879  -3.138  1.00  0.00    -0.356 N 
ATOM      3  C   UNL     1      -7.306   0.514  -3.136  1.00  0.00     0.224 C 
ATOM      4  O   UNL     1      -7.931  -0.137  -3.971  1.00  0.00    -0.275 OA
ATOM      5  H   UNL     1      -7.865   2.249  -3.983  1.00  0.00     0.163 HD
BRANCH   3   6
ATOM      6  C   UNL     1      -6.358  -0.138  -2.105  1.00  0.00     0.098 C 
ATOM      7  C   UNL     1      -6.045  -1.732  -2.230  1.00  0.00     0.099 C 
ATOM      8  C   UNL     1      -6.675  -2.393  -0.967  1.00  0.00     0.025 C 
ATOM      9  C   UNL     1      -6.898   0.124  -0.650  1.00  0.00     0.025 C 
ATOM     10  C   UNL     1      -5.873  -1.853   0.204  1.00  0.00    -0.027 C 
ATOM     11  C   UNL     1      -8.154  -2.025  -0.817  1.00  0.00     0.009 C 
ATOM     12  C   UNL     1      -5.961  -0.526   0.343  1.00  0.00    -0.027 C 
ATOM     13  C   UNL     1      -8.284  -0.538  -0.513  1.00  0.00     0.009 C 
BRANCH   7  14
ATOM     14  C   UNL     1      -6.208  -2.424  -3.614  1.00  0.00     0.229 C 
ATOM     15  N   UNL     1      -6.540  -3.748  -3.795  1.00  0.00    -0.317 N 
ATOM     16  H   UNL     1      -6.913  -3.959  -4.681  1.00  0.00     0.170 HD
ATOM     17  O   UNL     1      -5.922  -1.785  -4.637  1.00  0.00    -0.274 OA
BRANCH  15  18
ATOM     18  C   UNL     1      -6.438  -4.829  -2.940  1.00  0.00     0.110 A 
ATOM     19  C   UNL     1      -7.233  -5.980  -2.862  1.00  0.00     0.098 A 
ATOM     20  C   UNL     1      -7.051  -6.529  -1.554  1.00  0.00    -0.017 A 
ATOM     21  S   UNL     1      -5.059  -4.982  -1.905  1.00  0.00    -0.122 S 
ATOM     22  C   UNL     1      -5.984  -5.964  -0.909  1.00  0.00     0.011 A 
ATOM     23  C   UNL     1      -7.731  -7.510  -0.668  1.00  0.00     0.038 C 
ATOM     24  C   UNL     1      -5.868  -6.300   0.524  1.00  0.00     0.047 C 
ATOM     25  C   UNL     1      -7.170  -7.132   0.745  1.00  0.00     0.010 C 
BRANCH  19  26
ATOM     26  C   UNL     1      -8.156  -6.386  -3.915  1.00  0.00     0.341 C 
ATOM     27  O   UNL     1      -7.984  -6.016  -5.075  1.00  0.00    -0.246 OA
BRANCH  26  28
ATOM     28  O   UNL     1      -9.117  -7.248  -3.494  1.00  0.00    -0.459 OA
BRANCH  28  29
ATOM     29  C   UNL     1      -9.989  -7.903  -4.455  1.00  0.00     0.170 C 
ATOM     30  C   UNL     1     -10.642  -6.975  -5.472  1.00  0.00     0.052 C 
ATOM     31  C   UNL     1      -9.241  -9.052  -5.125  1.00  0.00     0.052 C 
ENDBRANCH  28  29
ENDBRANCH  26  28
ENDBRANCH  19  26
ENDBRANCH  15  18
ENDBRANCH   7  14
ENDBRANCH   3   6
ENDBRANCH   1   2
BRANCH   1  32
ATOM     32  C   UNL     1      -7.098   4.304  -2.477  1.00  0.00     0.023 C 
BRANCH  32  33
ATOM     33  C   UNL     1      -8.172   5.003  -3.311  1.00  0.00     0.023 C 
BRANCH  33  34
ATOM     34  C   UNL     1      -9.565   5.022  -2.703  1.00  0.00     0.116 C 
BRANCH  34  35
ATOM     35  N   UNL     1      -9.662   5.765  -1.446  1.00  0.00    -0.352 N 
ATOM     36  C   UNL     1     -10.819   6.057  -0.740  1.00  0.00     0.251 C 
ATOM     37  H   UNL     1      -8.818   6.093  -1.061  1.00  0.00     0.163 HD
ATOM     38  O   UNL     1     -10.837   6.933   0.116  1.00  0.00    -0.269 OA
BRANCH  36  39
ATOM     39  C   UNL     1     -12.034   5.279  -1.049  1.00  0.00     0.039 A 
ATOM     40  C   UNL     1     -13.274   5.894  -1.246  1.00  0.00     0.014 A 
ATOM     41  C   UNL     1     -11.883   3.906  -1.218  1.00  0.00     0.014 A 
ATOM     42  C   UNL     1     -14.339   5.122  -1.707  1.00  0.00     0.010 A 
ATOM     43  C   UNL     1     -12.883   3.185  -1.818  1.00  0.00     0.010 A 
ATOM     44  C   UNL     1     -14.130   3.769  -2.015  1.00  0.00    -0.014 A 
BRANCH  44  45
ATOM     45  C   UNL     1     -15.177   2.968  -2.645  1.00  0.00     0.031 A 
ATOM     46  C   UNL     1     -15.718   3.513  -3.924  1.00  0.00     0.074 A 
ATOM     47  C   UNL     1     -15.460   1.705  -2.257  1.00  0.00     0.049 A 
ATOM     48  N   UNL     1     -16.916   3.933  -4.167  1.00  0.00    -0.248 NA
ATOM     49  C   UNL     1     -14.779   3.717  -5.040  1.00  0.00     0.031 C 
ATOM     50  C   UNL     1     -14.780   0.887  -1.244  1.00  0.00     0.029 A 
ATOM     51  N   UNL     1     -16.340   0.825  -2.801  1.00  0.00    -0.354 N 
ATOM     52  C   UNL     1     -16.944   4.257  -5.521  1.00  0.00     0.074 A 
ATOM     53  C   UNL     1     -15.570   4.276  -5.957  1.00  0.00     0.031 C 
ATOM     54  C   UNL     1     -15.086  -0.415  -1.435  1.00  0.00     0.029 A 
ATOM     55  C   UNL     1     -16.121  -0.501  -2.446  1.00  0.00     0.049 A 
ATOM     56  H   UNL     1     -17.072   1.103  -3.398  1.00  0.00     0.167 HD
ATOM     57  C   UNL     1     -18.101   4.256  -6.243  1.00  0.00     0.031 A 
ATOM     58  C   UNL     1     -16.723  -1.593  -2.978  1.00  0.00     0.031 A 
ATOM     59  C   UNL     1     -19.264   4.221  -5.394  1.00  0.00     0.049 A 
ATOM     60  C   UNL     1     -17.963  -1.122  -3.642  1.00  0.00     0.074 A 
ATOM     61  C   UNL     1     -19.744   5.023  -4.376  1.00  0.00     0.029 A 
ATOM     62  N   UNL     1     -19.907   3.012  -5.248  1.00  0.00    -0.354 N 
ATOM     63  N   UNL     1     -18.974  -0.616  -2.994  1.00  0.00    -0.248 NA
ATOM     64  C   UNL     1     -17.900  -0.795  -5.057  1.00  0.00     0.031 C 
ATOM     65  C   UNL     1     -20.226   4.111  -3.391  1.00  0.00     0.029 A 
ATOM     66  C   UNL     1     -20.093   2.818  -3.902  1.00  0.00     0.049 A 
ATOM     67  H   UNL     1     -20.180   2.403  -5.971  1.00  0.00     0.167 HD
ATOM     68  C   UNL     1     -19.417   0.429  -3.791  1.00  0.00     0.074 A 
ATOM     69  C   UNL     1     -18.784   0.206  -5.091  1.00  0.00     0.031 C 
ATOM     70  C   UNL     1     -20.025   1.526  -3.250  1.00  0.00     0.031 A 
BRANCH  57  71
ATOM     71  C   UNL     1     -18.170   3.911  -7.712  1.00  0.00    -0.014 A 
ATOM     72  C   UNL     1     -19.392   4.050  -8.401  1.00  0.00     0.010 A 
ATOM     73  C   UNL     1     -17.140   3.211  -8.376  1.00  0.00     0.010 A 
ATOM     74  C   UNL     1     -19.583   3.477  -9.668  1.00  0.00     0.020 A 
ATOM     75  C   UNL     1     -17.304   2.678  -9.656  1.00  0.00     0.020 A 
ATOM     76  C   UNL     1     -18.537   2.788 -10.282  1.00  0.00     0.054 A 
BRANCH  76  77
ATOM     77  S   UNL     1     -18.817   1.983 -11.879  1.00  0.00     0.124 S 
ATOM     78  O   UNL     1     -19.758   0.926 -11.523  1.00  0.00    -0.237 OA
ATOM     79  O   UNL     1     -19.361   3.073 -12.684  1.00  0.00    -0.237 OA
ATOM     80  O   UNL     1     -17.484   1.531 -12.272  1.00  0.00    -0.744 OA
ENDBRANCH  76  77
ENDBRANCH  57  71
BRANCH  58  81
ATOM     81  C   UNL     1     -16.150  -2.937  -3.231  1.00  0.00    -0.014 A 
ATOM     82  C   UNL     1     -16.991  -4.008  -3.589  1.00  0.00     0.010 A 
ATOM     83  C   UNL     1     -14.764  -3.090  -3.437  1.00  0.00     0.010 A 
ATOM     84  C   UNL     1     -16.478  -5.148  -4.226  1.00  0.00     0.020 A 
ATOM     85  C   UNL     1     -14.245  -4.227  -4.066  1.00  0.00     0.020 A 
ATOM     86  C   UNL     1     -15.111  -5.236  -4.489  1.00  0.00     0.054 A 
BRANCH  86  87
ATOM     87  S   UNL     1     -14.462  -6.555  -5.557  1.00  0.00     0.124 S 
ATOM     88  O   UNL     1     -13.884  -7.483  -4.588  1.00  0.00    -0.237 OA
ATOM     89  O   UNL     1     -15.644  -7.040  -6.263  1.00  0.00    -0.237 OA
ATOM     90  O   UNL     1     -13.498  -5.843  -6.392  1.00  0.00    -0.744 OA
ENDBRANCH  86  87
ENDBRANCH  58  81
BRANCH  70  91
ATOM     91  C   UNL     1     -20.445   1.480  -1.795  1.00  0.00    -0.014 A 
ATOM     92  C   UNL     1     -19.555   1.256  -0.724  1.00  0.00     0.010 A 
ATOM     93  C   UNL     1     -21.774   1.821  -1.492  1.00  0.00     0.010 A 
ATOM     94  C   UNL     1     -19.995   1.339   0.608  1.00  0.00     0.020 A 
ATOM     95  C   UNL     1     -22.214   1.924  -0.170  1.00  0.00     0.020 A 
ATOM     96  C   UNL     1     -21.326   1.670   0.875  1.00  0.00     0.054 A 
BRANCH  96  97
ATOM     97  S   UNL     1     -21.887   1.805   2.596  1.00  0.00     0.124 S 
ATOM     98  O   UNL     1     -21.824   0.422   3.061  1.00  0.00    -0.237 OA
ATOM     99  O   UNL     1     -20.907   2.712   3.189  1.00  0.00    -0.237 OA
ATOM    100  O   UNL     1     -23.237   2.356   2.481  1.00  0.00    -0.744 OA
ENDBRANCH  96  97
ENDBRANCH  70  91
ENDBRANCH  44  45
ENDBRANCH  36  39
ENDBRANCH  34  35
ENDBRANCH  33  34
ENDBRANCH  32  33
ENDBRANCH   1  32
TORSDOF 19
