REMARK SMILES CC(C)C[C@H](CNC(=O)[C@H]1CCCCC[C@H]1[NH3+])CC(=O)NCCCCNC(=O)c1ccc(-c2c3nc(c(-c4ccc(S(=O)(=O)[O-])cc4)c4ccc([nH]4)c(-c4ccc(S(=O)(=O)[O-])cc4)c4nc(c(-c5ccc(S(=O)(=O)[O-])cc5)c5ccc2[nH]5)C=C4)C=C3)cc1
REMARK SMILES IDX 19 1 20 2 21 3 18 5 5 6 4 7 2 8 1 9 3 10 6 11 7 12 8 13 9 15
REMARK SMILES IDX 10 16 11 17 12 18 13 19 14 20 16 22 15 23 17 25 22 29 23 30
REMARK SMILES IDX 24 31 25 32 26 33 27 34 28 36 29 37 30 38 88 39 31 40 87 41
REMARK SMILES IDX 32 42 33 43 34 44 81 45 35 46 86 47 80 48 82 49 36 50 85 51
REMARK SMILES IDX 79 52 78 53 37 55 67 56 48 57 66 58 49 59 52 60 65 61 83 62
REMARK SMILES IDX 50 63 51 64 64 66 84 67 53 68 38 69 39 70 47 71 40 72 46 73
REMARK SMILES IDX 41 74 42 75 43 76 44 77 45 78 68 79 69 80 77 81 70 82 76 83
REMARK SMILES IDX 71 84 72 85 73 86 74 87 75 88 54 89 55 90 63 91 56 92 62 93
REMARK SMILES IDX 57 94 58 95 59 96 60 97 61 98
REMARK H PARENT 21 4 7 14 17 26 17 27 17 28 26 35 82 54 52 65
REMARK Flexibility Score: 90.00
ROOT
ATOM      1  C   UNL     1      -3.623   0.168  -2.186  1.00  0.00     0.220 C 
ATOM      2  O   UNL     1      -4.380   0.005  -3.142  1.00  0.00    -0.275 OA
ATOM      3  N   UNL     1      -2.788  -0.856  -1.817  1.00  0.00    -0.356 N 
ATOM      4  H   UNL     1      -2.552  -1.488  -2.534  1.00  0.00     0.163 HD
ENDROOT
BRANCH   1   5
ATOM      5  C   UNL     1      -3.519   1.514  -1.486  1.00  0.00     0.105 C 
BRANCH   5   6
ATOM      6  C   UNL     1      -4.725   1.992  -0.637  1.00  0.00     0.018 C 
BRANCH   6   7
ATOM      7  C   UNL     1      -4.518   3.470  -0.182  1.00  0.00     0.009 C 
BRANCH   7   8
ATOM      8  C   UNL     1      -3.440   3.820   0.886  1.00  0.00    -0.017 C 
ATOM      9  C   UNL     1      -2.002   3.432   0.537  1.00  0.00     0.007 C 
ATOM     10  C   UNL     1      -3.464   5.332   1.156  1.00  0.00     0.007 C 
ENDBRANCH   7   8
ENDBRANCH   6   7
BRANCH   6  11
ATOM     11  C   UNL     1      -5.000   1.051   0.540  1.00  0.00     0.120 C 
BRANCH  11  12
ATOM     12  N   UNL     1      -6.348   1.012   1.094  1.00  0.00    -0.355 N 
ATOM     13  C   UNL     1      -6.899   0.015   1.893  1.00  0.00     0.229 C 
ATOM     14  H   UNL     1      -6.933   1.775   0.880  1.00  0.00     0.163 HD
ATOM     15  O   UNL     1      -8.052   0.151   2.304  1.00  0.00    -0.275 OA
BRANCH  13  16
ATOM     16  C   UNL     1      -6.029  -1.209   2.248  1.00  0.00     0.136 C 
BRANCH  16  17
ATOM     17  C   UNL     1      -4.885  -0.821   3.200  1.00  0.00     0.020 C 
BRANCH  17  18
ATOM     18  C   UNL     1      -5.326  -0.351   4.575  1.00  0.00     0.001 C 
BRANCH  18  19
ATOM     19  C   UNL     1      -5.362  -1.477   5.596  1.00  0.00     0.000 C 
BRANCH  19  20
ATOM     20  C   UNL     1      -5.912  -2.805   5.086  1.00  0.00     0.006 CG0
ATOM     21  G   UNL     1      -7.120  -2.685   4.149  1.00  0.00     0.000 G0
ENDBRANCH  19  20
ENDBRANCH  18  19
ENDBRANCH  17  18
ENDBRANCH  16  17
BRANCH  16  22
ATOM     22  C   UNL     1      -6.721  -2.532   2.670  1.00  0.00     0.193 C 
BRANCH  22  23
ATOM     23  C   UNL     1      -7.120  -2.685   4.149  1.00  0.00     0.066 CG0
ATOM     24  G   UNL     1      -5.912  -2.805   5.086  1.00  0.00     0.000 G0
ENDBRANCH  22  23
BRANCH  22  25
ATOM     25  N   UNL     1      -7.844  -2.869   1.788  1.00  0.00    -0.354 N 
ATOM     26  H   UNL     1      -8.588  -2.182   1.908  1.00  0.00     0.344 HD
ATOM     27  H   UNL     1      -8.196  -3.796   2.023  1.00  0.00     0.344 HD
ATOM     28  H   UNL     1      -7.528  -2.861   0.818  1.00  0.00     0.344 HD
ENDBRANCH  22  25
ENDBRANCH  16  22
ENDBRANCH  13  16
ENDBRANCH  11  12
ENDBRANCH   6  11
ENDBRANCH   5   6
ENDBRANCH   1   5
BRANCH   3  29
ATOM     29  C   UNL     1      -2.203  -1.139  -0.513  1.00  0.00     0.116 C 
BRANCH  29  30
ATOM     30  C   UNL     1      -3.230  -1.873   0.343  1.00  0.00     0.023 C 
BRANCH  30  31
ATOM     31  C   UNL     1      -2.986  -3.322   0.709  1.00  0.00     0.023 C 
BRANCH  31  32
ATOM     32  C   UNL     1      -1.801  -3.552   1.629  1.00  0.00     0.116 C 
BRANCH  32  33
ATOM     33  N   UNL     1      -1.981  -3.092   3.007  1.00  0.00    -0.352 N 
ATOM     34  C   UNL     1      -2.184  -3.764   4.195  1.00  0.00     0.251 C 
ATOM     35  H   UNL     1      -1.951  -2.112   3.105  1.00  0.00     0.163 HD
ATOM     36  O   UNL     1      -2.312  -3.115   5.235  1.00  0.00    -0.269 OA
BRANCH  34  37
ATOM     37  C   UNL     1      -2.290  -5.238   4.243  1.00  0.00     0.039 A 
ATOM     38  C   UNL     1      -3.182  -5.867   5.123  1.00  0.00     0.014 A 
ATOM     39  C   UNL     1      -1.492  -6.017   3.419  1.00  0.00     0.014 A 
ATOM     40  C   UNL     1      -3.323  -7.263   5.099  1.00  0.00     0.010 A 
ATOM     41  C   UNL     1      -1.763  -7.363   3.261  1.00  0.00     0.010 A 
ATOM     42  C   UNL     1      -2.637  -8.018   4.138  1.00  0.00    -0.014 A 
BRANCH  42  43
ATOM     43  C   UNL     1      -2.666  -9.502   4.059  1.00  0.00     0.031 A 
ATOM     44  C   UNL     1      -1.347 -10.241   4.121  1.00  0.00     0.074 A 
ATOM     45  C   UNL     1      -3.805 -10.165   3.784  1.00  0.00     0.049 A 
ATOM     46  N   UNL     1      -1.064 -11.469   3.777  1.00  0.00    -0.248 NA
ATOM     47  C   UNL     1      -0.173  -9.457   4.553  1.00  0.00     0.031 C 
ATOM     48  C   UNL     1      -5.137  -9.568   3.666  1.00  0.00     0.029 A 
ATOM     49  N   UNL     1      -4.013 -11.496   3.522  1.00  0.00    -0.354 N 
ATOM     50  C   UNL     1       0.319 -11.577   3.885  1.00  0.00     0.074 A 
ATOM     51  C   UNL     1       0.823 -10.274   4.250  1.00  0.00     0.031 C 
ATOM     52  C   UNL     1      -6.026 -10.533   3.374  1.00  0.00     0.029 A 
ATOM     53  C   UNL     1      -5.322 -11.803   3.229  1.00  0.00     0.049 A 
ATOM     54  H   UNL     1      -3.294 -12.168   3.542  1.00  0.00     0.167 HD
ATOM     55  C   UNL     1       1.101 -12.670   3.727  1.00  0.00     0.031 A 
ATOM     56  C   UNL     1      -5.881 -12.975   2.867  1.00  0.00     0.031 A 
ATOM     57  C   UNL     1       0.579 -13.976   3.437  1.00  0.00     0.049 A 
ATOM     58  C   UNL     1      -5.001 -14.191   2.736  1.00  0.00     0.074 A 
ATOM     59  C   UNL     1       1.261 -15.175   3.343  1.00  0.00     0.029 A 
ATOM     60  N   UNL     1      -0.762 -14.255   3.219  1.00  0.00    -0.354 N 
ATOM     61  N   UNL     1      -3.700 -14.288   2.882  1.00  0.00    -0.248 NA
ATOM     62  C   UNL     1      -5.666 -15.458   2.406  1.00  0.00     0.031 C 
ATOM     63  C   UNL     1       0.337 -16.174   3.021  1.00  0.00     0.029 A 
ATOM     64  C   UNL     1      -0.928 -15.607   2.979  1.00  0.00     0.049 A 
ATOM     65  H   UNL     1      -1.488 -13.590   3.232  1.00  0.00     0.167 HD
ATOM     66  C   UNL     1      -3.397 -15.633   2.700  1.00  0.00     0.074 A 
ATOM     67  C   UNL     1      -4.652 -16.311   2.444  1.00  0.00     0.031 C 
ATOM     68  C   UNL     1      -2.192 -16.256   2.742  1.00  0.00     0.031 A 
BRANCH  55  69
ATOM     69  C   UNL     1       2.591 -12.498   3.883  1.00  0.00    -0.014 A 
ATOM     70  C   UNL     1       3.163 -12.154   5.122  1.00  0.00     0.010 A 
ATOM     71  C   UNL     1       3.438 -12.707   2.779  1.00  0.00     0.010 A 
ATOM     72  C   UNL     1       4.542 -11.970   5.243  1.00  0.00     0.020 A 
ATOM     73  C   UNL     1       4.824 -12.562   2.904  1.00  0.00     0.020 A 
ATOM     74  C   UNL     1       5.364 -12.176   4.132  1.00  0.00     0.054 A 
BRANCH  74  75
ATOM     75  S   UNL     1       7.154 -11.959   4.328  1.00  0.00     0.124 S 
ATOM     76  O   UNL     1       7.269 -10.508   4.454  1.00  0.00    -0.237 OA
ATOM     77  O   UNL     1       7.436 -12.719   5.543  1.00  0.00    -0.237 OA
ATOM     78  O   UNL     1       7.709 -12.523   3.100  1.00  0.00    -0.744 OA
ENDBRANCH  74  75
ENDBRANCH  55  69
BRANCH  56  79
ATOM     79  C   UNL     1      -7.351 -13.063   2.635  1.00  0.00    -0.014 A 
ATOM     80  C   UNL     1      -8.169 -13.765   3.538  1.00  0.00     0.010 A 
ATOM     81  C   UNL     1      -7.945 -12.440   1.522  1.00  0.00     0.010 A 
ATOM     82  C   UNL     1      -9.546 -13.863   3.323  1.00  0.00     0.020 A 
ATOM     83  C   UNL     1      -9.327 -12.510   1.319  1.00  0.00     0.020 A 
ATOM     84  C   UNL     1     -10.118 -13.232   2.215  1.00  0.00     0.054 A 
BRANCH  84  85
ATOM     85  S   UNL     1     -11.915 -13.336   1.985  1.00  0.00     0.124 S 
ATOM     86  O   UNL     1     -12.091 -14.730   1.592  1.00  0.00    -0.237 OA
ATOM     87  O   UNL     1     -12.422 -12.981   3.308  1.00  0.00    -0.237 OA
ATOM     88  O   UNL     1     -12.183 -12.351   0.938  1.00  0.00    -0.744 OA
ENDBRANCH  84  85
ENDBRANCH  56  79
BRANCH  68  89
ATOM     89  C   UNL     1      -2.176 -17.751   2.567  1.00  0.00    -0.014 A 
ATOM     90  C   UNL     1      -2.426 -18.346   1.319  1.00  0.00     0.010 A 
ATOM     91  C   UNL     1      -1.836 -18.566   3.662  1.00  0.00     0.010 A 
ATOM     92  C   UNL     1      -2.370 -19.735   1.178  1.00  0.00     0.020 A 
ATOM     93  C   UNL     1      -1.746 -19.951   3.518  1.00  0.00     0.020 A 
ATOM     94  C   UNL     1      -2.029 -20.528   2.279  1.00  0.00     0.054 A 
BRANCH  94  95
ATOM     95  S   UNL     1      -1.920 -22.324   2.058  1.00  0.00     0.124 S 
ATOM     96  O   UNL     1      -3.325 -22.701   1.932  1.00  0.00    -0.237 OA
ATOM     97  O   UNL     1      -1.123 -22.448   0.840  1.00  0.00    -0.237 OA
ATOM     98  O   UNL     1      -1.259 -22.784   3.278  1.00  0.00    -0.744 OA
ENDBRANCH  94  95
ENDBRANCH  68  89
ENDBRANCH  42  43
ENDBRANCH  34  37
ENDBRANCH  32  33
ENDBRANCH  31  32
ENDBRANCH  30  31
ENDBRANCH  29  30
ENDBRANCH   3  29
TORSDOF 21
