REMARK SMILES COc1ccc(C(=O)NCCCCNC(=O)c2ccc(-c3c4nc(c(-c5ccc(S(=O)(=O)[O-])cc5)c5ccc([nH]5)c(-c5ccc(S(=O)(=O)[O-])cc5)c5nc(c(-c6ccc(S(=O)(=O)[O-])cc6)c6ccc3[nH]6)C=C5)C=C4)cc2)cc1S(=O)(=O)Nc1cc2c(cc1Cl)OCCCO2
REMARK SMILES IDX 10 1 9 2 7 3 8 4 6 6 3 7 4 8 78 9 5 10 77 11 2 12 1 13 79 14
REMARK SMILES IDX 80 15 81 16 82 17 83 19 84 20 88 21 85 22 87 23 89 24 86 25
REMARK SMILES IDX 94 26 93 27 90 29 91 30 92 31 11 33 12 34 13 35 14 36 15 37
REMARK SMILES IDX 16 39 17 40 18 41 76 42 19 43 75 44 20 45 21 46 22 47 69 48
REMARK SMILES IDX 23 49 74 50 68 51 70 52 24 53 73 54 67 55 66 56 25 58 55 59
REMARK SMILES IDX 36 60 54 61 37 62 40 63 53 64 71 65 38 66 39 67 52 69 72 70
REMARK SMILES IDX 41 71 26 72 27 73 35 74 28 75 34 76 29 77 30 78 31 79 32 80
REMARK SMILES IDX 33 81 56 82 57 83 65 84 58 85 64 86 59 87 60 88 61 89 62 90
REMARK SMILES IDX 63 91 42 92 43 93 51 94 44 95 50 96 45 97 46 98 47 99 48 100
REMARK SMILES IDX 49 101
REMARK H PARENT 9 5 82 18 14 38 70 57 40 68
REMARK Flexibility Score: 90.00
ROOT
ATOM      1  C   UNL     1       4.321   5.184   3.060  1.00  0.00     0.116 C 
ENDROOT
BRANCH   1   2
ATOM      2  N   UNL     1       3.394   6.213   2.595  1.00  0.00    -0.352 N 
ATOM      3  C   UNL     1       2.250   6.113   1.834  1.00  0.00     0.251 C 
ATOM      4  O   UNL     1       1.599   7.113   1.549  1.00  0.00    -0.269 OA
ATOM      5  H   UNL     1       3.626   7.130   2.871  1.00  0.00     0.163 HD
BRANCH   3   6
ATOM      6  C   UNL     1       1.719   4.773   1.491  1.00  0.00     0.041 A 
ATOM      7  C   UNL     1       1.073   2.111   1.845  1.00  0.00     0.139 A 
ATOM      8  C   UNL     1       0.139   3.093   2.199  1.00  0.00     0.049 A 
ATOM      9  C   UNL     1       2.175   2.451   1.055  1.00  0.00     0.130 A 
ATOM     10  C   UNL     1       0.465   4.439   2.013  1.00  0.00     0.018 A 
ATOM     11  C   UNL     1       2.509   3.800   0.880  1.00  0.00     0.040 A 
BRANCH   7  12
ATOM     12  O   UNL     1       1.188   0.976   2.598  1.00  0.00    -0.495 OA
ATOM     13  C   UNL     1       0.114   0.063   2.614  1.00  0.00     0.278 C 
ENDBRANCH   7  12
BRANCH   9  14
ATOM     14  S   UNL     1       3.332   1.231   0.481  1.00  0.00     0.265 S 
ATOM     15  O   UNL     1       4.209   1.880  -0.459  1.00  0.00    -0.201 OA
ATOM     16  O   UNL     1       3.890   0.585   1.659  1.00  0.00    -0.201 OA
BRANCH  14  17
ATOM     17  N   UNL     1       2.484   0.009  -0.329  1.00  0.00    -0.278 N 
ATOM     18  H   UNL     1       2.803  -0.917  -0.233  1.00  0.00     0.180 HD
BRANCH  17  19
ATOM     19  C   UNL     1       1.329   0.243  -1.145  1.00  0.00     0.071 A 
ATOM     20  C   UNL     1       0.145  -0.328  -0.674  1.00  0.00     0.078 A 
ATOM     21  C   UNL     1       1.283   0.978  -2.340  1.00  0.00     0.069 A 
ATOM     22  C   UNL     1      -1.073  -0.017  -1.262  1.00  0.00     0.163 A 
ATOM     23  C   UNL     1       0.062   1.159  -3.016  1.00  0.00     0.073 A 
ATOM     24  Cl  UNL     1       2.690   1.617  -3.097  1.00  0.00    -0.082 Cl
ATOM     25  C   UNL     1      -1.120   0.694  -2.451  1.00  0.00     0.162 A 
BRANCH  22  26
ATOM     26  O   UNL     1      -2.211  -0.340  -0.572  1.00  0.00    -0.489 OA
BRANCH  26  27
ATOM     27  C   UNL     1      -2.815   0.882  -0.118  1.00  0.00     0.233 CG0
ATOM     28  G   UNL     1      -3.773   1.448  -1.156  1.00  0.00     0.000 G0
ENDBRANCH  26  27
ENDBRANCH  22  26
BRANCH  25  29
ATOM     29  O   UNL     1      -2.309   0.885  -3.096  1.00  0.00    -0.490 OA
BRANCH  29  30
ATOM     30  C   UNL     1      -3.093   1.894  -2.453  1.00  0.00     0.233 C 
BRANCH  30  31
ATOM     31  C   UNL     1      -3.773   1.448  -1.156  1.00  0.00     0.083 CG0
ATOM     32  G   UNL     1      -2.815   0.882  -0.118  1.00  0.00     0.000 G0
ENDBRANCH  30  31
ENDBRANCH  29  30
ENDBRANCH  25  29
ENDBRANCH  17  19
ENDBRANCH  14  17
ENDBRANCH   9  14
ENDBRANCH   3   6
ENDBRANCH   1   2
BRANCH   1  33
ATOM     33  C   UNL     1       5.615   5.223   2.246  1.00  0.00     0.023 C 
BRANCH  33  34
ATOM     34  C   UNL     1       6.553   6.375   2.630  1.00  0.00     0.023 C 
BRANCH  34  35
ATOM     35  C   UNL     1       7.203   6.240   4.006  1.00  0.00     0.116 C 
BRANCH  35  36
ATOM     36  N   UNL     1       8.055   5.068   4.113  1.00  0.00    -0.352 N 
ATOM     37  C   UNL     1       9.213   4.901   4.830  1.00  0.00     0.251 C 
ATOM     38  H   UNL     1       7.759   4.283   3.598  1.00  0.00     0.163 HD
ATOM     39  O   UNL     1       9.868   3.871   4.692  1.00  0.00    -0.269 OA
BRANCH  37  40
ATOM     40  C   UNL     1       9.691   5.962   5.742  1.00  0.00     0.039 A 
ATOM     41  C   UNL     1      11.055   6.269   5.749  1.00  0.00     0.014 A 
ATOM     42  C   UNL     1       8.821   6.624   6.614  1.00  0.00     0.014 A 
ATOM     43  C   UNL     1      11.542   7.256   6.607  1.00  0.00     0.010 A 
ATOM     44  C   UNL     1       9.298   7.652   7.425  1.00  0.00     0.010 A 
ATOM     45  C   UNL     1      10.665   7.963   7.445  1.00  0.00    -0.014 A 
BRANCH  45  46
ATOM     46  C   UNL     1      11.178   8.999   8.374  1.00  0.00     0.031 A 
ATOM     47  C   UNL     1      11.127   8.774   9.861  1.00  0.00     0.074 A 
ATOM     48  C   UNL     1      11.653  10.159   7.884  1.00  0.00     0.049 A 
ATOM     49  N   UNL     1      11.543   9.551  10.828  1.00  0.00    -0.248 NA
ATOM     50  C   UNL     1      10.499   7.525  10.320  1.00  0.00     0.031 C 
ATOM     51  C   UNL     1      11.694  10.524   6.467  1.00  0.00     0.029 A 
ATOM     52  N   UNL     1      12.189  11.246   8.526  1.00  0.00    -0.354 N 
ATOM     53  C   UNL     1      11.210   8.896  12.008  1.00  0.00     0.074 A 
ATOM     54  C   UNL     1      10.512   7.685  11.635  1.00  0.00     0.031 C 
ATOM     55  C   UNL     1      12.246  11.742   6.345  1.00  0.00     0.029 A 
ATOM     56  C   UNL     1      12.584  12.248   7.673  1.00  0.00     0.049 A 
ATOM     57  H   UNL     1      12.281  11.303   9.504  1.00  0.00     0.167 HD
ATOM     58  C   UNL     1      11.476   9.258  13.287  1.00  0.00     0.031 A 
ATOM     59  C   UNL     1      13.168  13.434   7.929  1.00  0.00     0.031 A 
ATOM     60  C   UNL     1      12.179  10.457  13.655  1.00  0.00     0.049 A 
ATOM     61  C   UNL     1      13.520  13.787   9.345  1.00  0.00     0.074 A 
ATOM     62  C   UNL     1      12.551  10.891  14.915  1.00  0.00     0.029 A 
ATOM     63  N   UNL     1      12.620  11.418  12.755  1.00  0.00    -0.354 N 
ATOM     64  N   UNL     1      13.269  13.120  10.447  1.00  0.00    -0.248 NA
ATOM     65  C   UNL     1      14.264  15.037   9.551  1.00  0.00     0.031 C 
ATOM     66  C   UNL     1      13.191  12.129  14.780  1.00  0.00     0.029 A 
ATOM     67  C   UNL     1      13.255  12.445  13.432  1.00  0.00     0.049 A 
ATOM     68  H   UNL     1      12.499  11.375  11.779  1.00  0.00     0.167 HD
ATOM     69  C   UNL     1      13.845  13.855  11.475  1.00  0.00     0.074 A 
ATOM     70  C   UNL     1      14.468  15.012  10.861  1.00  0.00     0.031 C 
ATOM     71  C   UNL     1      13.862  13.594  12.806  1.00  0.00     0.031 A 
BRANCH  58  72
ATOM     72  C   UNL     1      10.981   8.335  14.371  1.00  0.00    -0.014 A 
ATOM     73  C   UNL     1      11.550   7.061  14.556  1.00  0.00     0.010 A 
ATOM     74  C   UNL     1       9.912   8.732  15.193  1.00  0.00     0.010 A 
ATOM     75  C   UNL     1      11.009   6.172  15.489  1.00  0.00     0.020 A 
ATOM     76  C   UNL     1       9.387   7.856  16.148  1.00  0.00     0.020 A 
ATOM     77  C   UNL     1       9.919   6.570  16.267  1.00  0.00     0.054 A 
BRANCH  77  78
ATOM     78  S   UNL     1       9.205   5.389  17.445  1.00  0.00     0.124 S 
ATOM     79  O   UNL     1       8.398   4.545  16.567  1.00  0.00    -0.237 OA
ATOM     80  O   UNL     1      10.385   4.748  18.020  1.00  0.00    -0.237 OA
ATOM     81  O   UNL     1       8.449   6.234  18.365  1.00  0.00    -0.744 OA
ENDBRANCH  77  78
ENDBRANCH  58  72
BRANCH  59  82
ATOM     82  C   UNL     1      13.504  14.336   6.796  1.00  0.00    -0.014 A 
ATOM     83  C   UNL     1      14.827  14.434   6.333  1.00  0.00     0.010 A 
ATOM     84  C   UNL     1      12.489  15.044   6.129  1.00  0.00     0.010 A 
ATOM     85  C   UNL     1      15.130  15.222   5.218  1.00  0.00     0.020 A 
ATOM     86  C   UNL     1      12.784  15.817   5.002  1.00  0.00     0.020 A 
ATOM     87  C   UNL     1      14.105  15.903   4.556  1.00  0.00     0.054 A 
BRANCH  87  88
ATOM     88  S   UNL     1      14.504  16.838   3.052  1.00  0.00     0.124 S 
ATOM     89  O   UNL     1      15.127  18.039   3.598  1.00  0.00    -0.237 OA
ATOM     90  O   UNL     1      15.398  15.928   2.340  1.00  0.00    -0.237 OA
ATOM     91  O   UNL     1      13.201  17.038   2.420  1.00  0.00    -0.744 OA
ENDBRANCH  87  88
ENDBRANCH  59  82
BRANCH  71  92
ATOM     92  C   UNL     1      14.604  14.564  13.686  1.00  0.00    -0.014 A 
ATOM     93  C   UNL     1      14.080  15.836  13.972  1.00  0.00     0.010 A 
ATOM     94  C   UNL     1      15.831  14.181  14.256  1.00  0.00     0.010 A 
ATOM     95  C   UNL     1      14.793  16.727  14.780  1.00  0.00     0.020 A 
ATOM     96  C   UNL     1      16.535  15.059  15.083  1.00  0.00     0.020 A 
ATOM     97  C   UNL     1      16.020  16.335  15.325  1.00  0.00     0.054 A 
BRANCH  97  98
ATOM     98  S   UNL     1      16.922  17.497  16.386  1.00  0.00     0.124 S 
ATOM     99  O   UNL     1      17.527  18.394  15.406  1.00  0.00    -0.237 OA
ATOM    100  O   UNL     1      15.860  18.081  17.203  1.00  0.00    -0.237 OA
ATOM    101  O   UNL     1      17.858  16.643  17.113  1.00  0.00    -0.744 OA
ENDBRANCH  97  98
ENDBRANCH  71  92
ENDBRANCH  45  46
ENDBRANCH  37  40
ENDBRANCH  35  36
ENDBRANCH  34  35
ENDBRANCH  33  34
ENDBRANCH   1  33
TORSDOF 18
