REMARK SMILES O=C(NCCCCNC(=O)[C@@H]1C[C@@H]2CC(=O)[C@H]1C2)c1ccc(-c2c3nc(c(-c4ccc(S(=O)(=O)[O-])cc4)c4ccc([nH]4)c(-c4ccc(S(=O)(=O)[O-])cc4)c4nc(c(-c5ccc(S(=O)(=O)[O-])cc5)c5ccc2[nH]5)C=C4)C=C3)cc1
REMARK SMILES IDX 4 1 3 2 1 3 2 4 19 6 20 7 78 8 21 9 77 10 22 11 23 12 24 13
REMARK SMILES IDX 71 14 25 15 76 16 70 17 72 18 26 19 75 20 69 21 68 22 27 24
REMARK SMILES IDX 57 25 38 26 56 27 39 28 42 29 55 30 73 31 40 32 41 33 54 35
REMARK SMILES IDX 74 36 43 37 28 38 29 39 37 40 30 41 36 42 31 43 32 44 33 45
REMARK SMILES IDX 34 46 35 47 58 48 59 49 67 50 60 51 66 52 61 53 62 54 63 55
REMARK SMILES IDX 64 56 65 57 44 58 45 59 53 60 46 61 52 62 47 63 48 64 49 65
REMARK SMILES IDX 50 66 51 67 5 68 6 69 7 70 8 71 9 72 10 74 11 75 12 76 17 77
REMARK SMILES IDX 13 78 15 79 18 80 14 81 16 82
REMARK H PARENT 3 5 72 23 42 34 8 73
REMARK Flexibility Score: inf
ROOT
ATOM      1  C   UNL     1       4.661   0.269  -1.071  1.00  0.00     0.116 C 
ENDROOT
BRANCH   1   2
ATOM      2  N   UNL     1       3.218   0.429  -0.944  1.00  0.00    -0.352 N 
ATOM      3  O   UNL     1       1.183   0.012  -0.024  1.00  0.00    -0.269 OA
ATOM      4  C   UNL     1       2.394  -0.161  -0.006  1.00  0.00     0.251 C 
ATOM      5  H   UNL     1       2.783   1.023  -1.597  1.00  0.00     0.163 HD
BRANCH   4   6
ATOM      6  C   UNL     1       3.022  -1.053   0.992  1.00  0.00     0.039 A 
ATOM      7  C   UNL     1       4.123  -0.595   1.714  1.00  0.00     0.014 A 
ATOM      8  C   UNL     1       2.614  -2.386   1.079  1.00  0.00     0.014 A 
ATOM      9  C   UNL     1       4.933  -1.513   2.361  1.00  0.00     0.010 A 
ATOM     10  C   UNL     1       3.374  -3.289   1.829  1.00  0.00     0.010 A 
ATOM     11  C   UNL     1       4.568  -2.871   2.434  1.00  0.00    -0.014 A 
BRANCH  11  12
ATOM     12  C   UNL     1       5.453  -3.797   3.188  1.00  0.00     0.031 A 
ATOM     13  C   UNL     1       6.164  -4.942   2.515  1.00  0.00     0.074 A 
ATOM     14  C   UNL     1       5.686  -3.525   4.488  1.00  0.00     0.049 A 
ATOM     15  N   UNL     1       7.023  -5.785   3.031  1.00  0.00    -0.248 NA
ATOM     16  C   UNL     1       5.874  -5.183   1.093  1.00  0.00     0.031 C 
ATOM     17  C   UNL     1       5.044  -2.446   5.248  1.00  0.00     0.029 A 
ATOM     18  N   UNL     1       6.560  -4.083   5.382  1.00  0.00    -0.354 N 
ATOM     19  C   UNL     1       7.350  -6.674   2.013  1.00  0.00     0.074 A 
ATOM     20  C   UNL     1       6.593  -6.272   0.847  1.00  0.00     0.031 C 
ATOM     21  C   UNL     1       5.615  -2.359   6.456  1.00  0.00     0.029 A 
ATOM     22  C   UNL     1       6.602  -3.422   6.587  1.00  0.00     0.049 A 
ATOM     23  H   UNL     1       7.104  -4.879   5.182  1.00  0.00     0.167 HD
ATOM     24  C   UNL     1       8.200  -7.730   2.051  1.00  0.00     0.031 A 
ATOM     25  C   UNL     1       7.347  -3.646   7.685  1.00  0.00     0.031 A 
ATOM     26  C   UNL     1       8.963  -8.114   3.212  1.00  0.00     0.049 A 
ATOM     27  C   UNL     1       8.310  -4.792   7.683  1.00  0.00     0.074 A 
ATOM     28  C   UNL     1       9.839  -9.178   3.356  1.00  0.00     0.029 A 
ATOM     29  N   UNL     1       8.955  -7.440   4.424  1.00  0.00    -0.354 N 
ATOM     30  N   UNL     1       8.573  -5.639   6.718  1.00  0.00    -0.248 NA
ATOM     31  C   UNL     1       9.065  -5.021   8.921  1.00  0.00     0.031 C 
ATOM     32  C   UNL     1      10.339  -9.161   4.664  1.00  0.00     0.029 A 
ATOM     33  C   UNL     1       9.806  -8.065   5.321  1.00  0.00     0.049 A 
ATOM     34  H   UNL     1       8.423  -6.635   4.618  1.00  0.00     0.167 HD
ATOM     35  C   UNL     1       9.509  -6.521   7.240  1.00  0.00     0.074 A 
ATOM     36  C   UNL     1       9.802  -6.071   8.587  1.00  0.00     0.031 C 
ATOM     37  C   UNL     1      10.060  -7.617   6.665  1.00  0.00     0.031 A 
BRANCH  24  38
ATOM     38  C   UNL     1       8.335  -8.570   0.808  1.00  0.00    -0.014 A 
ATOM     39  C   UNL     1       9.088  -8.126  -0.293  1.00  0.00     0.010 A 
ATOM     40  C   UNL     1       7.760  -9.854   0.770  1.00  0.00     0.010 A 
ATOM     41  C   UNL     1       9.244  -8.942  -1.419  1.00  0.00     0.020 A 
ATOM     42  C   UNL     1       7.930 -10.681  -0.345  1.00  0.00     0.020 A 
ATOM     43  C   UNL     1       8.662 -10.214  -1.439  1.00  0.00     0.054 A 
BRANCH  43  44
ATOM     44  S   UNL     1       8.914 -11.271  -2.893  1.00  0.00     0.124 S 
ATOM     45  O   UNL     1       7.994 -10.677  -3.859  1.00  0.00    -0.237 OA
ATOM     46  O   UNL     1      10.334 -11.087  -3.184  1.00  0.00    -0.237 OA
ATOM     47  O   UNL     1       8.547 -12.603  -2.420  1.00  0.00    -0.744 OA
ENDBRANCH  43  44
ENDBRANCH  24  38
BRANCH  25  48
ATOM     48  C   UNL     1       7.172  -2.776   8.877  1.00  0.00    -0.014 A 
ATOM     49  C   UNL     1       8.163  -1.850   9.243  1.00  0.00     0.010 A 
ATOM     50  C   UNL     1       5.978  -2.837   9.619  1.00  0.00     0.010 A 
ATOM     51  C   UNL     1       7.963  -1.001  10.335  1.00  0.00     0.020 A 
ATOM     52  C   UNL     1       5.764  -1.970  10.692  1.00  0.00     0.020 A 
ATOM     53  C   UNL     1       6.763  -1.064  11.050  1.00  0.00     0.054 A 
BRANCH  53  54
ATOM     54  S   UNL     1       6.477   0.099  12.413  1.00  0.00     0.124 S 
ATOM     55  O   UNL     1       7.138  -0.573  13.527  1.00  0.00    -0.237 OA
ATOM     56  O   UNL     1       7.121   1.321  11.937  1.00  0.00    -0.237 OA
ATOM     57  O   UNL     1       5.019   0.167  12.494  1.00  0.00    -0.744 OA
ENDBRANCH  53  54
ENDBRANCH  25  48
BRANCH  37  58
ATOM     58  C   UNL     1      11.019  -8.403   7.511  1.00  0.00    -0.014 A 
ATOM     59  C   UNL     1      10.546  -9.224   8.551  1.00  0.00     0.010 A 
ATOM     60  C   UNL     1      12.402  -8.312   7.276  1.00  0.00     0.010 A 
ATOM     61  C   UNL     1      11.445  -9.904   9.375  1.00  0.00     0.020 A 
ATOM     62  C   UNL     1      13.302  -9.007   8.086  1.00  0.00     0.020 A 
ATOM     63  C   UNL     1      12.818  -9.781   9.144  1.00  0.00     0.054 A 
BRANCH  63  64
ATOM     64  S   UNL     1      13.972 -10.667  10.227  1.00  0.00     0.124 S 
ATOM     65  O   UNL     1      14.017  -9.794  11.397  1.00  0.00    -0.237 OA
ATOM     66  O   UNL     1      13.309 -11.953  10.428  1.00  0.00    -0.237 OA
ATOM     67  O   UNL     1      15.203 -10.724   9.443  1.00  0.00    -0.744 OA
ENDBRANCH  63  64
ENDBRANCH  37  58
ENDBRANCH  11  12
ENDBRANCH   4   6
ENDBRANCH   1   2
BRANCH   1  68
ATOM     68  C   UNL     1       5.189   0.346  -2.493  1.00  0.00     0.023 C 
BRANCH  68  69
ATOM     69  C   UNL     1       4.845   1.623  -3.246  1.00  0.00     0.023 C 
BRANCH  69  70
ATOM     70  C   UNL     1       5.357   2.913  -2.616  1.00  0.00     0.116 C 
BRANCH  70  71
ATOM     71  N   UNL     1       6.659   3.291  -3.125  1.00  0.00    -0.356 N 
ATOM     72  C   UNL     1       7.094   4.236  -3.986  1.00  0.00     0.223 C 
ATOM     73  H   UNL     1       7.388   2.736  -2.764  1.00  0.00     0.163 HD
ATOM     74  O   UNL     1       8.311   4.243  -4.212  1.00  0.00    -0.275 OA
BRANCH  72  75
ATOM     75  C   UNL     1       6.225   5.246  -4.727  1.00  0.00     0.089 C 
ATOM     76  C   UNL     1       4.990   5.930  -4.114  1.00  0.00     0.018 C 
ATOM     77  C   UNL     1       5.734   4.785  -6.107  1.00  0.00     0.069 C 
ATOM     78  C   UNL     1       3.925   5.796  -5.229  1.00  0.00    -0.002 C 
ATOM     79  C   UNL     1       4.671   3.726  -5.941  1.00  0.00     0.137 C 
ATOM     80  C   UNL     1       4.790   5.934  -6.491  1.00  0.00     0.016 C 
ATOM     81  C   UNL     1       3.426   4.344  -5.348  1.00  0.00     0.079 C 
ATOM     82  O   UNL     1       4.775   2.563  -6.296  1.00  0.00    -0.299 OA
ENDBRANCH  72  75
ENDBRANCH  70  71
ENDBRANCH  69  70
ENDBRANCH  68  69
ENDBRANCH   1  68
TORSDOF 14
