REMARK SMILES O=C(C[C@@H]1CSCCN1c1ncnc2c1CCCCC2)NCCCCNC(=O)c1ccc(-c2c3nc(c(-c4ccc(S(=O)(=O)[O-])cc4)c4ccc([nH]4)c(-c4ccc(S(=O)(=O)[O-])cc4)c4nc(c(-c5ccc(S(=O)(=O)[O-])cc5)c5ccc2[nH]5)C=C4)C=C3)cc1
REMARK SMILES IDX 22 1 21 2 1 3 2 4 3 6 4 7 5 8 9 9 6 10 8 11 7 12 10 13 11 14
REMARK SMILES IDX 15 15 12 16 14 17 13 18 16 19 20 21 19 22 18 23 17 24 23 26
REMARK SMILES IDX 24 27 25 28 26 29 27 30 28 32 29 33 30 34 88 35 31 36 87 37
REMARK SMILES IDX 32 38 33 39 34 40 81 41 35 42 86 43 80 44 82 45 36 46 85 47
REMARK SMILES IDX 79 48 78 49 37 51 67 52 48 53 66 54 49 55 52 56 65 57 83 58
REMARK SMILES IDX 50 59 51 60 64 62 84 63 53 64 38 65 39 66 47 67 40 68 46 69
REMARK SMILES IDX 41 70 42 71 43 72 44 73 45 74 68 75 69 76 77 77 70 78 76 79
REMARK SMILES IDX 71 80 72 81 73 82 74 83 75 84 54 85 55 86 63 87 56 88 62 89
REMARK SMILES IDX 57 90 58 91 59 92 60 93 61 94
REMARK H PARENT 21 5 26 31 82 50 52 61
REMARK Flexibility Score: 80.00
ROOT
ATOM      1  C   UNL     1       1.980  -1.716   1.765  1.00  0.00     0.116 C 
ENDROOT
BRANCH   1   2
ATOM      2  N   UNL     1       2.718  -0.980   0.759  1.00  0.00    -0.356 N 
ATOM      3  O   UNL     1       0.923   0.172  -0.081  1.00  0.00    -0.275 OA
ATOM      4  C   UNL     1       2.133  -0.038  -0.052  1.00  0.00     0.222 C 
ATOM      5  H   UNL     1       3.680  -1.162   0.652  1.00  0.00     0.163 HD
BRANCH   4   6
ATOM      6  C   UNL     1       3.097   0.714  -0.943  1.00  0.00     0.125 C 
BRANCH   6   7
ATOM      7  C   UNL     1       3.962   1.828  -0.315  1.00  0.00     0.103 C 
ATOM      8  C   UNL     1       5.346   1.355   0.176  1.00  0.00     0.095 C 
ATOM      9  N   UNL     1       3.260   2.656   0.691  1.00  0.00    -0.351 N 
ATOM     10  S   UNL     1       5.328   0.446   1.747  1.00  0.00    -0.158 SA
ATOM     11  C   UNL     1       3.110   2.156   2.070  1.00  0.00     0.129 C 
ATOM     12  C   UNL     1       4.409   1.681   2.729  1.00  0.00     0.091 C 
BRANCH   9  13
ATOM     13  C   UNL     1       3.482   4.035   0.603  1.00  0.00     0.135 A 
ATOM     14  N   UNL     1       4.331   4.579   1.493  1.00  0.00    -0.219 NA
ATOM     15  C   UNL     1       2.823   4.811  -0.353  1.00  0.00     0.016 A 
ATOM     16  C   UNL     1       4.533   5.897   1.418  1.00  0.00     0.224 A 
ATOM     17  C   UNL     1       3.111   6.174  -0.340  1.00  0.00     0.049 A 
ATOM     18  N   UNL     1       3.969   6.730   0.540  1.00  0.00    -0.241 NA
BRANCH  15  19
ATOM     19  C   UNL     1       1.802   4.247  -1.303  1.00  0.00     0.041 CG0
ATOM     20  G   UNL     1       0.389   4.766  -1.039  1.00  0.00     0.000 G0
ENDBRANCH  15  19
BRANCH  17  21
ATOM     21  C   UNL     1       2.450   7.136  -1.294  1.00  0.00     0.057 C 
BRANCH  21  22
ATOM     22  C   UNL     1       0.948   7.276  -1.046  1.00  0.00     0.006 C 
BRANCH  22  23
ATOM     23  C   UNL     1       0.116   6.141  -1.641  1.00  0.00     0.001 C 
BRANCH  23  24
ATOM     24  C   UNL     1       0.389   4.766  -1.039  1.00  0.00     0.005 CG0
ATOM     25  G   UNL     1       1.802   4.247  -1.303  1.00  0.00     0.000 G0
ENDBRANCH  23  24
ENDBRANCH  22  23
ENDBRANCH  21  22
ENDBRANCH  17  21
ENDBRANCH   9  13
ENDBRANCH   6   7
ENDBRANCH   4   6
ENDBRANCH   1   2
BRANCH   1  26
ATOM     26  C   UNL     1       2.429  -3.171   1.877  1.00  0.00     0.023 C 
BRANCH  26  27
ATOM     27  C   UNL     1       3.918  -3.381   2.166  1.00  0.00     0.023 C 
BRANCH  27  28
ATOM     28  C   UNL     1       4.431  -2.744   3.454  1.00  0.00     0.116 C 
BRANCH  28  29
ATOM     29  N   UNL     1       3.898  -3.379   4.647  1.00  0.00    -0.352 N 
ATOM     30  C   UNL     1       4.552  -4.030   5.666  1.00  0.00     0.251 C 
ATOM     31  H   UNL     1       2.919  -3.337   4.739  1.00  0.00     0.163 HD
ATOM     32  O   UNL     1       3.901  -4.621   6.521  1.00  0.00    -0.269 OA
BRANCH  30  33
ATOM     33  C   UNL     1       6.033  -4.052   5.722  1.00  0.00     0.039 A 
ATOM     34  C   UNL     1       6.671  -5.265   6.000  1.00  0.00     0.014 A 
ATOM     35  C   UNL     1       6.794  -2.896   5.527  1.00  0.00     0.014 A 
ATOM     36  C   UNL     1       8.066  -5.331   6.019  1.00  0.00     0.010 A 
ATOM     37  C   UNL     1       8.187  -2.977   5.478  1.00  0.00     0.010 A 
ATOM     38  C   UNL     1       8.838  -4.195   5.724  1.00  0.00    -0.014 A 
BRANCH  38  39
ATOM     39  C   UNL     1      10.323  -4.272   5.676  1.00  0.00     0.031 A 
ATOM     40  C   UNL     1      11.156  -3.523   6.682  1.00  0.00     0.074 A 
ATOM     41  C   UNL     1      10.925  -5.001   4.714  1.00  0.00     0.049 A 
ATOM     42  N   UNL     1      12.460  -3.456   6.784  1.00  0.00    -0.248 NA
ATOM     43  C   UNL     1      10.435  -2.737   7.697  1.00  0.00     0.031 C 
ATOM     44  C   UNL     1      10.233  -5.763   3.671  1.00  0.00     0.029 A 
ATOM     45  N   UNL     1      12.256  -5.228   4.458  1.00  0.00    -0.354 N 
ATOM     46  C   UNL     1      12.713  -2.627   7.871  1.00  0.00     0.074 A 
ATOM     47  C   UNL     1      11.431  -2.169   8.361  1.00  0.00     0.031 C 
ATOM     48  C   UNL     1      11.141  -6.400   2.915  1.00  0.00     0.029 A 
ATOM     49  C   UNL     1      12.480  -6.060   3.386  1.00  0.00     0.049 A 
ATOM     50  H   UNL     1      12.981  -4.831   4.992  1.00  0.00     0.167 HD
ATOM     51  C   UNL     1      13.903  -2.296   8.427  1.00  0.00     0.031 A 
ATOM     52  C   UNL     1      13.632  -6.500   2.840  1.00  0.00     0.031 A 
ATOM     53  C   UNL     1      15.178  -2.753   7.942  1.00  0.00     0.049 A 
ATOM     54  C   UNL     1      14.943  -6.071   3.444  1.00  0.00     0.074 A 
ATOM     55  C   UNL     1      16.436  -2.493   8.458  1.00  0.00     0.029 A 
ATOM     56  N   UNL     1      15.361  -3.565   6.833  1.00  0.00    -0.354 N 
ATOM     57  N   UNL     1      15.157  -5.319   4.497  1.00  0.00    -0.248 NA
ATOM     58  C   UNL     1      16.167  -6.553   2.788  1.00  0.00     0.031 C 
ATOM     59  C   UNL     1      17.383  -3.100   7.629  1.00  0.00     0.029 A 
ATOM     60  C   UNL     1      16.713  -3.793   6.634  1.00  0.00     0.049 A 
ATOM     61  H   UNL     1      14.638  -3.926   6.271  1.00  0.00     0.167 HD
ATOM     62  C   UNL     1      16.539  -5.259   4.644  1.00  0.00     0.074 A 
ATOM     63  C   UNL     1      17.109  -6.064   3.584  1.00  0.00     0.031 C 
ATOM     64  C   UNL     1      17.269  -4.596   5.574  1.00  0.00     0.031 A 
BRANCH  51  65
ATOM     65  C   UNL     1      13.888  -1.398   9.636  1.00  0.00    -0.014 A 
ATOM     66  C   UNL     1      13.431  -1.872  10.879  1.00  0.00     0.010 A 
ATOM     67  C   UNL     1      14.410  -0.094   9.551  1.00  0.00     0.010 A 
ATOM     68  C   UNL     1      13.476  -1.053  12.009  1.00  0.00     0.020 A 
ATOM     69  C   UNL     1      14.482   0.720  10.686  1.00  0.00     0.020 A 
ATOM     70  C   UNL     1      14.006   0.237  11.907  1.00  0.00     0.054 A 
BRANCH  70  71
ATOM     71  S   UNL     1      14.096   1.256  13.404  1.00  0.00     0.124 S 
ATOM     72  O   UNL     1      12.685   1.521  13.675  1.00  0.00    -0.237 OA
ATOM     73  O   UNL     1      14.761   0.367  14.354  1.00  0.00    -0.237 OA
ATOM     74  O   UNL     1      14.878   2.418  12.989  1.00  0.00    -0.744 OA
ENDBRANCH  70  71
ENDBRANCH  51  65
BRANCH  52  75
ATOM     75  C   UNL     1      13.601  -7.412   1.662  1.00  0.00    -0.014 A 
ATOM     76  C   UNL     1      14.014  -8.750   1.784  1.00  0.00     0.010 A 
ATOM     77  C   UNL     1      13.156  -6.947   0.410  1.00  0.00     0.010 A 
ATOM     78  C   UNL     1      14.001  -9.601   0.675  1.00  0.00     0.020 A 
ATOM     79  C   UNL     1      13.113  -7.803  -0.694  1.00  0.00     0.020 A 
ATOM     80  C   UNL     1      13.547  -9.123  -0.557  1.00  0.00     0.054 A 
BRANCH  80  81
ATOM     81  S   UNL     1      13.499 -10.260  -1.971  1.00  0.00     0.124 S 
ATOM     82  O   UNL     1      14.918 -10.457  -2.251  1.00  0.00    -0.237 OA
ATOM     83  O   UNL     1      12.795 -11.415  -1.420  1.00  0.00    -0.237 OA
ATOM     84  O   UNL     1      12.759  -9.513  -2.986  1.00  0.00    -0.744 OA
ENDBRANCH  80  81
ENDBRANCH  52  75
BRANCH  64  85
ATOM     85  C   UNL     1      18.768  -4.721   5.509  1.00  0.00    -0.014 A 
ATOM     86  C   UNL     1      19.507  -4.082   4.497  1.00  0.00     0.010 A 
ATOM     87  C   UNL     1      19.454  -5.419   6.521  1.00  0.00     0.010 A 
ATOM     88  C   UNL     1      20.902  -4.157   4.487  1.00  0.00     0.020 A 
ATOM     89  C   UNL     1      20.850  -5.472   6.530  1.00  0.00     0.020 A 
ATOM     90  C   UNL     1      21.565  -4.847   5.507  1.00  0.00     0.054 A 
BRANCH  90  91
ATOM     91  S   UNL     1      23.379  -4.876   5.499  1.00  0.00     0.124 S 
ATOM     92  O   UNL     1      23.665  -5.730   4.349  1.00  0.00    -0.237 OA
ATOM     93  O   UNL     1      23.719  -3.465   5.334  1.00  0.00    -0.237 OA
ATOM     94  O   UNL     1      23.724  -5.447   6.799  1.00  0.00    -0.744 OA
ENDBRANCH  90  91
ENDBRANCH  64  85
ENDBRANCH  38  39
ENDBRANCH  30  33
ENDBRANCH  28  29
ENDBRANCH  27  28
ENDBRANCH  26  27
ENDBRANCH   1  26
TORSDOF 16
