REMARK SMILES CCC[C@H](C)C[N@H+]1[C@@H]2CC[C@H]1C[C@H](CC(=O)NCCCCNC(=O)c1ccc(-c3c4nc(c(-c5ccc(S(=O)(=O)[O-])cc5)c5ccc([nH]5)c(-c5ccc(S(=O)(=O)[O-])cc5)c5nc(c(-c6ccc(S(=O)(=O)[O-])cc6)c6ccc3[nH]6)C=C5)C=C4)cc1)C2
REMARK SMILES IDX 18 1 17 2 15 3 16 4 14 6 13 7 7 8 8 9 11 10 9 12 85 13 10 14
REMARK SMILES IDX 12 15 6 16 4 17 5 18 3 19 2 20 1 21 19 22 20 23 21 24 22 25
REMARK SMILES IDX 23 26 24 28 25 29 26 30 84 31 27 32 83 33 28 34 29 35 30 36
REMARK SMILES IDX 77 37 31 38 82 39 76 40 78 41 32 42 81 43 75 44 74 45 33 47
REMARK SMILES IDX 63 48 44 49 62 50 45 51 48 52 61 53 79 54 46 55 47 56 60 58
REMARK SMILES IDX 80 59 49 60 34 61 35 62 43 63 36 64 42 65 37 66 38 67 39 68
REMARK SMILES IDX 40 69 41 70 64 71 65 72 73 73 66 74 72 75 67 76 68 77 69 78
REMARK SMILES IDX 70 79 71 80 50 81 51 82 59 83 52 84 58 85 53 86 54 87 55 88
REMARK SMILES IDX 56 89 57 90
REMARK H PARENT 17 5 7 11 22 27 78 46 48 57
REMARK Flexibility Score: inf
ROOT
ATOM      1  C   UNL     1       0.998  -0.901  -6.828  1.00  0.00     0.116 C 
ENDROOT
BRANCH   1   2
ATOM      2  N   UNL     1       1.589  -1.823  -7.785  1.00  0.00    -0.356 N 
ATOM      3  C   UNL     1       1.903  -3.146  -7.675  1.00  0.00     0.220 C 
ATOM      4  O   UNL     1       2.500  -3.684  -8.609  1.00  0.00    -0.275 OA
ATOM      5  H   UNL     1       1.797  -1.425  -8.662  1.00  0.00     0.163 HD
BRANCH   3   6
ATOM      6  C   UNL     1       1.519  -3.951  -6.444  1.00  0.00     0.104 C 
BRANCH   6   7
ATOM      7  C   UNL     1       2.661  -4.119  -5.417  1.00  0.00     0.010 C 
ATOM      8  N   UNL     1       2.670  -3.703  -2.450  1.00  0.00    -0.330 N 
ATOM      9  C   UNL     1       2.957  -5.043  -3.013  1.00  0.00     0.184 C 
ATOM     10  C   UNL     1       3.505  -2.849  -3.300  1.00  0.00     0.184 C 
ATOM     11  H   UNL     1       2.903  -3.570  -1.466  1.00  0.00     0.348 HD
ATOM     12  C   UNL     1       4.489  -5.034  -3.097  1.00  0.00     0.071 C 
ATOM     13  C   UNL     1       2.320  -5.239  -4.407  1.00  0.00     0.069 C 
ATOM     14  C   UNL     1       4.854  -3.565  -3.257  1.00  0.00     0.071 C 
ATOM     15  C   UNL     1       2.975  -2.781  -4.732  1.00  0.00     0.069 C 
BRANCH   8  16
ATOM     16  C   UNL     1       1.227  -3.412  -2.376  1.00  0.00     0.265 C 
BRANCH  16  17
ATOM     17  C   UNL     1       0.746  -2.183  -1.554  1.00  0.00     0.041 C 
ATOM     18  C   UNL     1       1.135  -0.834  -2.167  1.00  0.00     0.013 C 
BRANCH  17  19
ATOM     19  C   UNL     1      -0.805  -2.207  -1.451  1.00  0.00     0.009 C 
BRANCH  19  20
ATOM     20  C   UNL     1      -1.377  -3.198  -0.434  1.00  0.00    -0.003 C 
ATOM     21  C   UNL     1      -1.135  -2.763   1.004  1.00  0.00     0.004 C 
ENDBRANCH  19  20
ENDBRANCH  17  19
ENDBRANCH  16  17
ENDBRANCH   8  16
ENDBRANCH   6   7
ENDBRANCH   3   6
ENDBRANCH   1   2
BRANCH   1  22
ATOM     22  C   UNL     1       2.077  -0.057  -6.141  1.00  0.00     0.023 C 
BRANCH  22  23
ATOM     23  C   UNL     1       2.339   1.308  -6.747  1.00  0.00     0.023 C 
BRANCH  23  24
ATOM     24  C   UNL     1       1.209   2.302  -6.558  1.00  0.00     0.116 C 
BRANCH  24  25
ATOM     25  N   UNL     1       0.922   2.627  -5.164  1.00  0.00    -0.352 N 
ATOM     26  C   UNL     1       0.617   3.863  -4.632  1.00  0.00     0.251 C 
ATOM     27  H   UNL     1       0.949   1.875  -4.528  1.00  0.00     0.163 HD
ATOM     28  O   UNL     1       0.445   4.012  -3.430  1.00  0.00    -0.269 OA
BRANCH  26  29
ATOM     29  C   UNL     1       0.562   5.015  -5.556  1.00  0.00     0.039 A 
ATOM     30  C   UNL     1       1.407   6.104  -5.335  1.00  0.00     0.014 A 
ATOM     31  C   UNL     1      -0.195   4.921  -6.725  1.00  0.00     0.014 A 
ATOM     32  C   UNL     1       1.579   7.050  -6.347  1.00  0.00     0.010 A 
ATOM     33  C   UNL     1       0.058   5.804  -7.765  1.00  0.00     0.010 A 
ATOM     34  C   UNL     1       0.955   6.872  -7.592  1.00  0.00    -0.014 A 
BRANCH  34  35
ATOM     35  C   UNL     1       1.206   7.775  -8.744  1.00  0.00     0.031 A 
ATOM     36  C   UNL     1       0.046   8.501  -9.369  1.00  0.00     0.074 A 
ATOM     37  C   UNL     1       2.432   7.849  -9.300  1.00  0.00     0.049 A 
ATOM     38  N   UNL     1      -0.004   9.167 -10.493  1.00  0.00    -0.248 NA
ATOM     39  C   UNL     1      -1.242   8.421  -8.659  1.00  0.00     0.031 C 
ATOM     40  C   UNL     1       3.632   7.157  -8.823  1.00  0.00     0.029 A 
ATOM     41  N   UNL     1       2.866   8.531 -10.410  1.00  0.00    -0.354 N 
ATOM     42  C   UNL     1      -1.334   9.535 -10.650  1.00  0.00     0.074 A 
ATOM     43  C   UNL     1      -2.064   8.986  -9.529  1.00  0.00     0.031 C 
ATOM     44  C   UNL     1       4.669   7.471  -9.618  1.00  0.00     0.029 A 
ATOM     45  C   UNL     1       4.201   8.346 -10.687  1.00  0.00     0.049 A 
ATOM     46  H   UNL     1       2.277   9.099 -10.957  1.00  0.00     0.167 HD
ATOM     47  C   UNL     1      -1.897  10.279 -11.630  1.00  0.00     0.031 A 
ATOM     48  C   UNL     1       4.960   8.821 -11.695  1.00  0.00     0.031 A 
ATOM     49  C   UNL     1      -1.160  10.873 -12.710  1.00  0.00     0.049 A 
ATOM     50  C   UNL     1       4.327   9.700 -12.738  1.00  0.00     0.074 A 
ATOM     51  C   UNL     1      -1.623  11.700 -13.717  1.00  0.00     0.029 A 
ATOM     52  N   UNL     1       0.204  10.720 -12.908  1.00  0.00    -0.354 N 
ATOM     53  N   UNL     1       3.072  10.065 -12.852  1.00  0.00    -0.248 NA
ATOM     54  C   UNL     1       5.210  10.237 -13.782  1.00  0.00     0.031 C 
ATOM     55  C   UNL     1      -0.540  12.034 -14.537  1.00  0.00     0.029 A 
ATOM     56  C   UNL     1       0.601  11.441 -14.019  1.00  0.00     0.049 A 
ATOM     57  H   UNL     1       0.800  10.178 -12.343  1.00  0.00     0.167 HD
ATOM     58  C   UNL     1       3.021  10.897 -13.965  1.00  0.00     0.074 A 
ATOM     59  C   UNL     1       4.370  10.985 -14.485  1.00  0.00     0.031 C 
ATOM     60  C   UNL     1       1.953  11.531 -14.506  1.00  0.00     0.031 A 
BRANCH  47  61
ATOM     61  C   UNL     1      -3.385  10.489 -11.566  1.00  0.00    -0.014 A 
ATOM     62  C   UNL     1      -3.958  11.317 -10.584  1.00  0.00     0.010 A 
ATOM     63  C   UNL     1      -4.221   9.850 -12.498  1.00  0.00     0.010 A 
ATOM     64  C   UNL     1      -5.344  11.459 -10.500  1.00  0.00     0.020 A 
ATOM     65  C   UNL     1      -5.608  10.012 -12.435  1.00  0.00     0.020 A 
ATOM     66  C   UNL     1      -6.161  10.797 -11.421  1.00  0.00     0.054 A 
BRANCH  66  67
ATOM     67  S   UNL     1      -7.959  10.996 -11.294  1.00  0.00     0.124 S 
ATOM     68  O   UNL     1      -8.283  10.090 -10.194  1.00  0.00    -0.237 OA
ATOM     69  O   UNL     1      -8.108  12.419 -10.999  1.00  0.00    -0.237 OA
ATOM     70  O   UNL     1      -8.446  10.582 -12.607  1.00  0.00    -0.744 OA
ENDBRANCH  66  67
ENDBRANCH  47  61
BRANCH  48  71
ATOM     71  C   UNL     1       6.411   8.498 -11.751  1.00  0.00    -0.014 A 
ATOM     72  C   UNL     1       7.365   9.473 -11.410  1.00  0.00     0.010 A 
ATOM     73  C   UNL     1       6.848   7.215 -12.126  1.00  0.00     0.010 A 
ATOM     74  C   UNL     1       8.730   9.178 -11.459  1.00  0.00     0.020 A 
ATOM     75  C   UNL     1       8.213   6.910 -12.155  1.00  0.00     0.020 A 
ATOM     76  C   UNL     1       9.146   7.897 -11.831  1.00  0.00     0.054 A 
BRANCH  76  77
ATOM     77  S   UNL     1      10.921   7.517 -11.832  1.00  0.00     0.124 S 
ATOM     78  O   UNL     1      11.363   8.137 -13.077  1.00  0.00    -0.237 OA
ATOM     79  O   UNL     1      11.385   8.158 -10.605  1.00  0.00    -0.237 OA
ATOM     80  O   UNL     1      10.954   6.056 -11.812  1.00  0.00    -0.744 OA
ENDBRANCH  76  77
ENDBRANCH  48  71
BRANCH  60  81
ATOM     81  C   UNL     1       2.199  12.417 -15.693  1.00  0.00    -0.014 A 
ATOM     82  C   UNL     1       2.378  11.876 -16.977  1.00  0.00     0.010 A 
ATOM     83  C   UNL     1       2.157  13.814 -15.531  1.00  0.00     0.010 A 
ATOM     84  C   UNL     1       2.523  12.720 -18.081  1.00  0.00     0.020 A 
ATOM     85  C   UNL     1       2.283  14.659 -16.635  1.00  0.00     0.020 A 
ATOM     86  C   UNL     1       2.472  14.106 -17.903  1.00  0.00     0.054 A 
BRANCH  86  87
ATOM     87  S   UNL     1       2.585  15.182 -19.360  1.00  0.00     0.124 S 
ATOM     88  O   UNL     1       4.017  15.159 -19.643  1.00  0.00    -0.237 OA
ATOM     89  O   UNL     1       1.740  14.495 -20.334  1.00  0.00    -0.237 OA
ATOM     90  O   UNL     1       2.063  16.461 -18.885  1.00  0.00    -0.744 OA
ENDBRANCH  86  87
ENDBRANCH  60  81
ENDBRANCH  34  35
ENDBRANCH  26  29
ENDBRANCH  24  25
ENDBRANCH  23  24
ENDBRANCH  22  23
ENDBRANCH   1  22
TORSDOF 19
