REMARK SMILES O=C(Cn1nc(C(=O)NCCCCNC(=O)c2ccc(-c3c4nc(c(-c5ccc(S(=O)(=O)[O-])cc5)c5ccc([nH]5)c(-c5ccc(S(=O)(=O)[O-])cc5)c5nc(c(-c6ccc(S(=O)(=O)[O-])cc6)c6ccc3[nH]6)C=C5)C=C4)cc2)c2ccccc2c1=O)NCc1ccc(F)cc1
REMARK SMILES IDX 11 1 10 2 9 3 7 4 8 5 6 7 4 8 5 9 83 10 82 11 84 12 77 13
REMARK SMILES IDX 81 14 78 15 80 16 79 17 3 18 2 19 1 20 85 21 86 23 87 24
REMARK SMILES IDX 88 25 93 26 89 27 92 28 90 29 91 30 12 31 13 32 14 33 15 34
REMARK SMILES IDX 16 36 17 37 18 38 76 39 19 40 75 41 20 42 21 43 22 44 69 45
REMARK SMILES IDX 23 46 74 47 68 48 70 49 24 50 73 51 67 52 66 53 25 55 55 56
REMARK SMILES IDX 36 57 54 58 37 59 40 60 53 61 71 62 38 63 39 64 52 66 72 67
REMARK SMILES IDX 41 68 26 69 27 70 35 71 28 72 34 73 29 74 30 75 31 76 32 77
REMARK SMILES IDX 33 78 56 79 57 80 65 81 58 82 64 83 59 84 60 85 61 86 62 87
REMARK SMILES IDX 63 88 42 89 43 90 51 91 44 92 50 93 45 94 46 95 47 96 48 97
REMARK SMILES IDX 49 98
REMARK H PARENT 9 6 85 22 14 35 70 54 40 65
REMARK Flexibility Score: inf
ROOT
ATOM      1  C   UNL     1       1.797  -3.480  -0.225  1.00  0.00     0.023 C 
ENDROOT
BRANCH   1   2
ATOM      2  C   UNL     1       1.548  -3.444   1.279  1.00  0.00     0.116 C 
BRANCH   2   3
ATOM      3  N   UNL     1       2.515  -4.267   1.976  1.00  0.00    -0.351 N 
ATOM      4  C   UNL     1       3.791  -3.985   2.406  1.00  0.00     0.272 C 
ATOM      5  O   UNL     1       4.468  -4.928   2.799  1.00  0.00    -0.267 OA
ATOM      6  H   UNL     1       2.207  -5.180   2.176  1.00  0.00     0.163 HD
BRANCH   4   7
ATOM      7  C   UNL     1       4.362  -2.543   2.412  1.00  0.00     0.156 A 
ATOM      8  N   UNL     1       4.159  -0.335   1.700  1.00  0.00    -0.219 N 
ATOM      9  N   UNL     1       3.751  -1.647   1.688  1.00  0.00    -0.163 NA
ATOM     10  C   UNL     1       5.193   0.139   2.496  1.00  0.00     0.275 A 
ATOM     11  C   UNL     1       5.945  -0.865   3.267  1.00  0.00     0.051 A 
ATOM     12  O   UNL     1       5.497   1.327   2.585  1.00  0.00    -0.267 OA
ATOM     13  C   UNL     1       5.560  -2.205   3.234  1.00  0.00     0.020 A 
ATOM     14  C   UNL     1       7.049  -0.447   4.030  1.00  0.00     0.014 A 
ATOM     15  C   UNL     1       6.323  -3.128   3.964  1.00  0.00     0.011 A 
ATOM     16  C   UNL     1       7.794  -1.375   4.750  1.00  0.00     0.001 A 
ATOM     17  C   UNL     1       7.434  -2.716   4.710  1.00  0.00     0.001 A 
BRANCH   8  18
ATOM     18  C   UNL     1       3.298   0.652   1.044  1.00  0.00     0.248 C 
BRANCH  18  19
ATOM     19  C   UNL     1       2.491   0.144  -0.145  1.00  0.00     0.242 C 
ATOM     20  O   UNL     1       1.264   0.236  -0.177  1.00  0.00    -0.273 OA
ATOM     21  N   UNL     1       3.234  -0.327  -1.208  1.00  0.00    -0.350 N 
ATOM     22  H   UNL     1       4.212  -0.212  -1.201  1.00  0.00     0.163 HD
BRANCH  21  23
ATOM     23  C   UNL     1       2.606  -0.985  -2.331  1.00  0.00     0.151 C 
BRANCH  23  24
ATOM     24  C   UNL     1       2.868  -0.361  -3.674  1.00  0.00    -0.029 A 
ATOM     25  C   UNL     1       2.825   1.026  -3.868  1.00  0.00     0.008 A 
ATOM     26  C   UNL     1       3.005  -1.203  -4.793  1.00  0.00     0.008 A 
ATOM     27  C   UNL     1       2.937   1.559  -5.154  1.00  0.00     0.039 A 
ATOM     28  C   UNL     1       3.112  -0.670  -6.076  1.00  0.00     0.039 A 
ATOM     29  C   UNL     1       3.077   0.707  -6.245  1.00  0.00     0.123 A 
ATOM     30  F   UNL     1       3.160   1.223  -7.478  1.00  0.00    -0.207 F 
ENDBRANCH  23  24
ENDBRANCH  21  23
ENDBRANCH  18  19
ENDBRANCH   8  18
ENDBRANCH   4   7
ENDBRANCH   2   3
ENDBRANCH   1   2
BRANCH   1  31
ATOM     31  C   UNL     1       1.381  -4.771  -0.931  1.00  0.00     0.023 C 
BRANCH  31  32
ATOM     32  C   UNL     1      -0.110  -5.077  -0.872  1.00  0.00     0.116 C 
BRANCH  32  33
ATOM     33  N   UNL     1      -0.959  -4.028  -1.426  1.00  0.00    -0.352 N 
ATOM     34  C   UNL     1      -2.167  -4.165  -2.074  1.00  0.00     0.251 C 
ATOM     35  H   UNL     1      -0.626  -3.107  -1.324  1.00  0.00     0.163 HD
ATOM     36  O   UNL     1      -2.737  -3.191  -2.554  1.00  0.00    -0.269 OA
BRANCH  34  37
ATOM     37  C   UNL     1      -2.736  -5.519  -2.230  1.00  0.00     0.039 A 
ATOM     38  C   UNL     1      -2.798  -6.382  -1.135  1.00  0.00     0.014 A 
ATOM     39  C   UNL     1      -3.101  -5.962  -3.504  1.00  0.00     0.014 A 
ATOM     40  C   UNL     1      -3.019  -7.735  -1.349  1.00  0.00     0.010 A 
ATOM     41  C   UNL     1      -3.419  -7.308  -3.698  1.00  0.00     0.010 A 
ATOM     42  C   UNL     1      -3.313  -8.218  -2.635  1.00  0.00    -0.014 A 
BRANCH  42  43
ATOM     43  C   UNL     1      -3.467  -9.681  -2.846  1.00  0.00     0.031 A 
ATOM     44  C   UNL     1      -2.499 -10.435  -3.722  1.00  0.00     0.074 A 
ATOM     45  C   UNL     1      -4.434 -10.344  -2.182  1.00  0.00     0.049 A 
ATOM     46  N   UNL     1      -2.480 -11.710  -4.013  1.00  0.00    -0.248 NA
ATOM     47  C   UNL     1      -1.413  -9.665  -4.352  1.00  0.00     0.031 C 
ATOM     48  C   UNL     1      -5.401  -9.726  -1.272  1.00  0.00     0.029 A 
ATOM     49  N   UNL     1      -4.741 -11.680  -2.136  1.00  0.00    -0.354 N 
ATOM     50  C   UNL     1      -1.402 -11.891  -4.873  1.00  0.00     0.074 A 
ATOM     51  C   UNL     1      -0.802 -10.592  -5.078  1.00  0.00     0.031 C 
ATOM     52  C   UNL     1      -6.143 -10.687  -0.704  1.00  0.00     0.029 A 
ATOM     53  C   UNL     1      -5.766 -11.978  -1.270  1.00  0.00     0.049 A 
ATOM     54  H   UNL     1      -4.272 -12.360  -2.672  1.00  0.00     0.167 HD
ATOM     55  C   UNL     1      -0.950 -13.039  -5.431  1.00  0.00     0.031 A 
ATOM     56  C   UNL     1      -6.353 -13.153  -0.970  1.00  0.00     0.031 A 
ATOM     57  C   UNL     1      -1.539 -14.332  -5.202  1.00  0.00     0.049 A 
ATOM     58  C   UNL     1      -5.870 -14.403  -1.644  1.00  0.00     0.074 A 
ATOM     59  C   UNL     1      -1.148 -15.554  -5.722  1.00  0.00     0.029 A 
ATOM     60  N   UNL     1      -2.630 -14.576  -4.382  1.00  0.00    -0.354 N 
ATOM     61  N   UNL     1      -4.870 -14.546  -2.480  1.00  0.00    -0.248 NA
ATOM     62  C   UNL     1      -6.596 -15.645  -1.349  1.00  0.00     0.031 C 
ATOM     63  C   UNL     1      -2.035 -16.528  -5.260  1.00  0.00     0.029 A 
ATOM     64  C   UNL     1      -2.941 -15.925  -4.401  1.00  0.00     0.049 A 
ATOM     65  H   UNL     1      -3.112 -13.892  -3.864  1.00  0.00     0.167 HD
ATOM     66  C   UNL     1      -4.846 -15.895  -2.813  1.00  0.00     0.074 A 
ATOM     67  C   UNL     1      -5.917 -16.529  -2.070  1.00  0.00     0.031 C 
ATOM     68  C   UNL     1      -4.015 -16.543  -3.664  1.00  0.00     0.031 A 
BRANCH  55  69
ATOM     69  C   UNL     1       0.238 -12.968  -6.355  1.00  0.00    -0.014 A 
ATOM     70  C   UNL     1       0.067 -13.220  -7.729  1.00  0.00     0.010 A 
ATOM     71  C   UNL     1       1.537 -12.771  -5.853  1.00  0.00     0.010 A 
ATOM     72  C   UNL     1       1.172 -13.303  -8.581  1.00  0.00     0.020 A 
ATOM     73  C   UNL     1       2.644 -12.828  -6.707  1.00  0.00     0.020 A 
ATOM     74  C   UNL     1       2.456 -13.116  -8.061  1.00  0.00     0.054 A 
BRANCH  74  75
ATOM     75  S   UNL     1       3.882 -13.242  -9.176  1.00  0.00     0.124 S 
ATOM     76  O   UNL     1       4.026 -14.686  -9.331  1.00  0.00    -0.237 OA
ATOM     77  O   UNL     1       3.428 -12.520 -10.362  1.00  0.00    -0.237 OA
ATOM     78  O   UNL     1       4.954 -12.582  -8.432  1.00  0.00    -0.744 OA
ENDBRANCH  74  75
ENDBRANCH  55  69
BRANCH  56  79
ATOM     79  C   UNL     1      -7.461 -13.171   0.023  1.00  0.00    -0.014 A 
ATOM     80  C   UNL     1      -8.688 -12.545  -0.272  1.00  0.00     0.010 A 
ATOM     81  C   UNL     1      -7.260 -13.711   1.304  1.00  0.00     0.010 A 
ATOM     82  C   UNL     1      -9.664 -12.397   0.715  1.00  0.00     0.020 A 
ATOM     83  C   UNL     1      -8.249 -13.592   2.286  1.00  0.00     0.020 A 
ATOM     84  C   UNL     1      -9.430 -12.905   1.994  1.00  0.00     0.054 A 
BRANCH  84  85
ATOM     85  S   UNL     1     -10.681 -12.642   3.281  1.00  0.00     0.124 S 
ATOM     86  O   UNL     1     -10.426 -11.256   3.664  1.00  0.00    -0.237 OA
ATOM     87  O   UNL     1     -11.932 -12.876   2.565  1.00  0.00    -0.237 OA
ATOM     88  O   UNL     1     -10.346 -13.643   4.290  1.00  0.00    -0.744 OA
ENDBRANCH  84  85
ENDBRANCH  56  79
BRANCH  68  89
ATOM     89  C   UNL     1      -4.218 -18.020  -3.864  1.00  0.00    -0.014 A 
ATOM     90  C   UNL     1      -3.261 -18.928  -3.376  1.00  0.00     0.010 A 
ATOM     91  C   UNL     1      -5.278 -18.495  -4.655  1.00  0.00     0.010 A 
ATOM     92  C   UNL     1      -3.337 -20.282  -3.708  1.00  0.00     0.020 A 
ATOM     93  C   UNL     1      -5.371 -19.854  -4.969  1.00  0.00     0.020 A 
ATOM     94  C   UNL     1      -4.385 -20.734  -4.515  1.00  0.00     0.054 A 
BRANCH  94  95
ATOM     95  S   UNL     1      -4.443 -22.487  -4.975  1.00  0.00     0.124 S 
ATOM     96  O   UNL     1      -3.434 -22.562  -6.027  1.00  0.00    -0.237 OA
ATOM     97  O   UNL     1      -4.100 -23.160  -3.724  1.00  0.00    -0.237 OA
ATOM     98  O   UNL     1      -5.823 -22.679  -5.417  1.00  0.00    -0.744 OA
ENDBRANCH  94  95
ENDBRANCH  68  89
ENDBRANCH  42  43
ENDBRANCH  34  37
ENDBRANCH  32  33
ENDBRANCH  31  32
ENDBRANCH   1  31
TORSDOF 18
