REMARK SMILES Cc1cc(NS(=O)(=O)c2ccc3c(c2)[C@H]2[C@H]4CC[C@H](C4)[C@@H]2[C@H](c2cccc(C(=O)NCCCCNC(=O)c4ccc(-c5c6nc(c(-c7ccc(S(=O)(=O)[O-])cc7)c7ccc([nH]7)c(-c7ccc(S(=O)(=O)[O-])cc7)c7nc(c(-c8ccc(S(=O)(=O)[O-])cc8)c8ccc5[nH]8)C=C7)C=C6)cc4)c2)N3)no1
REMARK SMILES IDX 32 1 31 2 30 3 28 4 29 5 27 7 23 8 24 9 98 10 25 11 26 12
REMARK SMILES IDX 22 13 9 14 10 15 14 16 11 17 13 18 12 19 15 20 99 21 16 22
REMARK SMILES IDX 21 23 17 25 20 26 19 27 18 28 6 29 7 30 8 31 5 32 4 34 1 35
REMARK SMILES IDX 2 36 3 37 101 38 100 39 33 40 34 41 35 42 36 43 37 45 38 46
REMARK SMILES IDX 39 47 97 48 40 49 96 50 41 51 42 52 43 53 90 54 44 55 95 56
REMARK SMILES IDX 89 57 91 58 45 59 94 60 88 61 87 62 46 64 76 65 57 66 75 67
REMARK SMILES IDX 58 68 61 69 74 70 92 71 59 72 60 73 73 75 93 76 62 77 47 78
REMARK SMILES IDX 48 79 56 80 49 81 55 82 50 83 51 84 52 85 53 86 54 87 77 88
REMARK SMILES IDX 78 89 86 90 79 91 85 92 80 93 81 94 82 95 83 96 84 97 63 98
REMARK SMILES IDX 64 99 72 100 65 101 71 102 66 103 67 104 68 105 69 106
REMARK SMILES IDX 70 107
REMARK H PARENT 30 6 99 24 5 33 35 44 91 63 61 74
REMARK Flexibility Score: inf
ROOT
ATOM      1  C   UNL     1      -3.685   3.647   4.017  1.00  0.00     0.023 C 
ENDROOT
BRANCH   1   2
ATOM      2  C   UNL     1      -3.465   5.061   3.507  1.00  0.00     0.116 C 
BRANCH   2   3
ATOM      3  N   UNL     1      -2.873   6.005   4.443  1.00  0.00    -0.352 N 
ATOM      4  C   UNL     1      -2.048   7.087   4.197  1.00  0.00     0.251 C 
ATOM      5  O   UNL     1      -1.678   7.785   5.139  1.00  0.00    -0.269 OA
ATOM      6  H   UNL     1      -3.091   5.850   5.391  1.00  0.00     0.163 HD
BRANCH   4   7
ATOM      7  C   UNL     1      -1.531   7.379   2.830  1.00  0.00     0.040 A 
ATOM      8  C   UNL     1      -1.621   6.970   0.434  1.00  0.00    -0.025 A 
ATOM      9  C   UNL     1      -0.356   7.564   0.313  1.00  0.00     0.006 A 
ATOM     10  C   UNL     1      -2.252   7.064   1.678  1.00  0.00     0.019 A 
ATOM     11  C   UNL     1       0.326   8.039   1.437  1.00  0.00     0.001 A 
ATOM     12  C   UNL     1      -0.240   7.898   2.702  1.00  0.00     0.014 A 
BRANCH   8  13
ATOM     13  C   UNL     1      -2.235   6.150  -0.699  1.00  0.00     0.113 C 
ATOM     14  C   UNL     1      -3.851   1.284   0.097  1.00  0.00     0.088 A 
ATOM     15  C   UNL     1      -5.000   2.086   0.024  1.00  0.00     0.024 A 
ATOM     16  C   UNL     1      -2.604   1.892   0.161  1.00  0.00     0.028 A 
ATOM     17  C   UNL     1      -4.892   3.488  -0.048  1.00  0.00     0.027 A 
ATOM     18  C   UNL     1      -2.498   3.277  -0.009  1.00  0.00    -0.020 A 
ATOM     19  C   UNL     1      -3.641   4.107  -0.100  1.00  0.00     0.038 A 
ATOM     20  C   UNL     1      -1.174   3.954  -0.140  1.00  0.00     0.030 C 
ATOM     21  N   UNL     1      -3.518   5.488  -0.301  1.00  0.00    -0.378 N 
ATOM     22  C   UNL     1       0.140   3.270  -0.564  1.00  0.00    -0.003 C 
ATOM     23  C   UNL     1      -1.343   5.021  -1.245  1.00  0.00     0.027 C 
ATOM     24  H   UNL     1      -4.315   6.052  -0.174  1.00  0.00     0.161 HD
ATOM     25  C   UNL     1       0.101   2.745  -2.014  1.00  0.00     0.004 C 
ATOM     26  C   UNL     1       0.998   4.535  -0.724  1.00  0.00     0.008 C 
ATOM     27  C   UNL     1       0.092   5.142  -1.808  1.00  0.00    -0.005 C 
ATOM     28  C   UNL     1       0.221   4.022  -2.867  1.00  0.00     0.004 C 
BRANCH  14  29
ATOM     29  S   UNL     1      -4.064  -0.489   0.001  1.00  0.00     0.263 S 
ATOM     30  O   UNL     1      -4.340  -0.817  -1.386  1.00  0.00    -0.201 OA
ATOM     31  O   UNL     1      -5.010  -0.827   1.040  1.00  0.00    -0.201 OA
BRANCH  29  32
ATOM     32  N   UNL     1      -2.651  -1.234   0.481  1.00  0.00    -0.261 N 
ATOM     33  H   UNL     1      -2.701  -1.800   1.285  1.00  0.00     0.182 HD
BRANCH  32  34
ATOM     34  C   UNL     1      -1.415  -1.139  -0.132  1.00  0.00     0.183 A 
ATOM     35  C   UNL     1       2.217  -0.726  -0.114  1.00  0.00     0.091 C 
ATOM     36  C   UNL     1       0.769  -0.942  -0.283  1.00  0.00     0.135 A 
ATOM     37  C   UNL     1      -0.207  -1.507   0.501  1.00  0.00     0.096 A 
ATOM     38  O   UNL     1       0.194  -0.431  -1.403  1.00  0.00    -0.360 OA
ATOM     39  N   UNL     1      -1.180  -0.567  -1.315  1.00  0.00    -0.061 NA
ENDBRANCH  32  34
ENDBRANCH  29  32
ENDBRANCH  14  29
ENDBRANCH   8  13
ENDBRANCH   4   7
ENDBRANCH   2   3
ENDBRANCH   1   2
BRANCH   1  40
ATOM     40  C   UNL     1      -4.529   3.507   5.271  1.00  0.00     0.023 C 
BRANCH  40  41
ATOM     41  C   UNL     1      -5.828   4.299   5.283  1.00  0.00     0.116 C 
BRANCH  41  42
ATOM     42  N   UNL     1      -6.782   3.902   4.254  1.00  0.00    -0.352 N 
ATOM     43  C   UNL     1      -8.053   3.381   4.389  1.00  0.00     0.251 C 
ATOM     44  H   UNL     1      -6.475   4.023   3.327  1.00  0.00     0.163 HD
ATOM     45  O   UNL     1      -8.705   3.064   3.400  1.00  0.00    -0.269 OA
BRANCH  43  46
ATOM     46  C   UNL     1      -8.590   3.151   5.747  1.00  0.00     0.039 A 
ATOM     47  C   UNL     1      -8.535   4.163   6.704  1.00  0.00     0.014 A 
ATOM     48  C   UNL     1      -9.026   1.871   6.095  1.00  0.00     0.014 A 
ATOM     49  C   UNL     1      -8.667   3.833   8.047  1.00  0.00     0.010 A 
ATOM     50  C   UNL     1      -9.270   1.571   7.438  1.00  0.00     0.010 A 
ATOM     51  C   UNL     1      -9.014   2.528   8.434  1.00  0.00    -0.014 A 
BRANCH  51  52
ATOM     52  C   UNL     1      -9.060   2.168   9.877  1.00  0.00     0.031 A 
ATOM     53  C   UNL     1      -8.134   1.115  10.435  1.00  0.00     0.074 A 
ATOM     54  C   UNL     1      -9.900   2.829  10.699  1.00  0.00     0.049 A 
ATOM     55  N   UNL     1      -8.069   0.642  11.654  1.00  0.00    -0.248 NA
ATOM     56  C   UNL     1      -7.154   0.514   9.513  1.00  0.00     0.031 C 
ATOM     57  C   UNL     1     -10.804   3.904  10.287  1.00  0.00     0.029 A 
ATOM     58  N   UNL     1     -10.114   2.713  12.049  1.00  0.00    -0.354 N 
ATOM     59  C   UNL     1      -7.069  -0.324  11.639  1.00  0.00     0.074 A 
ATOM     60  C   UNL     1      -6.567  -0.391  10.285  1.00  0.00     0.031 C 
ATOM     61  C   UNL     1     -11.433   4.386  11.368  1.00  0.00     0.029 A 
ATOM     62  C   UNL     1     -11.052   3.595  12.534  1.00  0.00     0.049 A 
ATOM     63  H   UNL     1      -9.643   2.062  12.617  1.00  0.00     0.167 HD
ATOM     64  C   UNL     1      -6.605  -1.077  12.665  1.00  0.00     0.031 A 
ATOM     65  C   UNL     1     -11.576   3.740  13.767  1.00  0.00     0.031 A 
ATOM     66  C   UNL     1      -7.093  -0.981  14.016  1.00  0.00     0.049 A 
ATOM     67  C   UNL     1     -11.104   2.840  14.871  1.00  0.00     0.074 A 
ATOM     68  C   UNL     1      -6.670  -1.687  15.128  1.00  0.00     0.029 A 
ATOM     69  N   UNL     1      -8.100  -0.128  14.443  1.00  0.00    -0.354 N 
ATOM     70  N   UNL     1     -10.166   1.924  14.834  1.00  0.00    -0.248 NA
ATOM     71  C   UNL     1     -11.762   2.978  16.177  1.00  0.00     0.031 C 
ATOM     72  C   UNL     1      -7.468  -1.315  16.210  1.00  0.00     0.029 A 
ATOM     73  C   UNL     1      -8.337  -0.319  15.793  1.00  0.00     0.049 A 
ATOM     74  H   UNL     1      -8.576   0.517  13.870  1.00  0.00     0.167 HD
ATOM     75  C   UNL     1     -10.115   1.381  16.111  1.00  0.00     0.074 A 
ATOM     76  C   UNL     1     -11.103   2.083  16.905  1.00  0.00     0.031 C 
ATOM     77  C   UNL     1      -9.323   0.386  16.577  1.00  0.00     0.031 A 
BRANCH  64  78
ATOM     78  C   UNL     1      -5.516  -2.085  12.392  1.00  0.00    -0.014 A 
ATOM     79  C   UNL     1      -5.792  -3.460  12.521  1.00  0.00     0.010 A 
ATOM     80  C   UNL     1      -4.193  -1.677  12.145  1.00  0.00     0.010 A 
ATOM     81  C   UNL     1      -4.765  -4.405  12.441  1.00  0.00     0.020 A 
ATOM     82  C   UNL     1      -3.166  -2.622  12.036  1.00  0.00     0.020 A 
ATOM     83  C   UNL     1      -3.456  -3.978  12.209  1.00  0.00     0.054 A 
BRANCH  83  84
ATOM     84  S   UNL     1      -2.130  -5.215  12.134  1.00  0.00     0.124 S 
ATOM     85  O   UNL     1      -1.950  -5.562  13.540  1.00  0.00    -0.237 OA
ATOM     86  O   UNL     1      -2.713  -6.258  11.293  1.00  0.00    -0.237 OA
ATOM     87  O   UNL     1      -1.019  -4.487  11.523  1.00  0.00    -0.744 OA
ENDBRANCH  83  84
ENDBRANCH  64  78
BRANCH  65  88
ATOM     88  C   UNL     1     -12.613   4.786  13.988  1.00  0.00    -0.014 A 
ATOM     89  C   UNL     1     -13.866   4.689  13.349  1.00  0.00     0.010 A 
ATOM     90  C   UNL     1     -12.316   5.937  14.735  1.00  0.00     0.010 A 
ATOM     91  C   UNL     1     -14.767   5.755  13.387  1.00  0.00     0.020 A 
ATOM     92  C   UNL     1     -13.231   6.993  14.805  1.00  0.00     0.020 A 
ATOM     93  C   UNL     1     -14.434   6.909  14.100  1.00  0.00     0.054 A 
BRANCH  93  94
ATOM     94  S   UNL     1     -15.585   8.311  14.069  1.00  0.00     0.124 S 
ATOM     95  O   UNL     1     -15.360   8.852  12.731  1.00  0.00    -0.237 OA
ATOM     96  O   UNL     1     -16.879   7.667  14.278  1.00  0.00    -0.237 OA
ATOM     97  O   UNL     1     -15.126   9.154  15.170  1.00  0.00    -0.744 OA
ENDBRANCH  93  94
ENDBRANCH  65  88
BRANCH  77  98
ATOM     98  C   UNL     1      -9.471  -0.038  18.014  1.00  0.00    -0.014 A 
ATOM     99  C   UNL     1      -8.419   0.195  18.920  1.00  0.00     0.010 A 
ATOM    100  C   UNL     1     -10.563  -0.825  18.416  1.00  0.00     0.010 A 
ATOM    101  C   UNL     1      -8.426  -0.406  20.181  1.00  0.00     0.020 A 
ATOM    102  C   UNL     1     -10.587  -1.404  19.688  1.00  0.00     0.020 A 
ATOM    103  C   UNL     1      -9.502  -1.218  20.548  1.00  0.00     0.054 A 
BRANCH 103 104
ATOM    104  S   UNL     1      -9.447  -2.064  22.152  1.00  0.00     0.124 S 
ATOM    105  O   UNL     1      -8.455  -3.109  21.915  1.00  0.00    -0.237 OA
ATOM    106  O   UNL     1      -9.034  -0.998  23.062  1.00  0.00    -0.237 OA
ATOM    107  O   UNL     1     -10.818  -2.536  22.339  1.00  0.00    -0.744 OA
ENDBRANCH 103 104
ENDBRANCH  77  98
ENDBRANCH  51  52
ENDBRANCH  43  46
ENDBRANCH  41  42
ENDBRANCH  40  41
ENDBRANCH   1  40
TORSDOF 18
