REMARK SMILES CCc1cccc(-c2ccc([C@@H](C)C(=O)NCCCCNC(=O)c3ccc(-c4c5nc(c(-c6ccc(S(=O)(=O)[O-])cc6)c6ccc([nH]6)c(-c6ccc(S(=O)(=O)[O-])cc6)c6nc(c(-c7ccc(S(=O)(=O)[O-])cc7)c7ccc4[nH]7)C=C6)C=C5)cc3)cc2)c1
REMARK SMILES IDX 18 1 17 2 16 3 14 4 15 5 12 7 13 8 11 9 8 10 9 11 85 12
REMARK SMILES IDX 10 13 84 14 7 15 3 16 4 17 86 18 5 19 6 20 2 21 1 22 19 23
REMARK SMILES IDX 20 24 21 25 22 26 23 28 24 29 25 30 83 31 26 32 82 33 27 34
REMARK SMILES IDX 28 35 29 36 76 37 30 38 81 39 75 40 77 41 31 42 80 43 74 44
REMARK SMILES IDX 73 45 32 47 62 48 43 49 61 50 44 51 47 52 60 53 78 54 45 55
REMARK SMILES IDX 46 56 59 58 79 59 48 60 33 61 34 62 42 63 35 64 41 65 36 66
REMARK SMILES IDX 37 67 38 68 39 69 40 70 63 71 64 72 72 73 65 74 71 75 66 76
REMARK SMILES IDX 67 77 68 78 69 79 70 80 49 81 50 82 58 83 51 84 57 85 52 86
REMARK SMILES IDX 53 87 54 88 55 89 56 90
REMARK H PARENT 16 6 21 27 77 46 47 57
REMARK Flexibility Score: inf
ROOT
ATOM      1  C   UNL     1       1.822   7.615  -2.471  1.00  0.00     0.023 C 
ENDROOT
BRANCH   1   2
ATOM      2  C   UNL     1       0.973   8.867  -2.691  1.00  0.00     0.116 C 
BRANCH   2   3
ATOM      3  N   UNL     1      -0.338   8.559  -3.224  1.00  0.00    -0.356 N 
ATOM      4  C   UNL     1      -1.540   8.383  -2.609  1.00  0.00     0.227 C 
ATOM      5  O   UNL     1      -2.494   8.069  -3.333  1.00  0.00    -0.274 OA
ATOM      6  H   UNL     1      -0.365   8.459  -4.203  1.00  0.00     0.163 HD
BRANCH   4   7
ATOM      7  C   UNL     1      -1.760   8.567  -1.099  1.00  0.00     0.105 C 
ATOM      8  C   UNL     1      -1.512   9.994  -0.609  1.00  0.00     0.023 C 
BRANCH   7   9
ATOM      9  C   UNL     1      -1.160   7.447  -0.264  1.00  0.00    -0.036 A 
ATOM     10  C   UNL     1      -0.012   5.189   1.073  1.00  0.00    -0.018 A 
ATOM     11  C   UNL     1       0.671   6.411   0.961  1.00  0.00     0.009 A 
ATOM     12  C   UNL     1      -1.313   5.149   0.548  1.00  0.00     0.009 A 
ATOM     13  C   UNL     1       0.098   7.528   0.336  1.00  0.00     0.005 A 
ATOM     14  C   UNL     1      -1.868   6.245  -0.126  1.00  0.00     0.005 A 
BRANCH  10  15
ATOM     15  C   UNL     1       0.627   3.995   1.685  1.00  0.00    -0.018 A 
ATOM     16  C   UNL     1       0.932   1.551   1.804  1.00  0.00    -0.048 A 
ATOM     17  C   UNL     1       1.910   1.719   2.787  1.00  0.00     0.004 A 
ATOM     18  C   UNL     1       0.314   2.690   1.255  1.00  0.00     0.012 A 
ATOM     19  C   UNL     1       2.240   2.996   3.232  1.00  0.00     0.001 A 
ATOM     20  C   UNL     1       1.597   4.115   2.696  1.00  0.00     0.009 A 
BRANCH  16  21
ATOM     21  C   UNL     1       0.555   0.171   1.326  1.00  0.00     0.032 C 
ATOM     22  C   UNL     1       1.139  -0.153  -0.040  1.00  0.00     0.009 C 
ENDBRANCH  16  21
ENDBRANCH  10  15
ENDBRANCH   7   9
ENDBRANCH   4   7
ENDBRANCH   2   3
ENDBRANCH   1   2
BRANCH   1  23
ATOM     23  C   UNL     1       2.625   7.154  -3.686  1.00  0.00     0.023 C 
BRANCH  23  24
ATOM     24  C   UNL     1       3.663   8.146  -4.202  1.00  0.00     0.116 C 
BRANCH  24  25
ATOM     25  N   UNL     1       4.643   8.553  -3.207  1.00  0.00    -0.352 N 
ATOM     26  C   UNL     1       5.960   8.914  -3.405  1.00  0.00     0.251 C 
ATOM     27  H   UNL     1       4.327   8.575  -2.274  1.00  0.00     0.163 HD
ATOM     28  O   UNL     1       6.684   9.167  -2.456  1.00  0.00    -0.269 OA
BRANCH  26  29
ATOM     29  C   UNL     1       6.491   8.938  -4.787  1.00  0.00     0.039 A 
ATOM     30  C   UNL     1       7.654   8.220  -5.074  1.00  0.00     0.014 A 
ATOM     31  C   UNL     1       5.801   9.605  -5.802  1.00  0.00     0.014 A 
ATOM     32  C   UNL     1       8.077   8.098  -6.399  1.00  0.00     0.010 A 
ATOM     33  C   UNL     1       6.184   9.424  -7.126  1.00  0.00     0.010 A 
ATOM     34  C   UNL     1       7.319   8.660  -7.439  1.00  0.00    -0.014 A 
BRANCH  34  35
ATOM     35  C   UNL     1       7.679   8.448  -8.864  1.00  0.00     0.031 A 
ATOM     36  C   UNL     1       8.062   9.619  -9.726  1.00  0.00     0.074 A 
ATOM     37  C   UNL     1       7.576   7.216  -9.403  1.00  0.00     0.049 A 
ATOM     38  N   UNL     1       8.314   9.651 -11.009  1.00  0.00    -0.248 NA
ATOM     39  C   UNL     1       8.145  10.931  -9.063  1.00  0.00     0.031 C 
ATOM     40  C   UNL     1       7.168   6.006  -8.685  1.00  0.00     0.029 A 
ATOM     41  N   UNL     1       7.796   6.781 -10.686  1.00  0.00    -0.354 N 
ATOM     42  C   UNL     1       8.560  10.984 -11.312  1.00  0.00     0.074 A 
ATOM     43  C   UNL     1       8.384  11.736 -10.088  1.00  0.00     0.031 C 
ATOM     44  C   UNL     1       7.191   4.963  -9.532  1.00  0.00     0.029 A 
ATOM     45  C   UNL     1       7.578   5.434 -10.858  1.00  0.00     0.049 A 
ATOM     46  H   UNL     1       8.084   7.377 -11.415  1.00  0.00     0.167 HD
ATOM     47  C   UNL     1       8.918  11.533 -12.497  1.00  0.00     0.031 A 
ATOM     48  C   UNL     1       7.673   4.664 -11.959  1.00  0.00     0.031 A 
ATOM     49  C   UNL     1       9.114  10.782 -13.708  1.00  0.00     0.049 A 
ATOM     50  C   UNL     1       8.088   5.293 -13.260  1.00  0.00     0.074 A 
ATOM     51  C   UNL     1       9.531  11.239 -14.946  1.00  0.00     0.029 A 
ATOM     52  N   UNL     1       8.912   9.416 -13.831  1.00  0.00    -0.354 N 
ATOM     53  N   UNL     1       8.369   6.549 -13.514  1.00  0.00    -0.248 NA
ATOM     54  C   UNL     1       8.208   4.399 -14.421  1.00  0.00     0.031 C 
ATOM     55  C   UNL     1       9.549  10.153 -15.828  1.00  0.00     0.029 A 
ATOM     56  C   UNL     1       9.184   9.014 -15.127  1.00  0.00     0.049 A 
ATOM     57  H   UNL     1       8.618   8.821 -13.105  1.00  0.00     0.167 HD
ATOM     58  C   UNL     1       8.721   6.592 -14.858  1.00  0.00     0.074 A 
ATOM     59  C   UNL     1       8.629   5.236 -15.360  1.00  0.00     0.031 C 
ATOM     60  C   UNL     1       9.089   7.659 -15.609  1.00  0.00     0.031 A 
BRANCH  47  61
ATOM     61  C   UNL     1       9.121  13.024 -12.533  1.00  0.00    -0.014 A 
ATOM     62  C   UNL     1      10.231  13.617 -11.905  1.00  0.00     0.010 A 
ATOM     63  C   UNL     1       8.202  13.840 -13.216  1.00  0.00     0.010 A 
ATOM     64  C   UNL     1      10.393  15.004 -11.918  1.00  0.00     0.020 A 
ATOM     65  C   UNL     1       8.375  15.227 -13.253  1.00  0.00     0.020 A 
ATOM     66  C   UNL     1       9.459  15.802 -12.585  1.00  0.00     0.054 A 
BRANCH  66  67
ATOM     67  S   UNL     1       9.694  17.600 -12.592  1.00  0.00     0.124 S 
ATOM     68  O   UNL     1       9.267  17.962 -11.242  1.00  0.00    -0.237 OA
ATOM     69  O   UNL     1      11.125  17.737 -12.855  1.00  0.00    -0.237 OA
ATOM     70  O   UNL     1       8.819  18.060 -13.667  1.00  0.00    -0.744 OA
ENDBRANCH  66  67
ENDBRANCH  47  61
BRANCH  48  71
ATOM     71  C   UNL     1       7.395   3.206 -11.871  1.00  0.00    -0.014 A 
ATOM     72  C   UNL     1       8.451   2.279 -11.921  1.00  0.00     0.010 A 
ATOM     73  C   UNL     1       6.078   2.736 -11.717  1.00  0.00     0.010 A 
ATOM     74  C   UNL     1       8.195   0.908 -11.832  1.00  0.00     0.020 A 
ATOM     75  C   UNL     1       5.821   1.367 -11.605  1.00  0.00     0.020 A 
ATOM     76  C   UNL     1       6.881   0.460 -11.673  1.00  0.00     0.054 A 
BRANCH  76  77
ATOM     77  S   UNL     1       6.577  -1.321 -11.500  1.00  0.00     0.124 S 
ATOM     78  O   UNL     1       6.711  -1.786 -12.876  1.00  0.00    -0.237 OA
ATOM     79  O   UNL     1       7.636  -1.736 -10.584  1.00  0.00    -0.237 OA
ATOM     80  O   UNL     1       5.226  -1.382 -10.945  1.00  0.00    -0.744 OA
ENDBRANCH  76  77
ENDBRANCH  48  71
BRANCH  60  81
ATOM     81  C   UNL     1       9.450   7.403 -17.046  1.00  0.00    -0.014 A 
ATOM     82  C   UNL     1       8.457   7.151 -18.009  1.00  0.00     0.010 A 
ATOM     83  C   UNL     1      10.796   7.478 -17.446  1.00  0.00     0.010 A 
ATOM     84  C   UNL     1       8.808   6.956 -19.347  1.00  0.00     0.020 A 
ATOM     85  C   UNL     1      11.148   7.305 -18.787  1.00  0.00     0.020 A 
ATOM     86  C   UNL     1      10.152   7.034 -19.727  1.00  0.00     0.054 A 
BRANCH  86  87
ATOM     87  S   UNL     1      10.579   6.831 -21.479  1.00  0.00     0.124 S 
ATOM     88  O   UNL     1      10.474   5.385 -21.652  1.00  0.00    -0.237 OA
ATOM     89  O   UNL     1       9.553   7.622 -22.155  1.00  0.00    -0.237 OA
ATOM     90  O   UNL     1      11.933   7.374 -21.569  1.00  0.00    -0.744 OA
ENDBRANCH  86  87
ENDBRANCH  60  81
ENDBRANCH  34  35
ENDBRANCH  26  29
ENDBRANCH  24  25
ENDBRANCH  23  24
ENDBRANCH   1  23
TORSDOF 17
