REMARK SMILES CC(C)CCc1cc2c(cc1Cl)C=C(C(=O)NCCCCNC(=O)c1ccc(-c3c4nc(c(-c5ccc(S(=O)(=O)[O-])cc5)c5ccc([nH]5)c(-c5ccc(S(=O)(=O)[O-])cc5)c5nc(c(-c6ccc(S(=O)(=O)[O-])cc6)c6ccc3[nH]6)C=C5)C=C4)cc1)[C@H](C(F)(F)F)O2
REMARK SMILES IDX 19 1 18 2 17 3 15 4 16 5 14 7 6 8 7 9 11 10 8 11 10 12 12 13
REMARK SMILES IDX 9 14 90 15 13 16 85 17 5 18 4 19 2 20 1 21 3 22 86 23 87 24
REMARK SMILES IDX 88 25 89 26 20 27 21 28 22 29 23 30 24 32 25 33 26 34 84 35
REMARK SMILES IDX 27 36 83 37 28 38 29 39 30 40 77 41 31 42 82 43 76 44 78 45
REMARK SMILES IDX 32 46 81 47 75 48 74 49 33 51 63 52 44 53 62 54 45 55 48 56
REMARK SMILES IDX 61 57 79 58 46 59 47 60 60 62 80 63 49 64 34 65 35 66 43 67
REMARK SMILES IDX 36 68 42 69 37 70 38 71 39 72 40 73 41 74 64 75 65 76 73 77
REMARK SMILES IDX 66 78 72 79 67 80 68 81 69 82 70 83 71 84 50 85 51 86 59 87
REMARK SMILES IDX 52 88 58 89 53 90 54 91 55 92 56 93 57 94
REMARK H PARENT 17 6 22 31 78 50 48 61
REMARK Flexibility Score: inf
ROOT
ATOM      1  C   UNL     1      -1.525  10.870   0.043  1.00  0.00     0.023 C 
ENDROOT
BRANCH   1   2
ATOM      2  C   UNL     1      -1.924  10.350  -1.337  1.00  0.00     0.116 C 
BRANCH   2   3
ATOM      3  N   UNL     1      -0.757   9.982  -2.115  1.00  0.00    -0.352 N 
ATOM      4  C   UNL     1      -0.163   8.815  -2.458  1.00  0.00     0.251 C 
ATOM      5  O   UNL     1       0.796   8.898  -3.229  1.00  0.00    -0.270 OA
ATOM      6  H   UNL     1      -0.286  10.765  -2.480  1.00  0.00     0.163 HD
BRANCH   4   7
ATOM      7  C   UNL     1      -0.605   7.473  -1.979  1.00  0.00     0.067 C 
ATOM      8  C   UNL     1      -1.153   2.437  -1.606  1.00  0.00    -0.026 A 
ATOM      9  C   UNL     1      -1.532   3.553  -0.823  1.00  0.00     0.052 A 
ATOM     10  C   UNL     1      -0.536   2.705  -2.839  1.00  0.00     0.045 A 
ATOM     11  C   UNL     1      -1.263   4.865  -1.222  1.00  0.00     0.128 A 
ATOM     12  C   UNL     1      -0.235   4.023  -3.219  1.00  0.00     0.032 A 
ATOM     13  Cl  UNL     1      -0.157   1.501  -4.016  1.00  0.00    -0.084 Cl
ATOM     14  C   UNL     1      -0.597   5.104  -2.414  1.00  0.00     0.019 A 
ATOM     15  O   UNL     1      -1.734   5.861  -0.418  1.00  0.00    -0.475 OA
ATOM     16  C   UNL     1      -0.317   6.468  -2.824  1.00  0.00     0.025 C 
ATOM     17  C   UNL     1      -1.200   7.205  -0.620  1.00  0.00     0.314 C 
BRANCH   8  18
ATOM     18  C   UNL     1      -1.562   1.085  -1.052  1.00  0.00     0.037 C 
BRANCH  18  19
ATOM     19  C   UNL     1      -0.819  -0.209  -1.414  1.00  0.00     0.008 C 
BRANCH  19  20
ATOM     20  C   UNL     1       0.690  -0.229  -1.107  1.00  0.00    -0.017 C 
ATOM     21  C   UNL     1       0.970  -0.298   0.394  1.00  0.00     0.007 C 
ATOM     22  C   UNL     1       1.338  -1.426  -1.810  1.00  0.00     0.007 C 
ENDBRANCH  19  20
ENDBRANCH  18  19
ENDBRANCH   8  18
BRANCH  17  23
ATOM     23  C   UNL     1      -0.277   7.547   0.561  1.00  0.00     0.429 C 
ATOM     24  F   UNL     1      -1.008   8.076   1.577  1.00  0.00    -0.167 F 
ATOM     25  F   UNL     1       0.356   6.459   1.056  1.00  0.00    -0.167 F 
ATOM     26  F   UNL     1       0.674   8.452   0.249  1.00  0.00    -0.167 F 
ENDBRANCH  17  23
ENDBRANCH   4   7
ENDBRANCH   2   3
ENDBRANCH   1   2
BRANCH   1  27
ATOM     27  C   UNL     1      -1.053  12.325   0.061  1.00  0.00     0.023 C 
BRANCH  27  28
ATOM     28  C   UNL     1      -2.107  13.348  -0.341  1.00  0.00     0.116 C 
BRANCH  28  29
ATOM     29  N   UNL     1      -3.327  13.285   0.452  1.00  0.00    -0.352 N 
ATOM     30  C   UNL     1      -4.204  14.318   0.735  1.00  0.00     0.251 C 
ATOM     31  H   UNL     1      -3.554  12.405   0.831  1.00  0.00     0.163 HD
ATOM     32  O   UNL     1      -5.166  14.155   1.448  1.00  0.00    -0.269 OA
BRANCH  30  33
ATOM     33  C   UNL     1      -3.873  15.648   0.177  1.00  0.00     0.039 A 
ATOM     34  C   UNL     1      -3.680  15.790  -1.197  1.00  0.00     0.014 A 
ATOM     35  C   UNL     1      -3.575  16.686   1.061  1.00  0.00     0.014 A 
ATOM     36  C   UNL     1      -3.008  16.908  -1.670  1.00  0.00     0.010 A 
ATOM     37  C   UNL     1      -2.968  17.843   0.569  1.00  0.00     0.010 A 
ATOM     38  C   UNL     1      -2.618  17.931  -0.788  1.00  0.00    -0.014 A 
BRANCH  38  39
ATOM     39  C   UNL     1      -1.786  19.052  -1.290  1.00  0.00     0.031 A 
ATOM     40  C   UNL     1      -0.364  19.215  -0.821  1.00  0.00     0.074 A 
ATOM     41  C   UNL     1      -2.287  19.877  -2.229  1.00  0.00     0.049 A 
ATOM     42  N   UNL     1       0.501  20.146  -1.135  1.00  0.00    -0.248 NA
ATOM     43  C   UNL     1       0.159  18.206   0.115  1.00  0.00     0.031 C 
ATOM     44  C   UNL     1      -3.630  19.779  -2.803  1.00  0.00     0.029 A 
ATOM     45  N   UNL     1      -1.716  20.932  -2.892  1.00  0.00    -0.354 N 
ATOM     46  C   UNL     1       1.655  19.852  -0.416  1.00  0.00     0.074 A 
ATOM     47  C   UNL     1       1.380  18.663   0.360  1.00  0.00     0.031 C 
ATOM     48  C   UNL     1      -3.756  20.689  -3.779  1.00  0.00     0.029 A 
ATOM     49  C   UNL     1      -2.533  21.485  -3.848  1.00  0.00     0.049 A 
ATOM     50  H   UNL     1      -0.808  21.262  -2.702  1.00  0.00     0.167 HD
ATOM     51  C   UNL     1       2.837  20.512  -0.410  1.00  0.00     0.031 A 
ATOM     52  C   UNL     1      -2.333  22.525  -4.681  1.00  0.00     0.031 A 
ATOM     53  C   UNL     1       3.111  21.682  -1.201  1.00  0.00     0.049 A 
ATOM     54  C   UNL     1      -1.035  23.272  -4.621  1.00  0.00     0.074 A 
ATOM     55  C   UNL     1       4.272  22.434  -1.246  1.00  0.00     0.029 A 
ATOM     56  N   UNL     1       2.224  22.259  -2.097  1.00  0.00    -0.354 N 
ATOM     57  N   UNL     1       0.019  23.020  -3.884  1.00  0.00    -0.248 NA
ATOM     58  C   UNL     1      -0.903  24.452  -5.486  1.00  0.00     0.031 C 
ATOM     59  C   UNL     1       4.073  23.489  -2.140  1.00  0.00     0.029 A 
ATOM     60  C   UNL     1       2.807  23.365  -2.690  1.00  0.00     0.049 A 
ATOM     61  H   UNL     1       1.315  21.931  -2.283  1.00  0.00     0.167 HD
ATOM     62  C   UNL     1       0.941  24.012  -4.192  1.00  0.00     0.074 A 
ATOM     63  C   UNL     1       0.329  24.857  -5.197  1.00  0.00     0.031 C 
ATOM     64  C   UNL     1       2.181  24.203  -3.681  1.00  0.00     0.031 A 
BRANCH  51  65
ATOM     65  C   UNL     1       3.929  20.007   0.494  1.00  0.00    -0.014 A 
ATOM     66  C   UNL     1       4.270  20.737   1.647  1.00  0.00     0.010 A 
ATOM     67  C   UNL     1       4.679  18.866   0.157  1.00  0.00     0.010 A 
ATOM     68  C   UNL     1       5.352  20.347   2.441  1.00  0.00     0.020 A 
ATOM     69  C   UNL     1       5.750  18.461   0.961  1.00  0.00     0.020 A 
ATOM     70  C   UNL     1       6.090  19.215   2.088  1.00  0.00     0.054 A 
BRANCH  70  71
ATOM     71  S   UNL     1       7.487  18.712   3.132  1.00  0.00     0.124 S 
ATOM     72  O   UNL     1       8.555  19.588   2.662  1.00  0.00    -0.237 OA
ATOM     73  O   UNL     1       6.997  18.981   4.482  1.00  0.00    -0.237 OA
ATOM     74  O   UNL     1       7.652  17.294   2.814  1.00  0.00    -0.744 OA
ENDBRANCH  70  71
ENDBRANCH  51  65
BRANCH  52  75
ATOM     75  C   UNL     1      -3.412  22.892  -5.635  1.00  0.00    -0.014 A 
ATOM     76  C   UNL     1      -4.613  23.456  -5.164  1.00  0.00     0.010 A 
ATOM     77  C   UNL     1      -3.293  22.564  -6.995  1.00  0.00     0.010 A 
ATOM     78  C   UNL     1      -5.700  23.622  -6.023  1.00  0.00     0.020 A 
ATOM     79  C   UNL     1      -4.373  22.752  -7.864  1.00  0.00     0.020 A 
ATOM     80  C   UNL     1      -5.580  23.247  -7.364  1.00  0.00     0.054 A 
BRANCH  80  81
ATOM     81  S   UNL     1      -7.026  23.395  -8.450  1.00  0.00     0.124 S 
ATOM     82  O   UNL     1      -7.761  22.174  -8.133  1.00  0.00    -0.237 OA
ATOM     83  O   UNL     1      -7.646  24.638  -7.997  1.00  0.00    -0.237 OA
ATOM     84  O   UNL     1      -6.440  23.445  -9.787  1.00  0.00    -0.744 OA
ENDBRANCH  80  81
ENDBRANCH  52  75
BRANCH  64  85
ATOM     85  C   UNL     1       2.977  25.376  -4.180  1.00  0.00    -0.014 A 
ATOM     86  C   UNL     1       4.076  25.161  -5.030  1.00  0.00     0.010 A 
ATOM     87  C   UNL     1       2.720  26.669  -3.694  1.00  0.00     0.010 A 
ATOM     88  C   UNL     1       4.929  26.216  -5.360  1.00  0.00     0.020 A 
ATOM     89  C   UNL     1       3.562  27.731  -4.037  1.00  0.00     0.020 A 
ATOM     90  C   UNL     1       4.675  27.491  -4.848  1.00  0.00     0.054 A 
BRANCH  90  91
ATOM     91  S   UNL     1       5.816  28.843  -5.250  1.00  0.00     0.124 S 
ATOM     92  O   UNL     1       6.909  28.612  -4.311  1.00  0.00    -0.237 OA
ATOM     93  O   UNL     1       6.130  28.596  -6.656  1.00  0.00    -0.237 OA
ATOM     94  O   UNL     1       5.021  30.044  -5.002  1.00  0.00    -0.744 OA
ENDBRANCH  90  91
ENDBRANCH  64  85
ENDBRANCH  38  39
ENDBRANCH  30  33
ENDBRANCH  28  29
ENDBRANCH  27  28
ENDBRANCH   1  27
TORSDOF 18
