REMARK SMILES C[C@@H](C(=O)NCCCCNC(=O)c1ccc(-c2c3nc(c(-c4ccc(S(=O)(=O)[O-])cc4)c4ccc([nH]4)c(-c4ccc(S(=O)(=O)[O-])cc4)c4nc(c(-c5ccc(S(=O)(=O)[O-])cc5)c5ccc2[nH]5)C=C4)C=C3)cc1)c1ccc(C[C@H]2CCC[C@@H]2O)cc1F
REMARK SMILES IDX 7 1 6 2 5 3 3 4 4 5 2 7 1 8 73 9 74 10 85 11 75 12 84 13
REMARK SMILES IDX 86 14 76 15 77 16 78 17 79 18 82 19 80 20 81 21 83 22 8 24
REMARK SMILES IDX 9 25 10 26 11 27 12 29 13 30 14 31 72 32 15 33 71 34 16 35
REMARK SMILES IDX 17 36 18 37 65 38 19 39 70 40 64 41 66 42 20 43 69 44 63 45
REMARK SMILES IDX 62 46 21 48 51 49 32 50 50 51 33 52 36 53 49 54 67 55 34 56
REMARK SMILES IDX 35 57 48 59 68 60 37 61 22 62 23 63 31 64 24 65 30 66 25 67
REMARK SMILES IDX 26 68 27 69 28 70 29 71 52 72 53 73 61 74 54 75 60 76 55 77
REMARK SMILES IDX 56 78 57 79 58 80 59 81 38 82 39 83 47 84 40 85 46 86 41 87
REMARK SMILES IDX 42 88 43 89 44 90 45 91
REMARK H PARENT 5 6 83 23 10 28 66 47 36 58
REMARK Flexibility Score: inf
ROOT
ATOM      1  C   UNL     1       4.354  -0.407  -1.109  1.00  0.00     0.023 C 
ENDROOT
BRANCH   1   2
ATOM      2  C   UNL     1       3.543   0.759  -1.675  1.00  0.00     0.116 C 
BRANCH   2   3
ATOM      3  N   UNL     1       2.506   0.294  -2.572  1.00  0.00    -0.356 N 
ATOM      4  C   UNL     1       1.167   0.128  -2.360  1.00  0.00     0.227 C 
ATOM      5  O   UNL     1       0.508  -0.337  -3.291  1.00  0.00    -0.274 OA
ATOM      6  H   UNL     1       2.814   0.060  -3.477  1.00  0.00     0.163 HD
BRANCH   4   7
ATOM      7  C   UNL     1       0.541   0.583  -1.035  1.00  0.00     0.108 C 
ATOM      8  C   UNL     1       0.987  -0.267   0.161  1.00  0.00     0.023 C 
BRANCH   7   9
ATOM      9  C   UNL     1      -0.976   0.655  -1.126  1.00  0.00    -0.000 A 
ATOM     10  C   UNL     1      -1.603   1.881  -1.392  1.00  0.00     0.008 A 
ATOM     11  C   UNL     1      -1.784  -0.474  -0.961  1.00  0.00     0.127 A 
ATOM     12  C   UNL     1      -2.996   1.980  -1.398  1.00  0.00     0.004 A 
ATOM     13  C   UNL     1      -3.171  -0.377  -0.944  1.00  0.00     0.043 A 
ATOM     14  F   UNL     1      -1.236  -1.681  -0.763  1.00  0.00    -0.207 F 
ATOM     15  C   UNL     1      -3.792   0.865  -1.112  1.00  0.00    -0.045 A 
BRANCH  15  16
ATOM     16  C   UNL     1      -5.285   0.997  -0.934  1.00  0.00     0.041 C 
BRANCH  16  17
ATOM     17  C   UNL     1      -5.738   1.534   0.437  1.00  0.00     0.022 C 
ATOM     18  C   UNL     1      -5.214   0.784   1.675  1.00  0.00     0.007 C 
ATOM     19  C   UNL     1      -5.396   3.001   0.713  1.00  0.00     0.117 C 
ATOM     20  C   UNL     1      -4.986   1.850   2.753  1.00  0.00     0.003 C 
ATOM     21  C   UNL     1      -5.622   3.121   2.212  1.00  0.00     0.032 C 
BRANCH  19  22
ATOM     22  O   UNL     1      -6.241   3.870  -0.015  1.00  0.00    -0.393 OA
ATOM     23  H   UNL     1      -7.166   3.681   0.205  1.00  0.00     0.210 HD
ENDBRANCH  19  22
ENDBRANCH  16  17
ENDBRANCH  15  16
ENDBRANCH   7   9
ENDBRANCH   4   7
ENDBRANCH   2   3
ENDBRANCH   1   2
BRANCH   1  24
ATOM     24  C   UNL     1       5.156  -1.191  -2.152  1.00  0.00     0.023 C 
BRANCH  24  25
ATOM     25  C   UNL     1       6.140  -0.366  -2.973  1.00  0.00     0.116 C 
BRANCH  25  26
ATOM     26  N   UNL     1       7.129   0.318  -2.153  1.00  0.00    -0.352 N 
ATOM     27  C   UNL     1       8.481   0.446  -2.368  1.00  0.00     0.251 C 
ATOM     28  H   UNL     1       6.784   0.746  -1.336  1.00  0.00     0.163 HD
ATOM     29  O   UNL     1       9.198   0.954  -1.512  1.00  0.00    -0.269 OA
BRANCH  27  30
ATOM     30  C   UNL     1       9.064  -0.071  -3.623  1.00  0.00     0.039 A 
ATOM     31  C   UNL     1      10.146  -0.952  -3.554  1.00  0.00     0.014 A 
ATOM     32  C   UNL     1       8.506   0.272  -4.858  1.00  0.00     0.014 A 
ATOM     33  C   UNL     1      10.616  -1.559  -4.720  1.00  0.00     0.010 A 
ATOM     34  C   UNL     1       8.940  -0.376  -6.011  1.00  0.00     0.010 A 
ATOM     35  C   UNL     1       9.986  -1.311  -5.951  1.00  0.00    -0.014 A 
BRANCH  35  36
ATOM     36  C   UNL     1      10.362  -2.054  -7.180  1.00  0.00     0.031 A 
ATOM     37  C   UNL     1      10.948  -1.325  -8.356  1.00  0.00     0.074 A 
ATOM     38  C   UNL     1      10.069  -3.367  -7.273  1.00  0.00     0.049 A 
ATOM     39  N   UNL     1      11.217  -1.778  -9.553  1.00  0.00    -0.248 NA
ATOM     40  C   UNL     1      11.246   0.105  -8.172  1.00  0.00     0.031 C 
ATOM     41  C   UNL     1       9.454  -4.177  -6.217  1.00  0.00     0.029 A 
ATOM     42  N   UNL     1      10.222  -4.247  -8.316  1.00  0.00    -0.354 N 
ATOM     43  C   UNL     1      11.687  -0.688 -10.274  1.00  0.00     0.074 A 
ATOM     44  C   UNL     1      11.646   0.456  -9.388  1.00  0.00     0.031 C 
ATOM     45  C   UNL     1       9.283  -5.431  -6.666  1.00  0.00     0.029 A 
ATOM     46  C   UNL     1       9.734  -5.506  -8.052  1.00  0.00     0.049 A 
ATOM     47  H   UNL     1      10.641  -4.001  -9.172  1.00  0.00     0.167 HD
ATOM     48  C   UNL     1      12.121  -0.646 -11.556  1.00  0.00     0.031 A 
ATOM     49  C   UNL     1       9.634  -6.593  -8.842  1.00  0.00     0.031 A 
ATOM     50  C   UNL     1      12.187  -1.791 -12.424  1.00  0.00     0.049 A 
ATOM     51  C   UNL     1      10.122  -6.517 -10.263  1.00  0.00     0.074 A 
ATOM     52  C   UNL     1      12.706  -1.866 -13.705  1.00  0.00     0.029 A 
ATOM     53  N   UNL     1      11.711  -3.054 -12.109  1.00  0.00    -0.354 N 
ATOM     54  N   UNL     1      10.656  -5.500 -10.895  1.00  0.00    -0.248 NA
ATOM     55  C   UNL     1       9.994  -7.735 -11.077  1.00  0.00     0.031 C 
ATOM     56  C   UNL     1      12.496  -3.162 -14.185  1.00  0.00     0.029 A 
ATOM     57  C   UNL     1      11.890  -3.906 -13.185  1.00  0.00     0.049 A 
ATOM     58  H   UNL     1      11.307  -3.307 -11.248  1.00  0.00     0.167 HD
ATOM     59  C   UNL     1      10.942  -5.960 -12.175  1.00  0.00     0.074 A 
ATOM     60  C   UNL     1      10.540  -7.350 -12.223  1.00  0.00     0.031 C 
ATOM     61  C   UNL     1      11.486  -5.288 -13.218  1.00  0.00     0.031 A 
BRANCH  48  62
ATOM     62  C   UNL     1      12.554   0.683 -12.110  1.00  0.00    -0.014 A 
ATOM     63  C   UNL     1      13.771   1.271 -11.721  1.00  0.00     0.010 A 
ATOM     64  C   UNL     1      11.768   1.316 -13.091  1.00  0.00     0.010 A 
ATOM     65  C   UNL     1      14.182   2.482 -12.285  1.00  0.00     0.020 A 
ATOM     66  C   UNL     1      12.187   2.515 -13.673  1.00  0.00     0.020 A 
ATOM     67  C   UNL     1      13.386   3.096 -13.258  1.00  0.00     0.054 A 
BRANCH  67  68
ATOM     68  S   UNL     1      13.967   4.643 -14.006  1.00  0.00     0.124 S 
ATOM     69  O   UNL     1      13.735   5.603 -12.930  1.00  0.00    -0.237 OA
ATOM     70  O   UNL     1      15.369   4.353 -14.297  1.00  0.00    -0.237 OA
ATOM     71  O   UNL     1      13.111   4.804 -15.179  1.00  0.00    -0.744 OA
ENDBRANCH  67  68
ENDBRANCH  48  62
BRANCH  49  72
ATOM     72  C   UNL     1       9.024  -7.845  -8.316  1.00  0.00    -0.014 A 
ATOM     73  C   UNL     1       9.819  -8.977  -8.065  1.00  0.00     0.010 A 
ATOM     74  C   UNL     1       7.640  -7.912  -8.072  1.00  0.00     0.010 A 
ATOM     75  C   UNL     1       9.237 -10.161  -7.602  1.00  0.00     0.020 A 
ATOM     76  C   UNL     1       7.059  -9.085  -7.585  1.00  0.00     0.020 A 
ATOM     77  C   UNL     1       7.860 -10.208  -7.368  1.00  0.00     0.054 A 
BRANCH  77  78
ATOM     78  S   UNL     1       7.128 -11.743  -6.734  1.00  0.00     0.124 S 
ATOM     79  O   UNL     1       7.083 -12.574  -7.933  1.00  0.00    -0.237 OA
ATOM     80  O   UNL     1       8.089 -12.156  -5.714  1.00  0.00    -0.237 OA
ATOM     81  O   UNL     1       5.831 -11.314  -6.218  1.00  0.00    -0.744 OA
ENDBRANCH  77  78
ENDBRANCH  49  72
BRANCH  61  82
ATOM     82  C   UNL     1      11.697  -6.045 -14.500  1.00  0.00    -0.014 A 
ATOM     83  C   UNL     1      10.616  -6.349 -15.345  1.00  0.00     0.010 A 
ATOM     84  C   UNL     1      13.002  -6.387 -14.901  1.00  0.00     0.010 A 
ATOM     85  C   UNL     1      10.834  -6.995 -16.564  1.00  0.00     0.020 A 
ATOM     86  C   UNL     1      13.226  -7.011 -16.130  1.00  0.00     0.020 A 
ATOM     87  C   UNL     1      12.139  -7.319 -16.951  1.00  0.00     0.054 A 
BRANCH  87  88
ATOM     88  S   UNL     1      12.404  -8.092 -18.571  1.00  0.00     0.124 S 
ATOM     89  O   UNL     1      11.959  -9.461 -18.330  1.00  0.00    -0.237 OA
ATOM     90  O   UNL     1      11.548  -7.298 -19.450  1.00  0.00    -0.237 OA
ATOM     91  O   UNL     1      13.838  -7.933 -18.799  1.00  0.00    -0.744 OA
ENDBRANCH  87  88
ENDBRANCH  61  82
ENDBRANCH  35  36
ENDBRANCH  27  30
ENDBRANCH  25  26
ENDBRANCH  24  25
ENDBRANCH   1  24
TORSDOF 18
