REMARK SMILES Cc1cc(C(=O)Nc2cccc(C(=O)NCC(=O)NCCCCNC(=O)c3ccc(-c4c5nc(c(-c6ccc(S(=O)(=O)[O-])cc6)c6ccc([nH]6)c(-c6ccc(S(=O)(=O)[O-])cc6)c6nc(c(-c7ccc(S(=O)(=O)[O-])cc7)c7ccc4[nH]7)C=C6)C=C5)cc3)c2)no1
REMARK SMILES IDX 21 1 20 2 19 3 17 4 18 5 16 7 15 8 13 9 14 10 12 12 8 13
REMARK SMILES IDX 9 14 87 15 10 16 11 17 7 18 5 19 6 20 4 22 1 23 2 24 3 25
REMARK SMILES IDX 89 26 88 27 22 28 23 29 24 30 25 31 26 33 27 34 28 35 86 36
REMARK SMILES IDX 29 37 85 38 30 39 31 40 32 41 79 42 33 43 84 44 78 45 80 46
REMARK SMILES IDX 34 47 83 48 77 49 76 50 35 52 65 53 46 54 64 55 47 56 50 57
REMARK SMILES IDX 63 58 81 59 48 60 49 61 62 63 82 64 51 65 36 66 37 67 45 68
REMARK SMILES IDX 38 69 44 70 39 71 40 72 41 73 42 74 43 75 66 76 67 77 75 78
REMARK SMILES IDX 68 79 74 80 69 81 70 82 71 83 72 84 73 85 52 86 53 87 61 88
REMARK SMILES IDX 54 89 60 90 55 91 56 92 57 93 58 94 59 95
REMARK H PARENT 19 6 15 11 7 21 24 32 80 51 50 62
REMARK Flexibility Score: inf
ROOT
ATOM      1  C   UNL     1       0.590  -4.762   5.000  1.00  0.00     0.023 C 
ENDROOT
BRANCH   1   2
ATOM      2  C   UNL     1      -0.442  -3.941   4.238  1.00  0.00     0.116 C 
BRANCH   2   3
ATOM      3  N   UNL     1      -0.556  -2.591   4.736  1.00  0.00    -0.355 N 
ATOM      4  C   UNL     1       0.023  -1.437   4.311  1.00  0.00     0.239 C 
ATOM      5  O   UNL     1      -0.340  -0.396   4.870  1.00  0.00    -0.273 OA
ATOM      6  H   UNL     1      -1.153  -2.489   5.511  1.00  0.00     0.163 HD
BRANCH   4   7
ATOM      7  C   UNL     1       0.955  -1.355   3.089  1.00  0.00     0.216 C 
BRANCH   7   8
ATOM      8  N   UNL     1       1.879  -2.443   2.792  1.00  0.00    -0.343 N 
ATOM      9  C   UNL     1       1.979  -3.448   1.868  1.00  0.00     0.251 C 
ATOM     10  O   UNL     1       3.038  -4.082   1.883  1.00  0.00    -0.269 OA
ATOM     11  H   UNL     1       2.632  -2.460   3.426  1.00  0.00     0.164 HD
BRANCH   9  12
ATOM     12  C   UNL     1       0.928  -3.864   0.884  1.00  0.00     0.041 A 
ATOM     13  C   UNL     1      -1.204  -3.667  -0.294  1.00  0.00     0.042 A 
ATOM     14  C   UNL     1      -0.961  -4.858  -0.971  1.00  0.00     0.026 A 
ATOM     15  C   UNL     1      -0.301  -3.233   0.687  1.00  0.00     0.040 A 
ATOM     16  C   UNL     1       0.241  -5.531  -0.766  1.00  0.00     0.003 A 
ATOM     17  C   UNL     1       1.186  -5.021   0.130  1.00  0.00     0.014 A 
BRANCH  13  18
ATOM     18  N   UNL     1      -2.354  -2.931  -0.632  1.00  0.00    -0.321 N 
ATOM     19  C   UNL     1      -2.583  -1.562  -0.563  1.00  0.00     0.277 C 
ATOM     20  O   UNL     1      -3.737  -1.155  -0.690  1.00  0.00    -0.267 OA
ATOM     21  H   UNL     1      -3.110  -3.466  -0.967  1.00  0.00     0.170 HD
BRANCH  19  22
ATOM     22  C   UNL     1      -1.434  -0.653  -0.442  1.00  0.00     0.171 A 
ATOM     23  C   UNL     1       2.053   0.498  -0.399  1.00  0.00     0.091 C 
ATOM     24  C   UNL     1       0.611   0.193  -0.422  1.00  0.00     0.134 A 
ATOM     25  C   UNL     1      -0.148  -0.760  -1.049  1.00  0.00     0.082 A 
ATOM     26  O   UNL     1      -0.191   0.938   0.383  1.00  0.00    -0.361 OA
ATOM     27  N   UNL     1      -1.475   0.423   0.362  1.00  0.00    -0.074 NA
ENDBRANCH  19  22
ENDBRANCH  13  18
ENDBRANCH   9  12
ENDBRANCH   7   8
ENDBRANCH   4   7
ENDBRANCH   2   3
ENDBRANCH   1   2
BRANCH   1  28
ATOM     28  C   UNL     1       0.117  -5.219   6.380  1.00  0.00     0.023 C 
BRANCH  28  29
ATOM     29  C   UNL     1      -1.171  -6.038   6.386  1.00  0.00     0.116 C 
BRANCH  29  30
ATOM     30  N   UNL     1      -1.101  -7.236   5.563  1.00  0.00    -0.352 N 
ATOM     31  C   UNL     1      -1.649  -8.474   5.815  1.00  0.00     0.251 C 
ATOM     32  H   UNL     1      -0.598  -7.151   4.721  1.00  0.00     0.163 HD
ATOM     33  O   UNL     1      -1.421  -9.419   5.074  1.00  0.00    -0.269 OA
BRANCH  31  34
ATOM     34  C   UNL     1      -2.485  -8.647   7.022  1.00  0.00     0.039 A 
ATOM     35  C   UNL     1      -2.169  -9.667   7.921  1.00  0.00     0.014 A 
ATOM     36  C   UNL     1      -3.531  -7.761   7.291  1.00  0.00     0.014 A 
ATOM     37  C   UNL     1      -2.857  -9.752   9.133  1.00  0.00     0.010 A 
ATOM     38  C   UNL     1      -4.169  -7.806   8.527  1.00  0.00     0.010 A 
ATOM     39  C   UNL     1      -3.835  -8.798   9.462  1.00  0.00    -0.014 A 
BRANCH  39  40
ATOM     40  C   UNL     1      -4.510  -8.810  10.784  1.00  0.00     0.031 A 
ATOM     41  C   UNL     1      -5.992  -9.049  10.872  1.00  0.00     0.074 A 
ATOM     42  C   UNL     1      -3.803  -8.531  11.898  1.00  0.00     0.049 A 
ATOM     43  N   UNL     1      -6.770  -9.026  11.923  1.00  0.00    -0.248 NA
ATOM     44  C   UNL     1      -6.697  -9.322   9.608  1.00  0.00     0.031 C 
ATOM     45  C   UNL     1      -2.369  -8.234  11.942  1.00  0.00     0.029 A 
ATOM     46  N   UNL     1      -4.199  -8.442  13.210  1.00  0.00    -0.354 N 
ATOM     47  C   UNL     1      -8.055  -9.261  11.448  1.00  0.00     0.074 A 
ATOM     48  C   UNL     1      -7.959  -9.378  10.009  1.00  0.00     0.031 C 
ATOM     49  C   UNL     1      -2.003  -8.020  13.216  1.00  0.00     0.029 A 
ATOM     50  C   UNL     1      -3.178  -8.127  14.075  1.00  0.00     0.049 A 
ATOM     51  H   UNL     1      -5.127  -8.591  13.503  1.00  0.00     0.167 HD
ATOM     52  C   UNL     1      -9.208  -9.387  12.147  1.00  0.00     0.031 A 
ATOM     53  C   UNL     1      -3.186  -7.939  15.409  1.00  0.00     0.031 A 
ATOM     54  C   UNL     1      -9.299  -9.289  13.579  1.00  0.00     0.049 A 
ATOM     55  C   UNL     1      -4.477  -8.094  16.165  1.00  0.00     0.074 A 
ATOM     56  C   UNL     1     -10.411  -9.462  14.384  1.00  0.00     0.029 A 
ATOM     57  N   UNL     1      -8.237  -8.993  14.421  1.00  0.00    -0.354 N 
ATOM     58  N   UNL     1      -5.671  -8.381  15.703  1.00  0.00    -0.248 NA
ATOM     59  C   UNL     1      -4.420  -7.910  17.622  1.00  0.00     0.031 C 
ATOM     60  C   UNL     1     -10.030  -9.230  15.710  1.00  0.00     0.029 A 
ATOM     61  C   UNL     1      -8.671  -8.961  15.735  1.00  0.00     0.049 A 
ATOM     62  H   UNL     1      -7.312  -8.829  14.127  1.00  0.00     0.167 HD
ATOM     63  C   UNL     1      -6.502  -8.438  16.817  1.00  0.00     0.074 A 
ATOM     64  C   UNL     1      -5.673  -8.169  17.973  1.00  0.00     0.031 C 
ATOM     65  C   UNL     1      -7.833  -8.693  16.875  1.00  0.00     0.031 A 
BRANCH  52  66
ATOM     66  C   UNL     1     -10.467  -9.646  11.364  1.00  0.00    -0.014 A 
ATOM     67  C   UNL     1     -10.689 -10.886  10.738  1.00  0.00     0.010 A 
ATOM     68  C   UNL     1     -11.457  -8.650  11.280  1.00  0.00     0.010 A 
ATOM     69  C   UNL     1     -11.857 -11.111  10.006  1.00  0.00     0.020 A 
ATOM     70  C   UNL     1     -12.639  -8.880  10.570  1.00  0.00     0.020 A 
ATOM     71  C   UNL     1     -12.823 -10.104   9.922  1.00  0.00     0.054 A 
BRANCH  71  72
ATOM     72  S   UNL     1     -14.338 -10.428   8.979  1.00  0.00     0.124 S 
ATOM     73  O   UNL     1     -13.858 -10.340   7.602  1.00  0.00    -0.237 OA
ATOM     74  O   UNL     1     -14.715 -11.766   9.427  1.00  0.00    -0.237 OA
ATOM     75  O   UNL     1     -15.241  -9.358   9.395  1.00  0.00    -0.744 OA
ENDBRANCH  71  72
ENDBRANCH  52  66
BRANCH  53  76
ATOM     76  C   UNL     1      -1.923  -7.604  16.121  1.00  0.00    -0.014 A 
ATOM     77  C   UNL     1      -1.294  -8.557  16.941  1.00  0.00     0.010 A 
ATOM     78  C   UNL     1      -1.335  -6.335  15.973  1.00  0.00     0.010 A 
ATOM     79  C   UNL     1      -0.110  -8.242  17.614  1.00  0.00     0.020 A 
ATOM     80  C   UNL     1      -0.138  -6.024  16.624  1.00  0.00     0.020 A 
ATOM     81  C   UNL     1       0.461  -6.976  17.451  1.00  0.00     0.054 A 
BRANCH  81  82
ATOM     82  S   UNL     1       2.026  -6.606  18.292  1.00  0.00     0.124 S 
ATOM     83  O   UNL     1       1.589  -6.403  19.669  1.00  0.00    -0.237 OA
ATOM     84  O   UNL     1       2.811  -7.813  18.047  1.00  0.00    -0.237 OA
ATOM     85  O   UNL     1       2.507  -5.410  17.604  1.00  0.00    -0.744 OA
ENDBRANCH  81  82
ENDBRANCH  53  76
BRANCH  65  86
ATOM     86  C   UNL     1      -8.472  -8.726  18.237  1.00  0.00    -0.014 A 
ATOM     87  C   UNL     1      -8.707  -7.543  18.959  1.00  0.00     0.010 A 
ATOM     88  C   UNL     1      -8.894  -9.956  18.774  1.00  0.00     0.010 A 
ATOM     89  C   UNL     1      -9.329  -7.593  20.210  1.00  0.00     0.020 A 
ATOM     90  C   UNL     1      -9.539 -10.007  20.012  1.00  0.00     0.020 A 
ATOM     91  C   UNL     1      -9.740  -8.825  20.729  1.00  0.00     0.054 A 
BRANCH  91  92
ATOM     92  S   UNL     1     -10.587  -8.861  22.332  1.00  0.00     0.124 S 
ATOM     93  O   UNL     1      -9.482  -8.657  23.264  1.00  0.00    -0.237 OA
ATOM     94  O   UNL     1     -11.530  -7.750  22.223  1.00  0.00    -0.237 OA
ATOM     95  O   UNL     1     -11.199 -10.187  22.371  1.00  0.00    -0.744 OA
ENDBRANCH  91  92
ENDBRANCH  65  86
ENDBRANCH  39  40
ENDBRANCH  31  34
ENDBRANCH  29  30
ENDBRANCH  28  29
ENDBRANCH   1  28
TORSDOF 18
