REMARK SMILES Cn1nc(N2CCC(CC(=O)NCCCCNC(=O)c3ccc(-c4c5nc(c(-c6ccc(S(=O)(=O)[O-])cc6)c6ccc([nH]6)c(-c6ccc(S(=O)(=O)[O-])cc6)c6nc(c(-c7ccc(S(=O)(=O)[O-])cc7)c7ccc4[nH]7)C=C6)C=C5)cc3)CC2)c(=O)n(C)c1=O
REMARK SMILES IDX 15 1 14 2 13 3 12 4 10 5 11 6 9 8 8 9 5 10 6 11 81 12 7 13
REMARK SMILES IDX 80 14 4 15 1 16 2 17 3 18 86 19 84 20 87 21 82 22 85 23
REMARK SMILES IDX 83 24 16 25 17 26 18 27 19 29 20 30 21 31 79 32 22 33 78 34
REMARK SMILES IDX 23 35 24 36 25 37 72 38 26 39 77 40 71 41 73 42 27 43 76 44
REMARK SMILES IDX 70 45 69 46 28 48 58 49 39 50 57 51 40 52 43 53 56 54 74 55
REMARK SMILES IDX 41 56 42 57 55 59 75 60 44 61 29 62 30 63 38 64 31 65 37 66
REMARK SMILES IDX 32 67 33 68 34 69 35 70 36 71 59 72 60 73 68 74 61 75 67 76
REMARK SMILES IDX 62 77 63 78 64 79 65 80 66 81 45 82 46 83 54 84 47 85 53 86
REMARK SMILES IDX 48 87 49 88 50 89 51 90 52 91
REMARK H PARENT 12 7 17 28 73 47 43 58
REMARK Flexibility Score: inf
ROOT
ATOM      1  C   UNL     1      -4.189  -0.504   5.881  1.00  0.00     0.023 C 
ENDROOT
BRANCH   1   2
ATOM      2  C   UNL     1      -4.090   0.030   4.464  1.00  0.00     0.023 C 
BRANCH   2   3
ATOM      3  C   UNL     1      -5.119  -0.536   3.482  1.00  0.00     0.116 C 
BRANCH   3   4
ATOM      4  N   UNL     1      -6.363   0.216   3.512  1.00  0.00    -0.356 N 
ATOM      5  C   UNL     1      -6.878   1.112   2.621  1.00  0.00     0.220 C 
ATOM      6  O   UNL     1      -7.942   1.670   2.896  1.00  0.00    -0.275 OA
ATOM      7  H   UNL     1      -6.925   0.052   4.303  1.00  0.00     0.163 HD
BRANCH   5   8
ATOM      8  C   UNL     1      -6.157   1.424   1.318  1.00  0.00     0.103 C 
BRANCH   8   9
ATOM      9  C   UNL     1      -5.274   2.689   1.376  1.00  0.00     0.002 C 
ATOM     10  N   UNL     1      -2.586   3.657   0.981  1.00  0.00    -0.351 N 
ATOM     11  C   UNL     1      -3.040   3.545   2.348  1.00  0.00     0.118 C 
ATOM     12  C   UNL     1      -3.595   4.064   0.022  1.00  0.00     0.118 C 
ATOM     13  C   UNL     1      -4.160   2.526   2.414  1.00  0.00     0.025 C 
ATOM     14  C   UNL     1      -4.693   2.997  -0.019  1.00  0.00     0.025 C 
BRANCH  10  15
ATOM     15  C   UNL     1      -1.321   3.249   0.601  1.00  0.00     0.215 A 
ATOM     16  C   UNL     1       0.606   0.233   0.277  1.00  0.00     0.180 C 
ATOM     17  N   UNL     1       0.317   1.659   0.284  1.00  0.00    -0.216 N 
ATOM     18  N   UNL     1      -0.960   1.999   0.657  1.00  0.00    -0.145 NA
ATOM     19  C   UNL     1       1.307   2.562  -0.099  1.00  0.00     0.346 A 
ATOM     20  N   UNL     1       0.951   3.895  -0.095  1.00  0.00    -0.259 N 
ATOM     21  O   UNL     1       2.433   2.192  -0.442  1.00  0.00    -0.246 OA
ATOM     22  C   UNL     1      -0.335   4.324   0.143  1.00  0.00     0.299 A 
ATOM     23  C   UNL     1       1.935   4.907  -0.409  1.00  0.00     0.159 C 
ATOM     24  O   UNL     1      -0.723   5.483   0.027  1.00  0.00    -0.265 OA
ENDBRANCH  10  15
ENDBRANCH   8   9
ENDBRANCH   5   8
ENDBRANCH   3   4
ENDBRANCH   2   3
ENDBRANCH   1   2
BRANCH   1  25
ATOM     25  C   UNL     1      -3.777  -1.957   6.014  1.00  0.00     0.116 C 
BRANCH  25  26
ATOM     26  N   UNL     1      -2.385  -2.195   5.647  1.00  0.00    -0.352 N 
ATOM     27  C   UNL     1      -1.380  -2.772   6.393  1.00  0.00     0.251 C 
ATOM     28  H   UNL     1      -2.128  -1.903   4.742  1.00  0.00     0.163 HD
ATOM     29  O   UNL     1      -0.230  -2.794   5.984  1.00  0.00    -0.269 OA
BRANCH  27  30
ATOM     30  C   UNL     1      -1.726  -3.325   7.717  1.00  0.00     0.039 A 
ATOM     31  C   UNL     1      -0.993  -2.927   8.835  1.00  0.00     0.014 A 
ATOM     32  C   UNL     1      -2.850  -4.142   7.852  1.00  0.00     0.014 A 
ATOM     33  C   UNL     1      -1.448  -3.279  10.106  1.00  0.00     0.010 A 
ATOM     34  C   UNL     1      -3.364  -4.387   9.116  1.00  0.00     0.010 A 
ATOM     35  C   UNL     1      -2.662  -3.970  10.256  1.00  0.00    -0.014 A 
BRANCH  35  36
ATOM     36  C   UNL     1      -3.203  -4.302  11.595  1.00  0.00     0.031 A 
ATOM     37  C   UNL     1      -3.392  -5.745  11.977  1.00  0.00     0.074 A 
ATOM     38  C   UNL     1      -3.577  -3.318  12.437  1.00  0.00     0.049 A 
ATOM     39  N   UNL     1      -3.888  -6.247  13.077  1.00  0.00    -0.248 NA
ATOM     40  C   UNL     1      -3.009  -6.756  10.976  1.00  0.00     0.031 C 
ATOM     41  C   UNL     1      -3.501  -1.882  12.156  1.00  0.00     0.029 A 
ATOM     42  N   UNL     1      -4.092  -3.379  13.707  1.00  0.00    -0.354 N 
ATOM     43  C   UNL     1      -3.897  -7.624  12.888  1.00  0.00     0.074 A 
ATOM     44  C   UNL     1      -3.426  -7.875  11.545  1.00  0.00     0.031 C 
ATOM     45  C   UNL     1      -3.901  -1.199  13.242  1.00  0.00     0.029 A 
ATOM     46  C   UNL     1      -4.293  -2.146  14.282  1.00  0.00     0.049 A 
ATOM     47  H   UNL     1      -4.299  -4.226  14.165  1.00  0.00     0.167 HD
ATOM     48  C   UNL     1      -4.226  -8.598  13.766  1.00  0.00     0.031 A 
ATOM     49  C   UNL     1      -4.729  -1.817  15.513  1.00  0.00     0.031 A 
ATOM     50  C   UNL     1      -4.649  -8.347  15.114  1.00  0.00     0.049 A 
ATOM     51  C   UNL     1      -5.075  -2.913  16.482  1.00  0.00     0.074 A 
ATOM     52  C   UNL     1      -4.936  -9.261  16.110  1.00  0.00     0.029 A 
ATOM     53  N   UNL     1      -4.834  -7.085  15.656  1.00  0.00    -0.354 N 
ATOM     54  N   UNL     1      -5.011  -4.212  16.308  1.00  0.00    -0.248 NA
ATOM     55  C   UNL     1      -5.547  -2.503  17.811  1.00  0.00     0.031 C 
ATOM     56  C   UNL     1      -5.330  -8.550  17.248  1.00  0.00     0.029 A 
ATOM     57  C   UNL     1      -5.250  -7.194  16.970  1.00  0.00     0.049 A 
ATOM     58  H   UNL     1      -4.691  -6.236  15.177  1.00  0.00     0.167 HD
ATOM     59  C   UNL     1      -5.422  -4.775  17.510  1.00  0.00     0.074 A 
ATOM     60  C   UNL     1      -5.720  -3.677  18.407  1.00  0.00     0.031 C 
ATOM     61  C   UNL     1      -5.543  -6.084  17.840  1.00  0.00     0.031 A 
BRANCH  48  62
ATOM     62  C   UNL     1      -4.116 -10.019  13.286  1.00  0.00    -0.014 A 
ATOM     63  C   UNL     1      -2.857 -10.603  13.054  1.00  0.00     0.010 A 
ATOM     64  C   UNL     1      -5.278 -10.776  13.057  1.00  0.00     0.010 A 
ATOM     65  C   UNL     1      -2.763 -11.900  12.547  1.00  0.00     0.020 A 
ATOM     66  C   UNL     1      -5.186 -12.086  12.576  1.00  0.00     0.020 A 
ATOM     67  C   UNL     1      -3.929 -12.631  12.303  1.00  0.00     0.054 A 
BRANCH  67  68
ATOM     68  S   UNL     1      -3.777 -14.312  11.641  1.00  0.00     0.124 S 
ATOM     69  O   UNL     1      -3.422 -14.054  10.248  1.00  0.00    -0.237 OA
ATOM     70  O   UNL     1      -2.716 -14.887  12.463  1.00  0.00    -0.237 OA
ATOM     71  O   UNL     1      -5.104 -14.887  11.849  1.00  0.00    -0.744 OA
ENDBRANCH  67  68
ENDBRANCH  48  62
BRANCH  49  72
ATOM     72  C   UNL     1      -4.807  -0.386  15.911  1.00  0.00    -0.014 A 
ATOM     73  C   UNL     1      -3.834   0.160  16.767  1.00  0.00     0.010 A 
ATOM     74  C   UNL     1      -5.817   0.450  15.401  1.00  0.00     0.010 A 
ATOM     75  C   UNL     1      -3.869   1.516  17.105  1.00  0.00     0.020 A 
ATOM     76  C   UNL     1      -5.844   1.811  15.723  1.00  0.00     0.020 A 
ATOM     77  C   UNL     1      -4.870   2.334  16.577  1.00  0.00     0.054 A 
BRANCH  77  78
ATOM     78  S   UNL     1      -4.846   4.107  16.968  1.00  0.00     0.124 S 
ATOM     79  O   UNL     1      -5.283   4.117  18.360  1.00  0.00    -0.237 OA
ATOM     80  O   UNL     1      -3.447   4.460  16.740  1.00  0.00    -0.237 OA
ATOM     81  O   UNL     1      -5.788   4.681  16.010  1.00  0.00    -0.744 OA
ENDBRANCH  77  78
ENDBRANCH  49  72
BRANCH  61  82
ATOM     82  C   UNL     1      -6.019  -6.412  19.227  1.00  0.00    -0.014 A 
ATOM     83  C   UNL     1      -7.381  -6.315  19.555  1.00  0.00     0.010 A 
ATOM     84  C   UNL     1      -5.115  -6.936  20.168  1.00  0.00     0.010 A 
ATOM     85  C   UNL     1      -7.834  -6.738  20.806  1.00  0.00     0.020 A 
ATOM     86  C   UNL     1      -5.568  -7.378  21.413  1.00  0.00     0.020 A 
ATOM     87  C   UNL     1      -6.925  -7.274  21.724  1.00  0.00     0.054 A 
BRANCH  87  88
ATOM     88  S   UNL     1      -7.556  -7.904  23.304  1.00  0.00     0.124 S 
ATOM     89  O   UNL     1      -7.855  -6.670  24.026  1.00  0.00    -0.237 OA
ATOM     90  O   UNL     1      -8.716  -8.691  22.895  1.00  0.00    -0.237 OA
ATOM     91  O   UNL     1      -6.440  -8.682  23.837  1.00  0.00    -0.744 OA
ENDBRANCH  87  88
ENDBRANCH  61  82
ENDBRANCH  35  36
ENDBRANCH  27  30
ENDBRANCH  25  26
ENDBRANCH   1  25
TORSDOF 16
