REMARK SMILES C[C@@]([NH3+])(C(=O)NCCCCNC(=O)c1ccc(-c2c3nc(c(-c4ccc(S(=O)(=O)[O-])cc4)c4ccc([nH]4)c(-c4ccc(S(=O)(=O)[O-])cc4)c4nc(c(-c5ccc(S(=O)(=O)[O-])cc5)c5ccc2[nH]5)C=C4)C=C3)cc1)c1ccc(S(=O)(=O)[O-])cc1
REMARK SMILES IDX 9 1 8 2 7 3 6 4 4 5 5 6 2 8 1 9 3 10 74 14 75 15 83 16 76 17
REMARK SMILES IDX 82 18 77 19 78 20 79 21 80 22 81 23 10 24 11 25 12 26 13 28
REMARK SMILES IDX 14 29 15 30 73 31 16 32 72 33 17 34 18 35 19 36 66 37 20 38
REMARK SMILES IDX 71 39 65 40 67 41 21 42 70 43 64 44 63 45 22 47 52 48 33 49
REMARK SMILES IDX 51 50 34 51 37 52 50 53 68 54 35 55 36 56 49 58 69 59 38 60
REMARK SMILES IDX 23 61 24 62 32 63 25 64 31 65 26 66 27 67 28 68 29 69 30 70
REMARK SMILES IDX 53 71 54 72 62 73 55 74 61 75 56 76 57 77 58 78 59 79 60 80
REMARK SMILES IDX 39 81 40 82 48 83 41 84 47 85 42 86 43 87 44 88 45 89 46 90
REMARK H PARENT 6 7 3 11 3 12 3 13 11 27 67 46 37 57
REMARK Flexibility Score: inf
ROOT
ATOM      1  C   UNL     1      -2.751   2.609  -1.284  1.00  0.00     0.023 C 
ENDROOT
BRANCH   1   2
ATOM      2  C   UNL     1      -1.272   2.416  -0.938  1.00  0.00     0.023 C 
BRANCH   2   3
ATOM      3  C   UNL     1      -0.978   2.253   0.552  1.00  0.00     0.116 C 
BRANCH   3   4
ATOM      4  N   UNL     1      -1.548   1.027   1.076  1.00  0.00    -0.350 N 
ATOM      5  C   UNL     1      -0.959  -0.124   1.518  1.00  0.00     0.285 C 
ATOM      6  O   UNL     1      -1.735  -0.997   1.924  1.00  0.00    -0.267 OA
ATOM      7  H   UNL     1      -2.531   1.023   1.121  1.00  0.00     0.163 HD
BRANCH   5   8
ATOM      8  C   UNL     1       0.610  -0.321   1.524  1.00  0.00     0.196 C 
ATOM      9  C   UNL     1       1.174  -0.276   0.089  1.00  0.00     0.096 C 
BRANCH   8  10
ATOM     10  N   UNL     1       1.220   0.813   2.266  1.00  0.00    -0.341 N 
ATOM     11  H   UNL     1       0.956   1.692   1.821  1.00  0.00     0.345 HD
ATOM     12  H   UNL     1       2.235   0.718   2.257  1.00  0.00     0.345 HD
ATOM     13  H   UNL     1       0.886   0.807   3.230  1.00  0.00     0.345 HD
ENDBRANCH   8  10
BRANCH   8  14
ATOM     14  C   UNL     1       0.981  -1.686   2.163  1.00  0.00     0.022 A 
ATOM     15  C   UNL     1       0.642  -2.884   1.496  1.00  0.00     0.012 A 
ATOM     16  C   UNL     1       1.632  -1.798   3.408  1.00  0.00     0.012 A 
ATOM     17  C   UNL     1       0.959  -4.134   2.032  1.00  0.00     0.019 A 
ATOM     18  C   UNL     1       1.955  -3.046   3.951  1.00  0.00     0.019 A 
ATOM     19  C   UNL     1       1.618  -4.207   3.257  1.00  0.00     0.054 A 
BRANCH  19  20
ATOM     20  S   UNL     1       2.028  -5.798   3.904  1.00  0.00     0.124 S 
ATOM     21  O   UNL     1       0.804  -6.450   4.316  1.00  0.00    -0.237 OA
ATOM     22  O   UNL     1       2.950  -6.428   2.987  1.00  0.00    -0.237 OA
ATOM     23  O   UNL     1       2.854  -5.527   5.265  1.00  0.00    -0.744 OA
ENDBRANCH  19  20
ENDBRANCH   8  14
ENDBRANCH   5   8
ENDBRANCH   3   4
ENDBRANCH   2   3
ENDBRANCH   1   2
BRANCH   1  24
ATOM     24  C   UNL     1      -3.446   3.765  -0.570  1.00  0.00     0.116 C 
BRANCH  24  25
ATOM     25  N   UNL     1      -2.797   5.048  -0.794  1.00  0.00    -0.352 N 
ATOM     26  C   UNL     1      -3.370   6.272  -1.041  1.00  0.00     0.251 C 
ATOM     27  H   UNL     1      -1.813   5.037  -0.765  1.00  0.00     0.163 HD
ATOM     28  O   UNL     1      -2.663   7.234  -1.327  1.00  0.00    -0.269 OA
BRANCH  26  29
ATOM     29  C   UNL     1      -4.841   6.416  -0.996  1.00  0.00     0.039 A 
ATOM     30  C   UNL     1      -5.487   7.065  -2.051  1.00  0.00     0.014 A 
ATOM     31  C   UNL     1      -5.579   5.894   0.070  1.00  0.00     0.014 A 
ATOM     32  C   UNL     1      -6.882   7.130  -2.071  1.00  0.00     0.010 A 
ATOM     33  C   UNL     1      -6.971   5.903   0.015  1.00  0.00     0.010 A 
ATOM     34  C   UNL     1      -7.636   6.517  -1.057  1.00  0.00    -0.014 A 
BRANCH  34  35
ATOM     35  C   UNL     1      -9.120   6.497  -1.105  1.00  0.00     0.031 A 
ATOM     36  C   UNL     1      -9.922   7.212  -0.052  1.00  0.00     0.074 A 
ATOM     37  C   UNL     1      -9.746   5.776  -2.057  1.00  0.00     0.049 A 
ATOM     38  N   UNL     1     -11.220   7.255   0.107  1.00  0.00    -0.248 NA
ATOM     39  C   UNL     1      -9.167   7.955   0.970  1.00  0.00     0.031 C 
ATOM     40  C   UNL     1      -9.082   5.004  -3.110  1.00  0.00     0.029 A 
ATOM     41  N   UNL     1     -11.083   5.568  -2.288  1.00  0.00    -0.354 N 
ATOM     42  C   UNL     1     -11.436   8.008   1.255  1.00  0.00     0.074 A 
ATOM     43  C   UNL     1     -10.135   8.366   1.776  1.00  0.00     0.031 C 
ATOM     44  C   UNL     1     -10.013   4.429  -3.889  1.00  0.00     0.029 A 
ATOM     45  C   UNL     1     -11.337   4.759  -3.370  1.00  0.00     0.049 A 
ATOM     46  H   UNL     1     -11.793   5.961  -1.731  1.00  0.00     0.167 HD
ATOM     47  C   UNL     1     -12.611   8.381   1.817  1.00  0.00     0.031 A 
ATOM     48  C   UNL     1     -12.504   4.326  -3.887  1.00  0.00     0.031 A 
ATOM     49  C   UNL     1     -13.904   8.038   1.288  1.00  0.00     0.049 A 
ATOM     50  C   UNL     1     -13.795   4.755  -3.246  1.00  0.00     0.074 A 
ATOM     51  C   UNL     1     -15.151   8.423   1.748  1.00  0.00     0.029 A 
ATOM     52  N   UNL     1     -14.118   7.229   0.183  1.00  0.00    -0.354 N 
ATOM     53  N   UNL     1     -13.979   5.524  -2.199  1.00  0.00    -0.248 NA
ATOM     54  C   UNL     1     -15.036   4.268  -3.863  1.00  0.00     0.031 C 
ATOM     55  C   UNL     1     -16.121   7.810   0.948  1.00  0.00     0.029 A 
ATOM     56  C   UNL     1     -15.476   7.085  -0.042  1.00  0.00     0.049 A 
ATOM     57  H   UNL     1     -13.408   6.818  -0.362  1.00  0.00     0.167 HD
ATOM     58  C   UNL     1     -15.357   5.633  -2.049  1.00  0.00     0.074 A 
ATOM     59  C   UNL     1     -15.958   4.863  -3.118  1.00  0.00     0.031 C 
ATOM     60  C   UNL     1     -16.060   6.314  -1.111  1.00  0.00     0.031 A 
BRANCH  47  61
ATOM     61  C   UNL     1     -12.547   9.200   3.079  1.00  0.00    -0.014 A 
ATOM     62  C   UNL     1     -12.114  10.538   3.056  1.00  0.00     0.010 A 
ATOM     63  C   UNL     1     -12.957   8.634   4.301  1.00  0.00     0.010 A 
ATOM     64  C   UNL     1     -12.049  11.281   4.237  1.00  0.00     0.020 A 
ATOM     65  C   UNL     1     -12.919   9.383   5.480  1.00  0.00     0.020 A 
ATOM     66  C   UNL     1     -12.447  10.697   5.443  1.00  0.00     0.054 A 
BRANCH  66  67
ATOM     67  S   UNL     1     -12.366  11.689   6.960  1.00  0.00     0.124 S 
ATOM     68  O   UNL     1     -10.930  11.709   7.228  1.00  0.00    -0.237 OA
ATOM     69  O   UNL     1     -12.944  12.963   6.542  1.00  0.00    -0.237 OA
ATOM     70  O   UNL     1     -13.167  10.928   7.915  1.00  0.00    -0.744 OA
ENDBRANCH  66  67
ENDBRANCH  47  61
BRANCH  48  71
ATOM     71  C   UNL     1     -12.505   3.453  -5.092  1.00  0.00    -0.014 A 
ATOM     72  C   UNL     1     -12.921   3.961  -6.335  1.00  0.00     0.010 A 
ATOM     73  C   UNL     1     -12.076   2.116  -5.007  1.00  0.00     0.010 A 
ATOM     74  C   UNL     1     -12.925   3.144  -7.469  1.00  0.00     0.020 A 
ATOM     75  C   UNL     1     -12.054   1.303  -6.144  1.00  0.00     0.020 A 
ATOM     76  C   UNL     1     -12.489   1.820  -7.367  1.00  0.00     0.054 A 
BRANCH  76  77
ATOM     77  S   UNL     1     -12.449   0.793  -8.862  1.00  0.00     0.124 S 
ATOM     78  O   UNL     1     -13.863   0.487  -9.058  1.00  0.00    -0.237 OA
ATOM     79  O   UNL     1     -11.854   1.692  -9.848  1.00  0.00    -0.237 OA
ATOM     80  O   UNL     1     -11.609  -0.339  -8.476  1.00  0.00    -0.744 OA
ENDBRANCH  76  77
ENDBRANCH  48  71
BRANCH  60  81
ATOM     81  C   UNL     1     -17.561   6.286  -1.215  1.00  0.00    -0.014 A 
ATOM     82  C   UNL     1     -18.293   5.136  -0.875  1.00  0.00     0.010 A 
ATOM     83  C   UNL     1     -18.249   7.448  -1.609  1.00  0.00     0.010 A 
ATOM     84  C   UNL     1     -19.689   5.140  -0.954  1.00  0.00     0.020 A 
ATOM     85  C   UNL     1     -19.645   7.464  -1.663  1.00  0.00     0.020 A 
ATOM     86  C   UNL     1     -20.356   6.304  -1.348  1.00  0.00     0.054 A 
BRANCH  86  87
ATOM     87  S   UNL     1     -22.169   6.299  -1.397  1.00  0.00     0.124 S 
ATOM     88  O   UNL     1     -22.438   5.540  -2.615  1.00  0.00    -0.237 OA
ATOM     89  O   UNL     1     -22.523   5.630  -0.148  1.00  0.00    -0.237 OA
ATOM     90  O   UNL     1     -22.517   7.717  -1.457  1.00  0.00    -0.744 OA
ENDBRANCH  86  87
ENDBRANCH  60  81
ENDBRANCH  34  35
ENDBRANCH  26  29
ENDBRANCH  24  25
ENDBRANCH   1  24
TORSDOF 17
