REMARK SMILES CC[C@@H](CNC(=O)NCc1c(C)noc1C)C(=O)NCCCCNC(=O)c1ccc(-c2c3nc(c(-c4ccc(S(=O)(=O)[O-])cc4)c4ccc([nH]4)c(-c4ccc(S(=O)(=O)[O-])cc4)c4nc(c(-c5ccc(S(=O)(=O)[O-])cc5)c5ccc2[nH]5)C=C4)C=C3)cc1
REMARK SMILES IDX 21 1 20 2 19 3 17 4 18 5 3 7 2 8 1 9 4 10 5 11 6 12 7 14
REMARK SMILES IDX 8 15 9 17 10 18 11 19 15 20 12 21 13 22 14 23 16 24 22 25
REMARK SMILES IDX 23 26 24 27 25 28 26 30 27 31 28 32 86 33 29 34 85 35 30 36
REMARK SMILES IDX 31 37 32 38 79 39 33 40 84 41 78 42 80 43 34 44 83 45 77 46
REMARK SMILES IDX 76 47 35 49 65 50 46 51 64 52 47 53 50 54 63 55 81 56 48 57
REMARK SMILES IDX 49 58 62 60 82 61 51 62 36 63 37 64 45 65 38 66 44 67 39 68
REMARK SMILES IDX 40 69 41 70 42 71 43 72 66 73 67 74 75 75 68 76 74 77 69 78
REMARK SMILES IDX 70 79 71 80 72 81 73 82 52 83 53 84 61 85 54 86 60 87 55 88
REMARK SMILES IDX 56 89 57 90 58 91 59 92
REMARK H PARENT 19 6 5 13 8 16 24 29 80 48 50 59
REMARK Flexibility Score: inf
ROOT
ATOM      1  C   UNL     1      -2.773  -0.513   2.958  1.00  0.00     0.023 C 
ENDROOT
BRANCH   1   2
ATOM      2  C   UNL     1      -1.996   0.790   2.817  1.00  0.00     0.116 C 
BRANCH   2   3
ATOM      3  N   UNL     1      -0.821   0.844   3.668  1.00  0.00    -0.356 N 
ATOM      4  C   UNL     1       0.486   1.054   3.356  1.00  0.00     0.224 C 
ATOM      5  O   UNL     1       1.262   1.306   4.283  1.00  0.00    -0.275 OA
ATOM      6  H   UNL     1      -1.000   0.707   4.626  1.00  0.00     0.163 HD
BRANCH   4   7
ATOM      7  C   UNL     1       1.013   1.014   1.925  1.00  0.00     0.097 C 
BRANCH   7   8
ATOM      8  C   UNL     1       0.633  -0.260   1.149  1.00  0.00     0.012 C 
ATOM      9  C   UNL     1       1.265  -0.356  -0.233  1.00  0.00     0.005 C 
ENDBRANCH   7   8
BRANCH   7  10
ATOM     10  C   UNL     1       0.889   2.362   1.197  1.00  0.00     0.131 C 
BRANCH  10  11
ATOM     11  N   UNL     1      -0.426   2.954   1.114  1.00  0.00    -0.337 N 
ATOM     12  C   UNL     1      -1.125   3.791   1.889  1.00  0.00     0.315 C 
ATOM     13  H   UNL     1      -0.918   2.680   0.306  1.00  0.00     0.165 HD
ATOM     14  O   UNL     1      -2.332   3.893   1.659  1.00  0.00    -0.249 OA
ATOM     15  N   UNL     1      -0.626   4.492   2.906  1.00  0.00    -0.334 N 
ATOM     16  H   UNL     1      -1.326   4.818   3.516  1.00  0.00     0.165 HD
BRANCH  15  17
ATOM     17  C   UNL     1       0.700   4.890   3.328  1.00  0.00     0.159 C 
BRANCH  17  18
ATOM     18  C   UNL     1       1.062   6.143   2.614  1.00  0.00     0.037 A 
ATOM     19  C   UNL     1       1.931   6.343   1.502  1.00  0.00     0.086 A 
ATOM     20  C   UNL     1       0.608   7.419   2.890  1.00  0.00     0.138 A 
ATOM     21  C   UNL     1       2.716   5.355   0.729  1.00  0.00     0.071 C 
ATOM     22  N   UNL     1       1.991   7.633   1.149  1.00  0.00    -0.085 NA
ATOM     23  O   UNL     1       1.159   8.302   2.020  1.00  0.00    -0.361 OA
ATOM     24  C   UNL     1      -0.322   7.981   3.888  1.00  0.00     0.091 C 
ENDBRANCH  17  18
ENDBRANCH  15  17
ENDBRANCH  10  11
ENDBRANCH   7  10
ENDBRANCH   4   7
ENDBRANCH   2   3
ENDBRANCH   1   2
BRANCH   1  25
ATOM     25  C   UNL     1      -3.564  -0.641   4.259  1.00  0.00     0.023 C 
BRANCH  25  26
ATOM     26  C   UNL     1      -4.487   0.530   4.589  1.00  0.00     0.116 C 
BRANCH  26  27
ATOM     27  N   UNL     1      -5.411   0.865   3.515  1.00  0.00    -0.352 N 
ATOM     28  C   UNL     1      -6.760   1.133   3.586  1.00  0.00     0.251 C 
ATOM     29  H   UNL     1      -5.017   0.906   2.614  1.00  0.00     0.163 HD
ATOM     30  O   UNL     1      -7.416   1.289   2.566  1.00  0.00    -0.269 OA
BRANCH  28  31
ATOM     31  C   UNL     1      -7.412   1.191   4.911  1.00  0.00     0.039 A 
ATOM     32  C   UNL     1      -8.572   0.444   5.125  1.00  0.00     0.014 A 
ATOM     33  C   UNL     1      -6.850   1.940   5.948  1.00  0.00     0.014 A 
ATOM     34  C   UNL     1      -9.123   0.381   6.407  1.00  0.00     0.010 A 
ATOM     35  C   UNL     1      -7.357   1.817   7.238  1.00  0.00     0.010 A 
ATOM     36  C   UNL     1      -8.493   1.031   7.482  1.00  0.00    -0.014 A 
BRANCH  36  37
ATOM     37  C   UNL     1      -8.993   0.881   8.872  1.00  0.00     0.031 A 
ATOM     38  C   UNL     1      -9.499   2.080   9.627  1.00  0.00     0.074 A 
ATOM     39  C   UNL     1      -8.917  -0.319   9.482  1.00  0.00     0.049 A 
ATOM     40  N   UNL     1      -9.907   2.159  10.867  1.00  0.00    -0.248 NA
ATOM     41  C   UNL     1      -9.523   3.361   8.903  1.00  0.00     0.031 C 
ATOM     42  C   UNL     1      -8.393  -1.547   8.877  1.00  0.00     0.029 A 
ATOM     43  N   UNL     1      -9.269  -0.701  10.752  1.00  0.00    -0.354 N 
ATOM     44  C   UNL     1     -10.212   3.498  11.080  1.00  0.00     0.074 A 
ATOM     45  C   UNL     1      -9.902   4.202   9.855  1.00  0.00     0.031 C 
ATOM     46  C   UNL     1      -8.481  -2.548   9.767  1.00  0.00     0.029 A 
ATOM     47  C   UNL     1      -9.031  -2.030  11.015  1.00  0.00     0.049 A 
ATOM     48  H   UNL     1      -9.656  -0.082  11.413  1.00  0.00     0.167 HD
ATOM     49  C   UNL     1     -10.721   4.087  12.188  1.00  0.00     0.031 A 
ATOM     50  C   UNL     1      -9.227  -2.751  12.136  1.00  0.00     0.031 A 
ATOM     51  C   UNL     1     -11.051   3.381  13.398  1.00  0.00     0.049 A 
ATOM     52  C   UNL     1      -9.817  -2.081  13.346  1.00  0.00     0.074 A 
ATOM     53  C   UNL     1     -11.636   3.876  14.550  1.00  0.00     0.029 A 
ATOM     54  N   UNL     1     -10.826   2.030  13.612  1.00  0.00    -0.354 N 
ATOM     55  N   UNL     1     -10.164  -0.826  13.504  1.00  0.00    -0.248 NA
ATOM     56  C   UNL     1     -10.053  -2.926  14.525  1.00  0.00     0.031 C 
ATOM     57  C   UNL     1     -11.726   2.833  15.477  1.00  0.00     0.029 A 
ATOM     58  C   UNL     1     -11.244   1.677  14.884  1.00  0.00     0.049 A 
ATOM     59  H   UNL     1     -10.429   1.412  12.956  1.00  0.00     0.167 HD
ATOM     60  C   UNL     1     -10.682  -0.736  14.791  1.00  0.00     0.074 A 
ATOM     61  C   UNL     1     -10.615  -2.066  15.363  1.00  0.00     0.031 C 
ATOM     62  C   UNL     1     -11.170   0.350  15.439  1.00  0.00     0.031 A 
BRANCH  49  63
ATOM     63  C   UNL     1     -10.952   5.574  12.142  1.00  0.00    -0.014 A 
ATOM     64  C   UNL     1     -11.981   6.124  11.357  1.00  0.00     0.010 A 
ATOM     65  C   UNL     1     -10.153   6.429  12.922  1.00  0.00     0.010 A 
ATOM     66  C   UNL     1     -12.180   7.506  11.319  1.00  0.00     0.020 A 
ATOM     67  C   UNL     1     -10.367   7.811  12.908  1.00  0.00     0.020 A 
ATOM     68  C   UNL     1     -11.368   8.341  12.093  1.00  0.00     0.054 A 
BRANCH  68  69
ATOM     69  S   UNL     1     -11.663  10.130  12.043  1.00  0.00     0.124 S 
ATOM     70  O   UNL     1     -11.109  10.489  10.740  1.00  0.00    -0.237 OA
ATOM     71  O   UNL     1     -13.117  10.220  12.154  1.00  0.00    -0.237 OA
ATOM     72  O   UNL     1     -10.921  10.636  13.195  1.00  0.00    -0.744 OA
ENDBRANCH  68  69
ENDBRANCH  49  63
BRANCH  50  73
ATOM     73  C   UNL     1      -8.880  -4.198  12.156  1.00  0.00    -0.014 A 
ATOM     74  C   UNL     1      -9.892  -5.173  12.148  1.00  0.00     0.010 A 
ATOM     75  C   UNL     1      -7.535  -4.607  12.159  1.00  0.00     0.010 A 
ATOM     76  C   UNL     1      -9.566  -6.532  12.157  1.00  0.00     0.020 A 
ATOM     77  C   UNL     1      -7.204  -5.965  12.143  1.00  0.00     0.020 A 
ATOM     78  C   UNL     1      -8.223  -6.920  12.152  1.00  0.00     0.054 A 
BRANCH  78  79
ATOM     79  S   UNL     1      -7.821  -8.689  12.100  1.00  0.00     0.124 S 
ATOM     80  O   UNL     1      -8.099  -9.104  13.471  1.00  0.00    -0.237 OA
ATOM     81  O   UNL     1      -8.744  -9.194  11.086  1.00  0.00    -0.237 OA
ATOM     82  O   UNL     1      -6.413  -8.707  11.711  1.00  0.00    -0.744 OA
ENDBRANCH  78  79
ENDBRANCH  50  73
BRANCH  62  83
ATOM     83  C   UNL     1     -11.699   0.144  16.833  1.00  0.00    -0.014 A 
ATOM     84  C   UNL     1     -10.830  -0.065  17.917  1.00  0.00     0.010 A 
ATOM     85  C   UNL     1     -13.084   0.220  17.066  1.00  0.00     0.010 A 
ATOM     86  C   UNL     1     -11.340  -0.225  19.209  1.00  0.00     0.020 A 
ATOM     87  C   UNL     1     -13.596   0.086  18.359  1.00  0.00     0.020 A 
ATOM     88  C   UNL     1     -12.720  -0.149  19.421  1.00  0.00     0.054 A 
BRANCH  88  89
ATOM     89  S   UNL     1     -13.355  -0.313  21.112  1.00  0.00     0.124 S 
ATOM     90  O   UNL     1     -13.236  -1.750  21.343  1.00  0.00    -0.237 OA
ATOM     91  O   UNL     1     -12.439   0.524  21.883  1.00  0.00    -0.237 OA
ATOM     92  O   UNL     1     -14.723   0.193  21.019  1.00  0.00    -0.744 OA
ENDBRANCH  88  89
ENDBRANCH  62  83
ENDBRANCH  36  37
ENDBRANCH  28  31
ENDBRANCH  26  27
ENDBRANCH  25  26
ENDBRANCH   1  25
TORSDOF 19
