REMARK SMILES COc1cc2c(cc1OC)[C@@H](CC(=O)NCCCCNC(=O)c1ccc(-c3c4nc(c(-c5ccc(S(=O)(=O)[O-])cc5)c5ccc([nH]5)c(-c5ccc(S(=O)(=O)[O-])cc5)c5nc(c(-c6ccc(S(=O)(=O)[O-])cc6)c6ccc3[nH]6)C=C5)C=C4)cc1)N(C(=O)Nc1ccc(Cl)cc1)CC2
REMARK SMILES IDX 17 1 16 2 15 3 13 4 14 5 12 7 11 8 3 9 4 10 8 11 5 12 7 13
REMARK SMILES IDX 6 14 95 15 94 16 83 17 2 18 1 19 9 20 10 21 84 22 85 23
REMARK SMILES IDX 86 24 87 26 88 27 93 28 89 29 92 30 90 31 91 32 18 33 19 34
REMARK SMILES IDX 20 35 21 36 22 38 23 39 24 40 82 41 25 42 81 43 26 44 27 45
REMARK SMILES IDX 28 46 75 47 29 48 80 49 74 50 76 51 30 52 79 53 73 54 72 55
REMARK SMILES IDX 31 57 61 58 42 59 60 60 43 61 46 62 59 63 77 64 44 65 45 66
REMARK SMILES IDX 58 68 78 69 47 70 32 71 33 72 41 73 34 74 40 75 35 76 36 77
REMARK SMILES IDX 37 78 38 79 39 80 62 81 63 82 71 83 64 84 70 85 65 86 66 87
REMARK SMILES IDX 67 88 68 89 69 90 48 91 49 92 57 93 50 94 56 95 51 96 52 97
REMARK SMILES IDX 53 98 54 99 55 100
REMARK H PARENT 15 6 86 25 20 37 76 56 46 67
REMARK Flexibility Score: inf
ROOT
ATOM      1  C   UNL     1       1.844   3.656  -9.821  1.00  0.00     0.023 C 
ENDROOT
BRANCH   1   2
ATOM      2  C   UNL     1       3.108   3.010  -9.249  1.00  0.00     0.116 C 
BRANCH   2   3
ATOM      3  N   UNL     1       3.537   3.703  -8.040  1.00  0.00    -0.356 N 
ATOM      4  C   UNL     1       3.481   3.367  -6.723  1.00  0.00     0.222 C 
ATOM      5  O   UNL     1       3.811   4.215  -5.890  1.00  0.00    -0.275 OA
ATOM      6  H   UNL     1       3.945   4.583  -8.209  1.00  0.00     0.163 HD
BRANCH   4   7
ATOM      7  C   UNL     1       3.094   1.974  -6.271  1.00  0.00     0.130 C 
BRANCH   7   8
ATOM      8  C   UNL     1       1.727   1.976  -5.538  1.00  0.00     0.127 C 
ATOM      9  C   UNL     1       1.413   0.183  -1.566  1.00  0.00     0.161 A 
ATOM     10  C   UNL     1       0.284   0.435  -2.325  1.00  0.00     0.054 A 
ATOM     11  C   UNL     1       2.684   0.575  -2.014  1.00  0.00     0.161 A 
ATOM     12  C   UNL     1       0.426   1.030  -3.576  1.00  0.00    -0.037 A 
ATOM     13  C   UNL     1       2.810   1.233  -3.255  1.00  0.00     0.056 A 
ATOM     14  C   UNL     1       1.693   1.420  -4.088  1.00  0.00    -0.018 A 
ATOM     15  C   UNL     1      -0.752   1.049  -4.506  1.00  0.00     0.057 C 
ATOM     16  C   UNL     1      -0.219   0.347  -5.742  1.00  0.00     0.127 C 
ATOM     17  N   UNL     1       0.759   1.219  -6.397  1.00  0.00    -0.317 N 
BRANCH   9  18
ATOM     18  O   UNL     1       1.233  -0.597  -0.452  1.00  0.00    -0.493 OA
ATOM     19  C   UNL     1       1.215   0.202   0.725  1.00  0.00     0.278 C 
ENDBRANCH   9  18
BRANCH  11  20
ATOM     20  O   UNL     1       3.722   0.239  -1.185  1.00  0.00    -0.493 OA
ATOM     21  C   UNL     1       5.038   0.518  -1.633  1.00  0.00     0.278 C 
ENDBRANCH  11  20
BRANCH  17  22
ATOM     22  C   UNL     1       0.248   1.792  -7.554  1.00  0.00     0.322 C 
ATOM     23  O   UNL     1      -0.084   2.966  -7.618  1.00  0.00    -0.248 OA
ATOM     24  N   UNL     1       0.068   0.813  -8.513  1.00  0.00    -0.308 N 
ATOM     25  H   UNL     1       0.854   0.273  -8.757  1.00  0.00     0.171 HD
BRANCH  24  26
ATOM     26  C   UNL     1      -1.136   0.523  -9.170  1.00  0.00     0.042 A 
ATOM     27  C   UNL     1      -1.200  -0.691  -9.862  1.00  0.00     0.028 A 
ATOM     28  C   UNL     1      -2.290   1.289  -9.002  1.00  0.00     0.028 A 
ATOM     29  C   UNL     1      -2.426  -1.174 -10.321  1.00  0.00     0.022 A 
ATOM     30  C   UNL     1      -3.518   0.803  -9.458  1.00  0.00     0.022 A 
ATOM     31  C   UNL     1      -3.583  -0.434 -10.097  1.00  0.00     0.041 A 
ATOM     32  Cl  UNL     1      -5.108  -1.071 -10.574  1.00  0.00    -0.084 Cl
ENDBRANCH  24  26
ENDBRANCH  17  22
ENDBRANCH   7   8
ENDBRANCH   4   7
ENDBRANCH   2   3
ENDBRANCH   1   2
BRANCH   1  33
ATOM     33  C   UNL     1       1.875   3.963 -11.308  1.00  0.00     0.023 C 
BRANCH  33  34
ATOM     34  C   UNL     1       2.097   2.760 -12.210  1.00  0.00     0.116 C 
BRANCH  34  35
ATOM     35  N   UNL     1       1.097   1.698 -12.104  1.00  0.00    -0.352 N 
ATOM     36  C   UNL     1       0.490   0.988 -13.127  1.00  0.00     0.251 C 
ATOM     37  H   UNL     1       0.821   1.457 -11.190  1.00  0.00     0.163 HD
ATOM     38  O   UNL     1      -0.279   0.066 -12.903  1.00  0.00    -0.269 OA
BRANCH  36  39
ATOM     39  C   UNL     1       0.749   1.431 -14.511  1.00  0.00     0.039 A 
ATOM     40  C   UNL     1      -0.308   1.971 -15.248  1.00  0.00     0.014 A 
ATOM     41  C   UNL     1       2.065   1.541 -14.955  1.00  0.00     0.014 A 
ATOM     42  C   UNL     1      -0.025   2.769 -16.359  1.00  0.00     0.010 A 
ATOM     43  C   UNL     1       2.343   2.430 -15.983  1.00  0.00     0.010 A 
ATOM     44  C   UNL     1       1.305   3.085 -16.674  1.00  0.00    -0.014 A 
BRANCH  44  45
ATOM     45  C   UNL     1       1.672   4.119 -17.681  1.00  0.00     0.031 A 
ATOM     46  C   UNL     1       2.638   3.755 -18.776  1.00  0.00     0.074 A 
ATOM     47  C   UNL     1       1.270   5.401 -17.538  1.00  0.00     0.049 A 
ATOM     48  N   UNL     1       3.334   4.535 -19.559  1.00  0.00    -0.248 NA
ATOM     49  C   UNL     1       2.902   2.318 -18.965  1.00  0.00     0.031 C 
ATOM     50  C   UNL     1       0.361   5.910 -16.507  1.00  0.00     0.029 A 
ATOM     51  N   UNL     1       1.597   6.523 -18.263  1.00  0.00    -0.354 N 
ATOM     52  C   UNL     1       4.166   3.689 -20.283  1.00  0.00     0.074 A 
ATOM     53  C   UNL     1       3.916   2.343 -19.816  1.00  0.00     0.031 C 
ATOM     54  C   UNL     1       0.175   7.229 -16.689  1.00  0.00     0.029 A 
ATOM     55  C   UNL     1       1.000   7.676 -17.805  1.00  0.00     0.049 A 
ATOM     56  H   UNL     1       2.203   6.504 -19.038  1.00  0.00     0.167 HD
ATOM     57  C   UNL     1       5.048   4.000 -21.261  1.00  0.00     0.031 A 
ATOM     58  C   UNL     1       1.117   8.952 -18.225  1.00  0.00     0.031 A 
ATOM     59  C   UNL     1       5.238   5.328 -21.774  1.00  0.00     0.049 A 
ATOM     60  C   UNL     1       2.056   9.267 -19.358  1.00  0.00     0.074 A 
ATOM     61  C   UNL     1       6.074   5.746 -22.794  1.00  0.00     0.029 A 
ATOM     62  N   UNL     1       4.550   6.447 -21.332  1.00  0.00    -0.354 N 
ATOM     63  N   UNL     1       2.845   8.455 -20.021  1.00  0.00    -0.248 NA
ATOM     64  C   UNL     1       2.123  10.668 -19.801  1.00  0.00     0.031 C 
ATOM     65  C   UNL     1       5.895   7.122 -22.965  1.00  0.00     0.029 A 
ATOM     66  C   UNL     1       4.925   7.551 -22.073  1.00  0.00     0.049 A 
ATOM     67  H   UNL     1       3.893   6.454 -20.599  1.00  0.00     0.167 HD
ATOM     68  C   UNL     1       3.472   9.240 -20.983  1.00  0.00     0.074 A 
ATOM     69  C   UNL     1       2.973  10.589 -20.817  1.00  0.00     0.031 C 
ATOM     70  C   UNL     1       4.380   8.875 -21.919  1.00  0.00     0.031 A 
BRANCH  57  71
ATOM     71  C   UNL     1       5.855   2.874 -21.845  1.00  0.00    -0.014 A 
ATOM     72  C   UNL     1       5.250   1.896 -22.654  1.00  0.00     0.010 A 
ATOM     73  C   UNL     1       7.235   2.793 -21.585  1.00  0.00     0.010 A 
ATOM     74  C   UNL     1       5.997   0.823 -23.143  1.00  0.00     0.020 A 
ATOM     75  C   UNL     1       7.993   1.737 -22.100  1.00  0.00     0.020 A 
ATOM     76  C   UNL     1       7.362   0.746 -22.856  1.00  0.00     0.054 A 
BRANCH  76  77
ATOM     77  S   UNL     1       8.311  -0.657 -23.504  1.00  0.00     0.124 S 
ATOM     78  O   UNL     1       7.931  -1.724 -22.581  1.00  0.00    -0.237 OA
ATOM     79  O   UNL     1       7.799  -0.793 -24.865  1.00  0.00    -0.237 OA
ATOM     80  O   UNL     1       9.698  -0.211 -23.405  1.00  0.00    -0.744 OA
ENDBRANCH  76  77
ENDBRANCH  57  71
BRANCH  58  81
ATOM     81  C   UNL     1       0.310  10.034 -17.594  1.00  0.00    -0.014 A 
ATOM     82  C   UNL     1      -0.761  10.613 -18.299  1.00  0.00     0.010 A 
ATOM     83  C   UNL     1       0.612  10.506 -16.305  1.00  0.00     0.010 A 
ATOM     84  C   UNL     1      -1.494  11.664 -17.742  1.00  0.00     0.020 A 
ATOM     85  C   UNL     1      -0.136  11.541 -15.733  1.00  0.00     0.020 A 
ATOM     86  C   UNL     1      -1.173  12.126 -16.463  1.00  0.00     0.054 A 
BRANCH  86  87
ATOM     87  S   UNL     1      -2.153  13.476 -15.747  1.00  0.00     0.124 S 
ATOM     88  O   UNL     1      -1.611  14.641 -16.439  1.00  0.00    -0.237 OA
ATOM     89  O   UNL     1      -3.519  13.105 -16.108  1.00  0.00    -0.237 OA
ATOM     90  O   UNL     1      -1.850  13.395 -14.320  1.00  0.00    -0.744 OA
ENDBRANCH  86  87
ENDBRANCH  58  81
BRANCH  70  91
ATOM     91  C   UNL     1       4.842   9.919 -22.894  1.00  0.00    -0.014 A 
ATOM     92  C   UNL     1       5.813  10.869 -22.537  1.00  0.00     0.010 A 
ATOM     93  C   UNL     1       4.379   9.867 -24.222  1.00  0.00     0.010 A 
ATOM     94  C   UNL     1       6.318  11.751 -23.496  1.00  0.00     0.020 A 
ATOM     95  C   UNL     1       4.894  10.735 -25.186  1.00  0.00     0.020 A 
ATOM     96  C   UNL     1       5.860  11.673 -24.816  1.00  0.00     0.054 A 
BRANCH  96  97
ATOM     97  S   UNL     1       6.605  12.758 -26.066  1.00  0.00     0.124 S 
ATOM     98  O   UNL     1       5.964  14.037 -25.779  1.00  0.00    -0.237 OA
ATOM     99  O   UNL     1       8.030  12.683 -25.748  1.00  0.00    -0.237 OA
ATOM    100  O   UNL     1       6.223  12.138 -27.332  1.00  0.00    -0.744 OA
ENDBRANCH  96  97
ENDBRANCH  70  91
ENDBRANCH  44  45
ENDBRANCH  36  39
ENDBRANCH  34  35
ENDBRANCH  33  34
ENDBRANCH   1  33
TORSDOF 19
