REMARK SMILES CC1(C)[C@H](C(=O)NCCCCNC(=O)c2ccc(-c3c4nc(c(-c5ccc(S(=O)(=O)[O-])cc5)c5ccc([nH]5)c(-c5ccc(S(=O)(=O)[O-])cc5)c5nc(c(-c6ccc(S(=O)(=O)[O-])cc6)c6ccc3[nH]6)C=C5)C=C4)cc2)[C@@H]1C(=O)Nc1ccc(NC(=O)C2CCC2)cc1
REMARK SMILES IDX 9 1 8 2 7 3 5 4 6 5 4 7 1 8 2 9 3 10 75 11 76 12 77 13 78 14
REMARK SMILES IDX 79 16 80 17 91 18 81 19 90 20 82 21 83 22 84 23 85 25 86 26
REMARK SMILES IDX 87 27 89 28 88 29 10 30 11 31 12 32 13 33 14 35 15 36 16 37
REMARK SMILES IDX 74 38 17 39 73 40 18 41 19 42 20 43 67 44 21 45 72 46 66 47
REMARK SMILES IDX 68 48 22 49 71 50 65 51 64 52 23 54 53 55 34 56 52 57 35 58
REMARK SMILES IDX 38 59 51 60 69 61 36 62 37 63 50 65 70 66 39 67 24 68 25 69
REMARK SMILES IDX 33 70 26 71 32 72 27 73 28 74 29 75 30 76 31 77 54 78 55 79
REMARK SMILES IDX 63 80 56 81 62 82 57 83 58 84 59 85 60 86 61 87 40 88 41 89
REMARK SMILES IDX 49 90 42 91 48 92 43 93 44 94 45 95 46 96 47 97
REMARK H PARENT 7 6 78 15 83 24 12 34 68 53 38 64
REMARK Flexibility Score: inf
ROOT
ATOM      1  C   UNL     1       0.468   4.177  -0.757  1.00  0.00     0.023 C 
ENDROOT
BRANCH   1   2
ATOM      2  C   UNL     1      -0.517   3.075  -0.377  1.00  0.00     0.116 C 
BRANCH   2   3
ATOM      3  N   UNL     1      -0.812   2.220  -1.506  1.00  0.00    -0.356 N 
ATOM      4  C   UNL     1      -0.890   0.875  -1.716  1.00  0.00     0.224 C 
ATOM      5  O   UNL     1      -1.175   0.543  -2.869  1.00  0.00    -0.275 OA
ATOM      6  H   UNL     1      -1.003   2.735  -2.322  1.00  0.00     0.163 HD
BRANCH   4   7
ATOM      7  C   UNL     1      -0.684  -0.234  -0.751  1.00  0.00     0.098 C 
ATOM      8  C   UNL     1       1.162  -1.788   0.124  1.00  0.00     0.013 C 
ATOM      9  C   UNL     1       0.501  -0.428   0.181  1.00  0.00    -0.011 C 
ATOM     10  C   UNL     1       1.508   0.676   0.384  1.00  0.00     0.013 C 
ATOM     11  C   UNL     1      -0.947  -0.371   0.716  1.00  0.00     0.098 C 
BRANCH  11  12
ATOM     12  C   UNL     1      -1.485   0.653   1.631  1.00  0.00     0.228 C 
ATOM     13  O   UNL     1      -0.819   1.036   2.589  1.00  0.00    -0.274 OA
ATOM     14  N   UNL     1      -2.759   1.147   1.451  1.00  0.00    -0.326 N 
ATOM     15  H   UNL     1      -3.146   1.657   2.199  1.00  0.00     0.169 HD
BRANCH  14  16
ATOM     16  C   UNL     1      -3.555   0.998   0.312  1.00  0.00     0.041 A 
ATOM     17  C   UNL     1      -3.813   2.160  -0.399  1.00  0.00     0.028 A 
ATOM     18  C   UNL     1      -3.986  -0.227  -0.190  1.00  0.00     0.028 A 
ATOM     19  C   UNL     1      -4.305   2.074  -1.692  1.00  0.00     0.028 A 
ATOM     20  C   UNL     1      -4.671  -0.266  -1.416  1.00  0.00     0.028 A 
ATOM     21  C   UNL     1      -4.839   0.899  -2.178  1.00  0.00     0.041 A 
BRANCH  21  22
ATOM     22  N   UNL     1      -5.532   0.821  -3.389  1.00  0.00    -0.326 N 
ATOM     23  C   UNL     1      -6.019   1.761  -4.277  1.00  0.00     0.227 C 
ATOM     24  H   UNL     1      -5.713  -0.104  -3.670  1.00  0.00     0.169 HD
ATOM     25  O   UNL     1      -6.574   1.268  -5.277  1.00  0.00    -0.274 OA
BRANCH  23  26
ATOM     26  C   UNL     1      -5.927   3.303  -4.109  1.00  0.00     0.079 C 
ATOM     27  C   UNL     1      -7.191   4.067  -4.652  1.00  0.00     0.013 C 
ATOM     28  C   UNL     1      -6.206   4.097  -2.791  1.00  0.00     0.013 C 
ATOM     29  C   UNL     1      -6.885   5.176  -3.641  1.00  0.00     0.002 C 
ENDBRANCH  23  26
ENDBRANCH  21  22
ENDBRANCH  14  16
ENDBRANCH  11  12
ENDBRANCH   4   7
ENDBRANCH   2   3
ENDBRANCH   1   2
BRANCH   1  30
ATOM     30  C   UNL     1      -0.137   5.297  -1.612  1.00  0.00     0.023 C 
BRANCH  30  31
ATOM     31  C   UNL     1      -1.320   6.038  -0.988  1.00  0.00     0.116 C 
BRANCH  31  32
ATOM     32  N   UNL     1      -1.015   6.593   0.324  1.00  0.00    -0.352 N 
ATOM     33  C   UNL     1      -1.101   7.896   0.756  1.00  0.00     0.251 C 
ATOM     34  H   UNL     1      -0.703   5.945   0.995  1.00  0.00     0.163 HD
ATOM     35  O   UNL     1      -0.659   8.216   1.855  1.00  0.00    -0.269 OA
BRANCH  33  36
ATOM     36  C   UNL     1      -1.705   8.909  -0.130  1.00  0.00     0.039 A 
ATOM     37  C   UNL     1      -0.974  10.056  -0.448  1.00  0.00     0.014 A 
ATOM     38  C   UNL     1      -2.966   8.687  -0.691  1.00  0.00     0.014 A 
ATOM     39  C   UNL     1      -1.467  10.937  -1.412  1.00  0.00     0.010 A 
ATOM     40  C   UNL     1      -3.426   9.535  -1.693  1.00  0.00     0.010 A 
ATOM     41  C   UNL     1      -2.670  10.653  -2.080  1.00  0.00    -0.014 A 
BRANCH  41  42
ATOM     42  C   UNL     1      -3.129  11.470  -3.231  1.00  0.00     0.031 A 
ATOM     43  C   UNL     1      -4.412  12.245  -3.148  1.00  0.00     0.074 A 
ATOM     44  C   UNL     1      -2.436  11.427  -4.387  1.00  0.00     0.049 A 
ATOM     45  N   UNL     1      -5.028  12.918  -4.085  1.00  0.00    -0.248 NA
ATOM     46  C   UNL     1      -5.103  12.246  -1.849  1.00  0.00     0.031 C 
ATOM     47  C   UNL     1      -1.192  10.683  -4.604  1.00  0.00     0.029 A 
ATOM     48  N   UNL     1      -2.688  12.009  -5.605  1.00  0.00    -0.354 N 
ATOM     49  C   UNL     1      -6.187  13.409  -3.496  1.00  0.00     0.074 A 
ATOM     50  C   UNL     1      -6.207  12.923  -2.133  1.00  0.00     0.031 C 
ATOM     51  C   UNL     1      -0.783  10.868  -5.869  1.00  0.00     0.029 A 
ATOM     52  C   UNL     1      -1.756  11.701  -6.568  1.00  0.00     0.049 A 
ATOM     53  H   UNL     1      -3.463  12.592  -5.772  1.00  0.00     0.167 HD
ATOM     54  C   UNL     1      -7.140  14.205  -4.038  1.00  0.00     0.031 A 
ATOM     55  C   UNL     1      -1.698  12.033  -7.872  1.00  0.00     0.031 A 
ATOM     56  C   UNL     1      -7.114  14.687  -5.393  1.00  0.00     0.049 A 
ATOM     57  C   UNL     1      -2.790  12.881  -8.462  1.00  0.00     0.074 A 
ATOM     58  C   UNL     1      -8.001  15.547  -6.017  1.00  0.00     0.029 A 
ATOM     59  N   UNL     1      -6.158  14.345  -6.338  1.00  0.00    -0.354 N 
ATOM     60  N   UNL     1      -3.844  13.391  -7.871  1.00  0.00    -0.248 NA
ATOM     61  C   UNL     1      -2.687  13.196  -9.894  1.00  0.00     0.031 C 
ATOM     62  C   UNL     1      -7.611  15.682  -7.354  1.00  0.00     0.029 A 
ATOM     63  C   UNL     1      -6.452  14.948  -7.549  1.00  0.00     0.049 A 
ATOM     64  H   UNL     1      -5.384  13.759  -6.171  1.00  0.00     0.167 HD
ATOM     65  C   UNL     1      -4.523  14.099  -8.856  1.00  0.00     0.074 A 
ATOM     66  C   UNL     1      -3.752  13.966 -10.075  1.00  0.00     0.031 C 
ATOM     67  C   UNL     1      -5.681  14.797  -8.757  1.00  0.00     0.031 A 
BRANCH  54  68
ATOM     68  C   UNL     1      -8.299  14.593  -3.160  1.00  0.00    -0.014 A 
ATOM     69  C   UNL     1      -8.130  15.492  -2.091  1.00  0.00     0.010 A 
ATOM     70  C   UNL     1      -9.580  14.074  -3.422  1.00  0.00     0.010 A 
ATOM     71  C   UNL     1      -9.210  15.828  -1.272  1.00  0.00     0.020 A 
ATOM     72  C   UNL     1     -10.669  14.428  -2.620  1.00  0.00     0.020 A 
ATOM     73  C   UNL     1     -10.472  15.288  -1.537  1.00  0.00     0.054 A 
BRANCH  73  74
ATOM     74  S   UNL     1     -11.857  15.745  -0.460  1.00  0.00     0.124 S 
ATOM     75  O   UNL     1     -11.564  14.976   0.747  1.00  0.00    -0.237 OA
ATOM     76  O   UNL     1     -11.704  17.192  -0.335  1.00  0.00    -0.237 OA
ATOM     77  O   UNL     1     -13.035  15.308  -1.205  1.00  0.00    -0.744 OA
ENDBRANCH  73  74
ENDBRANCH  54  68
BRANCH  55  78
ATOM     78  C   UNL     1      -0.563  11.556  -8.707  1.00  0.00    -0.014 A 
ATOM     79  C   UNL     1       0.432  12.454  -9.131  1.00  0.00     0.010 A 
ATOM     80  C   UNL     1      -0.455  10.198  -9.059  1.00  0.00     0.010 A 
ATOM     81  C   UNL     1       1.511  12.004  -9.897  1.00  0.00     0.020 A 
ATOM     82  C   UNL     1       0.636   9.740  -9.804  1.00  0.00     0.020 A 
ATOM     83  C   UNL     1       1.609  10.649 -10.225  1.00  0.00     0.054 A 
BRANCH  83  84
ATOM     84  S   UNL     1       3.054  10.077 -11.160  1.00  0.00     0.124 S 
ATOM     85  O   UNL     1       2.756  10.558 -12.505  1.00  0.00    -0.237 OA
ATOM     86  O   UNL     1       4.158  10.748 -10.477  1.00  0.00    -0.237 OA
ATOM     87  O   UNL     1       3.018   8.626 -10.990  1.00  0.00    -0.744 OA
ENDBRANCH  83  84
ENDBRANCH  55  78
BRANCH  67  88
ATOM     88  C   UNL     1      -6.188  15.478  -9.998  1.00  0.00    -0.014 A 
ATOM     89  C   UNL     1      -6.791  14.740 -11.031  1.00  0.00     0.010 A 
ATOM     90  C   UNL     1      -6.134  16.881 -10.096  1.00  0.00     0.010 A 
ATOM     91  C   UNL     1      -7.321  15.392 -12.147  1.00  0.00     0.020 A 
ATOM     92  C   UNL     1      -6.683  17.538 -11.199  1.00  0.00     0.020 A 
ATOM     93  C   UNL     1      -7.268  16.788 -12.222  1.00  0.00     0.054 A 
BRANCH  93  94
ATOM     94  S   UNL     1      -8.029  17.614 -13.646  1.00  0.00     0.124 S 
ATOM     95  O   UNL     1      -7.071  17.329 -14.711  1.00  0.00    -0.237 OA
ATOM     96  O   UNL     1      -9.317  16.934 -13.761  1.00  0.00    -0.237 OA
ATOM     97  O   UNL     1      -8.105  19.014 -13.235  1.00  0.00    -0.744 OA
ENDBRANCH  93  94
ENDBRANCH  67  88
ENDBRANCH  41  42
ENDBRANCH  33  36
ENDBRANCH  31  32
ENDBRANCH  30  31
ENDBRANCH   1  30
TORSDOF 18
