REMARK SMILES CCC[C@H](CNC(=O)N1CCN2C(=O)NC[C@H]2C1)C(=O)NCCCCNC(=O)c1ccc(-c2c3nc(c(-c4ccc(S(=O)(=O)[O-])cc4)c4ccc([nH]4)c(-c4ccc(S(=O)(=O)[O-])cc4)c4nc(c(-c5ccc(S(=O)(=O)[O-])cc5)c5ccc2[nH]5)C=C4)C=C3)cc1
REMARK SMILES IDX 23 1 22 2 21 3 19 4 20 5 4 7 3 8 2 9 1 10 5 11 6 12 7 13
REMARK SMILES IDX 8 15 9 16 10 17 18 18 11 19 17 20 12 21 16 22 13 23 15 24
REMARK SMILES IDX 14 25 24 27 25 28 26 29 27 30 28 32 29 33 30 34 88 35 31 36
REMARK SMILES IDX 87 37 32 38 33 39 34 40 81 41 35 42 86 43 80 44 82 45 36 46
REMARK SMILES IDX 85 47 79 48 78 49 37 51 67 52 48 53 66 54 49 55 52 56 65 57
REMARK SMILES IDX 83 58 50 59 51 60 64 62 84 63 53 64 38 65 39 66 47 67 40 68
REMARK SMILES IDX 46 69 41 70 42 71 43 72 44 73 45 74 68 75 69 76 77 77 70 78
REMARK SMILES IDX 76 79 71 80 72 81 73 82 74 83 75 84 54 85 55 86 63 87 56 88
REMARK SMILES IDX 62 89 57 90 58 91 59 92 60 93 61 94
REMARK H PARENT 21 6 6 14 15 26 26 31 82 50 52 61
REMARK Flexibility Score: inf
ROOT
ATOM      1  C   UNL     1       1.044   0.234   6.346  1.00  0.00     0.023 C 
ENDROOT
BRANCH   1   2
ATOM      2  C   UNL     1       0.076   1.142   5.602  1.00  0.00     0.116 C 
BRANCH   2   3
ATOM      3  N   UNL     1       0.829   2.160   4.914  1.00  0.00    -0.356 N 
ATOM      4  C   UNL     1       1.256   2.153   3.624  1.00  0.00     0.224 C 
ATOM      5  O   UNL     1       2.179   2.915   3.324  1.00  0.00    -0.275 OA
ATOM      6  H   UNL     1       1.063   2.957   5.443  1.00  0.00     0.163 HD
BRANCH   4   7
ATOM      7  C   UNL     1       0.570   1.316   2.544  1.00  0.00     0.097 C 
BRANCH   7   8
ATOM      8  C   UNL     1      -0.958   1.585   2.488  1.00  0.00     0.015 C 
BRANCH   8   9
ATOM      9  C   UNL     1      -1.432   2.201   1.163  1.00  0.00    -0.003 C 
ATOM     10  C   UNL     1      -1.105   1.369  -0.069  1.00  0.00     0.004 C 
ENDBRANCH   8   9
ENDBRANCH   7   8
BRANCH   7  11
ATOM     11  C   UNL     1       0.908  -0.186   2.363  1.00  0.00     0.131 C 
BRANCH  11  12
ATOM     12  N   UNL     1       1.683  -0.888   3.367  1.00  0.00    -0.337 N 
ATOM     13  C   UNL     1       1.441  -1.969   4.154  1.00  0.00     0.317 C 
ATOM     14  H   UNL     1       2.576  -0.498   3.509  1.00  0.00     0.165 HD
ATOM     15  O   UNL     1       2.300  -2.270   4.984  1.00  0.00    -0.249 OA
BRANCH  13  16
ATOM     16  N   UNL     1       0.223  -2.579   4.136  1.00  0.00    -0.321 N 
ATOM     17  C   UNL     1      -0.448  -3.113   2.945  1.00  0.00     0.143 C 
ATOM     18  C   UNL     1      -0.377  -3.057   5.401  1.00  0.00     0.148 C 
ATOM     19  C   UNL     1      -1.967  -2.834   2.953  1.00  0.00     0.143 C 
ATOM     20  C   UNL     1      -1.796  -2.487   5.450  1.00  0.00     0.125 C 
ATOM     21  N   UNL     1      -2.543  -2.937   4.286  1.00  0.00    -0.317 N 
ATOM     22  C   UNL     1      -2.689  -2.879   6.620  1.00  0.00     0.144 C 
ATOM     23  C   UNL     1      -3.850  -3.243   4.613  1.00  0.00     0.317 C 
ATOM     24  N   UNL     1      -3.954  -3.170   5.993  1.00  0.00    -0.336 N 
ATOM     25  O   UNL     1      -4.752  -3.523   3.850  1.00  0.00    -0.249 OA
ATOM     26  H   UNL     1      -4.795  -3.302   6.488  1.00  0.00     0.165 HD
ENDBRANCH  13  16
ENDBRANCH  11  12
ENDBRANCH   7  11
ENDBRANCH   4   7
ENDBRANCH   2   3
ENDBRANCH   1   2
BRANCH   1  27
ATOM     27  C   UNL     1       1.347   0.587   7.788  1.00  0.00     0.023 C 
BRANCH  27  28
ATOM     28  C   UNL     1       0.143   0.534   8.709  1.00  0.00     0.116 C 
BRANCH  28  29
ATOM     29  N   UNL     1      -0.577  -0.736   8.685  1.00  0.00    -0.352 N 
ATOM     30  C   UNL     1      -1.234  -1.385   9.705  1.00  0.00     0.251 C 
ATOM     31  H   UNL     1      -0.595  -1.193   7.814  1.00  0.00     0.163 HD
ATOM     32  O   UNL     1      -1.734  -2.488   9.509  1.00  0.00    -0.269 OA
BRANCH  30  33
ATOM     33  C   UNL     1      -1.253  -0.776  11.046  1.00  0.00     0.039 A 
ATOM     34  C   UNL     1      -0.970  -1.585  12.146  1.00  0.00     0.014 A 
ATOM     35  C   UNL     1      -1.407   0.602  11.194  1.00  0.00     0.014 A 
ATOM     36  C   UNL     1      -0.733  -0.989  13.381  1.00  0.00     0.010 A 
ATOM     37  C   UNL     1      -1.016   1.199  12.378  1.00  0.00     0.010 A 
ATOM     38  C   UNL     1      -0.693   0.410  13.489  1.00  0.00    -0.014 A 
BRANCH  38  39
ATOM     39  C   UNL     1      -0.344   1.069  14.766  1.00  0.00     0.031 A 
ATOM     40  C   UNL     1      -1.337   1.992  15.416  1.00  0.00     0.074 A 
ATOM     41  C   UNL     1       0.874   0.865  15.306  1.00  0.00     0.049 A 
ATOM     42  N   UNL     1      -1.225   2.667  16.528  1.00  0.00    -0.248 NA
ATOM     43  C   UNL     1      -2.608   2.221  14.704  1.00  0.00     0.031 C 
ATOM     44  C   UNL     1       1.940   0.045  14.719  1.00  0.00     0.029 A 
ATOM     45  N   UNL     1       1.420   1.322  16.477  1.00  0.00    -0.354 N 
ATOM     46  C   UNL     1      -2.397   3.407  16.636  1.00  0.00     0.074 A 
ATOM     47  C   UNL     1      -3.167   3.168  15.439  1.00  0.00     0.031 C 
ATOM     48  C   UNL     1       2.984   0.008  15.563  1.00  0.00     0.029 A 
ATOM     49  C   UNL     1       2.682   0.835  16.725  1.00  0.00     0.049 A 
ATOM     50  H   UNL     1       0.952   1.940  17.084  1.00  0.00     0.167 HD
ATOM     51  C   UNL     1      -2.814   4.185  17.660  1.00  0.00     0.031 A 
ATOM     52  C   UNL     1       3.497   1.028  17.779  1.00  0.00     0.031 A 
ATOM     53  C   UNL     1      -2.046   4.394  18.855  1.00  0.00     0.049 A 
ATOM     54  C   UNL     1       3.004   1.884  18.914  1.00  0.00     0.074 A 
ATOM     55  C   UNL     1      -2.388   5.115  19.984  1.00  0.00     0.029 A 
ATOM     56  N   UNL     1      -0.778   3.874  19.076  1.00  0.00    -0.354 N 
ATOM     57  N   UNL     1       1.858   2.515  19.034  1.00  0.00    -0.248 NA
ATOM     58  C   UNL     1       3.903   2.037  20.064  1.00  0.00     0.031 C 
ATOM     59  C   UNL     1      -1.302   5.080  20.863  1.00  0.00     0.029 A 
ATOM     60  C   UNL     1      -0.313   4.277  20.314  1.00  0.00     0.049 A 
ATOM     61  H   UNL     1      -0.284   3.304  18.444  1.00  0.00     0.167 HD
ATOM     62  C   UNL     1       1.888   3.119  20.286  1.00  0.00     0.074 A 
ATOM     63  C   UNL     1       3.154   2.753  20.891  1.00  0.00     0.031 C 
ATOM     64  C   UNL     1       0.958   3.904  20.884  1.00  0.00     0.031 A 
BRANCH  51  65
ATOM     65  C   UNL     1      -4.155   4.857  17.520  1.00  0.00    -0.014 A 
ATOM     66  C   UNL     1      -5.348   4.108  17.492  1.00  0.00     0.010 A 
ATOM     67  C   UNL     1      -4.228   6.258  17.426  1.00  0.00     0.010 A 
ATOM     68  C   UNL     1      -6.581   4.743  17.326  1.00  0.00     0.020 A 
ATOM     69  C   UNL     1      -5.463   6.900  17.296  1.00  0.00     0.020 A 
ATOM     70  C   UNL     1      -6.630   6.136  17.230  1.00  0.00     0.054 A 
BRANCH  70  71
ATOM     71  S   UNL     1      -8.248   6.934  17.047  1.00  0.00     0.124 S 
ATOM     72  O   UNL     1      -8.611   6.566  15.680  1.00  0.00    -0.237 OA
ATOM     73  O   UNL     1      -9.037   6.300  18.099  1.00  0.00    -0.237 OA
ATOM     74  O   UNL     1      -7.961   8.352  17.254  1.00  0.00    -0.744 OA
ENDBRANCH  70  71
ENDBRANCH  51  65
BRANCH  52  75
ATOM     75  C   UNL     1       4.835   0.375  17.825  1.00  0.00    -0.014 A 
ATOM     76  C   UNL     1       5.106  -0.648  18.752  1.00  0.00     0.010 A 
ATOM     77  C   UNL     1       5.848   0.766  16.930  1.00  0.00     0.010 A 
ATOM     78  C   UNL     1       6.369  -1.246  18.802  1.00  0.00     0.020 A 
ATOM     79  C   UNL     1       7.102   0.148  16.955  1.00  0.00     0.020 A 
ATOM     80  C   UNL     1       7.359  -0.845  17.901  1.00  0.00     0.054 A 
BRANCH  80  81
ATOM     81  S   UNL     1       8.978  -1.664  17.958  1.00  0.00     0.124 S 
ATOM     82  O   UNL     1       9.540  -1.140  19.199  1.00  0.00    -0.237 OA
ATOM     83  O   UNL     1       8.614  -3.078  17.974  1.00  0.00    -0.237 OA
ATOM     84  O   UNL     1       9.634  -1.210  16.733  1.00  0.00    -0.744 OA
ENDBRANCH  80  81
ENDBRANCH  52  75
BRANCH  64  85
ATOM     85  C   UNL     1       1.265   4.387  22.276  1.00  0.00    -0.014 A 
ATOM     86  C   UNL     1       2.280   5.329  22.517  1.00  0.00     0.010 A 
ATOM     87  C   UNL     1       0.502   3.906  23.356  1.00  0.00     0.010 A 
ATOM     88  C   UNL     1       2.565   5.738  23.822  1.00  0.00     0.020 A 
ATOM     89  C   UNL     1       0.758   4.342  24.657  1.00  0.00     0.020 A 
ATOM     90  C   UNL     1       1.805   5.238  24.883  1.00  0.00     0.054 A 
BRANCH  90  91
ATOM     91  S   UNL     1       2.189   5.790  26.566  1.00  0.00     0.124 S 
ATOM     92  O   UNL     1       3.441   5.088  26.836  1.00  0.00    -0.237 OA
ATOM     93  O   UNL     1       2.300   7.238  26.410  1.00  0.00    -0.237 OA
ATOM     94  O   UNL     1       1.040   5.340  27.349  1.00  0.00    -0.744 OA
ENDBRANCH  90  91
ENDBRANCH  64  85
ENDBRANCH  38  39
ENDBRANCH  30  33
ENDBRANCH  28  29
ENDBRANCH  27  28
ENDBRANCH   1  27
TORSDOF 19
