REMARK SMILES CC(=O)NS(=O)(=O)c1cc(-c2ccn(C(F)F)c(=O)c2)ccc1C(=O)NCCCCNC(=O)c1ccc(-c2c3nc(c(-c4ccc(S(=O)(=O)[O-])cc4)c4ccc([nH]4)c(-c4ccc(S(=O)(=O)[O-])cc4)c4nc(c(-c5ccc(S(=O)(=O)[O-])cc5)c5ccc2[nH]5)C=C4)C=C3)cc1
REMARK SMILES IDX 29 1 28 2 27 3 26 4 24 5 25 6 23 8 8 9 9 10 10 11 22 12
REMARK SMILES IDX 21 13 5 14 6 15 7 16 4 17 1 18 2 19 3 20 11 22 12 23 20 24
REMARK SMILES IDX 13 25 18 26 14 27 19 28 15 29 16 30 17 31 30 32 31 33 32 34
REMARK SMILES IDX 33 36 34 37 35 38 93 39 36 40 92 41 37 42 38 43 39 44 86 45
REMARK SMILES IDX 40 46 91 47 85 48 87 49 41 50 90 51 84 52 83 53 42 55 72 56
REMARK SMILES IDX 53 57 71 58 54 59 57 60 70 61 88 62 55 63 56 64 69 66 89 67
REMARK SMILES IDX 58 68 43 69 44 70 52 71 45 72 51 73 46 74 47 75 48 76 49 77
REMARK SMILES IDX 50 78 73 79 74 80 82 81 75 82 81 83 76 84 77 85 78 86 79 87
REMARK SMILES IDX 80 88 59 89 60 90 68 91 61 92 67 93 62 94 63 95 64 96 65 97
REMARK SMILES IDX 66 98
REMARK H PARENT 26 7 4 21 31 35 87 54 57 65
REMARK Flexibility Score: inf
ROOT
ATOM      1  C   UNL     1       1.185   5.599  -3.352  1.00  0.00     0.023 C 
ENDROOT
BRANCH   1   2
ATOM      2  C   UNL     1       1.305   4.260  -2.621  1.00  0.00     0.023 C 
BRANCH   2   3
ATOM      3  C   UNL     1       2.182   4.300  -1.365  1.00  0.00     0.116 C 
BRANCH   3   4
ATOM      4  N   UNL     1       1.350   4.514  -0.196  1.00  0.00    -0.352 N 
ATOM      5  C   UNL     1       1.070   3.720   0.877  1.00  0.00     0.252 C 
ATOM      6  O   UNL     1       0.281   4.112   1.737  1.00  0.00    -0.269 OA
ATOM      7  H   UNL     1       0.907   5.393  -0.172  1.00  0.00     0.163 HD
BRANCH   5   8
ATOM      8  C   UNL     1       1.753   2.435   1.139  1.00  0.00     0.060 A 
ATOM      9  C   UNL     1       1.525   1.235   0.458  1.00  0.00     0.101 A 
ATOM     10  C   UNL     1       1.986   0.022   1.000  1.00  0.00     0.031 A 
ATOM     11  C   UNL     1       2.603  -0.012   2.257  1.00  0.00    -0.017 A 
ATOM     12  C   UNL     1       2.475   2.401   2.348  1.00  0.00     0.016 A 
ATOM     13  C   UNL     1       2.888   1.188   2.909  1.00  0.00     0.009 A 
BRANCH   9  14
ATOM     14  S   UNL     1       0.555   1.171  -1.014  1.00  0.00     0.264 S 
ATOM     15  O   UNL     1       1.488   1.289  -2.110  1.00  0.00    -0.201 OA
ATOM     16  O   UNL     1      -0.596   2.027  -0.869  1.00  0.00    -0.201 OA
BRANCH  14  17
ATOM     17  N   UNL     1       0.003  -0.393  -1.113  1.00  0.00    -0.249 N 
ATOM     18  C   UNL     1      -1.700  -0.370   0.720  1.00  0.00     0.115 C 
ATOM     19  C   UNL     1      -1.167  -0.934  -0.565  1.00  0.00     0.230 C 
ATOM     20  O   UNL     1      -1.642  -1.938  -1.079  1.00  0.00    -0.274 OA
ATOM     21  H   UNL     1       0.569  -1.017  -1.622  1.00  0.00     0.183 HD
ENDBRANCH  14  17
ENDBRANCH   9  14
BRANCH  11  22
ATOM     22  C   UNL     1       2.705  -1.305   2.960  1.00  0.00    -0.011 A 
ATOM     23  C   UNL     1       1.763  -1.648   4.012  1.00  0.00     0.027 A 
ATOM     24  C   UNL     1       3.586  -2.231   2.547  1.00  0.00     0.080 A 
ATOM     25  C   UNL     1       1.726  -2.883   4.521  1.00  0.00     0.095 A 
ATOM     26  C   UNL     1       3.581  -3.605   3.134  1.00  0.00     0.255 A 
ATOM     27  N   UNL     1       2.602  -3.857   4.084  1.00  0.00    -0.258 N 
ATOM     28  O   UNL     1       4.405  -4.418   2.729  1.00  0.00    -0.269 OA
BRANCH  27  29
ATOM     29  C   UNL     1       2.518  -5.197   4.607  1.00  0.00     0.451 C 
ATOM     30  F   UNL     1       2.289  -6.094   3.617  1.00  0.00    -0.185 F 
ATOM     31  F   UNL     1       3.663  -5.550   5.240  1.00  0.00    -0.185 F 
ENDBRANCH  27  29
ENDBRANCH  11  22
ENDBRANCH   5   8
ENDBRANCH   3   4
ENDBRANCH   2   3
ENDBRANCH   1   2
BRANCH   1  32
ATOM     32  C   UNL     1       2.395   5.931  -4.226  1.00  0.00     0.116 C 
BRANCH  32  33
ATOM     33  N   UNL     1       2.583   4.957  -5.294  1.00  0.00    -0.352 N 
ATOM     34  C   UNL     1       2.640   5.132  -6.653  1.00  0.00     0.251 C 
ATOM     35  H   UNL     1       2.687   4.025  -4.992  1.00  0.00     0.163 HD
ATOM     36  O   UNL     1       2.607   4.156  -7.397  1.00  0.00    -0.269 OA
BRANCH  34  37
ATOM     37  C   UNL     1       2.728   6.489  -7.225  1.00  0.00     0.039 A 
ATOM     38  C   UNL     1       1.899   6.822  -8.301  1.00  0.00     0.014 A 
ATOM     39  C   UNL     1       3.644   7.418  -6.724  1.00  0.00     0.014 A 
ATOM     40  C   UNL     1       1.935   8.114  -8.829  1.00  0.00     0.010 A 
ATOM     41  C   UNL     1       3.655   8.715  -7.229  1.00  0.00     0.010 A 
ATOM     42  C   UNL     1       2.790   9.077  -8.273  1.00  0.00    -0.014 A 
BRANCH  42  43
ATOM     43  C   UNL     1       2.788  10.481  -8.739  1.00  0.00     0.031 A 
ATOM     44  C   UNL     1       3.991  11.045  -9.428  1.00  0.00     0.074 A 
ATOM     45  C   UNL     1       1.751  11.283  -8.437  1.00  0.00     0.049 A 
ATOM     46  N   UNL     1       4.311  12.297  -9.623  1.00  0.00    -0.248 NA
ATOM     47  C   UNL     1       4.978  10.076  -9.929  1.00  0.00     0.031 C 
ATOM     48  C   UNL     1       0.530  10.874  -7.741  1.00  0.00     0.029 A 
ATOM     49  N   UNL     1       1.576  12.624  -8.662  1.00  0.00    -0.354 N 
ATOM     50  C   UNL     1       5.583  12.273 -10.177  1.00  0.00     0.074 A 
ATOM     51  C   UNL     1       5.942  10.880 -10.356  1.00  0.00     0.031 C 
ATOM     52  C   UNL     1      -0.272  11.942  -7.601  1.00  0.00     0.029 A 
ATOM     53  C   UNL     1       0.393  13.112  -8.168  1.00  0.00     0.049 A 
ATOM     54  H   UNL     1       2.236  13.184  -9.132  1.00  0.00     0.167 HD
ATOM     55  C   UNL     1       6.395  13.320 -10.459  1.00  0.00     0.031 A 
ATOM     56  C   UNL     1      -0.095  14.365  -8.152  1.00  0.00     0.031 A 
ATOM     57  C   UNL     1       6.016  14.699 -10.325  1.00  0.00     0.049 A 
ATOM     58  C   UNL     1       0.727  15.485  -8.711  1.00  0.00     0.074 A 
ATOM     59  C   UNL     1       6.787  15.837 -10.483  1.00  0.00     0.029 A 
ATOM     60  N   UNL     1       4.727  15.125 -10.045  1.00  0.00    -0.354 N 
ATOM     61  N   UNL     1       1.972  15.460  -9.117  1.00  0.00    -0.248 NA
ATOM     62  C   UNL     1       0.080  16.800  -8.810  1.00  0.00     0.031 C 
ATOM     63  C   UNL     1       5.949  16.955 -10.339  1.00  0.00     0.029 A 
ATOM     64  C   UNL     1       4.662  16.506 -10.088  1.00  0.00     0.049 A 
ATOM     65  H   UNL     1       3.968  14.531  -9.845  1.00  0.00     0.167 HD
ATOM     66  C   UNL     1       2.271  16.761  -9.495  1.00  0.00     0.074 A 
ATOM     67  C   UNL     1       1.064  17.542  -9.303  1.00  0.00     0.031 C 
ATOM     68  C   UNL     1       3.451  17.266  -9.931  1.00  0.00     0.031 A 
BRANCH  55  69
ATOM     69  C   UNL     1       7.793  12.974 -10.873  1.00  0.00    -0.014 A 
ATOM     70  C   UNL     1       8.114  12.742 -12.220  1.00  0.00     0.010 A 
ATOM     71  C   UNL     1       8.780  12.811  -9.884  1.00  0.00     0.010 A 
ATOM     72  C   UNL     1       9.394  12.299 -12.569  1.00  0.00     0.020 A 
ATOM     73  C   UNL     1      10.059  12.373 -10.230  1.00  0.00     0.020 A 
ATOM     74  C   UNL     1      10.350  12.096 -11.569  1.00  0.00     0.054 A 
BRANCH  74  75
ATOM     75  S   UNL     1      11.996  11.457 -11.985  1.00  0.00     0.124 S 
ATOM     76  O   UNL     1      11.889  10.062 -11.567  1.00  0.00    -0.237 OA
ATOM     77  O   UNL     1      12.093  11.670 -13.427  1.00  0.00    -0.237 OA
ATOM     78  O   UNL     1      12.882  12.289 -11.175  1.00  0.00    -0.744 OA
ENDBRANCH  74  75
ENDBRANCH  55  69
BRANCH  56  79
ATOM     79  C   UNL     1      -1.436  14.608  -7.571  1.00  0.00    -0.014 A 
ATOM     80  C   UNL     1      -2.582  14.478  -8.374  1.00  0.00     0.010 A 
ATOM     81  C   UNL     1      -1.575  14.879  -6.200  1.00  0.00     0.010 A 
ATOM     82  C   UNL     1      -3.853  14.601  -7.811  1.00  0.00     0.020 A 
ATOM     83  C   UNL     1      -2.846  14.998  -5.634  1.00  0.00     0.020 A 
ATOM     84  C   UNL     1      -3.978  14.857  -6.443  1.00  0.00     0.054 A 
BRANCH  84  85
ATOM     85  S   UNL     1      -5.624  14.909  -5.680  1.00  0.00     0.124 S 
ATOM     86  O   UNL     1      -5.887  16.343  -5.625  1.00  0.00    -0.237 OA
ATOM     87  O   UNL     1      -6.452  14.152  -6.617  1.00  0.00    -0.237 OA
ATOM     88  O   UNL     1      -5.405  14.255  -4.392  1.00  0.00    -0.744 OA
ENDBRANCH  84  85
ENDBRANCH  56  79
BRANCH  68  89
ATOM     89  C   UNL     1       3.483  18.732 -10.240  1.00  0.00    -0.014 A 
ATOM     90  C   UNL     1       3.815  19.659  -9.236  1.00  0.00     0.010 A 
ATOM     91  C   UNL     1       3.187  19.188 -11.535  1.00  0.00     0.010 A 
ATOM     92  C   UNL     1       3.831  21.027  -9.519  1.00  0.00     0.020 A 
ATOM     93  C   UNL     1       3.200  20.555 -11.820  1.00  0.00     0.020 A 
ATOM     94  C   UNL     1       3.510  21.467 -10.807  1.00  0.00     0.054 A 
BRANCH  94  95
ATOM     95  S   UNL     1       3.547  23.243 -11.180  1.00  0.00     0.124 S 
ATOM     96  O   UNL     1       2.176  23.643 -10.878  1.00  0.00    -0.237 OA
ATOM     97  O   UNL     1       4.566  23.756 -10.267  1.00  0.00    -0.237 OA
ATOM     98  O   UNL     1       3.915  23.280 -12.594  1.00  0.00    -0.744 OA
ENDBRANCH  94  95
ENDBRANCH  68  89
ENDBRANCH  42  43
ENDBRANCH  34  37
ENDBRANCH  32  33
ENDBRANCH   1  32
TORSDOF 18
