REMARK SMILES C[N@H+]1[C@H](C(=O)NCCCCNC(=O)c2ccc(-c3c4nc(c(-c5ccc(S(=O)(=O)[O-])cc5)c5ccc([nH]5)c(-c5ccc(S(=O)(=O)[O-])cc5)c5nc(c(-c6ccc(S(=O)(=O)[O-])cc6)c6ccc3[nH]6)C=C5)C=C4)cc2)C[C@H](C(=O)NCC2(CO)CCCC2)[C@@H]1c1ccccc1F
REMARK SMILES IDX 7 1 6 2 4 3 5 4 3 6 1 7 2 8 87 9 74 11 75 12 88 13 89 14
REMARK SMILES IDX 93 15 90 16 92 17 94 18 91 19 76 20 77 21 78 22 79 24 80 25
REMARK SMILES IDX 83 26 86 27 84 28 85 29 81 30 82 31 8 33 9 34 10 35 11 36
REMARK SMILES IDX 12 37 13 39 14 40 15 41 73 42 16 43 72 44 17 45 18 46 19 47
REMARK SMILES IDX 66 48 20 49 71 50 65 51 67 52 21 53 70 54 64 55 63 56 22 58
REMARK SMILES IDX 52 59 33 60 51 61 34 62 37 63 50 64 68 65 35 66 36 67 49 69
REMARK SMILES IDX 69 70 38 71 23 72 24 73 32 74 25 75 31 76 26 77 27 78 28 79
REMARK SMILES IDX 29 80 30 81 53 82 54 83 62 84 55 85 61 86 56 87 57 88 58 89
REMARK SMILES IDX 59 90 60 91 39 92 40 93 48 94 41 95 47 96 42 97 43 98 44 99
REMARK SMILES IDX 45 100 46 101
REMARK H PARENT 6 5 2 10 78 23 82 32 11 38 67 57 37 68
REMARK Flexibility Score: inf
ROOT
ATOM      1  C   UNL     1      -0.004   1.423  -2.831  1.00  0.00     0.116 C 
ENDROOT
BRANCH   1   2
ATOM      2  N   UNL     1      -0.452   2.447  -1.911  1.00  0.00    -0.351 N 
ATOM      3  C   UNL     1      -0.561   2.385  -0.550  1.00  0.00     0.278 C 
ATOM      4  O   UNL     1      -0.937   3.401   0.046  1.00  0.00    -0.268 OA
ATOM      5  H   UNL     1      -0.714   3.303  -2.320  1.00  0.00     0.163 HD
BRANCH   3   6
ATOM      6  C   UNL     1      -0.164   1.128   0.248  1.00  0.00     0.275 C 
ATOM      7  C   UNL     1      -2.208  -0.160   0.391  1.00  0.00     0.333 C 
ATOM      8  N   UNL     1      -0.876  -0.083  -0.203  1.00  0.00    -0.320 N 
ATOM      9  C   UNL     1       0.005  -1.223   0.115  1.00  0.00     0.231 C 
ATOM     10  H   UNL     1      -1.057  -0.078  -1.207  1.00  0.00     0.349 HD
ATOM     11  C   UNL     1       1.323   0.807   0.154  1.00  0.00     0.095 C 
ATOM     12  C   UNL     1       1.435  -0.693  -0.171  1.00  0.00     0.148 C 
BRANCH   9  13
ATOM     13  C   UNL     1      -0.310  -2.571  -0.500  1.00  0.00     0.046 A 
ATOM     14  C   UNL     1       0.355  -3.707   0.005  1.00  0.00     0.013 A 
ATOM     15  C   UNL     1      -1.157  -2.756  -1.602  1.00  0.00     0.132 A 
ATOM     16  C   UNL     1       0.190  -4.964  -0.582  1.00  0.00     0.001 A 
ATOM     17  C   UNL     1      -1.333  -4.012  -2.183  1.00  0.00     0.040 A 
ATOM     18  F   UNL     1      -1.815  -1.728  -2.156  1.00  0.00    -0.206 F 
ATOM     19  C   UNL     1      -0.653  -5.117  -1.680  1.00  0.00     0.003 A 
ENDBRANCH   9  13
BRANCH  12  20
ATOM     20  C   UNL     1       2.023  -0.930  -1.575  1.00  0.00     0.229 C 
ATOM     21  O   UNL     1       1.481  -1.589  -2.458  1.00  0.00    -0.275 OA
ATOM     22  N   UNL     1       3.246  -0.408  -1.879  1.00  0.00    -0.355 N 
ATOM     23  H   UNL     1       3.526  -0.527  -2.815  1.00  0.00     0.163 HD
BRANCH  22  24
ATOM     24  C   UNL     1       4.199   0.292  -1.044  1.00  0.00     0.125 C 
BRANCH  24  25
ATOM     25  C   UNL     1       5.604  -0.331  -1.113  1.00  0.00     0.011 C 
ATOM     26  C   UNL     1       6.433   0.111   0.105  1.00  0.00     0.011 C 
ATOM     27  C   UNL     1       5.566  -1.858  -0.921  1.00  0.00     0.011 C 
ATOM     28  C   UNL     1       7.500  -0.965   0.275  1.00  0.00     0.001 C 
ATOM     29  C   UNL     1       6.939  -2.229  -0.371  1.00  0.00     0.001 C 
BRANCH  25  30
ATOM     30  C   UNL     1       6.308   0.069  -2.428  1.00  0.00     0.164 C 
BRANCH  30  31
ATOM     31  O   UNL     1       5.556  -0.348  -3.562  1.00  0.00    -0.396 OA
ATOM     32  H   UNL     1       5.466  -1.314  -3.553  1.00  0.00     0.210 HD
ENDBRANCH  30  31
ENDBRANCH  25  30
ENDBRANCH  24  25
ENDBRANCH  22  24
ENDBRANCH  12  20
ENDBRANCH   3   6
ENDBRANCH   1   2
BRANCH   1  33
ATOM     33  C   UNL     1      -1.022   1.071  -3.904  1.00  0.00     0.023 C 
BRANCH  33  34
ATOM     34  C   UNL     1      -1.280   2.173  -4.925  1.00  0.00     0.023 C 
BRANCH  34  35
ATOM     35  C   UNL     1      -0.039   2.727  -5.619  1.00  0.00     0.116 C 
BRANCH  35  36
ATOM     36  N   UNL     1       0.720   1.720  -6.349  1.00  0.00    -0.352 N 
ATOM     37  C   UNL     1       1.131   1.727  -7.663  1.00  0.00     0.251 C 
ATOM     38  H   UNL     1       0.975   0.924  -5.830  1.00  0.00     0.163 HD
ATOM     39  O   UNL     1       1.684   0.746  -8.150  1.00  0.00    -0.269 OA
BRANCH  37  40
ATOM     40  C   UNL     1       0.857   2.912  -8.502  1.00  0.00     0.039 A 
ATOM     41  C   UNL     1       0.194   2.736  -9.719  1.00  0.00     0.014 A 
ATOM     42  C   UNL     1       1.190   4.194  -8.058  1.00  0.00     0.014 A 
ATOM     43  C   UNL     1      -0.233   3.853 -10.439  1.00  0.00     0.010 A 
ATOM     44  C   UNL     1       0.705   5.306  -8.742  1.00  0.00     0.010 A 
ATOM     45  C   UNL     1      -0.035   5.145  -9.924  1.00  0.00    -0.014 A 
BRANCH  45  46
ATOM     46  C   UNL     1      -0.657   6.334 -10.562  1.00  0.00     0.031 A 
ATOM     47  C   UNL     1       0.197   7.426 -11.141  1.00  0.00     0.074 A 
ATOM     48  C   UNL     1      -1.999   6.470 -10.532  1.00  0.00     0.049 A 
ATOM     49  N   UNL     1      -0.170   8.575 -11.649  1.00  0.00    -0.248 NA
ATOM     50  C   UNL     1       1.652   7.210 -11.129  1.00  0.00     0.031 C 
ATOM     51  C   UNL     1      -2.937   5.501  -9.958  1.00  0.00     0.029 A 
ATOM     52  N   UNL     1      -2.807   7.486 -10.978  1.00  0.00    -0.354 N 
ATOM     53  C   UNL     1       1.005   9.225 -12.003  1.00  0.00     0.074 A 
ATOM     54  C   UNL     1       2.099   8.359 -11.617  1.00  0.00     0.031 C 
ATOM     55  C   UNL     1      -4.190   5.961 -10.103  1.00  0.00     0.029 A 
ATOM     56  C   UNL     1      -4.144   7.275 -10.736  1.00  0.00     0.049 A 
ATOM     57  H   UNL     1      -2.462   8.290 -11.430  1.00  0.00     0.167 HD
ATOM     58  C   UNL     1       1.159  10.428 -12.606  1.00  0.00     0.031 A 
ATOM     59  C   UNL     1      -5.215   8.055 -10.978  1.00  0.00     0.031 A 
ATOM     60  C   UNL     1       0.070  11.286 -12.992  1.00  0.00     0.049 A 
ATOM     61  C   UNL     1      -5.016   9.398 -11.623  1.00  0.00     0.074 A 
ATOM     62  C   UNL     1       0.124  12.493 -13.669  1.00  0.00     0.029 A 
ATOM     63  N   UNL     1      -1.269  11.037 -12.728  1.00  0.00    -0.354 N 
ATOM     64  N   UNL     1      -3.900   9.964 -12.016  1.00  0.00    -0.248 NA
ATOM     65  C   UNL     1      -6.220  10.208 -11.856  1.00  0.00     0.031 C 
ATOM     66  C   UNL     1      -1.177  12.998 -13.768  1.00  0.00     0.029 A 
ATOM     67  C   UNL     1      -2.047  12.082 -13.198  1.00  0.00     0.049 A 
ATOM     68  H   UNL     1      -1.615  10.235 -12.274  1.00  0.00     0.167 HD
ATOM     69  C   UNL     1      -4.268  11.191 -12.553  1.00  0.00     0.074 A 
ATOM     70  C   UNL     1      -5.711  11.277 -12.455  1.00  0.00     0.031 C 
ATOM     71  C   UNL     1      -3.481  12.162 -13.079  1.00  0.00     0.031 A 
BRANCH  58  72
ATOM     72  C   UNL     1       2.564  10.894 -12.878  1.00  0.00    -0.014 A 
ATOM     73  C   UNL     1       3.346  10.292 -13.880  1.00  0.00     0.010 A 
ATOM     74  C   UNL     1       3.095  11.977 -12.153  1.00  0.00     0.010 A 
ATOM     75  C   UNL     1       4.647  10.738 -14.126  1.00  0.00     0.020 A 
ATOM     76  C   UNL     1       4.387  12.442 -12.413  1.00  0.00     0.020 A 
ATOM     77  C   UNL     1       5.161  11.808 -13.387  1.00  0.00     0.054 A 
BRANCH  77  78
ATOM     78  S   UNL     1       6.845  12.381 -13.742  1.00  0.00     0.124 S 
ATOM     79  O   UNL     1       7.655  11.322 -13.143  1.00  0.00    -0.237 OA
ATOM     80  O   UNL     1       6.866  12.436 -15.202  1.00  0.00    -0.237 OA
ATOM     81  O   UNL     1       6.920  13.677 -13.072  1.00  0.00    -0.744 OA
ENDBRANCH  77  78
ENDBRANCH  58  72
BRANCH  59  82
ATOM     82  C   UNL     1      -6.575   7.586 -10.599  1.00  0.00    -0.014 A 
ATOM     83  C   UNL     1      -7.495   7.195 -11.588  1.00  0.00     0.010 A 
ATOM     84  C   UNL     1      -6.952   7.511  -9.245  1.00  0.00     0.010 A 
ATOM     85  C   UNL     1      -8.771   6.749 -11.231  1.00  0.00     0.020 A 
ATOM     86  C   UNL     1      -8.218   7.042  -8.884  1.00  0.00     0.020 A 
ATOM     87  C   UNL     1      -9.124   6.673  -9.881  1.00  0.00     0.054 A 
BRANCH  87  88
ATOM     88  S   UNL     1     -10.765   6.037  -9.438  1.00  0.00     0.124 S 
ATOM     89  O   UNL     1     -11.626   7.170  -9.761  1.00  0.00    -0.237 OA
ATOM     90  O   UNL     1     -10.899   4.872 -10.309  1.00  0.00    -0.237 OA
ATOM     91  O   UNL     1     -10.638   5.730  -8.015  1.00  0.00    -0.744 OA
ENDBRANCH  87  88
ENDBRANCH  59  82
BRANCH  71  92
ATOM     92  C   UNL     1      -4.163  13.400 -13.593  1.00  0.00    -0.014 A 
ATOM     93  C   UNL     1      -4.687  14.357 -12.706  1.00  0.00     0.010 A 
ATOM     94  C   UNL     1      -4.235  13.635 -14.978  1.00  0.00     0.010 A 
ATOM     95  C   UNL     1      -5.294  15.516 -13.195  1.00  0.00     0.020 A 
ATOM     96  C   UNL     1      -4.819  14.805 -15.471  1.00  0.00     0.020 A 
ATOM     97  C   UNL     1      -5.356  15.733 -14.576  1.00  0.00     0.054 A 
BRANCH  97  98
ATOM     98  S   UNL     1      -6.105  17.269 -15.185  1.00  0.00     0.124 S 
ATOM     99  O   UNL     1      -7.529  17.012 -14.989  1.00  0.00    -0.237 OA
ATOM    100  O   UNL     1      -5.522  18.281 -14.308  1.00  0.00    -0.237 OA
ATOM    101  O   UNL     1      -5.670  17.336 -16.579  1.00  0.00    -0.744 OA
ENDBRANCH  97  98
ENDBRANCH  71  92
ENDBRANCH  45  46
ENDBRANCH  37  40
ENDBRANCH  35  36
ENDBRANCH  34  35
ENDBRANCH  33  34
ENDBRANCH   1  33
TORSDOF 20
