REMARK SMILES C[NH2+][C@]1(C(=O)NCCCCNC(=O)c2ccc(-c3c4nc(c(-c5ccc(S(=O)(=O)[O-])cc5)c5ccc([nH]5)c(-c5ccc(S(=O)(=O)[O-])cc5)c5nc(c(-c6ccc(S(=O)(=O)[O-])cc6)c6ccc3[nH]6)C=C5)C=C4)cc2)CCC[C@@H]1CCSc1cccc(Cl)c1
REMARK SMILES IDX 8 1 7 2 6 3 4 4 5 5 3 7 74 8 77 9 75 10 76 11 2 12 1 13
REMARK SMILES IDX 78 16 79 17 80 18 81 19 82 20 87 21 83 22 85 23 84 24 86 25
REMARK SMILES IDX 9 26 10 27 11 28 12 29 13 31 14 32 15 33 73 34 16 35 72 36
REMARK SMILES IDX 17 37 18 38 19 39 66 40 20 41 71 42 65 43 67 44 21 45 70 46
REMARK SMILES IDX 64 47 63 48 22 50 52 51 33 52 51 53 34 54 37 55 50 56 68 57
REMARK SMILES IDX 35 58 36 59 49 61 69 62 38 63 23 64 24 65 32 66 25 67 31 68
REMARK SMILES IDX 26 69 27 70 28 71 29 72 30 73 53 74 54 75 62 76 55 77 61 78
REMARK SMILES IDX 56 79 57 80 58 81 59 82 60 83 39 84 40 85 48 86 41 87 47 88
REMARK SMILES IDX 42 89 43 90 44 91 45 92 46 93
REMARK H PARENT 6 6 2 14 2 15 11 30 67 49 37 60
REMARK Flexibility Score: inf
ROOT
ATOM      1  C   UNL     1       0.734   1.632  -2.707  1.00  0.00     0.023 C 
ENDROOT
BRANCH   1   2
ATOM      2  C   UNL     1       0.656   0.103  -2.717  1.00  0.00     0.116 C 
BRANCH   2   3
ATOM      3  N   UNL     1       1.073  -0.457  -1.446  1.00  0.00    -0.351 N 
ATOM      4  C   UNL     1       0.416  -0.875  -0.329  1.00  0.00     0.281 C 
ATOM      5  O   UNL     1       1.177  -1.172   0.601  1.00  0.00    -0.268 OA
ATOM      6  H   UNL     1       2.050  -0.557  -1.375  1.00  0.00     0.163 HD
BRANCH   4   7
ATOM      7  C   UNL     1      -1.151  -1.064  -0.234  1.00  0.00     0.178 C 
ATOM      8  C   UNL     1      -1.941   0.171  -0.742  1.00  0.00     0.079 C 
ATOM      9  C   UNL     1      -1.653  -2.171  -1.208  1.00  0.00     0.061 C 
ATOM     10  C   UNL     1      -3.279  -0.345  -1.270  1.00  0.00     0.008 C 
ATOM     11  C   UNL     1      -3.142  -1.857  -1.411  1.00  0.00     0.011 C 
BRANCH   7  12
ATOM     12  N   UNL     1      -1.619  -1.169   1.179  1.00  0.00    -0.336 N 
ATOM     13  C   UNL     1      -1.132  -2.236   2.031  1.00  0.00     0.331 C 
ATOM     14  H   UNL     1      -1.371  -0.291   1.637  1.00  0.00     0.346 HD
ATOM     15  H   UNL     1      -2.611  -1.383   1.081  1.00  0.00     0.346 HD
ENDBRANCH   7  12
BRANCH   9  16
ATOM     16  C   UNL     1      -1.415  -3.631  -0.793  1.00  0.00     0.022 C 
BRANCH  16  17
ATOM     17  C   UNL     1      -1.711  -4.678  -1.875  1.00  0.00     0.075 C 
BRANCH  17  18
ATOM     18  S   UNL     1      -0.279  -5.098  -2.930  1.00  0.00    -0.126 SA
BRANCH  18  19
ATOM     19  C   UNL     1      -0.196  -3.772  -4.118  1.00  0.00     0.009 A 
ATOM     20  C   UNL     1      -1.321  -3.151  -4.671  1.00  0.00     0.015 A 
ATOM     21  C   UNL     1       1.075  -3.380  -4.555  1.00  0.00     0.035 A 
ATOM     22  C   UNL     1      -1.180  -2.117  -5.601  1.00  0.00     0.003 A 
ATOM     23  C   UNL     1       1.211  -2.365  -5.501  1.00  0.00     0.042 A 
ATOM     24  C   UNL     1       0.090  -1.721  -6.016  1.00  0.00     0.020 A 
ATOM     25  Cl  UNL     1       2.780  -1.891  -6.021  1.00  0.00    -0.084 Cl
ENDBRANCH  18  19
ENDBRANCH  17  18
ENDBRANCH  16  17
ENDBRANCH   9  16
ENDBRANCH   4   7
ENDBRANCH   2   3
ENDBRANCH   1   2
BRANCH   1  26
ATOM     26  C   UNL     1       2.154   2.201  -2.792  1.00  0.00     0.023 C 
BRANCH  26  27
ATOM     27  C   UNL     1       2.926   1.853  -4.062  1.00  0.00     0.116 C 
BRANCH  27  28
ATOM     28  N   UNL     1       2.250   2.274  -5.279  1.00  0.00    -0.352 N 
ATOM     29  C   UNL     1       2.805   2.680  -6.471  1.00  0.00     0.251 C 
ATOM     30  H   UNL     1       1.266   2.267  -5.246  1.00  0.00     0.163 HD
ATOM     31  O   UNL     1       2.087   3.094  -7.372  1.00  0.00    -0.269 OA
BRANCH  29  32
ATOM     32  C   UNL     1       4.275   2.654  -6.636  1.00  0.00     0.039 A 
ATOM     33  C   UNL     1       4.921   3.800  -7.107  1.00  0.00     0.014 A 
ATOM     34  C   UNL     1       5.014   1.516  -6.305  1.00  0.00     0.014 A 
ATOM     35  C   UNL     1       6.316   3.827  -7.181  1.00  0.00     0.010 A 
ATOM     36  C   UNL     1       6.406   1.562  -6.327  1.00  0.00     0.010 A 
ATOM     37  C   UNL     1       7.070   2.720  -6.758  1.00  0.00    -0.014 A 
BRANCH  37  38
ATOM     38  C   UNL     1       8.554   2.762  -6.734  1.00  0.00     0.031 A 
ATOM     39  C   UNL     1       9.355   1.867  -7.638  1.00  0.00     0.074 A 
ATOM     40  C   UNL     1       9.179   3.552  -5.838  1.00  0.00     0.049 A 
ATOM     41  N   UNL     1      10.654   1.724  -7.715  1.00  0.00    -0.248 NA
ATOM     42  C   UNL     1       8.599   1.004  -8.560  1.00  0.00     0.031 C 
ATOM     43  C   UNL     1       8.513   4.428  -4.871  1.00  0.00     0.029 A 
ATOM     44  N   UNL     1      10.516   3.736  -5.587  1.00  0.00    -0.354 N 
ATOM     45  C   UNL     1      10.871   0.744  -8.676  1.00  0.00     0.074 A 
ATOM     46  C   UNL     1       9.569   0.300  -9.127  1.00  0.00     0.031 C 
ATOM     47  C   UNL     1       9.444   5.067  -4.144  1.00  0.00     0.029 A 
ATOM     48  C   UNL     1      10.768   4.625  -4.568  1.00  0.00     0.049 A 
ATOM     49  H   UNL     1      11.227   3.276  -6.088  1.00  0.00     0.167 HD
ATOM     50  C   UNL     1      12.046   0.267  -9.150  1.00  0.00     0.031 A 
ATOM     51  C   UNL     1      11.933   5.034  -4.030  1.00  0.00     0.031 A 
ATOM     52  C   UNL     1      13.339   0.718  -8.708  1.00  0.00     0.049 A 
ATOM     53  C   UNL     1      13.226   4.501  -4.582  1.00  0.00     0.074 A 
ATOM     54  C   UNL     1      14.587   0.343  -9.175  1.00  0.00     0.029 A 
ATOM     55  N   UNL     1      13.552   1.640  -7.694  1.00  0.00    -0.354 N 
ATOM     56  N   UNL     1      13.411   3.629  -5.545  1.00  0.00    -0.248 NA
ATOM     57  C   UNL     1      14.466   5.016  -3.986  1.00  0.00     0.031 C 
ATOM     58  C   UNL     1      15.556   1.006  -8.414  1.00  0.00     0.029 A 
ATOM     59  C   UNL     1      14.911   1.832  -7.507  1.00  0.00     0.049 A 
ATOM     60  H   UNL     1      12.842   2.092  -7.183  1.00  0.00     0.167 HD
ATOM     61  C   UNL     1      14.789   3.509  -5.685  1.00  0.00     0.074 A 
ATOM     62  C   UNL     1      15.389   4.407  -4.719  1.00  0.00     0.031 C 
ATOM     63  C   UNL     1      15.494   2.727  -6.540  1.00  0.00     0.031 A 
BRANCH  50  64
ATOM     64  C   UNL     1      11.986  -0.806 -10.204  1.00  0.00    -0.014 A 
ATOM     65  C   UNL     1      11.566  -0.512 -11.515  1.00  0.00     0.010 A 
ATOM     66  C   UNL     1      12.393  -2.116  -9.893  1.00  0.00     0.010 A 
ATOM     67  C   UNL     1      11.514  -1.518 -12.483  1.00  0.00     0.020 A 
ATOM     68  C   UNL     1      12.366  -3.119 -10.867  1.00  0.00     0.020 A 
ATOM     69  C   UNL     1      11.910  -2.817 -12.152  1.00  0.00     0.054 A 
BRANCH  69  70
ATOM     70  S   UNL     1      11.853  -4.099 -13.434  1.00  0.00     0.124 S 
ATOM     71  O   UNL     1      10.419  -4.363 -13.531  1.00  0.00    -0.237 OA
ATOM     72  O   UNL     1      12.446  -3.427 -14.588  1.00  0.00    -0.237 OA
ATOM     73  O   UNL     1      12.651  -5.186 -12.873  1.00  0.00    -0.744 OA
ENDBRANCH  69  70
ENDBRANCH  50  64
BRANCH  51  74
ATOM     74  C   UNL     1      11.926   6.020  -2.916  1.00  0.00    -0.014 A 
ATOM     75  C   UNL     1      12.322   7.350  -3.141  1.00  0.00     0.010 A 
ATOM     76  C   UNL     1      11.499   5.640  -1.631  1.00  0.00     0.010 A 
ATOM     77  C   UNL     1      12.302   8.280  -2.098  1.00  0.00     0.020 A 
ATOM     78  C   UNL     1      11.455   6.574  -0.591  1.00  0.00     0.020 A 
ATOM     79  C   UNL     1      11.866   7.887  -0.830  1.00  0.00     0.054 A 
BRANCH  79  80
ATOM     80  S   UNL     1      11.788   9.126   0.493  1.00  0.00     0.124 S 
ATOM     81  O   UNL     1      13.195   9.276   0.852  1.00  0.00    -0.237 OA
ATOM     82  O   UNL     1      11.181  10.271  -0.180  1.00  0.00    -0.237 OA
ATOM     83  O   UNL     1      10.946   8.492   1.505  1.00  0.00    -0.744 OA
ENDBRANCH  79  80
ENDBRANCH  51  74
BRANCH  63  84
ATOM     84  C   UNL     1      16.994   2.825  -6.491  1.00  0.00    -0.014 A 
ATOM     85  C   UNL     1      17.727   2.259  -5.433  1.00  0.00     0.010 A 
ATOM     86  C   UNL     1      17.683   3.446  -7.549  1.00  0.00     0.010 A 
ATOM     87  C   UNL     1      19.122   2.336  -5.421  1.00  0.00     0.020 A 
ATOM     88  C   UNL     1      19.079   3.503  -7.552  1.00  0.00     0.020 A 
ATOM     89  C   UNL     1      19.790   2.958  -6.480  1.00  0.00     0.054 A 
BRANCH  89  90
ATOM     90  S   UNL     1      21.603   3.005  -6.466  1.00  0.00     0.124 S 
ATOM     91  O   UNL     1      21.872   4.048  -5.480  1.00  0.00    -0.237 OA
ATOM     92  O   UNL     1      21.957   1.648  -6.058  1.00  0.00    -0.237 OA
ATOM     93  O   UNL     1      21.951   3.345  -7.844  1.00  0.00    -0.744 OA
ENDBRANCH  89  90
ENDBRANCH  63  84
ENDBRANCH  37  38
ENDBRANCH  29  32
ENDBRANCH  27  28
ENDBRANCH  26  27
ENDBRANCH   1  26
TORSDOF 19
