REMARK SMILES CCc1c(C(=O)NCC(=O)NCCCCNC(=O)c2ccc(-c3c4nc(c(-c5ccc(S(=O)(=O)[O-])cc5)c5ccc([nH]5)c(-c5ccc(S(=O)(=O)[O-])cc5)c5nc(c(-c6ccc(S(=O)(=O)[O-])cc6)c6ccc3[nH]6)C=C5)C=C4)cc2)nnn1-c1ccc(Cl)cc1Cl
REMARK SMILES IDX 13 1 12 2 11 3 9 4 10 5 8 7 7 8 5 9 6 10 4 12 3 13 81 14
REMARK SMILES IDX 79 15 80 16 2 17 1 18 82 19 83 20 88 21 84 22 87 23 89 24
REMARK SMILES IDX 85 25 86 26 14 27 15 28 16 29 17 30 18 32 19 33 20 34 78 35
REMARK SMILES IDX 21 36 77 37 22 38 23 39 24 40 71 41 25 42 76 43 70 44 72 45
REMARK SMILES IDX 26 46 75 47 69 48 68 49 27 51 57 52 38 53 56 54 39 55 42 56
REMARK SMILES IDX 55 57 73 58 40 59 41 60 54 62 74 63 43 64 28 65 29 66 37 67
REMARK SMILES IDX 30 68 36 69 31 70 32 71 33 72 34 73 35 74 58 75 59 76 67 77
REMARK SMILES IDX 60 78 66 79 61 80 62 81 63 82 64 83 65 84 44 85 45 86 53 87
REMARK SMILES IDX 46 88 52 89 47 90 48 91 49 92 50 93 51 94
REMARK H PARENT 11 6 7 11 16 31 72 50 42 61
REMARK Flexibility Score: inf
ROOT
ATOM      1  C   UNL     1       2.682   5.514   2.572  1.00  0.00     0.023 C 
ENDROOT
BRANCH   1   2
ATOM      2  C   UNL     1       2.519   4.023   2.275  1.00  0.00     0.116 C 
BRANCH   2   3
ATOM      3  N   UNL     1       1.769   3.317   3.292  1.00  0.00    -0.355 N 
ATOM      4  C   UNL     1       0.456   2.984   3.392  1.00  0.00     0.239 C 
ATOM      5  O   UNL     1       0.140   2.292   4.368  1.00  0.00    -0.273 OA
ATOM      6  H   UNL     1       2.315   3.021   4.056  1.00  0.00     0.163 HD
BRANCH   4   7
ATOM      7  C   UNL     1      -0.613   3.296   2.327  1.00  0.00     0.216 C 
BRANCH   7   8
ATOM      8  N   UNL     1      -0.478   4.419   1.430  1.00  0.00    -0.342 N 
ATOM      9  C   UNL     1      -0.102   4.624   0.132  1.00  0.00     0.274 C 
ATOM     10  O   UNL     1      -0.320   5.782  -0.246  1.00  0.00    -0.267 OA
ATOM     11  H   UNL     1      -0.722   5.264   1.872  1.00  0.00     0.164 HD
BRANCH   9  12
ATOM     12  C   UNL     1       0.584   3.678  -0.766  1.00  0.00     0.174 A 
ATOM     13  C   UNL     1       0.874   2.304  -0.800  1.00  0.00     0.077 A 
ATOM     14  N   UNL     1       1.567   2.155  -2.005  1.00  0.00    -0.215 N 
ATOM     15  N   UNL     1       1.220   4.268  -1.845  1.00  0.00    -0.124 NA
ATOM     16  N   UNL     1       1.899   3.357  -2.505  1.00  0.00    -0.061 NA
BRANCH  13  17
ATOM     17  C   UNL     1       0.616   1.210   0.193  1.00  0.00     0.055 C 
ATOM     18  C   UNL     1       1.369  -0.106   0.128  1.00  0.00     0.011 C 
ENDBRANCH  13  17
BRANCH  14  19
ATOM     19  C   UNL     1       2.054   1.004  -2.649  1.00  0.00     0.085 A 
ATOM     20  C   UNL     1       3.441   0.903  -2.848  1.00  0.00     0.031 A 
ATOM     21  C   UNL     1       1.199  -0.023  -3.062  1.00  0.00     0.068 A 
ATOM     22  C   UNL     1       3.977  -0.281  -3.355  1.00  0.00     0.023 A 
ATOM     23  C   UNL     1       1.744  -1.203  -3.571  1.00  0.00     0.043 A 
ATOM     24  Cl  UNL     1      -0.523   0.126  -3.027  1.00  0.00    -0.082 Cl
ATOM     25  C   UNL     1       3.128  -1.334  -3.694  1.00  0.00     0.042 A 
ATOM     26  Cl  UNL     1       3.793  -2.806  -4.282  1.00  0.00    -0.084 Cl
ENDBRANCH  14  19
ENDBRANCH   9  12
ENDBRANCH   7   8
ENDBRANCH   4   7
ENDBRANCH   2   3
ENDBRANCH   1   2
BRANCH   1  27
ATOM     27  C   UNL     1       3.615   5.856   3.744  1.00  0.00     0.023 C 
BRANCH  27  28
ATOM     28  C   UNL     1       5.071   5.451   3.544  1.00  0.00     0.116 C 
BRANCH  28  29
ATOM     29  N   UNL     1       5.736   6.161   2.445  1.00  0.00    -0.352 N 
ATOM     30  C   UNL     1       7.023   5.958   1.954  1.00  0.00     0.251 C 
ATOM     31  H   UNL     1       5.209   6.865   2.002  1.00  0.00     0.163 HD
ATOM     32  O   UNL     1       7.614   6.827   1.341  1.00  0.00    -0.269 OA
BRANCH  30  33
ATOM     33  C   UNL     1       7.639   4.637   2.179  1.00  0.00     0.039 A 
ATOM     34  C   UNL     1       8.981   4.460   2.531  1.00  0.00     0.014 A 
ATOM     35  C   UNL     1       6.782   3.551   2.079  1.00  0.00     0.014 A 
ATOM     36  C   UNL     1       9.422   3.175   2.855  1.00  0.00     0.010 A 
ATOM     37  C   UNL     1       7.146   2.362   2.633  1.00  0.00     0.010 A 
ATOM     38  C   UNL     1       8.487   2.133   2.910  1.00  0.00    -0.014 A 
BRANCH  38  39
ATOM     39  C   UNL     1       8.828   0.770   3.290  1.00  0.00     0.031 A 
ATOM     40  C   UNL     1       9.358   0.608   4.668  1.00  0.00     0.074 A 
ATOM     41  C   UNL     1       8.392  -0.282   2.558  1.00  0.00     0.049 A 
ATOM     42  N   UNL     1      10.554   0.272   5.019  1.00  0.00    -0.248 NA
ATOM     43  C   UNL     1       8.496   0.998   5.797  1.00  0.00     0.031 C 
ATOM     44  C   UNL     1       7.538  -0.270   1.357  1.00  0.00     0.029 A 
ATOM     45  N   UNL     1       8.486  -1.607   2.827  1.00  0.00    -0.354 N 
ATOM     46  C   UNL     1      10.533   0.175   6.408  1.00  0.00     0.074 A 
ATOM     47  C   UNL     1       9.323   0.834   6.832  1.00  0.00     0.031 C 
ATOM     48  C   UNL     1       6.988  -1.491   1.176  1.00  0.00     0.029 A 
ATOM     49  C   UNL     1       7.598  -2.409   2.118  1.00  0.00     0.049 A 
ATOM     50  H   UNL     1       9.133  -1.974   3.473  1.00  0.00     0.167 HD
ATOM     51  C   UNL     1      11.370  -0.669   7.077  1.00  0.00     0.031 A 
ATOM     52  C   UNL     1       7.357  -3.729   2.318  1.00  0.00     0.031 A 
ATOM     53  C   UNL     1      12.387  -1.200   6.203  1.00  0.00     0.049 A 
ATOM     54  C   UNL     1       8.523  -4.263   3.066  1.00  0.00     0.074 A 
ATOM     55  C   UNL     1      13.390  -0.656   5.426  1.00  0.00     0.029 A 
ATOM     56  N   UNL     1      12.180  -2.473   5.717  1.00  0.00    -0.354 N 
ATOM     57  N   UNL     1       9.731  -4.294   2.573  1.00  0.00    -0.248 NA
ATOM     58  C   UNL     1       8.444  -4.299   4.518  1.00  0.00     0.031 C 
ATOM     59  C   UNL     1      13.379  -1.428   4.226  1.00  0.00     0.029 A 
ATOM     60  C   UNL     1      12.434  -2.447   4.370  1.00  0.00     0.049 A 
ATOM     61  H   UNL     1      11.901  -3.258   6.242  1.00  0.00     0.167 HD
ATOM     62  C   UNL     1      10.555  -3.910   3.623  1.00  0.00     0.074 A 
ATOM     63  C   UNL     1       9.718  -4.024   4.818  1.00  0.00     0.031 C 
ATOM     64  C   UNL     1      11.739  -3.265   3.396  1.00  0.00     0.031 A 
BRANCH  51  65
ATOM     65  C   UNL     1      11.033  -1.350   8.384  1.00  0.00    -0.014 A 
ATOM     66  C   UNL     1      12.002  -2.195   8.968  1.00  0.00     0.010 A 
ATOM     67  C   UNL     1       9.726  -1.427   8.905  1.00  0.00     0.010 A 
ATOM     68  C   UNL     1      11.655  -3.140   9.941  1.00  0.00     0.020 A 
ATOM     69  C   UNL     1       9.379  -2.335   9.908  1.00  0.00     0.020 A 
ATOM     70  C   UNL     1      10.337  -3.217  10.387  1.00  0.00     0.054 A 
BRANCH  70  71
ATOM     71  S   UNL     1       9.867  -4.536  11.533  1.00  0.00     0.124 S 
ATOM     72  O   UNL     1      10.050  -5.726  10.707  1.00  0.00    -0.237 OA
ATOM     73  O   UNL     1      10.829  -4.360  12.617  1.00  0.00    -0.237 OA
ATOM     74  O   UNL     1       8.483  -4.214  11.873  1.00  0.00    -0.744 OA
ENDBRANCH  70  71
ENDBRANCH  51  65
BRANCH  52  75
ATOM     75  C   UNL     1       6.060  -4.445   2.205  1.00  0.00    -0.014 A 
ATOM     76  C   UNL     1       5.998  -5.850   2.157  1.00  0.00     0.010 A 
ATOM     77  C   UNL     1       4.854  -3.746   2.427  1.00  0.00     0.010 A 
ATOM     78  C   UNL     1       4.786  -6.531   2.380  1.00  0.00     0.020 A 
ATOM     79  C   UNL     1       3.644  -4.416   2.647  1.00  0.00     0.020 A 
ATOM     80  C   UNL     1       3.620  -5.808   2.645  1.00  0.00     0.054 A 
BRANCH  80  81
ATOM     81  S   UNL     1       2.096  -6.691   3.104  1.00  0.00     0.124 S 
ATOM     82  O   UNL     1       1.716  -7.329   1.848  1.00  0.00    -0.237 OA
ATOM     83  O   UNL     1       2.555  -7.590   4.159  1.00  0.00    -0.237 OA
ATOM     84  O   UNL     1       1.203  -5.622   3.550  1.00  0.00    -0.744 OA
ENDBRANCH  80  81
ENDBRANCH  52  75
BRANCH  64  85
ATOM     85  C   UNL     1      12.265  -3.198   1.978  1.00  0.00    -0.014 A 
ATOM     86  C   UNL     1      11.604  -2.538   0.923  1.00  0.00     0.010 A 
ATOM     87  C   UNL     1      13.564  -3.684   1.750  1.00  0.00     0.010 A 
ATOM     88  C   UNL     1      12.217  -2.393  -0.332  1.00  0.00     0.020 A 
ATOM     89  C   UNL     1      14.187  -3.529   0.509  1.00  0.00     0.020 A 
ATOM     90  C   UNL     1      13.507  -2.893  -0.530  1.00  0.00     0.054 A 
BRANCH  90  91
ATOM     91  S   UNL     1      14.315  -2.674  -2.141  1.00  0.00     0.124 S 
ATOM     92  O   UNL     1      13.527  -3.543  -3.011  1.00  0.00    -0.237 OA
ATOM     93  O   UNL     1      14.171  -1.241  -2.385  1.00  0.00    -0.237 OA
ATOM     94  O   UNL     1      15.688  -3.119  -1.905  1.00  0.00    -0.744 OA
ENDBRANCH  90  91
ENDBRANCH  64  85
ENDBRANCH  38  39
ENDBRANCH  30  33
ENDBRANCH  28  29
ENDBRANCH  27  28
ENDBRANCH   1  27
TORSDOF 18
