REMARK SMILES O=C(CCCOc1ccc(Cl)cc1Cl)Nc1cccc(C(=O)NCCCCNC(=O)c2ccc(-c3c4nc(c(-c5ccc(S(=O)(=O)[O-])cc5)c5ccc([nH]5)c(-c5ccc(S(=O)(=O)[O-])cc5)c5nc(c(-c6ccc(S(=O)(=O)[O-])cc6)c6ccc3[nH]6)C=C5)C=C4)cc2)c1
REMARK SMILES IDX 24 1 23 2 21 3 22 4 20 6 16 7 17 8 91 9 18 10 19 11 15 12
REMARK SMILES IDX 1 13 2 14 3 16 4 17 5 18 6 19 7 20 8 21 13 22 9 23 12 24
REMARK SMILES IDX 14 25 10 26 11 27 25 28 26 29 27 30 28 31 29 32 30 34 31 35
REMARK SMILES IDX 32 36 90 37 33 38 89 39 34 40 35 41 36 42 83 43 37 44 88 45
REMARK SMILES IDX 82 46 84 47 38 48 87 49 81 50 80 51 39 53 69 54 50 55 68 56
REMARK SMILES IDX 51 57 54 58 67 59 85 60 52 61 53 62 66 64 86 65 55 66 40 67
REMARK SMILES IDX 41 68 49 69 42 70 48 71 43 72 44 73 45 74 46 75 47 76 70 77
REMARK SMILES IDX 71 78 79 79 72 80 78 81 73 82 74 83 75 84 76 85 77 86 56 87
REMARK SMILES IDX 57 88 65 89 58 90 64 91 59 92 60 93 61 94 62 95 63 96
REMARK H PARENT 23 5 15 15 28 33 84 52 54 63
REMARK Flexibility Score: inf
ROOT
ATOM      1  C   UNL     1       0.026   1.944   2.653  1.00  0.00     0.116 C 
ENDROOT
BRANCH   1   2
ATOM      2  N   UNL     1      -0.714   3.172   2.401  1.00  0.00    -0.352 N 
ATOM      3  C   UNL     1      -0.574   4.107   1.397  1.00  0.00     0.251 C 
ATOM      4  O   UNL     1      -1.293   5.103   1.387  1.00  0.00    -0.269 OA
ATOM      5  H   UNL     1      -1.427   3.367   3.052  1.00  0.00     0.163 HD
BRANCH   3   6
ATOM      6  C   UNL     1       0.486   3.970   0.367  1.00  0.00     0.041 A 
ATOM      7  C   UNL     1       1.959   2.579  -0.961  1.00  0.00     0.041 A 
ATOM      8  C   UNL     1       2.728   3.708  -1.264  1.00  0.00     0.026 A 
ATOM      9  C   UNL     1       0.790   2.737  -0.216  1.00  0.00     0.040 A 
ATOM     10  C   UNL     1       2.343   4.972  -0.806  1.00  0.00     0.003 A 
ATOM     11  C   UNL     1       1.233   5.101   0.028  1.00  0.00     0.014 A 
BRANCH   7  12
ATOM     12  N   UNL     1       2.483   1.306  -1.286  1.00  0.00    -0.326 N 
ATOM     13  O   UNL     1       0.622  -0.045  -1.058  1.00  0.00    -0.275 OA
ATOM     14  C   UNL     1       1.842   0.100  -1.090  1.00  0.00     0.224 C 
ATOM     15  H   UNL     1       3.382   1.278  -1.687  1.00  0.00     0.169 HD
BRANCH  14  16
ATOM     16  C   UNL     1       2.740  -1.074  -0.726  1.00  0.00     0.104 C 
BRANCH  16  17
ATOM     17  C   UNL     1       4.023  -1.288  -1.525  1.00  0.00     0.051 C 
BRANCH  17  18
ATOM     18  C   UNL     1       5.262  -0.572  -0.973  1.00  0.00     0.230 C 
BRANCH  18  19
ATOM     19  O   UNL     1       5.831  -1.260   0.150  1.00  0.00    -0.492 OA
BRANCH  19  20
ATOM     20  C   UNL     1       5.431  -0.781   1.368  1.00  0.00     0.137 A 
ATOM     21  C   UNL     1       4.700  -1.677   2.155  1.00  0.00     0.049 A 
ATOM     22  C   UNL     1       5.754   0.485   1.876  1.00  0.00     0.084 A 
ATOM     23  C   UNL     1       4.206  -1.280   3.398  1.00  0.00     0.024 A 
ATOM     24  C   UNL     1       5.264   0.880   3.124  1.00  0.00     0.045 A 
ATOM     25  Cl  UNL     1       6.792   1.580   1.035  1.00  0.00    -0.080 Cl
ATOM     26  C   UNL     1       4.484  -0.000   3.872  1.00  0.00     0.042 A 
ATOM     27  Cl  UNL     1       3.879   0.490   5.405  1.00  0.00    -0.084 Cl
ENDBRANCH  19  20
ENDBRANCH  18  19
ENDBRANCH  17  18
ENDBRANCH  16  17
ENDBRANCH  14  16
ENDBRANCH   7  12
ENDBRANCH   3   6
ENDBRANCH   1   2
BRANCH   1  28
ATOM     28  C   UNL     1       0.479   1.766   4.096  1.00  0.00     0.023 C 
BRANCH  28  29
ATOM     29  C   UNL     1      -0.621   1.644   5.144  1.00  0.00     0.023 C 
BRANCH  29  30
ATOM     30  C   UNL     1      -1.683   0.584   4.875  1.00  0.00     0.116 C 
BRANCH  30  31
ATOM     31  N   UNL     1      -1.145  -0.762   4.723  1.00  0.00    -0.352 N 
ATOM     32  C   UNL     1      -1.517  -1.933   5.342  1.00  0.00     0.251 C 
ATOM     33  H   UNL     1      -0.402  -0.846   4.082  1.00  0.00     0.163 HD
ATOM     34  O   UNL     1      -0.873  -2.956   5.148  1.00  0.00    -0.269 OA
BRANCH  32  35
ATOM     35  C   UNL     1      -2.670  -1.945   6.275  1.00  0.00     0.039 A 
ATOM     36  C   UNL     1      -2.530  -2.581   7.512  1.00  0.00     0.014 A 
ATOM     37  C   UNL     1      -3.871  -1.310   5.949  1.00  0.00     0.014 A 
ATOM     38  C   UNL     1      -3.558  -2.497   8.455  1.00  0.00     0.010 A 
ATOM     39  C   UNL     1      -4.860  -1.161   6.917  1.00  0.00     0.010 A 
ATOM     40  C   UNL     1      -4.713  -1.743   8.185  1.00  0.00    -0.014 A 
BRANCH  40  41
ATOM     41  C   UNL     1      -5.760  -1.530   9.219  1.00  0.00     0.031 A 
ATOM     42  C   UNL     1      -7.163  -2.029   8.995  1.00  0.00     0.074 A 
ATOM     43  C   UNL     1      -5.472  -0.809  10.323  1.00  0.00     0.049 A 
ATOM     44  N   UNL     1      -8.225  -1.865   9.742  1.00  0.00    -0.248 NA
ATOM     45  C   UNL     1      -7.412  -2.787   7.758  1.00  0.00     0.031 C 
ATOM     46  C   UNL     1      -4.168  -0.215  10.634  1.00  0.00     0.029 A 
ATOM     47  N   UNL     1      -6.262  -0.438  11.383  1.00  0.00    -0.354 N 
ATOM     48  C   UNL     1      -9.270  -2.471   9.055  1.00  0.00     0.074 A 
ATOM     49  C   UNL     1      -8.723  -2.974   7.814  1.00  0.00     0.031 C 
ATOM     50  C   UNL     1      -4.245   0.428  11.810  1.00  0.00     0.029 A 
ATOM     51  C   UNL     1      -5.608   0.326  12.322  1.00  0.00     0.049 A 
ATOM     52  H   UNL     1      -7.209  -0.695  11.464  1.00  0.00     0.167 HD
ATOM     53  C   UNL     1     -10.564  -2.612   9.429  1.00  0.00     0.031 A 
ATOM     54  C   UNL     1      -6.053   0.890  13.462  1.00  0.00     0.031 A 
ATOM     55  C   UNL     1     -11.101  -2.139  10.677  1.00  0.00     0.049 A 
ATOM     56  C   UNL     1      -7.487   0.692  13.870  1.00  0.00     0.074 A 
ATOM     57  C   UNL     1     -12.380  -2.306  11.179  1.00  0.00     0.029 A 
ATOM     58  N   UNL     1     -10.393  -1.411  11.620  1.00  0.00    -0.354 N 
ATOM     59  N   UNL     1      -8.439   0.043  13.242  1.00  0.00    -0.248 NA
ATOM     60  C   UNL     1      -7.905   1.290  15.146  1.00  0.00     0.031 C 
ATOM     61  C   UNL     1     -12.458  -1.641  12.407  1.00  0.00     0.029 A 
ATOM     62  C   UNL     1     -11.214  -1.104  12.692  1.00  0.00     0.049 A 
ATOM     63  H   UNL     1      -9.447  -1.150  11.539  1.00  0.00     0.167 HD
ATOM     64  C   UNL     1      -9.560   0.134  14.060  1.00  0.00     0.074 A 
ATOM     65  C   UNL     1      -9.165   0.885  15.233  1.00  0.00     0.031 C 
ATOM     66  C   UNL     1     -10.806  -0.361  13.856  1.00  0.00     0.031 A 
BRANCH  53  67
ATOM     67  C   UNL     1     -11.496  -3.311   8.476  1.00  0.00    -0.014 A 
ATOM     68  C   UNL     1     -11.411  -4.699   8.265  1.00  0.00     0.010 A 
ATOM     69  C   UNL     1     -12.511  -2.581   7.829  1.00  0.00     0.010 A 
ATOM     70  C   UNL     1     -12.303  -5.339   7.401  1.00  0.00     0.020 A 
ATOM     71  C   UNL     1     -13.420  -3.222   6.983  1.00  0.00     0.020 A 
ATOM     72  C   UNL     1     -13.302  -4.596   6.764  1.00  0.00     0.054 A 
BRANCH  72  73
ATOM     73  S   UNL     1     -14.471  -5.460   5.679  1.00  0.00     0.124 S 
ATOM     74  O   UNL     1     -13.648  -5.726   4.502  1.00  0.00    -0.237 OA
ATOM     75  O   UNL     1     -14.834  -6.634   6.469  1.00  0.00    -0.237 OA
ATOM     76  O   UNL     1     -15.544  -4.489   5.482  1.00  0.00    -0.744 OA
ENDBRANCH  72  73
ENDBRANCH  53  67
BRANCH  54  77
ATOM     77  C   UNL     1      -5.128   1.692  14.310  1.00  0.00    -0.014 A 
ATOM     78  C   UNL     1      -4.685   1.197  15.549  1.00  0.00     0.010 A 
ATOM     79  C   UNL     1      -4.689   2.958  13.882  1.00  0.00     0.010 A 
ATOM     80  C   UNL     1      -3.842   1.965  16.358  1.00  0.00     0.020 A 
ATOM     81  C   UNL     1      -3.824   3.717  14.676  1.00  0.00     0.020 A 
ATOM     82  C   UNL     1      -3.418   3.222  15.917  1.00  0.00     0.054 A 
BRANCH  82  83
ATOM     83  S   UNL     1      -2.293   4.187  16.964  1.00  0.00     0.124 S 
ATOM     84  O   UNL     1      -3.196   4.693  17.992  1.00  0.00    -0.237 OA
ATOM     85  O   UNL     1      -1.330   3.182  17.406  1.00  0.00    -0.237 OA
ATOM     86  O   UNL     1      -1.756   5.192  16.050  1.00  0.00    -0.744 OA
ENDBRANCH  82  83
ENDBRANCH  54  77
BRANCH  66  87
ATOM     87  C   UNL     1     -11.826  -0.139  14.940  1.00  0.00    -0.014 A 
ATOM     88  C   UNL     1     -12.402   1.125  15.150  1.00  0.00     0.010 A 
ATOM     89  C   UNL     1     -12.253  -1.228  15.722  1.00  0.00     0.010 A 
ATOM     90  C   UNL     1     -13.367   1.304  16.145  1.00  0.00     0.020 A 
ATOM     91  C   UNL     1     -13.236  -1.059  16.700  1.00  0.00     0.020 A 
ATOM     92  C   UNL     1     -13.777   0.210  16.915  1.00  0.00     0.054 A 
BRANCH  92  93
ATOM     93  S   UNL     1     -15.063   0.456  18.170  1.00  0.00     0.124 S 
ATOM     94  O   UNL     1     -14.322   1.127  19.235  1.00  0.00    -0.237 OA
ATOM     95  O   UNL     1     -16.044   1.282  17.470  1.00  0.00    -0.237 OA
ATOM     96  O   UNL     1     -15.508  -0.900  18.480  1.00  0.00    -0.744 OA
ENDBRANCH  92  93
ENDBRANCH  66  87
ENDBRANCH  40  41
ENDBRANCH  32  35
ENDBRANCH  30  31
ENDBRANCH  29  30
ENDBRANCH  28  29
ENDBRANCH   1  28
TORSDOF 20
