REMARK SMILES C[C@@H]1C[C@@H](C)CN(C(=O)Cn2cccc2C(=O)NCCCCNC(=O)c2ccc(-c3c4nc(c(-c5ccc(S(=O)(=O)[O-])cc5)c5ccc([nH]5)c(-c5ccc(S(=O)(=O)[O-])cc5)c5nc(c(-c6ccc(S(=O)(=O)[O-])cc6)c6ccc3[nH]6)C=C5)C=C4)cc2)C1
REMARK SMILES IDX 21 1 20 2 19 3 18 4 16 5 17 6 15 8 11 9 12 10 13 11 14 12
REMARK SMILES IDX 10 13 8 14 1 15 2 16 3 17 86 18 4 19 7 20 6 21 5 22 9 23
REMARK SMILES IDX 22 24 23 25 24 26 25 28 26 29 27 30 85 31 28 32 84 33 29 34
REMARK SMILES IDX 30 35 31 36 78 37 32 38 83 39 77 40 79 41 33 42 82 43 76 44
REMARK SMILES IDX 75 45 34 47 64 48 45 49 63 50 46 51 49 52 62 53 80 54 47 55
REMARK SMILES IDX 48 56 61 58 81 59 50 60 35 61 36 62 44 63 37 64 43 65 38 66
REMARK SMILES IDX 39 67 40 68 41 69 42 70 65 71 66 72 74 73 67 74 73 75 68 76
REMARK SMILES IDX 69 77 70 78 71 79 72 80 51 81 52 82 60 83 53 84 59 85 54 86
REMARK SMILES IDX 55 87 56 88 57 89 58 90
REMARK H PARENT 18 7 23 27 79 46 49 57
REMARK Flexibility Score: inf
ROOT
ATOM      1  C   UNL     1      -0.611   5.122  -2.517  1.00  0.00     0.023 C 
ENDROOT
BRANCH   1   2
ATOM      2  C   UNL     1      -0.450   4.979  -4.056  1.00  0.00     0.023 C 
BRANCH   2   3
ATOM      3  C   UNL     1       0.554   3.995  -4.674  1.00  0.00     0.116 C 
BRANCH   3   4
ATOM      4  N   UNL     1       0.500   2.713  -4.033  1.00  0.00    -0.351 N 
ATOM      5  C   UNL     1       0.829   1.497  -4.574  1.00  0.00     0.267 C 
ATOM      6  O   UNL     1      -0.015   0.730  -5.031  1.00  0.00    -0.268 OA
ATOM      7  H   UNL     1       0.192   2.705  -3.098  1.00  0.00     0.163 HD
BRANCH   5   8
ATOM      8  C   UNL     1       2.240   1.219  -4.530  1.00  0.00     0.107 A 
ATOM      9  N   UNL     1       3.190   1.799  -3.711  1.00  0.00    -0.334 N 
ATOM     10  C   UNL     1       4.381   1.779  -4.433  1.00  0.00     0.087 A 
ATOM     11  C   UNL     1       4.269   0.842  -5.433  1.00  0.00     0.020 A 
ATOM     12  C   UNL     1       2.931   0.395  -5.413  1.00  0.00     0.033 A 
BRANCH   9  13
ATOM     13  C   UNL     1       3.013   2.696  -2.553  1.00  0.00     0.222 C 
BRANCH  13  14
ATOM     14  C   UNL     1       2.412   2.329  -1.176  1.00  0.00     0.242 C 
ATOM     15  C   UNL     1       1.535  -0.406   1.104  1.00  0.00     0.009 C 
ATOM     16  C   UNL     1       0.421   0.637   1.193  1.00  0.00     0.006 C 
ATOM     17  C   UNL     1      -0.828   0.162   0.424  1.00  0.00     0.010 C 
ATOM     18  C   UNL     1       0.934   2.013   0.724  1.00  0.00     0.122 C 
ATOM     19  C   UNL     1      -0.659   0.331  -1.088  1.00  0.00     0.006 C 
ATOM     20  N   UNL     1       1.095   2.079  -0.748  1.00  0.00    -0.341 N 
ATOM     21  C   UNL     1      -0.239   1.777  -1.333  1.00  0.00     0.122 C 
ATOM     22  C   UNL     1      -1.951  -0.006  -1.841  1.00  0.00     0.009 C 
ATOM     23  O   UNL     1       3.258   2.505  -0.273  1.00  0.00    -0.273 OA
ENDBRANCH  13  14
ENDBRANCH   9  13
ENDBRANCH   5   8
ENDBRANCH   3   4
ENDBRANCH   2   3
ENDBRANCH   1   2
BRANCH   1  24
ATOM     24  C   UNL     1       0.547   5.642  -1.636  1.00  0.00     0.116 C 
BRANCH  24  25
ATOM     25  N   UNL     1       0.705   7.078  -1.767  1.00  0.00    -0.352 N 
ATOM     26  C   UNL     1       1.058   8.080  -0.894  1.00  0.00     0.251 C 
ATOM     27  H   UNL     1       0.519   7.406  -2.676  1.00  0.00     0.163 HD
ATOM     28  O   UNL     1       0.817   9.228  -1.279  1.00  0.00    -0.269 OA
BRANCH  26  29
ATOM     29  C   UNL     1       1.702   7.905   0.446  1.00  0.00     0.039 A 
ATOM     30  C   UNL     1       1.574   8.982   1.349  1.00  0.00     0.014 A 
ATOM     31  C   UNL     1       2.514   6.830   0.819  1.00  0.00     0.014 A 
ATOM     32  C   UNL     1       2.215   8.982   2.595  1.00  0.00     0.010 A 
ATOM     33  C   UNL     1       3.168   6.830   2.072  1.00  0.00     0.010 A 
ATOM     34  C   UNL     1       3.010   7.897   2.977  1.00  0.00    -0.014 A 
BRANCH  34  35
ATOM     35  C   UNL     1       3.475   7.808   4.400  1.00  0.00     0.031 A 
ATOM     36  C   UNL     1       2.429   7.150   5.330  1.00  0.00     0.074 A 
ATOM     37  C   UNL     1       4.697   8.325   4.745  1.00  0.00     0.049 A 
ATOM     38  N   UNL     1       2.340   7.155   6.628  1.00  0.00    -0.248 NA
ATOM     39  C   UNL     1       1.284   6.417   4.722  1.00  0.00     0.031 C 
ATOM     40  C   UNL     1       5.639   8.957   3.797  1.00  0.00     0.029 A 
ATOM     41  N   UNL     1       5.400   8.431   5.938  1.00  0.00    -0.354 N 
ATOM     42  C   UNL     1       1.264   6.309   6.987  1.00  0.00     0.074 A 
ATOM     43  C   UNL     1       0.610   5.941   5.770  1.00  0.00     0.031 C 
ATOM     44  C   UNL     1       6.738   9.418   4.439  1.00  0.00     0.029 A 
ATOM     45  C   UNL     1       6.644   9.115   5.856  1.00  0.00     0.049 A 
ATOM     46  H   UNL     1       5.061   8.057   6.783  1.00  0.00     0.167 HD
ATOM     47  C   UNL     1       1.021   5.872   8.258  1.00  0.00     0.031 A 
ATOM     48  C   UNL     1       7.537   9.437   6.845  1.00  0.00     0.031 A 
ATOM     49  C   UNL     1       1.901   6.491   9.184  1.00  0.00     0.049 A 
ATOM     50  C   UNL     1       7.069   8.775   8.072  1.00  0.00     0.074 A 
ATOM     51  C   UNL     1       1.976   7.744   9.730  1.00  0.00     0.029 A 
ATOM     52  N   UNL     1       3.047   5.802   9.489  1.00  0.00    -0.354 N 
ATOM     53  N   UNL     1       7.177   7.507   8.318  1.00  0.00    -0.248 NA
ATOM     54  C   UNL     1       6.467   9.590   9.136  1.00  0.00     0.031 C 
ATOM     55  C   UNL     1       3.353   7.925   9.982  1.00  0.00     0.029 A 
ATOM     56  C   UNL     1       4.029   6.742   9.667  1.00  0.00     0.049 A 
ATOM     57  H   UNL     1       3.146   4.825   9.565  1.00  0.00     0.167 HD
ATOM     58  C   UNL     1       6.317   7.336   9.372  1.00  0.00     0.074 A 
ATOM     59  C   UNL     1       6.187   8.627  10.010  1.00  0.00     0.031 C 
ATOM     60  C   UNL     1       5.373   6.367   9.297  1.00  0.00     0.031 A 
BRANCH  47  61
ATOM     61  C   UNL     1       0.184   4.728   8.778  1.00  0.00    -0.014 A 
ATOM     62  C   UNL     1      -0.058   4.689  10.178  1.00  0.00     0.010 A 
ATOM     63  C   UNL     1      -0.046   3.551   8.052  1.00  0.00     0.010 A 
ATOM     64  C   UNL     1      -0.361   3.498  10.842  1.00  0.00     0.020 A 
ATOM     65  C   UNL     1      -0.393   2.357   8.710  1.00  0.00     0.020 A 
ATOM     66  C   UNL     1      -0.487   2.328  10.104  1.00  0.00     0.054 A 
BRANCH  66  67
ATOM     67  S   UNL     1      -0.684   0.762  11.000  1.00  0.00     0.124 S 
ATOM     68  O   UNL     1       0.659   0.538  11.525  1.00  0.00    -0.237 OA
ATOM     69  O   UNL     1      -1.699   1.091  11.999  1.00  0.00    -0.237 OA
ATOM     70  O   UNL     1      -1.123  -0.170   9.964  1.00  0.00    -0.744 OA
ENDBRANCH  66  67
ENDBRANCH  47  61
BRANCH  48  71
ATOM     71  C   UNL     1       8.785  10.284   7.040  1.00  0.00    -0.014 A 
ATOM     72  C   UNL     1       9.376  11.123   6.089  1.00  0.00     0.010 A 
ATOM     73  C   UNL     1       9.340  10.367   8.355  1.00  0.00     0.010 A 
ATOM     74  C   UNL     1      10.349  12.085   6.465  1.00  0.00     0.020 A 
ATOM     75  C   UNL     1      10.255  11.346   8.751  1.00  0.00     0.020 A 
ATOM     76  C   UNL     1      10.739  12.227   7.802  1.00  0.00     0.054 A 
BRANCH  76  77
ATOM     77  S   UNL     1      11.745  13.638   8.350  1.00  0.00     0.124 S 
ATOM     78  O   UNL     1      13.104  13.123   8.228  1.00  0.00    -0.237 OA
ATOM     79  O   UNL     1      11.380  14.688   7.402  1.00  0.00    -0.237 OA
ATOM     80  O   UNL     1      11.283  13.869   9.719  1.00  0.00    -0.744 OA
ENDBRANCH  76  77
ENDBRANCH  48  71
BRANCH  60  81
ATOM     81  C   UNL     1       5.732   5.195   8.396  1.00  0.00    -0.014 A 
ATOM     82  C   UNL     1       6.806   4.356   8.742  1.00  0.00     0.010 A 
ATOM     83  C   UNL     1       5.088   4.956   7.165  1.00  0.00     0.010 A 
ATOM     84  C   UNL     1       7.220   3.317   7.895  1.00  0.00     0.020 A 
ATOM     85  C   UNL     1       5.490   3.914   6.312  1.00  0.00     0.020 A 
ATOM     86  C   UNL     1       6.558   3.099   6.684  1.00  0.00     0.054 A 
BRANCH  86  87
ATOM     87  S   UNL     1       7.127   1.750   5.608  1.00  0.00     0.124 S 
ATOM     88  O   UNL     1       8.513   2.120   5.332  1.00  0.00    -0.237 OA
ATOM     89  O   UNL     1       6.953   0.574   6.457  1.00  0.00    -0.237 OA
ATOM     90  O   UNL     1       6.231   1.819   4.455  1.00  0.00    -0.744 OA
ENDBRANCH  86  87
ENDBRANCH  60  81
ENDBRANCH  34  35
ENDBRANCH  26  29
ENDBRANCH  24  25
ENDBRANCH   1  24
TORSDOF 16
