REMARK SMILES CC1(C)CCSC[C@@]1(Nc1ccccc1Br)C(=O)NCCCCNC(=O)c1ccc(-c2c3nc(c(-c4ccc(S(=O)(=O)[O-])cc4)c4ccc([nH]4)c(-c4ccc(S(=O)(=O)[O-])cc4)c4nc(c(-c5ccc(S(=O)(=O)[O-])cc5)c5ccc2[nH]5)C=C4)C=C3)cc1
REMARK SMILES IDX 22 1 21 2 20 3 19 4 17 5 18 6 8 8 1 9 2 10 3 11 4 12 5 13
REMARK SMILES IDX 7 14 6 15 9 16 10 18 11 19 15 20 12 21 14 22 16 23 13 24
REMARK SMILES IDX 23 25 24 26 25 27 26 29 27 30 28 31 86 32 29 33 85 34 30 35
REMARK SMILES IDX 31 36 32 37 79 38 33 39 84 40 78 41 80 42 34 43 83 44 77 45
REMARK SMILES IDX 76 46 35 48 65 49 46 50 64 51 47 52 50 53 63 54 81 55 48 56
REMARK SMILES IDX 49 57 62 59 82 60 51 61 36 62 37 63 45 64 38 65 44 66 39 67
REMARK SMILES IDX 40 68 41 69 42 70 43 71 66 72 67 73 75 74 68 75 74 76 69 77
REMARK SMILES IDX 70 78 71 79 72 80 73 81 52 82 53 83 61 84 54 85 60 86 55 87
REMARK SMILES IDX 56 88 57 89 58 90 59 91
REMARK H PARENT 19 7 9 17 24 28 80 47 50 58
REMARK Flexibility Score: inf
ROOT
ATOM      1  C   UNL     1       1.267  -2.148   3.724  1.00  0.00     0.023 C 
ENDROOT
BRANCH   1   2
ATOM      2  C   UNL     1       1.912  -1.438   2.540  1.00  0.00     0.023 C 
BRANCH   2   3
ATOM      3  C   UNL     1       2.057  -2.281   1.271  1.00  0.00     0.116 C 
BRANCH   3   4
ATOM      4  N   UNL     1       0.769  -2.660   0.717  1.00  0.00    -0.354 N 
ATOM      5  C   UNL     1       0.056  -2.236  -0.361  1.00  0.00     0.247 C 
ATOM      6  O   UNL     1      -1.162  -2.183  -0.141  1.00  0.00    -0.272 OA
ATOM      7  H   UNL     1       0.320  -3.372   1.227  1.00  0.00     0.163 HD
BRANCH   5   8
ATOM      8  C   UNL     1       0.655  -1.751  -1.746  1.00  0.00     0.131 C 
ATOM      9  C   UNL     1       1.062   0.510  -0.464  1.00  0.00     0.014 C 
ATOM     10  C   UNL     1       0.538  -0.138  -1.770  1.00  0.00    -0.002 C 
ATOM     11  C   UNL     1      -0.936   0.347  -1.903  1.00  0.00     0.014 C 
ATOM     12  C   UNL     1       1.312   0.506  -2.958  1.00  0.00     0.020 C 
ATOM     13  C   UNL     1       2.796   0.180  -3.031  1.00  0.00     0.070 C 
ATOM     14  C   UNL     1       2.111  -2.257  -1.976  1.00  0.00     0.108 C 
ATOM     15  S   UNL     1       3.026  -1.567  -3.404  1.00  0.00    -0.159 SA
BRANCH   8  16
ATOM     16  N   UNL     1      -0.228  -2.295  -2.870  1.00  0.00    -0.369 N 
ATOM     17  H   UNL     1      -0.897  -1.688  -3.261  1.00  0.00     0.161 HD
BRANCH  16  18
ATOM     18  C   UNL     1      -0.151  -3.596  -3.382  1.00  0.00     0.049 A 
ATOM     19  C   UNL     1       0.627  -3.794  -4.540  1.00  0.00     0.027 A 
ATOM     20  C   UNL     1      -0.777  -4.737  -2.848  1.00  0.00     0.041 A 
ATOM     21  C   UNL     1       0.850  -5.061  -5.088  1.00  0.00     0.002 A 
ATOM     22  C   UNL     1      -0.552  -6.013  -3.395  1.00  0.00     0.018 A 
ATOM     23  Br  UNL     1      -2.117  -4.681  -1.507  1.00  0.00    -0.049 Br
ATOM     24  C   UNL     1       0.273  -6.178  -4.502  1.00  0.00     0.001 A 
ENDBRANCH  16  18
ENDBRANCH   8  16
ENDBRANCH   5   8
ENDBRANCH   3   4
ENDBRANCH   2   3
ENDBRANCH   1   2
BRANCH   1  25
ATOM     25  C   UNL     1       1.907  -3.479   4.092  1.00  0.00     0.116 C 
BRANCH  25  26
ATOM     26  N   UNL     1       3.331  -3.365   4.359  1.00  0.00    -0.352 N 
ATOM     27  C   UNL     1       4.039  -3.761   5.475  1.00  0.00     0.251 C 
ATOM     28  H   UNL     1       3.864  -2.948   3.645  1.00  0.00     0.163 HD
ATOM     29  O   UNL     1       5.218  -3.462   5.598  1.00  0.00    -0.269 OA
BRANCH  27  30
ATOM     30  C   UNL     1       3.337  -4.520   6.527  1.00  0.00     0.039 A 
ATOM     31  C   UNL     1       3.424  -4.086   7.851  1.00  0.00     0.014 A 
ATOM     32  C   UNL     1       2.543  -5.617   6.188  1.00  0.00     0.014 A 
ATOM     33  C   UNL     1       2.643  -4.705   8.829  1.00  0.00     0.010 A 
ATOM     34  C   UNL     1       1.706  -6.177   7.144  1.00  0.00     0.010 A 
ATOM     35  C   UNL     1       1.747  -5.726   8.473  1.00  0.00    -0.014 A 
BRANCH  35  36
ATOM     36  C   UNL     1       0.833  -6.343   9.465  1.00  0.00     0.031 A 
ATOM     37  C   UNL     1       0.945  -7.812   9.765  1.00  0.00     0.074 A 
ATOM     38  C   UNL     1      -0.161  -5.612  10.006  1.00  0.00     0.049 A 
ATOM     39  N   UNL     1       0.164  -8.567  10.493  1.00  0.00    -0.248 NA
ATOM     40  C   UNL     1       2.059  -8.535   9.130  1.00  0.00     0.031 C 
ATOM     41  C   UNL     1      -0.411  -4.192   9.747  1.00  0.00     0.029 A 
ATOM     42  N   UNL     1      -1.164  -5.972  10.872  1.00  0.00    -0.354 N 
ATOM     43  C   UNL     1       0.666  -9.857  10.369  1.00  0.00     0.074 A 
ATOM     44  C   UNL     1       1.796  -9.788   9.469  1.00  0.00     0.031 C 
ATOM     45  C   UNL     1      -1.488  -3.800  10.446  1.00  0.00     0.029 A 
ATOM     46  C   UNL     1      -2.028  -4.945  11.172  1.00  0.00     0.049 A 
ATOM     47  H   UNL     1      -1.257  -6.879  11.242  1.00  0.00     0.167 HD
ATOM     48  C   UNL     1       0.234 -10.994  10.963  1.00  0.00     0.031 A 
ATOM     49  C   UNL     1      -3.138  -4.929  11.936  1.00  0.00     0.031 A 
ATOM     50  C   UNL     1      -0.866 -11.050  11.886  1.00  0.00     0.049 A 
ATOM     51  C   UNL     1      -3.572  -6.193  12.624  1.00  0.00     0.074 A 
ATOM     52  C   UNL     1      -1.326 -12.134  12.611  1.00  0.00     0.029 A 
ATOM     53  N   UNL     1      -1.677  -9.973  12.212  1.00  0.00    -0.354 N 
ATOM     54  N   UNL     1      -3.035  -7.388  12.560  1.00  0.00    -0.248 NA
ATOM     55  C   UNL     1      -4.751  -6.105  13.496  1.00  0.00     0.031 C 
ATOM     56  C   UNL     1      -2.441 -11.722  13.349  1.00  0.00     0.029 A 
ATOM     57  C   UNL     1      -2.647 -10.371  13.115  1.00  0.00     0.049 A 
ATOM     58  H   UNL     1      -1.578  -9.062  11.854  1.00  0.00     0.167 HD
ATOM     59  C   UNL     1      -3.799  -8.191  13.399  1.00  0.00     0.074 A 
ATOM     60  C   UNL     1      -4.829  -7.343  13.967  1.00  0.00     0.031 C 
ATOM     61  C   UNL     1      -3.660  -9.511  13.673  1.00  0.00     0.031 A 
BRANCH  48  62
ATOM     62  C   UNL     1       0.956 -12.269  10.620  1.00  0.00    -0.014 A 
ATOM     63  C   UNL     1       2.269 -12.506  11.066  1.00  0.00     0.010 A 
ATOM     64  C   UNL     1       0.308 -13.249   9.846  1.00  0.00     0.010 A 
ATOM     65  C   UNL     1       2.941 -13.674  10.698  1.00  0.00     0.020 A 
ATOM     66  C   UNL     1       0.968 -14.432   9.499  1.00  0.00     0.020 A 
ATOM     67  C   UNL     1       2.288 -14.626   9.909  1.00  0.00     0.054 A 
BRANCH  67  68
ATOM     68  S   UNL     1       3.182 -16.133   9.443  1.00  0.00     0.124 S 
ATOM     69  O   UNL     1       4.061 -15.645   8.383  1.00  0.00    -0.237 OA
ATOM     70  O   UNL     1       3.850 -16.510  10.686  1.00  0.00    -0.237 OA
ATOM     71  O   UNL     1       2.125 -17.042   9.008  1.00  0.00    -0.744 OA
ENDBRANCH  67  68
ENDBRANCH  48  62
BRANCH  49  72
ATOM     72  C   UNL     1      -3.900  -3.662  12.099  1.00  0.00    -0.014 A 
ATOM     73  C   UNL     1      -3.820  -2.933  13.297  1.00  0.00     0.010 A 
ATOM     74  C   UNL     1      -4.674  -3.155  11.039  1.00  0.00     0.010 A 
ATOM     75  C   UNL     1      -4.503  -1.722  13.437  1.00  0.00     0.020 A 
ATOM     76  C   UNL     1      -5.342  -1.933  11.167  1.00  0.00     0.020 A 
ATOM     77  C   UNL     1      -5.257  -1.227  12.368  1.00  0.00     0.054 A 
BRANCH  77  78
ATOM     78  S   UNL     1      -6.071   0.386  12.543  1.00  0.00     0.124 S 
ATOM     79  O   UNL     1      -7.220   0.057  13.380  1.00  0.00    -0.237 OA
ATOM     80  O   UNL     1      -5.036   1.197  13.179  1.00  0.00    -0.237 OA
ATOM     81  O   UNL     1      -6.383   0.760  11.165  1.00  0.00    -0.744 OA
ENDBRANCH  77  78
ENDBRANCH  49  72
BRANCH  61  82
ATOM     82  C   UNL     1      -4.622 -10.123  14.653  1.00  0.00    -0.014 A 
ATOM     83  C   UNL     1      -5.941 -10.427  14.277  1.00  0.00     0.010 A 
ATOM     84  C   UNL     1      -4.171 -10.476  15.937  1.00  0.00     0.010 A 
ATOM     85  C   UNL     1      -6.800 -11.065  15.176  1.00  0.00     0.020 A 
ATOM     86  C   UNL     1      -5.020 -11.133  16.831  1.00  0.00     0.020 A 
ATOM     87  C   UNL     1      -6.332 -11.417  16.447  1.00  0.00     0.054 A 
BRANCH  87  88
ATOM     88  S   UNL     1      -7.441 -12.309  17.571  1.00  0.00     0.124 S 
ATOM     89  O   UNL     1      -8.326 -11.244  18.034  1.00  0.00    -0.237 OA
ATOM     90  O   UNL     1      -8.058 -13.303  16.695  1.00  0.00    -0.237 OA
ATOM     91  O   UNL     1      -6.540 -12.856  18.583  1.00  0.00    -0.744 OA
ENDBRANCH  87  88
ENDBRANCH  61  82
ENDBRANCH  35  36
ENDBRANCH  27  30
ENDBRANCH  25  26
ENDBRANCH   1  25
TORSDOF 16
