REMARK SMILES C[C@@H](C(=O)NCCCCNC(=O)c1ccc(-c2c3nc(c(-c4ccc(S(=O)(=O)[O-])cc4)c4ccc([nH]4)c(-c4ccc(S(=O)(=O)[O-])cc4)c4nc(c(-c5ccc(S(=O)(=O)[O-])cc5)c5ccc2[nH]5)C=C4)C=C3)cc1)N1C(=O)/C(=C/c2ccc(F)cc2)SC1=S
REMARK SMILES IDX 8 1 7 2 6 3 5 4 3 5 4 6 2 8 1 9 73 10 74 11 86 12 75 13
REMARK SMILES IDX 76 14 85 15 87 16 77 17 78 18 79 19 84 20 80 21 83 22 81 23
REMARK SMILES IDX 82 24 9 25 10 26 11 27 12 29 13 30 14 31 72 32 15 33 71 34
REMARK SMILES IDX 16 35 17 36 18 37 65 38 19 39 70 40 64 41 66 42 20 43 69 44
REMARK SMILES IDX 63 45 62 46 21 48 51 49 32 50 50 51 33 52 36 53 49 54 67 55
REMARK SMILES IDX 34 56 35 57 48 59 68 60 37 61 22 62 23 63 31 64 24 65 30 66
REMARK SMILES IDX 25 67 26 68 27 69 28 70 29 71 52 72 53 73 61 74 54 75 60 76
REMARK SMILES IDX 55 77 56 78 57 79 58 80 59 81 38 82 39 83 47 84 40 85 46 86
REMARK SMILES IDX 41 87 42 88 43 89 44 90 45 91
REMARK H PARENT 5 7 10 28 66 47 36 58
REMARK Flexibility Score: inf
ROOT
ATOM      1  C   UNL     1       4.873   2.362   0.766  1.00  0.00     0.023 C 
ENDROOT
BRANCH   1   2
ATOM      2  C   UNL     1       4.100   1.075   0.471  1.00  0.00     0.023 C 
BRANCH   2   3
ATOM      3  C   UNL     1       3.376   0.460   1.668  1.00  0.00     0.116 C 
BRANCH   3   4
ATOM      4  N   UNL     1       2.356   1.331   2.214  1.00  0.00    -0.354 N 
ATOM      5  C   UNL     1       0.998   1.215   2.183  1.00  0.00     0.242 C 
ATOM      6  O   UNL     1       0.367   1.902   2.991  1.00  0.00    -0.273 OA
ATOM      7  H   UNL     1       2.696   2.130   2.678  1.00  0.00     0.163 HD
BRANCH   5   8
ATOM      8  C   UNL     1       0.297   0.194   1.257  1.00  0.00     0.178 C 
ATOM      9  C   UNL     1       0.697   0.171  -0.216  1.00  0.00     0.042 C 
BRANCH   8  10
ATOM     10  N   UNL     1      -1.175   0.294   1.379  1.00  0.00    -0.281 N 
ATOM     11  C   UNL     1      -1.880  -0.863   1.661  1.00  0.00     0.266 C 
ATOM     12  C   UNL     1      -1.939   1.409   1.073  1.00  0.00     0.149 C 
ATOM     13  O   UNL     1      -1.398  -1.978   1.856  1.00  0.00    -0.268 OA
ATOM     14  C   UNL     1      -3.341  -0.618   1.578  1.00  0.00     0.081 C 
ATOM     15  S   UNL     1      -3.638   1.057   1.373  1.00  0.00    -0.054 SA
ATOM     16  S   UNL     1      -1.482   2.888   0.447  1.00  0.00    -0.052 S 
ATOM     17  C   UNL     1      -4.232  -1.620   1.592  1.00  0.00     0.029 C 
BRANCH  17  18
ATOM     18  C   UNL     1      -5.685  -1.474   1.442  1.00  0.00    -0.024 A 
ATOM     19  C   UNL     1      -6.526  -1.980   2.441  1.00  0.00     0.011 A 
ATOM     20  C   UNL     1      -6.249  -0.855   0.316  1.00  0.00     0.011 A 
ATOM     21  C   UNL     1      -7.910  -1.826   2.337  1.00  0.00     0.040 A 
ATOM     22  C   UNL     1      -7.632  -0.694   0.218  1.00  0.00     0.040 A 
ATOM     23  C   UNL     1      -8.449  -1.176   1.232  1.00  0.00     0.123 A 
ATOM     24  F   UNL     1      -9.775  -1.015   1.143  1.00  0.00    -0.207 F 
ENDBRANCH  17  18
ENDBRANCH   8  10
ENDBRANCH   5   8
ENDBRANCH   3   4
ENDBRANCH   2   3
ENDBRANCH   1   2
BRANCH   1  25
ATOM     25  C   UNL     1       5.870   2.281   1.915  1.00  0.00     0.116 C 
BRANCH  25  26
ATOM     26  N   UNL     1       6.874   1.248   1.725  1.00  0.00    -0.352 N 
ATOM     27  C   UNL     1       8.227   1.303   1.962  1.00  0.00     0.251 C 
ATOM     28  H   UNL     1       6.539   0.389   1.379  1.00  0.00     0.163 HD
ATOM     29  O   UNL     1       8.941   0.366   1.617  1.00  0.00    -0.269 OA
BRANCH  27  30
ATOM     30  C   UNL     1       8.821   2.497   2.604  1.00  0.00     0.039 A 
ATOM     31  C   UNL     1      10.019   3.008   2.099  1.00  0.00     0.014 A 
ATOM     32  C   UNL     1       8.209   3.106   3.703  1.00  0.00     0.014 A 
ATOM     33  C   UNL     1      10.580   4.153   2.670  1.00  0.00     0.010 A 
ATOM     34  C   UNL     1       8.724   4.293   4.215  1.00  0.00     0.010 A 
ATOM     35  C   UNL     1       9.927   4.817   3.721  1.00  0.00    -0.014 A 
BRANCH  35  36
ATOM     36  C   UNL     1      10.512   6.031   4.346  1.00  0.00     0.031 A 
ATOM     37  C   UNL     1      10.934   6.002   5.792  1.00  0.00     0.074 A 
ATOM     38  C   UNL     1      10.621   7.170   3.634  1.00  0.00     0.049 A 
ATOM     39  N   UNL     1      11.447   6.959   6.523  1.00  0.00    -0.248 NA
ATOM     40  C   UNL     1      10.728   4.739   6.520  1.00  0.00     0.031 C 
ATOM     41  C   UNL     1      10.213   7.341   2.238  1.00  0.00     0.029 A 
ATOM     42  N   UNL     1      11.113   8.402   3.989  1.00  0.00    -0.354 N 
ATOM     43  C   UNL     1      11.598   6.423   7.797  1.00  0.00     0.074 A 
ATOM     44  C   UNL     1      11.073   5.076   7.753  1.00  0.00     0.031 C 
ATOM     45  C   UNL     1      10.509   8.590   1.844  1.00  0.00     0.029 A 
ATOM     46  C   UNL     1      11.093   9.320   2.966  1.00  0.00     0.049 A 
ATOM     47  H   UNL     1      11.449   8.608   4.891  1.00  0.00     0.167 HD
ATOM     48  C   UNL     1      12.144   6.989   8.900  1.00  0.00     0.031 A 
ATOM     49  C   UNL     1      11.505  10.602   2.932  1.00  0.00     0.031 A 
ATOM     50  C   UNL     1      12.682   8.322   8.935  1.00  0.00     0.049 A 
ATOM     51  C   UNL     1      12.116  11.209   4.166  1.00  0.00     0.074 A 
ATOM     52  C   UNL     1      13.315   8.969   9.983  1.00  0.00     0.029 A 
ATOM     53  N   UNL     1      12.649   9.216   7.875  1.00  0.00    -0.354 N 
ATOM     54  N   UNL     1      12.313  10.664   5.343  1.00  0.00    -0.248 NA
ATOM     55  C   UNL     1      12.579  12.599   4.059  1.00  0.00     0.031 C 
ATOM     56  C   UNL     1      13.617  10.271   9.573  1.00  0.00     0.029 A 
ATOM     57  C   UNL     1      13.232  10.415   8.249  1.00  0.00     0.049 A 
ATOM     58  H   UNL     1      12.268   9.026   6.988  1.00  0.00     0.167 HD
ATOM     59  C   UNL     1      12.962  11.631   6.104  1.00  0.00     0.074 A 
ATOM     60  C   UNL     1      13.127  12.791   5.251  1.00  0.00     0.031 C 
ATOM     61  C   UNL     1      13.392  11.561   7.388  1.00  0.00     0.031 A 
BRANCH  48  62
ATOM     62  C   UNL     1      12.166   6.165  10.163  1.00  0.00    -0.014 A 
ATOM     63  C   UNL     1      12.971   5.017  10.275  1.00  0.00     0.010 A 
ATOM     64  C   UNL     1      11.374   6.552  11.260  1.00  0.00     0.010 A 
ATOM     65  C   UNL     1      12.937   4.237  11.434  1.00  0.00     0.020 A 
ATOM     66  C   UNL     1      11.362   5.793  12.434  1.00  0.00     0.020 A 
ATOM     67  C   UNL     1      12.126   4.627  12.504  1.00  0.00     0.054 A 
BRANCH  67  68
ATOM     68  S   UNL     1      12.095   3.594  13.995  1.00  0.00     0.124 S 
ATOM     69  O   UNL     1      11.316   2.442  13.546  1.00  0.00    -0.237 OA
ATOM     70  O   UNL     1      13.513   3.336  14.236  1.00  0.00    -0.237 OA
ATOM     71  O   UNL     1      11.440   4.439  14.989  1.00  0.00    -0.744 OA
ENDBRANCH  67  68
ENDBRANCH  48  62
BRANCH  49  72
ATOM     72  C   UNL     1      11.402  11.382   1.667  1.00  0.00    -0.014 A 
ATOM     73  C   UNL     1      12.561  11.706   0.939  1.00  0.00     0.010 A 
ATOM     74  C   UNL     1      10.149  11.786   1.173  1.00  0.00     0.010 A 
ATOM     75  C   UNL     1      12.470  12.432  -0.252  1.00  0.00     0.020 A 
ATOM     76  C   UNL     1      10.052  12.489  -0.032  1.00  0.00     0.020 A 
ATOM     77  C   UNL     1      11.216  12.816  -0.732  1.00  0.00     0.054 A 
BRANCH  77  78
ATOM     78  S   UNL     1      11.120  13.705  -2.311  1.00  0.00     0.124 S 
ATOM     79  O   UNL     1      11.635  15.022  -1.951  1.00  0.00    -0.237 OA
ATOM     80  O   UNL     1      11.981  12.902  -3.176  1.00  0.00    -0.237 OA
ATOM     81  O   UNL     1       9.698  13.658  -2.644  1.00  0.00    -0.744 OA
ENDBRANCH  77  78
ENDBRANCH  49  72
BRANCH  61  82
ATOM     82  C   UNL     1      14.136  12.751   7.936  1.00  0.00    -0.014 A 
ATOM     83  C   UNL     1      13.485  13.964   8.217  1.00  0.00     0.010 A 
ATOM     84  C   UNL     1      15.511  12.632   8.211  1.00  0.00     0.010 A 
ATOM     85  C   UNL     1      14.205  15.052   8.720  1.00  0.00     0.020 A 
ATOM     86  C   UNL     1      16.228  13.706   8.743  1.00  0.00     0.020 A 
ATOM     87  C   UNL     1      15.574  14.916   8.976  1.00  0.00     0.054 A 
BRANCH  87  88
ATOM     88  S   UNL     1      16.483  16.333   9.650  1.00  0.00     0.124 S 
ATOM     89  O   UNL     1      16.592  17.206   8.485  1.00  0.00    -0.237 OA
ATOM     90  O   UNL     1      15.597  16.808  10.711  1.00  0.00    -0.237 OA
ATOM     91  O   UNL     1      17.741  15.750  10.112  1.00  0.00    -0.744 OA
ENDBRANCH  87  88
ENDBRANCH  61  82
ENDBRANCH  35  36
ENDBRANCH  27  30
ENDBRANCH  25  26
ENDBRANCH   1  25
TORSDOF 16
