REMARK SMILES CCC[C@H](Cc1ccn(-c2ccccc2)n1)C(=O)NCCCCNC(=O)c1ccc(-c2c3nc(c(-c4ccc(S(=O)(=O)[O-])cc4)c4ccc([nH]4)c(-c4ccc(S(=O)(=O)[O-])cc4)c4nc(c(-c5ccc(S(=O)(=O)[O-])cc5)c5ccc2[nH]5)C=C4)C=C3)cc1
REMARK SMILES IDX 21 1 20 2 19 3 17 4 18 5 4 7 3 8 2 9 1 10 5 11 6 12 7 13
REMARK SMILES IDX 16 14 8 15 9 16 10 17 11 18 15 19 12 20 14 21 13 22 22 23
REMARK SMILES IDX 23 24 24 25 25 26 26 28 27 29 28 30 86 31 29 32 85 33 30 34
REMARK SMILES IDX 31 35 32 36 79 37 33 38 84 39 78 40 80 41 34 42 83 43 77 44
REMARK SMILES IDX 76 45 35 47 65 48 46 49 64 50 47 51 50 52 63 53 81 54 48 55
REMARK SMILES IDX 49 56 62 58 82 59 51 60 36 61 37 62 45 63 38 64 44 65 39 66
REMARK SMILES IDX 40 67 41 68 42 69 43 70 66 71 67 72 75 73 68 74 74 75 69 76
REMARK SMILES IDX 70 77 71 78 72 79 73 80 52 81 53 82 61 83 54 84 60 85 55 86
REMARK SMILES IDX 56 87 57 88 58 89 59 90
REMARK H PARENT 19 6 24 27 80 46 50 57
REMARK Flexibility Score: inf
ROOT
ATOM      1  C   UNL     1       0.910  -3.261  -5.352  1.00  0.00     0.023 C 
ENDROOT
BRANCH   1   2
ATOM      2  C   UNL     1       0.047  -3.849  -4.227  1.00  0.00     0.116 C 
BRANCH   2   3
ATOM      3  N   UNL     1       0.851  -4.297  -3.108  1.00  0.00    -0.356 N 
ATOM      4  C   UNL     1       1.099  -3.736  -1.898  1.00  0.00     0.223 C 
ATOM      5  O   UNL     1       1.933  -4.305  -1.184  1.00  0.00    -0.275 OA
ATOM      6  H   UNL     1       1.296  -5.163  -3.251  1.00  0.00     0.163 HD
BRANCH   4   7
ATOM      7  C   UNL     1       0.389  -2.486  -1.365  1.00  0.00     0.084 C 
BRANCH   7   8
ATOM      8  C   UNL     1      -1.102  -2.725  -1.054  1.00  0.00     0.013 C 
BRANCH   8   9
ATOM      9  C   UNL     1      -1.413  -3.855  -0.067  1.00  0.00    -0.003 C 
ATOM     10  C   UNL     1      -0.964  -3.550   1.355  1.00  0.00     0.004 C 
ENDBRANCH   8   9
ENDBRANCH   7   8
BRANCH   7  11
ATOM     11  C   UNL     1       0.734  -1.193  -2.150  1.00  0.00     0.071 C 
BRANCH  11  12
ATOM     12  C   UNL     1      -0.370  -0.600  -2.975  1.00  0.00     0.064 A 
ATOM     13  C   UNL     1      -1.548   0.051  -2.538  1.00  0.00     0.046 A 
ATOM     14  N   UNL     1      -0.340  -0.685  -4.310  1.00  0.00    -0.173 NA
ATOM     15  C   UNL     1      -2.342   0.126  -3.658  1.00  0.00     0.115 A 
ATOM     16  N   UNL     1      -1.587  -0.344  -4.699  1.00  0.00    -0.241 N 
BRANCH  16  17
ATOM     17  C   UNL     1      -2.061  -0.702  -5.970  1.00  0.00     0.065 A 
ATOM     18  C   UNL     1      -1.851   0.164  -7.043  1.00  0.00     0.028 A 
ATOM     19  C   UNL     1      -2.711  -1.930  -6.137  1.00  0.00     0.028 A 
ATOM     20  C   UNL     1      -2.316  -0.203  -8.306  1.00  0.00     0.002 A 
ATOM     21  C   UNL     1      -3.163  -2.287  -7.405  1.00  0.00     0.002 A 
ATOM     22  C   UNL     1      -2.965  -1.427  -8.486  1.00  0.00     0.000 A 
ENDBRANCH  16  17
ENDBRANCH  11  12
ENDBRANCH   7  11
ENDBRANCH   4   7
ENDBRANCH   2   3
ENDBRANCH   1   2
BRANCH   1  23
ATOM     23  C   UNL     1       1.583  -4.279  -6.280  1.00  0.00     0.023 C 
BRANCH  23  24
ATOM     24  C   UNL     1       0.608  -5.066  -7.151  1.00  0.00     0.116 C 
BRANCH  24  25
ATOM     25  N   UNL     1      -0.119  -4.237  -8.113  1.00  0.00    -0.352 N 
ATOM     26  C   UNL     1      -1.142  -4.624  -8.964  1.00  0.00     0.251 C 
ATOM     27  H   UNL     1       0.151  -3.291  -8.162  1.00  0.00     0.163 HD
ATOM     28  O   UNL     1      -1.396  -4.001  -9.981  1.00  0.00    -0.269 OA
BRANCH  26  29
ATOM     29  C   UNL     1      -1.934  -5.816  -8.601  1.00  0.00     0.039 A 
ATOM     30  C   UNL     1      -2.271  -6.774  -9.559  1.00  0.00     0.014 A 
ATOM     31  C   UNL     1      -2.286  -5.988  -7.263  1.00  0.00     0.014 A 
ATOM     32  C   UNL     1      -2.841  -7.971  -9.133  1.00  0.00     0.010 A 
ATOM     33  C   UNL     1      -2.732  -7.213  -6.829  1.00  0.00     0.010 A 
ATOM     34  C   UNL     1      -3.020  -8.207  -7.759  1.00  0.00    -0.014 A 
BRANCH  34  35
ATOM     35  C   UNL     1      -3.299  -9.559  -7.277  1.00  0.00     0.031 A 
ATOM     36  C   UNL     1      -2.327 -10.585  -7.764  1.00  0.00     0.074 A 
ATOM     37  C   UNL     1      -4.180  -9.842  -6.293  1.00  0.00     0.049 A 
ATOM     38  N   UNL     1      -2.540 -11.527  -8.622  1.00  0.00    -0.248 NA
ATOM     39  C   UNL     1      -0.909 -10.444  -7.385  1.00  0.00     0.031 C 
ATOM     40  C   UNL     1      -4.970  -8.910  -5.481  1.00  0.00     0.029 A 
ATOM     41  N   UNL     1      -4.465 -11.042  -5.719  1.00  0.00    -0.354 N 
ATOM     42  C   UNL     1      -1.351 -12.248  -8.709  1.00  0.00     0.074 A 
ATOM     43  C   UNL     1      -0.343 -11.423  -8.095  1.00  0.00     0.031 C 
ATOM     44  C   UNL     1      -5.433  -9.546  -4.381  1.00  0.00     0.029 A 
ATOM     45  C   UNL     1      -5.126 -10.959  -4.497  1.00  0.00     0.049 A 
ATOM     46  H   UNL     1      -4.223 -11.901  -6.136  1.00  0.00     0.167 HD
ATOM     47  C   UNL     1      -1.346 -13.571  -9.043  1.00  0.00     0.031 A 
ATOM     48  C   UNL     1      -5.373 -11.976  -3.630  1.00  0.00     0.031 A 
ATOM     49  C   UNL     1      -2.631 -13.985  -9.551  1.00  0.00     0.049 A 
ATOM     50  C   UNL     1      -5.274 -13.236  -4.407  1.00  0.00     0.074 A 
ATOM     51  C   UNL     1      -3.429 -13.620 -10.615  1.00  0.00     0.029 A 
ATOM     52  N   UNL     1      -3.452 -14.648  -8.668  1.00  0.00    -0.354 N 
ATOM     53  N   UNL     1      -6.098 -13.545  -5.369  1.00  0.00    -0.248 NA
ATOM     54  C   UNL     1      -3.991 -13.917  -4.441  1.00  0.00     0.031 C 
ATOM     55  C   UNL     1      -4.758 -13.646 -10.097  1.00  0.00     0.029 A 
ATOM     56  C   UNL     1      -4.704 -14.107  -8.779  1.00  0.00     0.049 A 
ATOM     57  H   UNL     1      -3.187 -15.380  -8.065  1.00  0.00     0.167 HD
ATOM     58  C   UNL     1      -5.295 -14.095  -6.358  1.00  0.00     0.074 A 
ATOM     59  C   UNL     1      -4.024 -14.385  -5.693  1.00  0.00     0.031 C 
ATOM     60  C   UNL     1      -5.637 -14.002  -7.678  1.00  0.00     0.031 A 
BRANCH  47  61
ATOM     61  C   UNL     1      -0.364 -14.587  -8.497  1.00  0.00    -0.014 A 
ATOM     62  C   UNL     1      -0.529 -15.939  -8.870  1.00  0.00     0.010 A 
ATOM     63  C   UNL     1       0.501 -14.329  -7.415  1.00  0.00     0.010 A 
ATOM     64  C   UNL     1       0.036 -16.978  -8.121  1.00  0.00     0.020 A 
ATOM     65  C   UNL     1       1.106 -15.357  -6.688  1.00  0.00     0.020 A 
ATOM     66  C   UNL     1       0.832 -16.677  -7.018  1.00  0.00     0.054 A 
BRANCH  66  67
ATOM     67  S   UNL     1       1.446 -18.024  -5.978  1.00  0.00     0.124 S 
ATOM     68  O   UNL     1       0.208 -18.545  -5.406  1.00  0.00    -0.237 OA
ATOM     69  O   UNL     1       2.109 -18.887  -6.951  1.00  0.00    -0.237 OA
ATOM     70  O   UNL     1       2.338 -17.349  -5.039  1.00  0.00    -0.744 OA
ENDBRANCH  66  67
ENDBRANCH  47  61
BRANCH  48  71
ATOM     71  C   UNL     1      -5.365 -11.947  -2.143  1.00  0.00    -0.014 A 
ATOM     72  C   UNL     1      -5.876 -13.020  -1.386  1.00  0.00     0.010 A 
ATOM     73  C   UNL     1      -4.584 -10.988  -1.466  1.00  0.00     0.010 A 
ATOM     74  C   UNL     1      -5.564 -13.161  -0.020  1.00  0.00     0.020 A 
ATOM     75  C   UNL     1      -4.272 -11.120  -0.106  1.00  0.00     0.020 A 
ATOM     76  C   UNL     1      -4.744 -12.219   0.607  1.00  0.00     0.054 A 
BRANCH  76  77
ATOM     77  S   UNL     1      -4.192 -12.501   2.318  1.00  0.00     0.124 S 
ATOM     78  O   UNL     1      -5.420 -12.292   3.080  1.00  0.00    -0.237 OA
ATOM     79  O   UNL     1      -3.703 -13.876   2.274  1.00  0.00    -0.237 OA
ATOM     80  O   UNL     1      -3.160 -11.486   2.518  1.00  0.00    -0.744 OA
ENDBRANCH  76  77
ENDBRANCH  48  71
BRANCH  60  81
ATOM     81  C   UNL     1      -7.034 -13.552  -8.035  1.00  0.00    -0.014 A 
ATOM     82  C   UNL     1      -7.564 -12.285  -7.721  1.00  0.00     0.010 A 
ATOM     83  C   UNL     1      -7.779 -14.402  -8.871  1.00  0.00     0.010 A 
ATOM     84  C   UNL     1      -8.820 -11.893  -8.214  1.00  0.00     0.020 A 
ATOM     85  C   UNL     1      -9.019 -14.012  -9.379  1.00  0.00     0.020 A 
ATOM     86  C   UNL     1      -9.539 -12.763  -9.041  1.00  0.00     0.054 A 
BRANCH  86  87
ATOM     87  S   UNL     1     -11.145 -12.244  -9.710  1.00  0.00     0.124 S 
ATOM     88  O   UNL     1     -11.988 -12.205  -8.519  1.00  0.00    -0.237 OA
ATOM     89  O   UNL     1     -10.843 -10.947 -10.311  1.00  0.00    -0.237 OA
ATOM     90  O   UNL     1     -11.479 -13.297 -10.669  1.00  0.00    -0.744 OA
ENDBRANCH  86  87
ENDBRANCH  60  81
ENDBRANCH  34  35
ENDBRANCH  26  29
ENDBRANCH  24  25
ENDBRANCH  23  24
ENDBRANCH   1  23
TORSDOF 19
