REMARK SMILES O=C(CNc1nccs1)NCCCCNC(=O)c1ccc(-c2c3nc(c(-c4ccc(S(=O)(=O)[O-])cc4)c4ccc([nH]4)c(-c4ccc(S(=O)(=O)[O-])cc4)c4nc(c(-c5ccc(S(=O)(=O)[O-])cc5)c5ccc2[nH]5)C=C4)C=C3)cc1
REMARK SMILES IDX 13 1 12 2 11 3 10 4 1 5 2 6 3 8 4 9 5 11 6 12 9 13 7 14 8 15
REMARK SMILES IDX 14 16 15 17 16 18 17 20 18 21 19 22 77 23 20 24 76 25 21 26
REMARK SMILES IDX 22 27 23 28 70 29 24 30 75 31 69 32 71 33 25 34 74 35 68 36
REMARK SMILES IDX 67 37 26 39 56 40 37 41 55 42 38 43 41 44 54 45 72 46 39 47
REMARK SMILES IDX 40 48 53 50 73 51 42 52 27 53 28 54 36 55 29 56 35 57 30 58
REMARK SMILES IDX 31 59 32 60 33 61 34 62 57 63 58 64 66 65 59 66 65 67 60 68
REMARK SMILES IDX 61 69 62 70 63 71 64 72 43 73 44 74 52 75 45 76 51 77 46 78
REMARK SMILES IDX 47 79 48 80 49 81 50 82
REMARK H PARENT 10 7 4 10 15 19 71 38 41 49
REMARK Flexibility Score: inf
ROOT
ATOM      1  C   UNL     1       3.957  -3.062   2.337  1.00  0.00     0.023 C 
ENDROOT
BRANCH   1   2
ATOM      2  C   UNL     1       2.475  -2.760   2.095  1.00  0.00     0.023 C 
BRANCH   2   3
ATOM      3  C   UNL     1       2.106  -1.278   2.085  1.00  0.00     0.116 C 
BRANCH   3   4
ATOM      4  N   UNL     1       2.783  -0.546   1.037  1.00  0.00    -0.355 N 
ATOM      5  O   UNL     1       0.920  -0.043  -0.224  1.00  0.00    -0.273 OA
ATOM      6  C   UNL     1       2.129   0.039  -0.032  1.00  0.00     0.239 C 
ATOM      7  H   UNL     1       3.763  -0.460   1.088  1.00  0.00     0.163 HD
BRANCH   6   8
ATOM      8  C   UNL     1       3.076   0.788  -0.980  1.00  0.00     0.215 C 
BRANCH   8   9
ATOM      9  N   UNL     1       4.025   1.570  -0.197  1.00  0.00    -0.352 N 
ATOM     10  H   UNL     1       3.705   2.060   0.595  1.00  0.00     0.163 HD
BRANCH   9  11
ATOM     11  C   UNL     1       5.324   1.638  -0.530  1.00  0.00     0.183 A 
ATOM     12  N   UNL     1       5.853   1.141  -1.623  1.00  0.00    -0.229 NA
ATOM     13  S   UNL     1       6.445   2.389   0.544  1.00  0.00    -0.106 S 
ATOM     14  C   UNL     1       7.220   1.342  -1.624  1.00  0.00     0.125 A 
ATOM     15  C   UNL     1       7.727   1.980  -0.513  1.00  0.00     0.088 A 
ENDBRANCH   9  11
ENDBRANCH   8   9
ENDBRANCH   6   8
ENDBRANCH   3   4
ENDBRANCH   2   3
ENDBRANCH   1   2
BRANCH   1  16
ATOM     16  C   UNL     1       4.543  -2.511   3.634  1.00  0.00     0.116 C 
BRANCH  16  17
ATOM     17  N   UNL     1       3.932  -3.080   4.825  1.00  0.00    -0.352 N 
ATOM     18  C   UNL     1       4.525  -3.644   5.931  1.00  0.00     0.251 C 
ATOM     19  H   UNL     1       2.948  -3.058   4.843  1.00  0.00     0.163 HD
ATOM     20  O   UNL     1       3.826  -4.194   6.779  1.00  0.00    -0.269 OA
BRANCH  18  21
ATOM     21  C   UNL     1       5.998  -3.622   6.089  1.00  0.00     0.039 A 
ATOM     22  C   UNL     1       6.647  -4.784   6.516  1.00  0.00     0.014 A 
ATOM     23  C   UNL     1       6.741  -2.469   5.824  1.00  0.00     0.014 A 
ATOM     24  C   UNL     1       8.043  -4.811   6.603  1.00  0.00     0.010 A 
ATOM     25  C   UNL     1       8.135  -2.520   5.838  1.00  0.00     0.010 A 
ATOM     26  C   UNL     1       8.803  -3.693   6.224  1.00  0.00    -0.014 A 
BRANCH  26  27
ATOM     27  C   UNL     1      10.290  -3.737   6.207  1.00  0.00     0.031 A 
ATOM     28  C   UNL     1      11.092  -2.826   7.099  1.00  0.00     0.074 A 
ATOM     29  C   UNL     1      10.924  -4.556   5.342  1.00  0.00     0.049 A 
ATOM     30  N   UNL     1      12.391  -2.682   7.175  1.00  0.00    -0.248 NA
ATOM     31  C   UNL     1      10.337  -1.947   8.005  1.00  0.00     0.031 C 
ATOM     32  C   UNL     1      10.268  -5.462   4.397  1.00  0.00     0.029 A 
ATOM     33  N   UNL     1      12.264  -4.753   5.111  1.00  0.00    -0.354 N 
ATOM     34  C   UNL     1      12.608  -1.691   8.127  1.00  0.00     0.074 A 
ATOM     35  C   UNL     1      11.305  -1.231   8.558  1.00  0.00     0.031 C 
ATOM     36  C   UNL     1      11.204  -6.133   3.707  1.00  0.00     0.029 A 
ATOM     37  C   UNL     1      12.525  -5.675   4.125  1.00  0.00     0.049 A 
ATOM     38  H   UNL     1      12.971  -4.278   5.605  1.00  0.00     0.167 HD
ATOM     39  C   UNL     1      13.782  -1.220   8.613  1.00  0.00     0.031 A 
ATOM     40  C   UNL     1      13.693  -6.100   3.603  1.00  0.00     0.031 A 
ATOM     41  C   UNL     1      15.077  -1.677   8.183  1.00  0.00     0.049 A 
ATOM     42  C   UNL     1      14.984  -5.544   4.140  1.00  0.00     0.074 A 
ATOM     43  C   UNL     1      16.323  -1.293   8.648  1.00  0.00     0.029 A 
ATOM     44  N   UNL     1      15.297  -2.616   7.186  1.00  0.00    -0.354 N 
ATOM     45  N   UNL     1      15.167  -4.651   5.083  1.00  0.00    -0.248 NA
ATOM     46  C   UNL     1      16.227  -6.062   3.551  1.00  0.00     0.031 C 
ATOM     47  C   UNL     1      17.296  -1.954   7.891  1.00  0.00     0.029 A 
ATOM     48  C   UNL     1      16.657  -2.804   7.003  1.00  0.00     0.049 A 
ATOM     49  H   UNL     1      14.590  -3.081   6.682  1.00  0.00     0.167 HD
ATOM     50  C   UNL     1      16.545  -4.522   5.220  1.00  0.00     0.074 A 
ATOM     51  C   UNL     1      17.147  -5.439   4.275  1.00  0.00     0.031 C 
ATOM     52  C   UNL     1      17.247  -3.717   6.056  1.00  0.00     0.031 A 
BRANCH  39  53
ATOM     53  C   UNL     1      13.717  -0.142   9.666  1.00  0.00    -0.014 A 
ATOM     54  C   UNL     1      13.229  -0.415  10.958  1.00  0.00     0.010 A 
ATOM     55  C   UNL     1      14.187   1.152   9.375  1.00  0.00     0.010 A 
ATOM     56  C   UNL     1      13.168   0.595  11.921  1.00  0.00     0.020 A 
ATOM     57  C   UNL     1      14.158   2.157  10.346  1.00  0.00     0.020 A 
ATOM     58  C   UNL     1      13.631   1.876  11.608  1.00  0.00     0.054 A 
BRANCH  58  59
ATOM     59  S   UNL     1      13.553   3.162  12.884  1.00  0.00     0.124 S 
ATOM     60  O   UNL     1      12.117   3.421  12.963  1.00  0.00    -0.237 OA
ATOM     61  O   UNL     1      14.136   2.496  14.046  1.00  0.00    -0.237 OA
ATOM     62  O   UNL     1      14.352   4.252  12.329  1.00  0.00    -0.744 OA
ENDBRANCH  58  59
ENDBRANCH  39  53
BRANCH  40  63
ATOM     63  C   UNL     1      13.693  -7.111   2.509  1.00  0.00    -0.014 A 
ATOM     64  C   UNL     1      14.160  -8.417   2.738  1.00  0.00     0.010 A 
ATOM     65  C   UNL     1      13.210  -6.775   1.230  1.00  0.00     0.010 A 
ATOM     66  C   UNL     1      14.161  -9.362   1.707  1.00  0.00     0.020 A 
ATOM     67  C   UNL     1      13.180  -7.725   0.206  1.00  0.00     0.020 A 
ATOM     68  C   UNL     1      13.666  -9.010   0.448  1.00  0.00     0.054 A 
BRANCH  68  69
ATOM     69  S   UNL     1      13.626 -10.268  -0.859  1.00  0.00     0.124 S 
ATOM     70  O   UNL     1      15.040 -10.404  -1.193  1.00  0.00    -0.237 OA
ATOM     71  O   UNL     1      13.023 -11.410  -0.177  1.00  0.00    -0.237 OA
ATOM     72  O   UNL     1      12.793  -9.659  -1.894  1.00  0.00    -0.744 OA
ENDBRANCH  68  69
ENDBRANCH  40  63
BRANCH  52  73
ATOM     73  C   UNL     1      18.751  -3.814   6.016  1.00  0.00    -0.014 A 
ATOM     74  C   UNL     1      19.488  -3.328   4.922  1.00  0.00     0.010 A 
ATOM     75  C   UNL     1      19.439  -4.351   7.120  1.00  0.00     0.010 A 
ATOM     76  C   UNL     1      20.884  -3.407   4.919  1.00  0.00     0.020 A 
ATOM     77  C   UNL     1      20.835  -4.403   7.135  1.00  0.00     0.020 A 
ATOM     78  C   UNL     1      21.549  -3.943   6.027  1.00  0.00     0.054 A 
BRANCH  78  79
ATOM     79  S   UNL     1      23.362  -3.992   6.017  1.00  0.00     0.124 S 
ATOM     80  O   UNL     1      23.632  -5.049   5.047  1.00  0.00    -0.237 OA
ATOM     81  O   UNL     1      23.715  -2.640   5.589  1.00  0.00    -0.237 OA
ATOM     82  O   UNL     1      23.709  -4.311   7.400  1.00  0.00    -0.744 OA
ENDBRANCH  78  79
ENDBRANCH  52  73
ENDBRANCH  26  27
ENDBRANCH  18  21
ENDBRANCH  16  17
ENDBRANCH   1  16
TORSDOF 16
