REMARK SMILES O=C(NCCCCNC(=O)[C@@H]1CCCC[C@@H]1C(=O)Nc1cccc(C(F)(F)F)c1)c1ccc(-c2c3nc(c(-c4ccc(S(=O)(=O)[O-])cc4)c4ccc([nH]4)c(-c4ccc(S(=O)(=O)[O-])cc4)c4nc(c(-c5ccc(S(=O)(=O)[O-])cc5)c5ccc2[nH]5)C=C4)C=C3)cc1
REMARK SMILES IDX 5 1 4 2 3 3 1 4 2 5 30 7 31 8 89 9 32 10 88 11 33 12 34 13
REMARK SMILES IDX 35 14 82 15 36 16 87 17 81 18 83 19 37 20 86 21 80 22 79 23
REMARK SMILES IDX 38 25 68 26 49 27 67 28 50 29 53 30 66 31 84 32 51 33 52 34
REMARK SMILES IDX 65 36 85 37 54 38 39 39 40 40 48 41 41 42 47 43 42 44 43 45
REMARK SMILES IDX 44 46 45 47 46 48 69 49 70 50 78 51 71 52 77 53 72 54 73 55
REMARK SMILES IDX 74 56 75 57 76 58 55 59 56 60 64 61 57 62 63 63 58 64 59 65
REMARK SMILES IDX 60 66 61 67 62 68 6 69 7 70 8 71 9 72 10 74 11 75 12 76
REMARK SMILES IDX 16 77 13 78 15 79 14 80 17 81 18 82 19 83 20 85 21 86 29 87
REMARK SMILES IDX 22 88 24 89 23 90 25 91 26 92 27 93 28 94
REMARK H PARENT 3 6 83 24 53 35 8 73 19 84
REMARK Flexibility Score: inf
ROOT
ATOM      1  C   UNL     1       4.418   3.005  -0.547  1.00  0.00     0.023 C 
ENDROOT
BRANCH   1   2
ATOM      2  C   UNL     1       4.152   1.548  -0.180  1.00  0.00     0.116 C 
BRANCH   2   3
ATOM      3  N   UNL     1       2.747   1.212  -0.056  1.00  0.00    -0.352 N 
ATOM      4  O   UNL     1       0.914  -0.089  -0.233  1.00  0.00    -0.269 OA
ATOM      5  C   UNL     1       2.130   0.024  -0.369  1.00  0.00     0.251 C 
ATOM      6  H   UNL     1       2.163   1.922   0.297  1.00  0.00     0.163 HD
BRANCH   5   7
ATOM      7  C   UNL     1       2.923  -1.104  -0.912  1.00  0.00     0.039 A 
ATOM      8  C   UNL     1       4.059  -1.583  -0.252  1.00  0.00     0.014 A 
ATOM      9  C   UNL     1       2.499  -1.707  -2.100  1.00  0.00     0.014 A 
ATOM     10  C   UNL     1       4.813  -2.612  -0.821  1.00  0.00     0.010 A 
ATOM     11  C   UNL     1       3.232  -2.765  -2.647  1.00  0.00     0.010 A 
ATOM     12  C   UNL     1       4.402  -3.220  -2.020  1.00  0.00    -0.014 A 
BRANCH  12  13
ATOM     13  C   UNL     1       5.136  -4.394  -2.562  1.00  0.00     0.031 A 
ATOM     14  C   UNL     1       5.905  -4.310  -3.853  1.00  0.00     0.074 A 
ATOM     15  C   UNL     1       5.066  -5.565  -1.897  1.00  0.00     0.049 A 
ATOM     16  N   UNL     1       6.551  -5.257  -4.486  1.00  0.00    -0.248 NA
ATOM     17  C   UNL     1       5.951  -3.002  -4.525  1.00  0.00     0.031 C 
ATOM     18  C   UNL     1       4.334  -5.782  -0.646  1.00  0.00     0.029 A 
ATOM     19  N   UNL     1       5.604  -6.795  -2.183  1.00  0.00    -0.354 N 
ATOM     20  C   UNL     1       7.066  -4.669  -5.636  1.00  0.00     0.074 A 
ATOM     21  C   UNL     1       6.647  -3.283  -5.621  1.00  0.00     0.031 C 
ATOM     22  C   UNL     1       4.472  -7.063  -0.272  1.00  0.00     0.029 A 
ATOM     23  C   UNL     1       5.259  -7.769  -1.276  1.00  0.00     0.049 A 
ATOM     24  H   UNL     1       6.181  -6.963  -2.963  1.00  0.00     0.167 HD
ATOM     25  C   UNL     1       7.817  -5.234  -6.612  1.00  0.00     0.031 A 
ATOM     26  C   UNL     1       5.516  -9.091  -1.266  1.00  0.00     0.031 A 
ATOM     27  C   UNL     1       8.239  -6.612  -6.621  1.00  0.00     0.049 A 
ATOM     28  C   UNL     1       6.322  -9.695  -2.381  1.00  0.00     0.074 A 
ATOM     29  C   UNL     1       9.066  -7.250  -7.532  1.00  0.00     0.029 A 
ATOM     30  N   UNL     1       7.859  -7.567  -5.692  1.00  0.00    -0.354 N 
ATOM     31  N   UNL     1       6.863  -9.102  -3.417  1.00  0.00    -0.248 NA
ATOM     32  C   UNL     1       6.548 -11.146  -2.326  1.00  0.00     0.031 C 
ATOM     33  C   UNL     1       9.138  -8.603  -7.186  1.00  0.00     0.029 A 
ATOM     34  C   UNL     1       8.399  -8.797  -6.031  1.00  0.00     0.049 A 
ATOM     35  H   UNL     1       7.290  -7.397  -4.907  1.00  0.00     0.167 HD
ATOM     36  C   UNL     1       7.501 -10.108  -4.134  1.00  0.00     0.074 A 
ATOM     37  C   UNL     1       7.302 -11.340  -3.399  1.00  0.00     0.031 C 
ATOM     38  C   UNL     1       8.185 -10.019  -5.300  1.00  0.00     0.031 A 
BRANCH  25  39
ATOM     39  C   UNL     1       8.234  -4.378  -7.779  1.00  0.00    -0.014 A 
ATOM     40  C   UNL     1       9.275  -3.441  -7.658  1.00  0.00     0.010 A 
ATOM     41  C   UNL     1       7.658  -4.602  -9.044  1.00  0.00     0.010 A 
ATOM     42  C   UNL     1       9.725  -2.737  -8.779  1.00  0.00     0.020 A 
ATOM     43  C   UNL     1       8.118  -3.914 -10.170  1.00  0.00     0.020 A 
ATOM     44  C   UNL     1       9.146  -2.980 -10.029  1.00  0.00     0.054 A 
BRANCH  44  45
ATOM     45  S   UNL     1       9.799  -2.103 -11.478  1.00  0.00     0.124 S 
ATOM     46  O   UNL     1       9.283  -0.752 -11.268  1.00  0.00    -0.237 OA
ATOM     47  O   UNL     1      11.243  -2.254 -11.322  1.00  0.00    -0.237 OA
ATOM     48  O   UNL     1       9.219  -2.821 -12.610  1.00  0.00    -0.744 OA
ENDBRANCH  44  45
ENDBRANCH  25  39
BRANCH  26  49
ATOM     49  C   UNL     1       4.963  -9.946  -0.181  1.00  0.00    -0.014 A 
ATOM     50  C   UNL     1       5.809 -10.520   0.783  1.00  0.00     0.010 A 
ATOM     51  C   UNL     1       3.580 -10.194  -0.117  1.00  0.00     0.010 A 
ATOM     52  C   UNL     1       5.283 -11.350   1.778  1.00  0.00     0.020 A 
ATOM     53  C   UNL     1       3.047 -10.999   0.893  1.00  0.00     0.020 A 
ATOM     54  C   UNL     1       3.906 -11.586   1.824  1.00  0.00     0.054 A 
BRANCH  54  55
ATOM     55  S   UNL     1       3.237 -12.638   3.142  1.00  0.00     0.124 S 
ATOM     56  O   UNL     1       3.555 -13.975   2.651  1.00  0.00    -0.237 OA
ATOM     57  O   UNL     1       3.989 -12.198   4.314  1.00  0.00    -0.237 OA
ATOM     58  O   UNL     1       1.816 -12.297   3.160  1.00  0.00    -0.744 OA
ENDBRANCH  54  55
ENDBRANCH  26  49
BRANCH  38  59
ATOM     59  C   UNL     1       8.775 -11.288  -5.851  1.00  0.00    -0.014 A 
ATOM     60  C   UNL     1       7.956 -12.266  -6.443  1.00  0.00     0.010 A 
ATOM     61  C   UNL     1      10.166 -11.490  -5.810  1.00  0.00     0.010 A 
ATOM     62  C   UNL     1       8.515 -13.438  -6.958  1.00  0.00     0.020 A 
ATOM     63  C   UNL     1      10.731 -12.650  -6.346  1.00  0.00     0.020 A 
ATOM     64  C   UNL     1       9.900 -13.624  -6.904  1.00  0.00     0.054 A 
BRANCH  64  65
ATOM     65  S   UNL     1      10.608 -15.136  -7.613  1.00  0.00     0.124 S 
ATOM     66  O   UNL     1      10.277 -16.131  -6.596  1.00  0.00    -0.237 OA
ATOM     67  O   UNL     1       9.888 -15.267  -8.877  1.00  0.00    -0.237 OA
ATOM     68  O   UNL     1      12.030 -14.825  -7.742  1.00  0.00    -0.744 OA
ENDBRANCH  64  65
ENDBRANCH  38  59
ENDBRANCH  12  13
ENDBRANCH   5   7
ENDBRANCH   2   3
ENDBRANCH   1   2
BRANCH   1  69
ATOM     69  C   UNL     1       3.989   4.055   0.484  1.00  0.00     0.023 C 
BRANCH  69  70
ATOM     70  C   UNL     1       4.682   3.993   1.848  1.00  0.00     0.116 C 
BRANCH  70  71
ATOM     71  N   UNL     1       6.121   4.204   1.772  1.00  0.00    -0.356 N 
ATOM     72  C   UNL     1       6.969   4.951   2.541  1.00  0.00     0.223 C 
ATOM     73  H   UNL     1       6.562   3.723   1.035  1.00  0.00     0.163 HD
ATOM     74  O   UNL     1       8.178   4.842   2.336  1.00  0.00    -0.275 OA
BRANCH  72  75
ATOM     75  C   UNL     1       6.428   5.855   3.636  1.00  0.00     0.091 C 
ATOM     76  C   UNL     1       6.980   7.274   3.450  1.00  0.00     0.014 C 
ATOM     77  C   UNL     1       6.661   5.306   5.060  1.00  0.00     0.091 C 
ATOM     78  C   UNL     1       6.332   8.237   4.438  1.00  0.00     0.001 C 
ATOM     79  C   UNL     1       6.078   6.310   6.091  1.00  0.00     0.014 C 
ATOM     80  C   UNL     1       6.501   7.770   5.879  1.00  0.00     0.001 C 
BRANCH  77  81
ATOM     81  C   UNL     1       8.126   5.032   5.430  1.00  0.00     0.228 C 
ATOM     82  O   UNL     1       8.909   5.968   5.634  1.00  0.00    -0.274 OA
ATOM     83  N   UNL     1       8.606   3.789   5.718  1.00  0.00    -0.326 N 
ATOM     84  H   UNL     1       9.421   3.827   6.270  1.00  0.00     0.169 HD
BRANCH  83  85
ATOM     85  C   UNL     1       8.229   2.469   5.426  1.00  0.00     0.041 A 
ATOM     86  C   UNL     1       8.958   1.448   6.052  1.00  0.00     0.026 A 
ATOM     87  C   UNL     1       7.288   2.108   4.472  1.00  0.00     0.039 A 
ATOM     88  C   UNL     1       8.753   0.104   5.725  1.00  0.00     0.003 A 
ATOM     89  C   UNL     1       7.112   0.763   4.090  1.00  0.00     0.058 A 
ATOM     90  C   UNL     1       7.838  -0.239   4.737  1.00  0.00     0.013 A 
BRANCH  89  91
ATOM     91  C   UNL     1       6.201   0.449   2.938  1.00  0.00     0.416 C 
ATOM     92  F   UNL     1       6.182  -0.859   2.567  1.00  0.00    -0.166 F 
ATOM     93  F   UNL     1       4.905   0.785   3.192  1.00  0.00    -0.166 F 
ATOM     94  F   UNL     1       6.548   1.146   1.817  1.00  0.00    -0.166 F 
ENDBRANCH  89  91
ENDBRANCH  83  85
ENDBRANCH  77  81
ENDBRANCH  72  75
ENDBRANCH  70  71
ENDBRANCH  69  70
ENDBRANCH   1  69
TORSDOF 17
