REMARK SMILES O=C(NCCCCNC(=O)c1ccc(-c2c3nc(c(-c4ccc(S(=O)(=O)[O-])cc4)c4ccc([nH]4)c(-c4ccc(S(=O)(=O)[O-])cc4)c4nc(c(-c5ccc(S(=O)(=O)[O-])cc5)c5ccc2[nH]5)C=C4)C=C3)cc1)C1=Cc2cc(OC(F)(F)F)ccc2O[C@@H]1C(F)(F)F
REMARK SMILES IDX 6 1 5 2 4 3 3 4 1 5 2 6 71 8 72 9 85 10 73 11 84 12 74 13
REMARK SMILES IDX 83 14 75 15 82 16 81 17 86 18 87 19 88 20 89 21 76 22 77 23
REMARK SMILES IDX 78 24 79 25 80 26 7 27 8 28 9 29 10 31 11 32 12 33 70 34
REMARK SMILES IDX 13 35 69 36 14 37 15 38 16 39 63 40 17 41 68 42 62 43 64 44
REMARK SMILES IDX 18 45 67 46 61 47 60 48 19 50 49 51 30 52 48 53 31 54 34 55
REMARK SMILES IDX 47 56 65 57 32 58 33 59 46 61 66 62 35 63 20 64 21 65 29 66
REMARK SMILES IDX 22 67 28 68 23 69 24 70 25 71 26 72 27 73 50 74 51 75 59 76
REMARK SMILES IDX 52 77 58 78 53 79 54 80 55 81 56 82 57 83 36 84 37 85 45 86
REMARK SMILES IDX 38 87 44 88 39 89 40 90 41 91 42 92 43 93
REMARK H PARENT 3 7 8 30 64 49 34 60
REMARK Flexibility Score: inf
ROOT
ATOM      1  C   UNL     1       4.035  -2.598  -3.679  1.00  0.00     0.023 C 
ENDROOT
BRANCH   1   2
ATOM      2  C   UNL     1       4.161  -2.410  -2.165  1.00  0.00     0.023 C 
BRANCH   2   3
ATOM      3  C   UNL     1       3.475  -1.145  -1.641  1.00  0.00     0.116 C 
BRANCH   3   4
ATOM      4  N   UNL     1       2.447  -1.418  -0.630  1.00  0.00    -0.352 N 
ATOM      5  O   UNL     1       1.203  -0.993   1.225  1.00  0.00    -0.270 OA
ATOM      6  C   UNL     1       2.243  -0.839   0.600  1.00  0.00     0.251 C 
ATOM      7  H   UNL     1       1.804  -2.123  -0.871  1.00  0.00     0.163 HD
BRANCH   6   8
ATOM      8  C   UNL     1       3.313   0.032   1.115  1.00  0.00     0.067 C 
ATOM      9  C   UNL     1       4.500  -0.543   1.350  1.00  0.00     0.025 C 
ATOM     10  C   UNL     1       3.132   1.512   0.976  1.00  0.00     0.314 C 
ATOM     11  C   UNL     1       5.635   0.241   0.854  1.00  0.00     0.021 A 
ATOM     12  O   UNL     1       4.195   2.115   0.195  1.00  0.00    -0.475 OA
ATOM     13  C   UNL     1       6.854  -0.420   0.682  1.00  0.00     0.058 A 
ATOM     14  C   UNL     1       5.397   1.452   0.180  1.00  0.00     0.128 A 
ATOM     15  C   UNL     1       7.769   0.051  -0.260  1.00  0.00     0.130 A 
ATOM     16  C   UNL     1       6.344   1.952  -0.710  1.00  0.00     0.051 A 
ATOM     17  C   UNL     1       7.520   1.238  -0.951  1.00  0.00     0.050 A 
BRANCH  10  18
ATOM     18  C   UNL     1       2.994   2.207   2.341  1.00  0.00     0.429 C 
ATOM     19  F   UNL     1       2.706   3.524   2.190  1.00  0.00    -0.167 F 
ATOM     20  F   UNL     1       1.996   1.675   3.085  1.00  0.00    -0.167 F 
ATOM     21  F   UNL     1       4.127   2.132   3.079  1.00  0.00    -0.167 F 
ENDBRANCH  10  18
BRANCH  15  22
ATOM     22  O   UNL     1       8.880  -0.721  -0.459  1.00  0.00    -0.406 OA
BRANCH  22  23
ATOM     23  C   UNL     1       9.090  -1.071  -1.827  1.00  0.00     0.573 C 
ATOM     24  F   UNL     1       7.935  -1.486  -2.395  1.00  0.00    -0.132 F 
ATOM     25  F   UNL     1       9.600  -0.026  -2.506  1.00  0.00    -0.132 F 
ATOM     26  F   UNL     1       9.977  -2.088  -1.872  1.00  0.00    -0.132 F 
ENDBRANCH  22  23
ENDBRANCH  15  22
ENDBRANCH   6   8
ENDBRANCH   3   4
ENDBRANCH   2   3
ENDBRANCH   1   2
BRANCH   1  27
ATOM     27  C   UNL     1       4.585  -1.475  -4.556  1.00  0.00     0.116 C 
BRANCH  27  28
ATOM     28  N   UNL     1       6.021  -1.269  -4.454  1.00  0.00    -0.352 N 
ATOM     29  C   UNL     1       6.921  -0.978  -5.463  1.00  0.00     0.251 C 
ATOM     30  H   UNL     1       6.403  -1.347  -3.550  1.00  0.00     0.163 HD
ATOM     31  O   UNL     1       8.108  -0.834  -5.222  1.00  0.00    -0.269 OA
BRANCH  29  32
ATOM     32  C   UNL     1       6.426  -0.913  -6.859  1.00  0.00     0.039 A 
ATOM     33  C   UNL     1       6.987  -1.776  -7.804  1.00  0.00     0.014 A 
ATOM     34  C   UNL     1       5.345  -0.097  -7.196  1.00  0.00     0.014 A 
ATOM     35  C   UNL     1       6.386  -1.905  -9.059  1.00  0.00     0.010 A 
ATOM     36  C   UNL     1       4.708  -0.278  -8.421  1.00  0.00     0.010 A 
ATOM     37  C   UNL     1       5.206  -1.204  -9.354  1.00  0.00    -0.014 A 
BRANCH  37  38
ATOM     38  C   UNL     1       4.447  -1.461 -10.606  1.00  0.00     0.031 A 
ATOM     39  C   UNL     1       4.262  -0.363 -11.617  1.00  0.00     0.074 A 
ATOM     40  C   UNL     1       3.845  -2.655 -10.787  1.00  0.00     0.049 A 
ATOM     41  N   UNL     1       3.558  -0.369 -12.719  1.00  0.00    -0.248 NA
ATOM     42  C   UNL     1       4.929   0.919 -11.336  1.00  0.00     0.031 C 
ATOM     43  C   UNL     1       3.900  -3.786  -9.855  1.00  0.00     0.029 A 
ATOM     44  N   UNL     1       3.055  -3.115 -11.812  1.00  0.00    -0.354 N 
ATOM     45  C   UNL     1       3.671   0.912 -13.246  1.00  0.00     0.074 A 
ATOM     46  C   UNL     1       4.483   1.678 -12.326  1.00  0.00     0.031 C 
ATOM     47  C   UNL     1       3.194  -4.811 -10.361  1.00  0.00     0.029 A 
ATOM     48  C   UNL     1       2.606  -4.404 -11.632  1.00  0.00     0.049 A 
ATOM     49  H   UNL     1       2.831  -2.574 -12.603  1.00  0.00     0.167 HD
ATOM     50  C   UNL     1       3.157   1.402 -14.399  1.00  0.00     0.031 A 
ATOM     51  C   UNL     1       1.804  -5.169 -12.399  1.00  0.00     0.031 A 
ATOM     52  C   UNL     1       2.379   0.629 -15.329  1.00  0.00     0.049 A 
ATOM     53  C   UNL     1       1.272  -4.609 -13.690  1.00  0.00     0.074 A 
ATOM     54  C   UNL     1       1.885   1.013 -16.564  1.00  0.00     0.029 A 
ATOM     55  N   UNL     1       1.983  -0.684 -15.129  1.00  0.00    -0.354 N 
ATOM     56  N   UNL     1       1.461  -3.420 -14.210  1.00  0.00    -0.248 NA
ATOM     57  C   UNL     1       0.428  -5.497 -14.502  1.00  0.00     0.031 C 
ATOM     58  C   UNL     1       1.156  -0.057 -17.093  1.00  0.00     0.029 A 
ATOM     59  C   UNL     1       1.234  -1.120 -16.208  1.00  0.00     0.049 A 
ATOM     60  H   UNL     1       2.202  -1.226 -14.337  1.00  0.00     0.167 HD
ATOM     61  C   UNL     1       0.782  -3.427 -15.423  1.00  0.00     0.074 A 
ATOM     62  C   UNL     1       0.189  -4.741 -15.565  1.00  0.00     0.031 C 
ATOM     63  C   UNL     1       0.661  -2.434 -16.338  1.00  0.00     0.031 A 
BRANCH  50  64
ATOM     64  C   UNL     1       3.419   2.849 -14.718  1.00  0.00    -0.014 A 
ATOM     65  C   UNL     1       4.697   3.287 -15.109  1.00  0.00     0.010 A 
ATOM     66  C   UNL     1       2.361   3.776 -14.667  1.00  0.00     0.010 A 
ATOM     67  C   UNL     1       4.922   4.633 -15.405  1.00  0.00     0.020 A 
ATOM     68  C   UNL     1       2.578   5.119 -14.987  1.00  0.00     0.020 A 
ATOM     69  C   UNL     1       3.861   5.542 -15.337  1.00  0.00     0.054 A 
BRANCH  69  70
ATOM     70  S   UNL     1       4.176   7.280 -15.750  1.00  0.00     0.124 S 
ATOM     71  O   UNL     1       4.878   7.749 -14.558  1.00  0.00    -0.237 OA
ATOM     72  O   UNL     1       4.990   7.181 -16.959  1.00  0.00    -0.237 OA
ATOM     73  O   UNL     1       2.840   7.837 -15.946  1.00  0.00    -0.744 OA
ENDBRANCH  69  70
ENDBRANCH  50  64
BRANCH  51  74
ATOM     74  C   UNL     1       1.462  -6.555 -11.977  1.00  0.00    -0.014 A 
ATOM     75  C   UNL     1       2.004  -7.661 -12.657  1.00  0.00     0.010 A 
ATOM     76  C   UNL     1       0.582  -6.778 -10.902  1.00  0.00     0.010 A 
ATOM     77  C   UNL     1       1.652  -8.963 -12.288  1.00  0.00     0.020 A 
ATOM     78  C   UNL     1       0.248  -8.079 -10.514  1.00  0.00     0.020 A 
ATOM     79  C   UNL     1       0.773  -9.164 -11.220  1.00  0.00     0.054 A 
BRANCH  79  80
ATOM     80  S   UNL     1       0.354 -10.861 -10.734  1.00  0.00     0.124 S 
ATOM     81  O   UNL     1      -0.610 -11.241 -11.761  1.00  0.00    -0.237 OA
ATOM     82  O   UNL     1       1.647 -11.538 -10.796  1.00  0.00    -0.237 OA
ATOM     83  O   UNL     1      -0.192 -10.703  -9.388  1.00  0.00    -0.744 OA
ENDBRANCH  79  80
ENDBRANCH  51  74
BRANCH  63  84
ATOM     84  C   UNL     1      -0.110  -2.739 -17.592  1.00  0.00    -0.014 A 
ATOM     85  C   UNL     1      -1.514  -2.818 -17.581  1.00  0.00     0.010 A 
ATOM     86  C   UNL     1       0.578  -2.882 -18.810  1.00  0.00     0.010 A 
ATOM     87  C   UNL     1      -2.214  -3.060 -18.765  1.00  0.00     0.020 A 
ATOM     88  C   UNL     1      -0.120  -3.101 -19.999  1.00  0.00     0.020 A 
ATOM     89  C   UNL     1      -1.513  -3.200 -19.967  1.00  0.00     0.054 A 
BRANCH  89  90
ATOM     90  S   UNL     1      -2.447  -3.458 -21.501  1.00  0.00     0.124 S 
ATOM     91  O   UNL     1      -2.817  -4.867 -21.397  1.00  0.00    -0.237 OA
ATOM     92  O   UNL     1      -3.548  -2.507 -21.372  1.00  0.00    -0.237 OA
ATOM     93  O   UNL     1      -1.480  -3.143 -22.550  1.00  0.00    -0.744 OA
ENDBRANCH  89  90
ENDBRANCH  63  84
ENDBRANCH  37  38
ENDBRANCH  29  32
ENDBRANCH  27  28
ENDBRANCH   1  27
TORSDOF 17
