REMARK SMILES O=C(NCCCCNC(=O)c1ccc(-c2c3nc(c(-c4ccc(S(=O)(=O)[O-])cc4)c4ccc([nH]4)c(-c4ccc(S(=O)(=O)[O-])cc4)c4nc(c(-c5ccc(S(=O)(=O)[O-])cc5)c5ccc2[nH]5)C=C4)C=C3)cc1)c1ccc(NC(=O)[C@@H]2CC=CC[C@H]2C(=O)Nc2cccc([N+](=O)[O-])c2)cc1
REMARK SMILES IDX 4 1 3 2 1 3 2 4 71 6 72 7 97 8 73 9 96 10 74 11 75 12 76 13
REMARK SMILES IDX 77 15 78 16 79 17 83 18 80 19 82 20 81 21 84 22 85 23 86 24
REMARK SMILES IDX 87 26 88 27 95 28 89 29 91 30 90 31 92 32 93 33 94 34 5 35
REMARK SMILES IDX 6 36 7 37 8 38 9 39 10 41 11 42 12 43 70 44 13 45 69 46
REMARK SMILES IDX 14 47 15 48 16 49 63 50 17 51 68 52 62 53 64 54 18 55 67 56
REMARK SMILES IDX 61 57 60 58 19 60 49 61 30 62 48 63 31 64 34 65 47 66 65 67
REMARK SMILES IDX 32 68 33 69 46 71 66 72 35 73 20 74 21 75 29 76 22 77 28 78
REMARK SMILES IDX 23 79 24 80 25 81 26 82 27 83 50 84 51 85 59 86 52 87 58 88
REMARK SMILES IDX 53 89 54 90 55 91 56 92 57 93 36 94 37 95 45 96 38 97 44 98
REMARK SMILES IDX 39 99 40 100 41 101 42 102 43 103
REMARK H PARENT 3 5 75 14 86 25 8 40 64 59 34 70
REMARK Flexibility Score: inf
ROOT
ATOM      1  C   UNL     1      10.121  -9.268  -0.535  1.00  0.00     0.116 C 
ENDROOT
BRANCH   1   2
ATOM      2  N   UNL     1      11.504  -8.850  -0.556  1.00  0.00    -0.352 N 
ATOM      3  O   UNL     1      13.336  -7.597  -0.642  1.00  0.00    -0.269 OA
ATOM      4  C   UNL     1      12.104  -7.623  -0.695  1.00  0.00     0.251 C 
ATOM      5  H   UNL     1      12.142  -9.591  -0.448  1.00  0.00     0.163 HD
BRANCH   4   6
ATOM      6  C   UNL     1      11.363  -6.328  -0.798  1.00  0.00     0.039 A 
ATOM      7  C   UNL     1      10.061  -6.149  -1.275  1.00  0.00     0.016 A 
ATOM      8  C   UNL     1      12.042  -5.200  -0.318  1.00  0.00     0.016 A 
ATOM      9  C   UNL     1       9.366  -4.950  -1.017  1.00  0.00     0.027 A 
ATOM     10  C   UNL     1      11.373  -3.993  -0.123  1.00  0.00     0.027 A 
ATOM     11  C   UNL     1       9.998  -3.916  -0.336  1.00  0.00     0.041 A 
BRANCH  11  12
ATOM     12  N   UNL     1       9.374  -2.780   0.182  1.00  0.00    -0.326 N 
ATOM     13  C   UNL     1       8.207  -2.556   0.843  1.00  0.00     0.228 C 
ATOM     14  H   UNL     1       9.895  -1.958   0.037  1.00  0.00     0.169 HD
ATOM     15  O   UNL     1       8.016  -1.372   1.151  1.00  0.00    -0.274 OA
BRANCH  13  16
ATOM     16  C   UNL     1       7.166  -3.646   1.184  1.00  0.00     0.095 C 
ATOM     17  C   UNL     1       5.927  -2.897   1.758  1.00  0.00     0.041 C 
ATOM     18  C   UNL     1       7.630  -4.785   2.121  1.00  0.00     0.095 C 
ATOM     19  C   UNL     1       4.937  -3.696   2.540  1.00  0.00    -0.030 C 
ATOM     20  C   UNL     1       6.656  -5.344   3.195  1.00  0.00     0.041 C 
ATOM     21  C   UNL     1       5.276  -4.798   3.207  1.00  0.00    -0.030 C 
BRANCH  18  22
ATOM     22  C   UNL     1       8.175  -6.057   1.494  1.00  0.00     0.228 C 
ATOM     23  O   UNL     1       9.317  -6.418   1.825  1.00  0.00    -0.274 OA
ATOM     24  N   UNL     1       7.486  -6.979   0.770  1.00  0.00    -0.326 N 
ATOM     25  H   UNL     1       8.006  -7.813   0.721  1.00  0.00     0.169 HD
BRANCH  24  26
ATOM     26  C   UNL     1       6.279  -7.137   0.070  1.00  0.00     0.048 A 
ATOM     27  C   UNL     1       5.958  -8.457  -0.295  1.00  0.00     0.026 A 
ATOM     28  C   UNL     1       5.411  -6.136  -0.339  1.00  0.00     0.111 A 
ATOM     29  C   UNL     1       4.795  -8.768  -1.013  1.00  0.00     0.009 A 
ATOM     30  C   UNL     1       4.255  -6.437  -1.081  1.00  0.00     0.271 A 
ATOM     31  C   UNL     1       3.932  -7.753  -1.409  1.00  0.00     0.086 A 
BRANCH  30  32
ATOM     32  N   UNL     1       3.384  -5.339  -1.518  1.00  0.00     0.062 N 
ATOM     33  O   UNL     1       2.229  -5.621  -1.865  1.00  0.00    -0.258 OA
ATOM     34  O   UNL     1       3.860  -4.194  -1.517  1.00  0.00    -0.258 OA
ENDBRANCH  30  32
ENDBRANCH  24  26
ENDBRANCH  18  22
ENDBRANCH  13  16
ENDBRANCH  11  12
ENDBRANCH   4   6
ENDBRANCH   1   2
BRANCH   1  35
ATOM     35  C   UNL     1       9.724  -9.931  -1.852  1.00  0.00     0.023 C 
BRANCH  35  36
ATOM     36  C   UNL     1       9.978 -11.440  -1.877  1.00  0.00     0.023 C 
BRANCH  36  37
ATOM     37  C   UNL     1       9.110 -12.257  -0.922  1.00  0.00     0.116 C 
BRANCH  37  38
ATOM     38  N   UNL     1       7.686 -12.165  -1.211  1.00  0.00    -0.352 N 
ATOM     39  C   UNL     1       6.745 -13.171  -1.300  1.00  0.00     0.251 C 
ATOM     40  H   UNL     1       7.345 -11.254  -1.364  1.00  0.00     0.163 HD
ATOM     41  O   UNL     1       5.601 -12.905  -1.623  1.00  0.00    -0.269 OA
BRANCH  39  42
ATOM     42  C   UNL     1       7.161 -14.572  -1.050  1.00  0.00     0.039 A 
ATOM     43  C   UNL     1       6.846 -15.547  -1.999  1.00  0.00     0.014 A 
ATOM     44  C   UNL     1       7.918 -14.905   0.075  1.00  0.00     0.014 A 
ATOM     45  C   UNL     1       7.375 -16.835  -1.867  1.00  0.00     0.010 A 
ATOM     46  C   UNL     1       8.511 -16.163   0.160  1.00  0.00     0.010 A 
ATOM     47  C   UNL     1       8.256 -17.139  -0.815  1.00  0.00    -0.014 A 
BRANCH  47  48
ATOM     48  C   UNL     1       8.943 -18.457  -0.737  1.00  0.00     0.031 A 
ATOM     49  C   UNL     1       8.720 -19.364   0.444  1.00  0.00     0.074 A 
ATOM     50  C   UNL     1       9.826 -18.809  -1.695  1.00  0.00     0.049 A 
ATOM     51  N   UNL     1       9.269 -20.522   0.709  1.00  0.00    -0.248 NA
ATOM     52  C   UNL     1       7.777 -18.899   1.474  1.00  0.00     0.031 C 
ATOM     53  C   UNL     1      10.176 -18.001  -2.866  1.00  0.00     0.029 A 
ATOM     54  N   UNL     1      10.598 -19.938  -1.833  1.00  0.00    -0.354 N 
ATOM     55  C   UNL     1       8.753 -20.915   1.938  1.00  0.00     0.074 A 
ATOM     56  C   UNL     1       7.889 -19.847   2.392  1.00  0.00     0.031 C 
ATOM     57  C   UNL     1      11.064 -18.672  -3.617  1.00  0.00     0.029 A 
ATOM     58  C   UNL     1      11.383 -19.937  -2.963  1.00  0.00     0.049 A 
ATOM     59  H   UNL     1      10.590 -20.678  -1.184  1.00  0.00     0.167 HD
ATOM     60  C   UNL     1       8.959 -22.068   2.619  1.00  0.00     0.031 A 
ATOM     61  C   UNL     1      12.266 -20.847  -3.422  1.00  0.00     0.031 A 
ATOM     62  C   UNL     1       9.811 -23.134   2.163  1.00  0.00     0.049 A 
ATOM     63  C   UNL     1      12.486 -22.115  -2.644  1.00  0.00     0.074 A 
ATOM     64  C   UNL     1      10.038 -24.365   2.754  1.00  0.00     0.029 A 
ATOM     65  N   UNL     1      10.581 -23.097   1.010  1.00  0.00    -0.354 N 
ATOM     66  N   UNL     1      11.930 -22.499  -1.520  1.00  0.00    -0.248 NA
ATOM     67  C   UNL     1      13.445 -23.079  -3.202  1.00  0.00     0.031 C 
ATOM     68  C   UNL     1      10.987 -25.049   1.988  1.00  0.00     0.029 A 
ATOM     69  C   UNL     1      11.303 -24.272   0.886  1.00  0.00     0.049 A 
ATOM     70  H   UNL     1      10.609 -22.346   0.374  1.00  0.00     0.167 HD
ATOM     71  C   UNL     1      12.450 -23.760  -1.251  1.00  0.00     0.074 A 
ATOM     72  C   UNL     1      13.352 -24.081  -2.338  1.00  0.00     0.031 C 
ATOM     73  C   UNL     1      12.201 -24.579  -0.199  1.00  0.00     0.031 A 
BRANCH  60  74
ATOM     74  C   UNL     1       8.249 -22.233   3.938  1.00  0.00    -0.014 A 
ATOM     75  C   UNL     1       6.853 -22.393   3.997  1.00  0.00     0.010 A 
ATOM     76  C   UNL     1       8.992 -22.268   5.133  1.00  0.00     0.010 A 
ATOM     77  C   UNL     1       6.207 -22.538   5.228  1.00  0.00     0.020 A 
ATOM     78  C   UNL     1       8.353 -22.445   6.364  1.00  0.00     0.020 A 
ATOM     79  C   UNL     1       6.962 -22.560   6.404  1.00  0.00     0.054 A 
BRANCH  79  80
ATOM     80  S   UNL     1       6.098 -22.769   7.985  1.00  0.00     0.124 S 
ATOM     81  O   UNL     1       5.445 -21.471   8.143  1.00  0.00    -0.237 OA
ATOM     82  O   UNL     1       5.204 -23.892   7.715  1.00  0.00    -0.237 OA
ATOM     83  O   UNL     1       7.173 -23.045   8.935  1.00  0.00    -0.744 OA
ENDBRANCH  79  80
ENDBRANCH  60  74
BRANCH  61  84
ATOM     84  C   UNL     1      12.997 -20.598  -4.696  1.00  0.00    -0.014 A 
ATOM     85  C   UNL     1      12.708 -21.355  -5.846  1.00  0.00     0.010 A 
ATOM     86  C   UNL     1      13.980 -19.594  -4.771  1.00  0.00     0.010 A 
ATOM     87  C   UNL     1      13.399 -21.125  -7.039  1.00  0.00     0.020 A 
ATOM     88  C   UNL     1      14.651 -19.340  -5.970  1.00  0.00     0.020 A 
ATOM     89  C   UNL     1      14.364 -20.115  -7.095  1.00  0.00     0.054 A 
BRANCH  89  90
ATOM     90  S   UNL     1      15.206 -19.797  -8.670  1.00  0.00     0.124 S 
ATOM     91  O   UNL     1      16.094 -20.950  -8.779  1.00  0.00    -0.237 OA
ATOM     92  O   UNL     1      14.096 -19.759  -9.619  1.00  0.00    -0.237 OA
ATOM     93  O   UNL     1      15.869 -18.513  -8.449  1.00  0.00    -0.744 OA
ENDBRANCH  89  90
ENDBRANCH  61  84
BRANCH  73  94
ATOM     94  C   UNL     1      12.886 -25.921  -0.185  1.00  0.00    -0.014 A 
ATOM     95  C   UNL     1      14.266 -26.034   0.058  1.00  0.00     0.010 A 
ATOM     96  C   UNL     1      12.124 -27.090  -0.364  1.00  0.00     0.010 A 
ATOM     97  C   UNL     1      14.877 -27.291   0.089  1.00  0.00     0.020 A 
ATOM     98  C   UNL     1      12.725 -28.349  -0.303  1.00  0.00     0.020 A 
ATOM     99  C   UNL     1      14.101 -28.441  -0.091  1.00  0.00     0.054 A 
BRANCH  99 100
ATOM    100  S   UNL     1      14.910 -30.062  -0.004  1.00  0.00     0.124 S 
ATOM    101  O   UNL     1      15.650 -30.101  -1.262  1.00  0.00    -0.237 OA
ATOM    102  O   UNL     1      15.727 -29.948   1.202  1.00  0.00    -0.237 OA
ATOM    103  O   UNL     1      13.795 -31.002   0.093  1.00  0.00    -0.744 OA
ENDBRANCH  99 100
ENDBRANCH  73  94
ENDBRANCH  47  48
ENDBRANCH  39  42
ENDBRANCH  37  38
ENDBRANCH  36  37
ENDBRANCH  35  36
ENDBRANCH   1  35
TORSDOF 19
