REMARK SMILES CC1(C)[C@@H](C(=O)NCCCCNC(=O)c2ccc(-c3c4nc(c(-c5ccc(S(=O)(=O)[O-])cc5)c5ccc([nH]5)c(-c5ccc(S(=O)(=O)[O-])cc5)c5nc(c(-c6ccc(S(=O)(=O)[O-])cc6)c6ccc3[nH]6)C=C5)C=C4)cc2)[C@@H]1C(=O)NCCc1ccc(S(N)(=O)=O)cc1
REMARK SMILES IDX 8 1 7 2 5 3 6 4 4 6 1 7 2 8 3 9 75 10 76 11 77 12 78 13
REMARK SMILES IDX 79 15 80 16 81 17 82 18 90 19 83 20 89 21 84 22 85 23 87 24
REMARK SMILES IDX 88 25 86 26 9 29 10 30 11 31 12 32 13 33 14 35 15 36 16 37
REMARK SMILES IDX 74 38 17 39 73 40 18 41 19 42 20 43 67 44 21 45 72 46 66 47
REMARK SMILES IDX 68 48 22 49 71 50 65 51 64 52 23 54 53 55 34 56 52 57 35 58
REMARK SMILES IDX 38 59 51 60 69 61 36 62 37 63 50 65 70 66 39 67 24 68 25 69
REMARK SMILES IDX 33 70 26 71 32 72 27 73 28 74 29 75 30 76 31 77 54 78 55 79
REMARK SMILES IDX 63 80 56 81 62 82 57 83 58 84 59 85 60 86 61 87 40 88 41 89
REMARK SMILES IDX 49 90 42 91 48 92 43 93 44 94 45 95 46 96 47 97
REMARK H PARENT 7 5 78 14 86 27 86 28 12 34 68 53 38 64
REMARK Flexibility Score: inf
ROOT
ATOM      1  C   UNL     1      -3.443  -1.774  -0.112  1.00  0.00     0.116 C 
ENDROOT
BRANCH   1   2
ATOM      2  N   UNL     1      -2.479  -1.971  -1.174  1.00  0.00    -0.356 N 
ATOM      3  C   UNL     1      -1.365  -1.251  -1.512  1.00  0.00     0.224 C 
ATOM      4  O   UNL     1      -0.692  -1.597  -2.477  1.00  0.00    -0.275 OA
ATOM      5  H   UNL     1      -2.654  -2.752  -1.748  1.00  0.00     0.163 HD
BRANCH   3   6
ATOM      6  C   UNL     1      -0.982  -0.022  -0.766  1.00  0.00     0.098 C 
ATOM      7  C   UNL     1       1.187  -1.205   0.064  1.00  0.00     0.013 C 
ATOM      8  C   UNL     1       0.338   0.042  -0.008  1.00  0.00    -0.011 C 
ATOM      9  C   UNL     1       1.148   1.310  -0.141  1.00  0.00     0.013 C 
ATOM     10  C   UNL     1      -0.991   0.069   0.742  1.00  0.00     0.098 C 
BRANCH  10  11
ATOM     11  C   UNL     1      -1.401   1.274   1.511  1.00  0.00     0.224 C 
ATOM     12  O   UNL     1      -0.798   1.544   2.546  1.00  0.00    -0.275 OA
ATOM     13  N   UNL     1      -2.456   2.064   1.140  1.00  0.00    -0.355 N 
ATOM     14  H   UNL     1      -2.602   2.834   1.736  1.00  0.00     0.163 HD
BRANCH  13  15
ATOM     15  C   UNL     1      -3.404   1.990   0.037  1.00  0.00     0.120 C 
BRANCH  15  16
ATOM     16  C   UNL     1      -4.797   1.540   0.473  1.00  0.00     0.056 C 
BRANCH  16  17
ATOM     17  C   UNL     1      -5.658   2.600   1.103  1.00  0.00    -0.046 A 
ATOM     18  C   UNL     1      -5.518   2.914   2.460  1.00  0.00     0.005 A 
ATOM     19  C   UNL     1      -6.658   3.227   0.343  1.00  0.00     0.005 A 
ATOM     20  C   UNL     1      -6.377   3.835   3.056  1.00  0.00     0.022 A 
ATOM     21  C   UNL     1      -7.524   4.142   0.936  1.00  0.00     0.022 A 
ATOM     22  C   UNL     1      -7.383   4.433   2.293  1.00  0.00     0.082 A 
BRANCH  22  23
ATOM     23  S   UNL     1      -8.505   5.550   3.073  1.00  0.00     0.238 S 
ATOM     24  O   UNL     1      -7.743   6.516   3.830  1.00  0.00    -0.207 OA
ATOM     25  O   UNL     1      -9.537   5.934   2.139  1.00  0.00    -0.207 OA
BRANCH  23  26
ATOM     26  N   UNL     1      -9.262   4.558   4.196  1.00  0.00    -0.225 NA
ATOM     27  H   UNL     1      -8.582   4.250   4.890  1.00  0.00     0.137 HD
ATOM     28  H   UNL     1      -9.655   3.746   3.721  1.00  0.00     0.137 HD
ENDBRANCH  23  26
ENDBRANCH  22  23
ENDBRANCH  16  17
ENDBRANCH  15  16
ENDBRANCH  13  15
ENDBRANCH  10  11
ENDBRANCH   3   6
ENDBRANCH   1   2
BRANCH   1  29
ATOM     29  C   UNL     1      -4.856  -1.552  -0.637  1.00  0.00     0.023 C 
BRANCH  29  30
ATOM     30  C   UNL     1      -5.554  -2.778  -1.201  1.00  0.00     0.023 C 
BRANCH  30  31
ATOM     31  C   UNL     1      -5.633  -3.959  -0.245  1.00  0.00     0.116 C 
BRANCH  31  32
ATOM     32  N   UNL     1      -6.285  -3.648   1.024  1.00  0.00    -0.352 N 
ATOM     33  C   UNL     1      -7.363  -4.261   1.623  1.00  0.00     0.251 C 
ATOM     34  H   UNL     1      -5.899  -2.891   1.522  1.00  0.00     0.163 HD
ATOM     35  O   UNL     1      -7.848  -3.799   2.651  1.00  0.00    -0.269 OA
BRANCH  33  36
ATOM     36  C   UNL     1      -7.956  -5.451   0.981  1.00  0.00     0.039 A 
ATOM     37  C   UNL     1      -9.329  -5.472   0.727  1.00  0.00     0.014 A 
ATOM     38  C   UNL     1      -7.134  -6.486   0.531  1.00  0.00     0.014 A 
ATOM     39  C   UNL     1      -9.857  -6.471  -0.093  1.00  0.00     0.010 A 
ATOM     40  C   UNL     1      -7.643  -7.417  -0.364  1.00  0.00     0.010 A 
ATOM     41  C   UNL     1      -9.005  -7.405  -0.704  1.00  0.00    -0.014 A 
BRANCH  41  42
ATOM     42  C   UNL     1      -9.494  -8.345  -1.746  1.00  0.00     0.031 A 
ATOM     43  C   UNL     1      -9.377  -9.828  -1.536  1.00  0.00     0.074 A 
ATOM     44  C   UNL     1      -9.944  -7.859  -2.921  1.00  0.00     0.049 A 
ATOM     45  N   UNL     1      -9.640 -10.800  -2.370  1.00  0.00    -0.248 NA
ATOM     46  C   UNL     1      -8.871 -10.277  -0.228  1.00  0.00     0.031 C 
ATOM     47  C   UNL     1     -10.069  -6.439  -3.262  1.00  0.00     0.029 A 
ATOM     48  N   UNL     1     -10.370  -8.506  -4.055  1.00  0.00    -0.354 N 
ATOM     49  C   UNL     1      -9.319 -11.972  -1.696  1.00  0.00     0.074 A 
ATOM     50  C   UNL     1      -8.790 -11.587  -0.406  1.00  0.00     0.031 C 
ATOM     51  C   UNL     1     -10.562  -6.324  -4.505  1.00  0.00     0.029 A 
ATOM     52  C   UNL     1     -10.737  -7.657  -5.073  1.00  0.00     0.049 A 
ATOM     53  H   UNL     1     -10.408  -9.487  -4.132  1.00  0.00     0.167 HD
ATOM     54  C   UNL     1      -9.468 -13.254  -2.107  1.00  0.00     0.031 A 
ATOM     55  C   UNL     1     -11.148  -7.917  -6.330  1.00  0.00     0.031 A 
ATOM     56  C   UNL     1      -9.992 -13.629  -3.393  1.00  0.00     0.049 A 
ATOM     57  C   UNL     1     -11.259  -9.347  -6.781  1.00  0.00     0.074 A 
ATOM     58  C   UNL     1     -10.235 -14.900  -3.883  1.00  0.00     0.029 A 
ATOM     59  N   UNL     1     -10.344 -12.738  -4.396  1.00  0.00    -0.354 N 
ATOM     60  N   UNL     1     -11.023 -10.444  -6.101  1.00  0.00    -0.248 NA
ATOM     61  C   UNL     1     -11.689  -9.576  -8.167  1.00  0.00     0.031 C 
ATOM     62  C   UNL     1     -10.670 -14.780  -5.206  1.00  0.00     0.029 A 
ATOM     63  C   UNL     1     -10.763 -13.433  -5.519  1.00  0.00     0.049 A 
ATOM     64  H   UNL     1     -10.302 -11.758  -4.321  1.00  0.00     0.167 HD
ATOM     65  C   UNL     1     -11.294 -11.494  -6.972  1.00  0.00     0.074 A 
ATOM     66  C   UNL     1     -11.730 -10.901  -8.220  1.00  0.00     0.031 C 
ATOM     67  C   UNL     1     -11.188 -12.828  -6.756  1.00  0.00     0.031 A 
BRANCH  54  68
ATOM     68  C   UNL     1      -9.044 -14.342  -1.156  1.00  0.00    -0.014 A 
ATOM     69  C   UNL     1      -9.751 -14.583   0.036  1.00  0.00     0.010 A 
ATOM     70  C   UNL     1      -7.943 -15.159  -1.474  1.00  0.00     0.010 A 
ATOM     71  C   UNL     1      -9.336 -15.587   0.915  1.00  0.00     0.020 A 
ATOM     72  C   UNL     1      -7.545 -16.186  -0.613  1.00  0.00     0.020 A 
ATOM     73  C   UNL     1      -8.234 -16.381   0.585  1.00  0.00     0.054 A 
BRANCH  73  74
ATOM     74  S   UNL     1      -7.729 -17.685   1.740  1.00  0.00     0.124 S 
ATOM     75  O   UNL     1      -7.172 -16.908   2.845  1.00  0.00    -0.237 OA
ATOM     76  O   UNL     1      -8.990 -18.365   2.024  1.00  0.00    -0.237 OA
ATOM     77  O   UNL     1      -6.759 -18.468   0.978  1.00  0.00    -0.744 OA
ENDBRANCH  73  74
ENDBRANCH  54  68
BRANCH  55  78
ATOM     78  C   UNL     1     -11.483  -6.794  -7.250  1.00  0.00    -0.014 A 
ATOM     79  C   UNL     1     -12.814  -6.565  -7.640  1.00  0.00     0.010 A 
ATOM     80  C   UNL     1     -10.475  -5.934  -7.726  1.00  0.00     0.010 A 
ATOM     81  C   UNL     1     -13.130  -5.504  -8.495  1.00  0.00     0.020 A 
ATOM     82  C   UNL     1     -10.791  -4.855  -8.556  1.00  0.00     0.020 A 
ATOM     83  C   UNL     1     -12.117  -4.652  -8.942  1.00  0.00     0.054 A 
BRANCH  83  84
ATOM     84  S   UNL     1     -12.561  -3.245  -9.998  1.00  0.00     0.124 S 
ATOM     85  O   UNL     1     -12.898  -3.903 -11.256  1.00  0.00    -0.237 OA
ATOM     86  O   UNL     1     -13.681  -2.651  -9.272  1.00  0.00    -0.237 OA
ATOM     87  O   UNL     1     -11.344  -2.436 -10.019  1.00  0.00    -0.744 OA
ENDBRANCH  83  84
ENDBRANCH  55  78
BRANCH  67  88
ATOM     88  C   UNL     1     -11.559 -13.749  -7.888  1.00  0.00    -0.014 A 
ATOM     89  C   UNL     1     -10.726 -13.888  -9.012  1.00  0.00     0.010 A 
ATOM     90  C   UNL     1     -12.712 -14.550  -7.785  1.00  0.00     0.010 A 
ATOM     91  C   UNL     1     -11.044 -14.804 -10.017  1.00  0.00     0.020 A 
ATOM     92  C   UNL     1     -13.018 -15.488  -8.774  1.00  0.00     0.020 A 
ATOM     93  C   UNL     1     -12.184 -15.605  -9.887  1.00  0.00     0.054 A 
BRANCH  93  94
ATOM     94  S   UNL     1     -12.527 -16.841 -11.169  1.00  0.00     0.124 S 
ATOM     95  O   UNL     1     -12.927 -16.007 -12.299  1.00  0.00    -0.237 OA
ATOM     96  O   UNL     1     -11.241 -17.518 -11.311  1.00  0.00    -0.237 OA
ATOM     97  O   UNL     1     -13.593 -17.656 -10.589  1.00  0.00    -0.744 OA
ENDBRANCH  93  94
ENDBRANCH  67  88
ENDBRANCH  41  42
ENDBRANCH  33  36
ENDBRANCH  31  32
ENDBRANCH  30  31
ENDBRANCH  29  30
ENDBRANCH   1  29
TORSDOF 20
