REMARK SMILES Cc1ccc(-c2nc(NC(=O)[C@H]3[C@@H](C(=O)NCCCCNC(=O)c4ccc(-c5c6nc(c(-c7ccc(S(=O)(=O)[O-])cc7)c7ccc([nH]7)c(-c7ccc(S(=O)(=O)[O-])cc7)c7nc(c(-c8ccc(S(=O)(=O)[O-])cc8)c8ccc5[nH]8)C=C7)C=C6)cc4)[C@@H]4CC[C@H]3O4)sc2C)cc1
REMARK SMILES IDX 18 1 17 2 16 3 14 4 15 5 13 7 12 8 87 9 84 10 86 11 88 12
REMARK SMILES IDX 85 13 10 14 9 15 11 17 8 18 6 19 7 20 90 21 89 22 91 23 5 24
REMARK SMILES IDX 1 25 2 26 3 27 93 28 4 29 92 30 19 31 20 32 21 33 22 34
REMARK SMILES IDX 23 36 24 37 25 38 83 39 26 40 82 41 27 42 28 43 29 44 76 45
REMARK SMILES IDX 30 46 81 47 75 48 77 49 31 50 80 51 74 52 73 53 32 55 62 56
REMARK SMILES IDX 43 57 61 58 44 59 47 60 60 61 78 62 45 63 46 64 59 66 79 67
REMARK SMILES IDX 48 68 33 69 34 70 42 71 35 72 41 73 36 74 37 75 38 76 39 77
REMARK SMILES IDX 40 78 63 79 64 80 72 81 65 82 71 83 66 84 67 85 68 86 69 87
REMARK SMILES IDX 70 88 49 89 50 90 58 91 51 92 57 93 52 94 53 95 54 96 55 97
REMARK SMILES IDX 56 98
REMARK H PARENT 16 6 9 16 21 35 77 54 47 65
REMARK Flexibility Score: inf
ROOT
ATOM      1  C   UNL     1      -5.592  -0.967   0.218  1.00  0.00     0.023 C 
ENDROOT
BRANCH   1   2
ATOM      2  C   UNL     1      -6.225  -0.616   1.562  1.00  0.00     0.116 C 
BRANCH   2   3
ATOM      3  N   UNL     1      -7.110   0.548   1.603  1.00  0.00    -0.356 N 
ATOM      4  C   UNL     1      -8.464   0.555   1.433  1.00  0.00     0.226 C 
ATOM      5  O   UNL     1      -9.152   1.100   2.297  1.00  0.00    -0.275 OA
ATOM      6  H   UNL     1      -6.683   1.419   1.772  1.00  0.00     0.163 HD
BRANCH   4   7
ATOM      7  C   UNL     1      -9.084  -0.216   0.293  1.00  0.00     0.122 C 
ATOM      8  C   UNL     1      -8.677  -0.040  -1.171  1.00  0.00     0.123 C 
ATOM      9  C   UNL     1      -9.997  -0.393  -1.869  1.00  0.00     0.132 C 
ATOM     10  C   UNL     1     -10.637  -0.102   0.185  1.00  0.00     0.132 C 
ATOM     11  C   UNL     1     -10.530  -1.785  -1.446  1.00  0.00     0.035 C 
ATOM     12  O   UNL     1     -10.868   0.484  -1.131  1.00  0.00    -0.373 OA
ATOM     13  C   UNL     1     -11.225  -1.476  -0.113  1.00  0.00     0.035 C 
BRANCH   8  14
ATOM     14  C   UNL     1      -8.017   1.122  -1.940  1.00  0.00     0.232 C 
ATOM     15  N   UNL     1      -7.903   2.449  -1.744  1.00  0.00    -0.302 N 
ATOM     16  H   UNL     1      -7.291   2.844  -2.405  1.00  0.00     0.172 HD
ATOM     17  O   UNL     1      -7.475   0.766  -3.014  1.00  0.00    -0.274 OA
BRANCH  15  18
ATOM     18  C   UNL     1      -8.384   3.410  -0.902  1.00  0.00     0.190 A 
ATOM     19  C   UNL     1      -8.540   5.387   0.120  1.00  0.00     0.086 A 
ATOM     20  N   UNL     1      -7.933   4.652  -0.908  1.00  0.00    -0.220 NA
ATOM     21  C   UNL     1      -9.500   4.671   0.823  1.00  0.00     0.031 A 
ATOM     22  S   UNL     1      -9.699   3.138   0.099  1.00  0.00    -0.101 S 
ATOM     23  C   UNL     1     -10.346   5.004   2.001  1.00  0.00     0.059 C 
BRANCH  19  24
ATOM     24  C   UNL     1      -8.229   6.798   0.400  1.00  0.00     0.001 A 
ATOM     25  C   UNL     1      -7.913  11.034   1.312  1.00  0.00     0.044 C 
ATOM     26  C   UNL     1      -7.987   9.568   0.989  1.00  0.00    -0.051 A 
ATOM     27  C   UNL     1      -8.012   9.116  -0.338  1.00  0.00     0.004 A 
ATOM     28  C   UNL     1      -8.012   8.623   2.014  1.00  0.00     0.004 A 
ATOM     29  C   UNL     1      -8.133   7.743  -0.630  1.00  0.00     0.010 A 
ATOM     30  C   UNL     1      -8.112   7.258   1.721  1.00  0.00     0.010 A 
ENDBRANCH  19  24
ENDBRANCH  15  18
ENDBRANCH   8  14
ENDBRANCH   4   7
ENDBRANCH   2   3
ENDBRANCH   1   2
BRANCH   1  31
ATOM     31  C   UNL     1      -4.986   0.201  -0.548  1.00  0.00     0.023 C 
BRANCH  31  32
ATOM     32  C   UNL     1      -3.748   0.791   0.097  1.00  0.00     0.116 C 
BRANCH  32  33
ATOM     33  N   UNL     1      -2.555  -0.031  -0.034  1.00  0.00    -0.352 N 
ATOM     34  C   UNL     1      -1.260   0.446   0.149  1.00  0.00     0.251 C 
ATOM     35  H   UNL     1      -2.670  -0.981  -0.266  1.00  0.00     0.163 HD
ATOM     36  O   UNL     1      -0.298   0.088  -0.495  1.00  0.00    -0.269 OA
BRANCH  34  37
ATOM     37  C   UNL     1      -1.103   1.333   1.323  1.00  0.00     0.039 A 
ATOM     38  C   UNL     1      -0.608   0.771   2.506  1.00  0.00     0.014 A 
ATOM     39  C   UNL     1      -1.745   2.566   1.317  1.00  0.00     0.014 A 
ATOM     40  C   UNL     1      -0.900   1.383   3.722  1.00  0.00     0.010 A 
ATOM     41  C   UNL     1      -2.139   3.098   2.525  1.00  0.00     0.010 A 
ATOM     42  C   UNL     1      -1.741   2.495   3.727  1.00  0.00    -0.014 A 
BRANCH  42  43
ATOM     43  C   UNL     1      -2.277   3.116   4.930  1.00  0.00     0.031 A 
ATOM     44  C   UNL     1      -1.727   4.416   5.375  1.00  0.00     0.074 A 
ATOM     45  C   UNL     1      -3.345   2.590   5.571  1.00  0.00     0.049 A 
ATOM     46  N   UNL     1      -1.813   4.867   6.581  1.00  0.00    -0.248 NA
ATOM     47  C   UNL     1      -0.991   5.305   4.480  1.00  0.00     0.031 C 
ATOM     48  C   UNL     1      -4.188   3.264   6.557  1.00  0.00     0.029 A 
ATOM     49  N   UNL     1      -3.772   1.263   5.619  1.00  0.00    -0.354 N 
ATOM     50  C   UNL     1      -1.451   6.194   6.543  1.00  0.00     0.074 A 
ATOM     51  C   UNL     1      -0.869   6.397   5.238  1.00  0.00     0.031 C 
ATOM     52  C   UNL     1      -4.789   2.333   7.312  1.00  0.00     0.029 A 
ATOM     53  C   UNL     1      -4.234   1.046   6.930  1.00  0.00     0.049 A 
ATOM     54  H   UNL     1      -3.754   0.610   4.883  1.00  0.00     0.167 HD
ATOM     55  C   UNL     1      -1.810   7.027   7.559  1.00  0.00     0.031 A 
ATOM     56  C   UNL     1      -3.687   0.131   7.787  1.00  0.00     0.031 A 
ATOM     57  C   UNL     1      -2.511   6.325   8.632  1.00  0.00     0.049 A 
ATOM     58  C   UNL     1      -3.140   0.746   9.064  1.00  0.00     0.074 A 
ATOM     59  C   UNL     1      -3.835   6.239   9.028  1.00  0.00     0.029 A 
ATOM     60  N   UNL     1      -1.843   5.325   9.318  1.00  0.00    -0.354 N 
ATOM     61  N   UNL     1      -3.166   2.020   9.341  1.00  0.00    -0.248 NA
ATOM     62  C   UNL     1      -2.415  -0.023  10.079  1.00  0.00     0.031 C 
ATOM     63  C   UNL     1      -3.951   5.173   9.965  1.00  0.00     0.029 A 
ATOM     64  C   UNL     1      -2.697   4.621  10.144  1.00  0.00     0.049 A 
ATOM     65  H   UNL     1      -0.880   5.139   9.229  1.00  0.00     0.167 HD
ATOM     66  C   UNL     1      -2.423   2.260  10.467  1.00  0.00     0.074 A 
ATOM     67  C   UNL     1      -1.988   0.947  10.906  1.00  0.00     0.031 C 
ATOM     68  C   UNL     1      -2.167   3.518  10.926  1.00  0.00     0.031 A 
BRANCH  55  69
ATOM     69  C   UNL     1      -1.745   8.530   7.439  1.00  0.00    -0.014 A 
ATOM     70  C   UNL     1      -2.699   9.321   8.109  1.00  0.00     0.010 A 
ATOM     71  C   UNL     1      -0.801   9.220   6.654  1.00  0.00     0.010 A 
ATOM     72  C   UNL     1      -2.778  10.707   7.921  1.00  0.00     0.020 A 
ATOM     73  C   UNL     1      -0.893  10.601   6.422  1.00  0.00     0.020 A 
ATOM     74  C   UNL     1      -1.893  11.336   7.050  1.00  0.00     0.054 A 
BRANCH  74  75
ATOM     75  S   UNL     1      -2.075  13.112   6.749  1.00  0.00     0.124 S 
ATOM     76  O   UNL     1      -3.471  13.220   6.331  1.00  0.00    -0.237 OA
ATOM     77  O   UNL     1      -1.762  13.684   8.055  1.00  0.00    -0.237 OA
ATOM     78  O   UNL     1      -1.096  13.387   5.698  1.00  0.00    -0.744 OA
ENDBRANCH  74  75
ENDBRANCH  55  69
BRANCH  56  79
ATOM     79  C   UNL     1      -3.104  -1.055   7.098  1.00  0.00    -0.014 A 
ATOM     80  C   UNL     1      -4.003  -1.940   6.465  1.00  0.00     0.010 A 
ATOM     81  C   UNL     1      -1.761  -1.030   6.682  1.00  0.00     0.010 A 
ATOM     82  C   UNL     1      -3.625  -2.620   5.305  1.00  0.00     0.020 A 
ATOM     83  C   UNL     1      -1.379  -1.719   5.523  1.00  0.00     0.020 A 
ATOM     84  C   UNL     1      -2.338  -2.435   4.799  1.00  0.00     0.054 A 
BRANCH  84  85
ATOM     85  S   UNL     1      -2.001  -2.969   3.094  1.00  0.00     0.124 S 
ATOM     86  O   UNL     1      -2.436  -4.362   3.107  1.00  0.00    -0.237 OA
ATOM     87  O   UNL     1      -2.842  -2.057   2.314  1.00  0.00    -0.237 OA
ATOM     88  O   UNL     1      -0.566  -2.755   2.954  1.00  0.00    -0.744 OA
ENDBRANCH  84  85
ENDBRANCH  56  79
BRANCH  68  89
ATOM     89  C   UNL     1      -1.356   3.814  12.158  1.00  0.00    -0.014 A 
ATOM     90  C   UNL     1      -1.508   3.087  13.349  1.00  0.00     0.010 A 
ATOM     91  C   UNL     1      -0.497   4.936  12.187  1.00  0.00     0.010 A 
ATOM     92  C   UNL     1      -0.788   3.431  14.502  1.00  0.00     0.020 A 
ATOM     93  C   UNL     1       0.208   5.300  13.336  1.00  0.00     0.020 A 
ATOM     94  C   UNL     1       0.072   4.532  14.485  1.00  0.00     0.054 A 
BRANCH  94  95
ATOM     95  S   UNL     1       0.966   4.984  15.994  1.00  0.00     0.124 S 
ATOM     96  O   UNL     1      -0.056   4.841  17.028  1.00  0.00    -0.237 OA
ATOM     97  O   UNL     1       2.031   3.984  16.023  1.00  0.00    -0.237 OA
ATOM     98  O   UNL     1       1.403   6.355  15.743  1.00  0.00    -0.744 OA
ENDBRANCH  94  95
ENDBRANCH  68  89
ENDBRANCH  42  43
ENDBRANCH  34  37
ENDBRANCH  32  33
ENDBRANCH  31  32
ENDBRANCH   1  31
TORSDOF 17
