REMARK SMILES CC1(C)CC[C@@]2(C(=O)NCCCCNC(=O)c3ccc(-c4c5nc(c(-c6ccc(S(=O)(=O)[O-])cc6)c6ccc([nH]6)c(-c6ccc(S(=O)(=O)[O-])cc6)c6nc(c(-c7ccc(S(=O)(=O)[O-])cc7)c7ccc4[nH]7)C=C6)C=C5)cc3)CC[C@@]3(C)C(=CC[C@H]4[C@@]5(C)CC[C@H](O)C(C)(C)[C@@H]5CC[C@]43C)[C@@H]2C1
REMARK SMILES IDX 12 1 11 2 10 3 9 4 7 5 8 6 6 8 1 9 2 10 3 11 4 12 100 13
REMARK SMILES IDX 5 14 99 15 81 16 77 17 79 18 82 19 78 20 80 21 97 22 83 23
REMARK SMILES IDX 84 24 96 25 98 26 85 27 95 28 86 29 87 30 94 31 88 32 91 33
REMARK SMILES IDX 89 34 92 35 93 36 90 37 13 39 14 40 15 41 16 43 17 44 18 45
REMARK SMILES IDX 76 46 19 47 75 48 20 49 21 50 22 51 69 52 23 53 74 54 68 55
REMARK SMILES IDX 70 56 24 57 73 58 67 59 66 60 25 62 55 63 36 64 54 65 37 66
REMARK SMILES IDX 40 67 53 68 71 69 38 70 39 71 52 73 72 74 41 75 26 76 27 77
REMARK SMILES IDX 35 78 28 79 34 80 29 81 30 82 31 83 32 84 33 85 56 86 57 87
REMARK SMILES IDX 65 88 58 89 64 90 59 91 60 92 61 93 62 94 63 95 42 96 43 97
REMARK SMILES IDX 51 98 44 99 50 100 45 101 46 102 47 103 48 104 49 105
REMARK H PARENT 9 7 90 38 14 42 70 61 40 72
REMARK Flexibility Score: inf
ROOT
ATOM      1  C   UNL     1       1.810   1.589  -4.509  1.00  0.00     0.023 C 
ENDROOT
BRANCH   1   2
ATOM      2  C   UNL     1       1.967   0.105  -4.134  1.00  0.00     0.023 C 
BRANCH   2   3
ATOM      3  C   UNL     1       1.284  -0.497  -2.893  1.00  0.00     0.116 C 
BRANCH   3   4
ATOM      4  N   UNL     1      -0.117  -0.366  -2.561  1.00  0.00    -0.356 N 
ATOM      5  C   UNL     1      -0.986  -1.359  -2.096  1.00  0.00     0.226 C 
ATOM      6  O   UNL     1      -1.005  -2.489  -2.584  1.00  0.00    -0.274 OA
ATOM      7  H   UNL     1      -0.507   0.531  -2.676  1.00  0.00     0.163 HD
BRANCH   5   8
ATOM      8  C   UNL     1      -1.780  -1.032  -0.771  1.00  0.00     0.056 C 
ATOM      9  C   UNL     1       0.930  -0.344   2.176  1.00  0.00     0.011 C 
ATOM     10  C   UNL     1       0.812  -0.421   0.642  1.00  0.00    -0.035 C 
ATOM     11  C   UNL     1       2.286  -0.275   0.146  1.00  0.00     0.011 C 
ATOM     12  C   UNL     1       0.351  -1.853   0.309  1.00  0.00     0.007 C 
ATOM     13  C   UNL     1      -0.157   0.758   0.104  1.00  0.00     0.015 C 
ATOM     14  C   UNL     1      -1.157  -1.972   0.285  1.00  0.00     0.018 C 
ATOM     15  C   UNL     1      -1.669   0.448  -0.356  1.00  0.00     0.031 C 
ATOM     16  C   UNL     1      -2.389   1.267  -1.537  1.00  0.00    -0.064 C 
ATOM     17  C   UNL     1      -3.284  -1.384  -0.773  1.00  0.00     0.018 C 
ATOM     18  C   UNL     1      -3.821   0.833  -2.046  1.00  0.00    -0.006 C 
ATOM     19  C   UNL     1      -1.750   2.246  -2.200  1.00  0.00    -0.027 C 
ATOM     20  C   UNL     1      -4.073  -0.680  -1.857  1.00  0.00     0.013 C 
ATOM     21  C   UNL     1      -4.763   1.573  -1.028  1.00  0.00     0.017 C 
ATOM     22  C   UNL     1      -4.203   1.278  -3.632  1.00  0.00    -0.020 C 
ATOM     23  C   UNL     1      -1.954   2.521  -3.667  1.00  0.00     0.032 C 
ATOM     24  C   UNL     1      -2.920   1.593  -4.476  1.00  0.00     0.006 C 
ATOM     25  C   UNL     1      -5.172   0.320  -4.455  1.00  0.00     0.008 C 
ATOM     26  C   UNL     1      -4.993   2.647  -3.601  1.00  0.00     0.012 C 
ATOM     27  C   UNL     1      -2.325   0.511  -5.557  1.00  0.00    -0.025 C 
ATOM     28  C   UNL     1      -4.727  -0.120  -5.886  1.00  0.00     0.005 C 
ATOM     29  C   UNL     1      -1.924   1.380  -6.784  1.00  0.00     0.012 C 
ATOM     30  C   UNL     1      -1.091  -0.247  -5.128  1.00  0.00     0.010 C 
ATOM     31  C   UNL     1      -3.309  -0.668  -5.851  1.00  0.00     0.003 C 
ATOM     32  C   UNL     1      -0.467  -1.289  -6.056  1.00  0.00     0.033 C 
ATOM     33  C   UNL     1      -2.806  -1.742  -6.938  1.00  0.00    -0.006 C 
ATOM     34  C   UNL     1      -1.470  -2.365  -6.421  1.00  0.00     0.120 C 
ATOM     35  C   UNL     1      -2.576  -1.206  -8.366  1.00  0.00     0.014 C 
ATOM     36  C   UNL     1      -3.805  -2.913  -7.069  1.00  0.00     0.014 C 
BRANCH  34  37
ATOM     37  O   UNL     1      -0.878  -3.249  -7.375  1.00  0.00    -0.393 OA
ATOM     38  H   UNL     1      -0.641  -2.752  -8.174  1.00  0.00     0.210 HD
ENDBRANCH  34  37
ENDBRANCH   5   8
ENDBRANCH   3   4
ENDBRANCH   2   3
ENDBRANCH   1   2
BRANCH   1  39
ATOM     39  C   UNL     1       2.187   2.583  -3.426  1.00  0.00     0.116 C 
BRANCH  39  40
ATOM     40  N   UNL     1       3.618   2.548  -3.194  1.00  0.00    -0.352 N 
ATOM     41  C   UNL     1       4.605   2.972  -4.063  1.00  0.00     0.251 C 
ATOM     42  H   UNL     1       3.917   2.186  -2.328  1.00  0.00     0.163 HD
ATOM     43  O   UNL     1       5.725   2.486  -4.002  1.00  0.00    -0.269 OA
BRANCH  41  44
ATOM     44  C   UNL     1       4.278   3.999  -5.083  1.00  0.00     0.039 A 
ATOM     45  C   UNL     1       4.745   3.868  -6.394  1.00  0.00     0.014 A 
ATOM     46  C   UNL     1       3.510   5.107  -4.723  1.00  0.00     0.014 A 
ATOM     47  C   UNL     1       4.405   4.833  -7.351  1.00  0.00     0.010 A 
ATOM     48  C   UNL     1       3.088   6.005  -5.695  1.00  0.00     0.010 A 
ATOM     49  C   UNL     1       3.553   5.897  -7.014  1.00  0.00    -0.014 A 
BRANCH  49  50
ATOM     50  C   UNL     1       3.155   6.945  -7.992  1.00  0.00     0.031 A 
ATOM     51  C   UNL     1       3.484   8.389  -7.706  1.00  0.00     0.074 A 
ATOM     52  C   UNL     1       2.405   6.620  -9.062  1.00  0.00     0.049 A 
ATOM     53  N   UNL     1       3.102   9.467  -8.341  1.00  0.00    -0.248 NA
ATOM     54  C   UNL     1       4.310   8.658  -6.516  1.00  0.00     0.031 C 
ATOM     55  C   UNL     1       1.971   5.266  -9.413  1.00  0.00     0.029 A 
ATOM     56  N   UNL     1       1.851   7.408 -10.040  1.00  0.00    -0.354 N 
ATOM     57  C   UNL     1       3.599  10.536  -7.601  1.00  0.00     0.074 A 
ATOM     58  C   UNL     1       4.259   9.978  -6.443  1.00  0.00     0.031 C 
ATOM     59  C   UNL     1       1.233   5.316 -10.533  1.00  0.00     0.029 A 
ATOM     60  C   UNL     1       1.099   6.707 -10.954  1.00  0.00     0.049 A 
ATOM     61  H   UNL     1       1.980   8.383 -10.083  1.00  0.00     0.167 HD
ATOM     62  C   UNL     1       3.530  11.862  -7.871  1.00  0.00     0.031 A 
ATOM     63  C   UNL     1       0.366   7.135 -12.000  1.00  0.00     0.031 A 
ATOM     64  C   UNL     1       2.897  12.400  -9.044  1.00  0.00     0.049 A 
ATOM     65  C   UNL     1       0.319   8.607 -12.302  1.00  0.00     0.074 A 
ATOM     66  C   UNL     1       2.855  13.713  -9.475  1.00  0.00     0.029 A 
ATOM     67  N   UNL     1       2.184  11.650  -9.970  1.00  0.00    -0.354 N 
ATOM     68  N   UNL     1       0.885   9.597 -11.651  1.00  0.00    -0.248 NA
ATOM     69  C   UNL     1      -0.460   9.023 -13.475  1.00  0.00     0.031 C 
ATOM     70  C   UNL     1       2.059  13.767 -10.624  1.00  0.00     0.029 A 
ATOM     71  C   UNL     1       1.659  12.479 -10.945  1.00  0.00     0.049 A 
ATOM     72  H   UNL     1       2.070  10.673  -9.937  1.00  0.00     0.167 HD
ATOM     73  C   UNL     1       0.534  10.753 -12.338  1.00  0.00     0.074 A 
ATOM     74  C   UNL     1      -0.270  10.336 -13.470  1.00  0.00     0.031 C 
ATOM     75  C   UNL     1       0.844  12.043 -12.053  1.00  0.00     0.031 A 
BRANCH  62  76
ATOM     76  C   UNL     1       4.135  12.812  -6.867  1.00  0.00    -0.014 A 
ATOM     77  C   UNL     1       5.521  12.840  -6.622  1.00  0.00     0.010 A 
ATOM     78  C   UNL     1       3.301  13.691  -6.152  1.00  0.00     0.010 A 
ATOM     79  C   UNL     1       6.051  13.675  -5.633  1.00  0.00     0.020 A 
ATOM     80  C   UNL     1       3.831  14.554  -5.187  1.00  0.00     0.020 A 
ATOM     81  C   UNL     1       5.200  14.520  -4.915  1.00  0.00     0.054 A 
BRANCH  81  82
ATOM     82  S   UNL     1       5.913  15.580  -3.628  1.00  0.00     0.124 S 
ATOM     83  O   UNL     1       6.228  14.611  -2.581  1.00  0.00    -0.237 OA
ATOM     84  O   UNL     1       7.065  16.172  -4.302  1.00  0.00    -0.237 OA
ATOM     85  O   UNL     1       4.834  16.512  -3.308  1.00  0.00    -0.744 OA
ENDBRANCH  81  82
ENDBRANCH  62  76
BRANCH  63  86
ATOM     86  C   UNL     1      -0.377   6.143 -12.826  1.00  0.00    -0.014 A 
ATOM     87  C   UNL     1       0.063   5.814 -14.120  1.00  0.00     0.010 A 
ATOM     88  C   UNL     1      -1.488   5.464 -12.290  1.00  0.00     0.010 A 
ATOM     89  C   UNL     1      -0.585   4.818 -14.857  1.00  0.00     0.020 A 
ATOM     90  C   UNL     1      -2.121   4.449 -13.013  1.00  0.00     0.020 A 
ATOM     91  C   UNL     1      -1.665   4.132 -14.293  1.00  0.00     0.054 A 
BRANCH  91  92
ATOM     92  S   UNL     1      -2.422   2.773 -15.229  1.00  0.00     0.124 S 
ATOM     93  O   UNL     1      -3.118   3.487 -16.294  1.00  0.00    -0.237 OA
ATOM     94  O   UNL     1      -1.258   1.994 -15.644  1.00  0.00    -0.237 OA
ATOM     95  O   UNL     1      -3.283   2.119 -14.246  1.00  0.00    -0.744 OA
ENDBRANCH  91  92
ENDBRANCH  63  86
BRANCH  75  96
ATOM     96  C   UNL     1       0.301  13.105 -12.971  1.00  0.00    -0.014 A 
ATOM     97  C   UNL     1      -1.062  13.448 -12.947  1.00  0.00     0.010 A 
ATOM     98  C   UNL     1       1.179  13.830 -13.797  1.00  0.00     0.010 A 
ATOM     99  C   UNL     1      -1.540  14.490 -13.744  1.00  0.00     0.020 A 
ATOM    100  C   UNL     1       0.710  14.893 -14.572  1.00  0.00     0.020 A 
ATOM    101  C   UNL     1      -0.650  15.211 -14.546  1.00  0.00     0.054 A 
BRANCH 101 102
ATOM    102  S   UNL     1      -1.286  16.608 -15.510  1.00  0.00     0.124 S 
ATOM    103  O   UNL     1      -2.069  15.934 -16.542  1.00  0.00    -0.237 OA
ATOM    104  O   UNL     1      -2.061  17.353 -14.520  1.00  0.00    -0.237 OA
ATOM    105  O   UNL     1      -0.079  17.282 -15.984  1.00  0.00    -0.744 OA
ENDBRANCH 101 102
ENDBRANCH  75  96
ENDBRANCH  49  50
ENDBRANCH  41  44
ENDBRANCH  39  40
ENDBRANCH   1  39
TORSDOF 15
