REMARK SMILES CC1(C)[C@H](O)CC[C@]2(C)[C@@H]1CC[C@@]1(C)Oc3oc(C(=O)NCCCCNC(=O)c4ccc(-c5c6nc(c(-c7ccc(S(=O)(=O)[O-])cc7)c7ccc([nH]7)c(-c7ccc(S(=O)(=O)[O-])cc7)c7nc(c(-c8ccc(S(=O)(=O)[O-])cc8)c8ccc5[nH]8)C=C7)C=C6)cc4)cc(=O)c3C[C@H]21
REMARK SMILES IDX 24 1 23 2 22 3 21 4 19 5 20 6 18 8 1 9 2 10 3 11 4 12 10 13
REMARK SMILES IDX 6 14 8 15 11 16 7 17 9 18 94 19 12 20 13 21 93 22 14 23
REMARK SMILES IDX 15 24 92 25 16 26 90 27 17 28 89 29 91 30 5 31 25 33 26 34
REMARK SMILES IDX 27 35 28 37 29 38 30 39 88 40 31 41 87 42 32 43 33 44 34 45
REMARK SMILES IDX 81 46 35 47 86 48 80 49 82 50 36 51 85 52 79 53 78 54 37 56
REMARK SMILES IDX 67 57 48 58 66 59 49 60 52 61 65 62 83 63 50 64 51 65 64 67
REMARK SMILES IDX 84 68 53 69 38 70 39 71 47 72 40 73 46 74 41 75 42 76 43 77
REMARK SMILES IDX 44 78 45 79 68 80 69 81 77 82 70 83 76 84 71 85 72 86 73 87
REMARK SMILES IDX 74 88 75 89 54 90 55 91 63 92 56 93 62 94 57 95 58 96 59 97
REMARK SMILES IDX 60 98 61 99
REMARK H PARENT 21 7 5 32 26 36 82 55 52 66
REMARK Flexibility Score: inf
ROOT
ATOM      1  C   UNL     1      11.830   6.728   5.543  1.00  0.00     0.023 C 
ENDROOT
BRANCH   1   2
ATOM      2  C   UNL     1      10.470   6.237   5.066  1.00  0.00     0.023 C 
BRANCH   2   3
ATOM      3  C   UNL     1       9.264   6.931   5.720  1.00  0.00     0.116 C 
BRANCH   3   4
ATOM      4  N   UNL     1       8.824   8.102   4.968  1.00  0.00    -0.349 N 
ATOM      5  C   UNL     1       7.972   8.289   3.912  1.00  0.00     0.287 C 
ATOM      6  O   UNL     1       7.736   9.454   3.584  1.00  0.00    -0.266 OA
ATOM      7  H   UNL     1       9.227   8.941   5.291  1.00  0.00     0.163 HD
BRANCH   5   8
ATOM      8  C   UNL     1       7.287   7.166   3.178  1.00  0.00     0.199 A 
ATOM      9  C   UNL     1       1.128   1.428  -1.244  1.00  0.00     0.014 C 
ATOM     10  C   UNL     1       0.551   2.430  -0.202  1.00  0.00    -0.006 C 
ATOM     11  C   UNL     1      -0.793   2.928  -0.771  1.00  0.00     0.014 C 
ATOM     12  C   UNL     1       0.261   1.577   1.087  1.00  0.00     0.120 C 
ATOM     13  C   UNL     1       1.634   3.607  -0.019  1.00  0.00     0.004 C 
ATOM     14  C   UNL     1       1.465   1.290   1.969  1.00  0.00     0.033 C 
ATOM     15  C   UNL     1       2.161   3.748   1.423  1.00  0.00    -0.022 C 
ATOM     16  C   UNL     1       1.305   5.001  -0.632  1.00  0.00     0.009 C 
ATOM     17  C   UNL     1       2.558   2.340   1.923  1.00  0.00     0.010 C 
ATOM     18  C   UNL     1       1.072   4.387   2.336  1.00  0.00     0.012 C 
ATOM     19  C   UNL     1       3.402   4.704   1.484  1.00  0.00     0.044 C 
ATOM     20  C   UNL     1       2.205   6.181  -0.157  1.00  0.00     0.049 C 
ATOM     21  C   UNL     1       3.595   5.751   0.354  1.00  0.00     0.113 C 
ATOM     22  C   UNL     1       4.766   4.081   1.747  1.00  0.00     0.055 C 
ATOM     23  C   UNL     1       4.427   5.349  -0.894  1.00  0.00     0.057 C 
ATOM     24  O   UNL     1       4.314   6.874   0.982  1.00  0.00    -0.458 OA
ATOM     25  C   UNL     1       5.711   5.201   2.001  1.00  0.00     0.081 A 
ATOM     26  C   UNL     1       5.440   6.497   1.753  1.00  0.00     0.292 A 
ATOM     27  C   UNL     1       6.938   4.824   2.694  1.00  0.00     0.192 A 
ATOM     28  O   UNL     1       6.228   7.512   2.314  1.00  0.00    -0.420 OA
ATOM     29  C   UNL     1       7.697   5.902   3.294  1.00  0.00     0.105 A 
ATOM     30  O   UNL     1       7.298   3.661   2.824  1.00  0.00    -0.289 OA
BRANCH  12  31
ATOM     31  O   UNL     1      -0.740   2.154   1.929  1.00  0.00    -0.393 OA
ATOM     32  H   UNL     1      -0.409   2.987   2.300  1.00  0.00     0.210 HD
ENDBRANCH  12  31
ENDBRANCH   5   8
ENDBRANCH   3   4
ENDBRANCH   2   3
ENDBRANCH   1   2
BRANCH   1  33
ATOM     33  C   UNL     1      12.167   6.349   6.977  1.00  0.00     0.116 C 
BRANCH  33  34
ATOM     34  N   UNL     1      12.300   4.913   7.184  1.00  0.00    -0.352 N 
ATOM     35  C   UNL     1      13.233   4.264   7.964  1.00  0.00     0.251 C 
ATOM     36  H   UNL     1      11.651   4.342   6.712  1.00  0.00     0.163 HD
ATOM     37  O   UNL     1      13.287   3.047   8.010  1.00  0.00    -0.269 OA
BRANCH  35  38
ATOM     38  C   UNL     1      14.195   5.096   8.713  1.00  0.00     0.039 A 
ATOM     39  C   UNL     1      15.555   4.973   8.428  1.00  0.00     0.014 A 
ATOM     40  C   UNL     1      13.728   6.072   9.600  1.00  0.00     0.014 A 
ATOM     41  C   UNL     1      16.453   5.878   8.994  1.00  0.00     0.010 A 
ATOM     42  C   UNL     1      14.617   7.007  10.115  1.00  0.00     0.010 A 
ATOM     43  C   UNL     1      15.986   6.915   9.818  1.00  0.00    -0.014 A 
BRANCH  43  44
ATOM     44  C   UNL     1      16.930   7.881  10.427  1.00  0.00     0.031 A 
ATOM     45  C   UNL     1      17.177   7.825  11.908  1.00  0.00     0.074 A 
ATOM     46  C   UNL     1      17.543   8.807   9.663  1.00  0.00     0.049 A 
ATOM     47  N   UNL     1      17.951   8.583  12.638  1.00  0.00    -0.248 NA
ATOM     48  C   UNL     1      16.451   6.793  12.670  1.00  0.00     0.031 C 
ATOM     49  C   UNL     1      17.370   8.967   8.217  1.00  0.00     0.029 A 
ATOM     50  N   UNL     1      18.446   9.785   9.999  1.00  0.00    -0.354 N 
ATOM     51  C   UNL     1      17.804   8.122  13.940  1.00  0.00     0.074 A 
ATOM     52  C   UNL     1      16.834   7.052  13.912  1.00  0.00     0.031 C 
ATOM     53  C   UNL     1      18.169   9.960   7.786  1.00  0.00     0.029 A 
ATOM     54  C   UNL     1      18.889  10.523   8.925  1.00  0.00     0.049 A 
ATOM     55  H   UNL     1      18.748   9.944  10.922  1.00  0.00     0.167 HD
ATOM     56  C   UNL     1      18.445   8.535  15.055  1.00  0.00     0.031 A 
ATOM     57  C   UNL     1      19.779  11.533   8.868  1.00  0.00     0.031 A 
ATOM     58  C   UNL     1      19.436   9.572  15.078  1.00  0.00     0.049 A 
ATOM     59  C   UNL     1      20.451  11.995  10.134  1.00  0.00     0.074 A 
ATOM     60  C   UNL     1      20.178  10.020  16.156  1.00  0.00     0.029 A 
ATOM     61  N   UNL     1      19.829  10.313  13.977  1.00  0.00    -0.354 N 
ATOM     62  N   UNL     1      20.329  11.516  11.348  1.00  0.00    -0.248 NA
ATOM     63  C   UNL     1      21.378  13.131  10.023  1.00  0.00     0.031 C 
ATOM     64  C   UNL     1      20.997  11.061  15.713  1.00  0.00     0.029 A 
ATOM     65  C   UNL     1      20.790  11.233  14.354  1.00  0.00     0.049 A 
ATOM     66  H   UNL     1      19.477  10.203  13.065  1.00  0.00     0.167 HD
ATOM     67  C   UNL     1      21.181  12.277  12.141  1.00  0.00     0.074 A 
ATOM     68  C   UNL     1      21.816  13.245  11.271  1.00  0.00     0.031 C 
ATOM     69  C   UNL     1      21.417  12.180  13.471  1.00  0.00     0.031 A 
BRANCH  56  70
ATOM     70  C   UNL     1      18.121   7.847  16.349  1.00  0.00    -0.014 A 
ATOM     71  C   UNL     1      18.656   6.579  16.633  1.00  0.00     0.010 A 
ATOM     72  C   UNL     1      17.369   8.517  17.329  1.00  0.00     0.010 A 
ATOM     73  C   UNL     1      18.447   5.992  17.881  1.00  0.00     0.020 A 
ATOM     74  C   UNL     1      17.172   7.940  18.586  1.00  0.00     0.020 A 
ATOM     75  C   UNL     1      17.717   6.682  18.854  1.00  0.00     0.054 A 
BRANCH  75  76
ATOM     76  S   UNL     1      17.528   5.921  20.489  1.00  0.00     0.124 S 
ATOM     77  O   UNL     1      16.816   4.685  20.170  1.00  0.00    -0.237 OA
ATOM     78  O   UNL     1      18.914   5.755  20.918  1.00  0.00    -0.237 OA
ATOM     79  O   UNL     1      16.754   6.903  21.244  1.00  0.00    -0.744 OA
ENDBRANCH  75  76
ENDBRANCH  56  70
BRANCH  57  80
ATOM     80  C   UNL     1      20.114  12.165   7.564  1.00  0.00    -0.014 A 
ATOM     81  C   UNL     1      21.359  11.918   6.958  1.00  0.00     0.010 A 
ATOM     82  C   UNL     1      19.199  13.021   6.925  1.00  0.00     0.010 A 
ATOM     83  C   UNL     1      21.689  12.527   5.744  1.00  0.00     0.020 A 
ATOM     84  C   UNL     1      19.518  13.617   5.701  1.00  0.00     0.020 A 
ATOM     85  C   UNL     1      20.765  13.370   5.121  1.00  0.00     0.054 A 
BRANCH  85  86
ATOM     86  S   UNL     1      21.215  14.131   3.536  1.00  0.00     0.124 S 
ATOM     87  O   UNL     1      22.377  14.936   3.901  1.00  0.00    -0.237 OA
ATOM     88  O   UNL     1      21.491  12.964   2.703  1.00  0.00    -0.237 OA
ATOM     89  O   UNL     1      20.022  14.888   3.166  1.00  0.00    -0.744 OA
ENDBRANCH  85  86
ENDBRANCH  57  80
BRANCH  69  90
ATOM     90  C   UNL     1      22.409  13.124  14.087  1.00  0.00    -0.014 A 
ATOM     91  C   UNL     1      22.039  14.442  14.402  1.00  0.00     0.010 A 
ATOM     92  C   UNL     1      23.668  12.642  14.488  1.00  0.00     0.010 A 
ATOM     93  C   UNL     1      22.911  15.262  15.121  1.00  0.00     0.020 A 
ATOM     94  C   UNL     1      24.535  13.454  15.223  1.00  0.00     0.020 A 
ATOM     95  C   UNL     1      24.147  14.757  15.540  1.00  0.00     0.054 A 
BRANCH  95  96
ATOM     96  S   UNL     1      25.216  15.819  16.550  1.00  0.00     0.124 S 
ATOM     97  O   UNL     1      25.486  16.933  15.645  1.00  0.00    -0.237 OA
ATOM     98  O   UNL     1      24.360  16.130  17.692  1.00  0.00    -0.237 OA
ATOM     99  O   UNL     1      26.367  14.971  16.851  1.00  0.00    -0.744 OA
ENDBRANCH  95  96
ENDBRANCH  69  90
ENDBRANCH  43  44
ENDBRANCH  35  38
ENDBRANCH  33  34
ENDBRANCH   1  33
TORSDOF 15
