REMARK SMILES O=C(C[C@H](NS(=O)(=O)c1cccs1)c1ccccc1Cl)NCCCCNC(=O)c1ccc(-c2c3nc(c(-c4ccc(S(=O)(=O)[O-])cc4)c4ccc([nH]4)c(-c4ccc(S(=O)(=O)[O-])cc4)c4nc(c(-c5ccc(S(=O)(=O)[O-])cc5)c5ccc2[nH]5)C=C4)C=C3)cc1
REMARK SMILES IDX 23 1 22 2 21 3 1 4 2 5 3 7 4 8 14 9 15 10 19 11 16 12 18 13
REMARK SMILES IDX 20 14 17 15 5 16 6 18 7 19 8 20 9 21 10 22 13 23 11 24 12 25
REMARK SMILES IDX 24 26 25 27 26 28 27 29 28 31 29 32 30 33 88 34 31 35 87 36
REMARK SMILES IDX 32 37 33 38 34 39 81 40 35 41 86 42 80 43 82 44 36 45 85 46
REMARK SMILES IDX 79 47 78 48 37 50 67 51 48 52 66 53 49 54 52 55 65 56 83 57
REMARK SMILES IDX 50 58 51 59 64 61 84 62 53 63 38 64 39 65 47 66 40 67 46 68
REMARK SMILES IDX 41 69 42 70 43 71 44 72 45 73 68 74 69 75 77 76 70 77 76 78
REMARK SMILES IDX 71 79 72 80 73 81 74 82 75 83 54 84 55 85 63 86 56 87 62 88
REMARK SMILES IDX 57 89 58 90 59 91 60 92 61 93
REMARK H PARENT 21 6 5 17 26 30 82 49 52 60
REMARK Flexibility Score: inf
ROOT
ATOM      1  C   UNL     1       8.642  -2.731   0.714  1.00  0.00     0.023 C 
ENDROOT
BRANCH   1   2
ATOM      2  C   UNL     1       7.936  -2.437  -0.602  1.00  0.00     0.116 C 
BRANCH   2   3
ATOM      3  N   UNL     1       6.712  -1.680  -0.431  1.00  0.00    -0.356 N 
ATOM      4  O   UNL     1       7.456   0.214  -1.476  1.00  0.00    -0.275 OA
ATOM      5  C   UNL     1       6.529  -0.457  -1.030  1.00  0.00     0.221 C 
ATOM      6  H   UNL     1       5.993  -2.052   0.128  1.00  0.00     0.163 HD
BRANCH   5   7
ATOM      7  C   UNL     1       5.095   0.037  -1.089  1.00  0.00     0.125 C 
BRANCH   7   8
ATOM      8  C   UNL     1       4.021  -0.916  -1.681  1.00  0.00     0.111 C 
BRANCH   8   9
ATOM      9  C   UNL     1       4.527  -2.212  -2.323  1.00  0.00    -0.011 A 
ATOM     10  C   UNL     1       4.181  -3.468  -1.776  1.00  0.00     0.007 A 
ATOM     11  C   UNL     1       5.390  -2.210  -3.436  1.00  0.00     0.045 A 
ATOM     12  C   UNL     1       4.748  -4.653  -2.251  1.00  0.00     0.000 A 
ATOM     13  C   UNL     1       5.983  -3.396  -3.888  1.00  0.00     0.021 A 
ATOM     14  Cl  UNL     1       5.764  -0.763  -4.304  1.00  0.00    -0.084 Cl
ATOM     15  C   UNL     1       5.674  -4.614  -3.285  1.00  0.00     0.002 A 
ENDBRANCH   8   9
BRANCH   8  16
ATOM     16  N   UNL     1       3.014  -1.199  -0.616  1.00  0.00    -0.202 NA
ATOM     17  H   UNL     1       3.501  -1.157   0.280  1.00  0.00     0.142 HD
BRANCH  16  18
ATOM     18  S   UNL     1       1.675  -0.189  -0.506  1.00  0.00     0.250 S 
ATOM     19  O   UNL     1       0.901  -0.651   0.621  1.00  0.00    -0.206 OA
ATOM     20  O   UNL     1       2.158   1.173  -0.589  1.00  0.00    -0.206 OA
BRANCH  18  21
ATOM     21  C   UNL     1       0.632  -0.394  -1.923  1.00  0.00     0.134 A 
ATOM     22  C   UNL     1      -0.197   0.490  -2.587  1.00  0.00     0.033 A 
ATOM     23  S   UNL     1       0.593  -1.947  -2.638  1.00  0.00    -0.131 S 
ATOM     24  C   UNL     1      -0.829  -0.102  -3.717  1.00  0.00     0.013 A 
ATOM     25  C   UNL     1      -0.471  -1.423  -3.871  1.00  0.00     0.066 A 
ENDBRANCH  18  21
ENDBRANCH  16  18
ENDBRANCH   8  16
ENDBRANCH   7   8
ENDBRANCH   5   7
ENDBRANCH   2   3
ENDBRANCH   1   2
BRANCH   1  26
ATOM     26  C   UNL     1       7.786  -3.454   1.756  1.00  0.00     0.023 C 
BRANCH  26  27
ATOM     27  C   UNL     1       7.155  -4.765   1.296  1.00  0.00     0.116 C 
BRANCH  27  28
ATOM     28  N   UNL     1       8.140  -5.787   0.982  1.00  0.00    -0.352 N 
ATOM     29  C   UNL     1       8.322  -7.029   1.543  1.00  0.00     0.251 C 
ATOM     30  H   UNL     1       8.771  -5.555   0.262  1.00  0.00     0.163 HD
ATOM     31  O   UNL     1       9.318  -7.687   1.257  1.00  0.00    -0.269 OA
BRANCH  29  32
ATOM     32  C   UNL     1       7.333  -7.564   2.507  1.00  0.00     0.039 A 
ATOM     33  C   UNL     1       7.790  -8.154   3.688  1.00  0.00     0.014 A 
ATOM     34  C   UNL     1       5.961  -7.488   2.250  1.00  0.00     0.014 A 
ATOM     35  C   UNL     1       6.871  -8.600   4.642  1.00  0.00     0.010 A 
ATOM     36  C   UNL     1       5.048  -7.863   3.235  1.00  0.00     0.010 A 
ATOM     37  C   UNL     1       5.492  -8.422   4.443  1.00  0.00    -0.014 A 
BRANCH  37  38
ATOM     38  C   UNL     1       4.505  -8.799   5.491  1.00  0.00     0.031 A 
ATOM     39  C   UNL     1       3.474  -9.864   5.221  1.00  0.00     0.074 A 
ATOM     40  C   UNL     1       4.497  -8.141   6.669  1.00  0.00     0.049 A 
ATOM     41  N   UNL     1       2.507 -10.290   5.994  1.00  0.00    -0.248 NA
ATOM     42  C   UNL     1       3.521 -10.520   3.904  1.00  0.00     0.031 C 
ATOM     43  C   UNL     1       5.419  -7.066   7.046  1.00  0.00     0.029 A 
ATOM     44  N   UNL     1       3.683  -8.276   7.767  1.00  0.00    -0.354 N 
ATOM     45  C   UNL     1       1.823 -11.248   5.254  1.00  0.00     0.074 A 
ATOM     46  C   UNL     1       2.455 -11.306   3.954  1.00  0.00     0.031 C 
ATOM     47  C   UNL     1       5.140  -6.664   8.296  1.00  0.00     0.029 A 
ATOM     48  C   UNL     1       3.991  -7.413   8.794  1.00  0.00     0.049 A 
ATOM     49  H   UNL     1       2.947  -8.928   7.815  1.00  0.00     0.167 HD
ATOM     50  C   UNL     1       0.774 -12.021   5.627  1.00  0.00     0.031 A 
ATOM     51  C   UNL     1       3.412  -7.237   9.998  1.00  0.00     0.031 A 
ATOM     52  C   UNL     1       0.151 -11.966   6.924  1.00  0.00     0.049 A 
ATOM     53  C   UNL     1       2.231  -8.090  10.378  1.00  0.00     0.074 A 
ATOM     54  C   UNL     1      -0.878 -12.751   7.415  1.00  0.00     0.029 A 
ATOM     55  N   UNL     1       0.490 -11.076   7.931  1.00  0.00    -0.354 N 
ATOM     56  N   UNL     1       1.646  -9.041   9.689  1.00  0.00    -0.248 NA
ATOM     57  C   UNL     1       1.640  -7.853  11.702  1.00  0.00     0.031 C 
ATOM     58  C   UNL     1      -1.206 -12.291   8.694  1.00  0.00     0.029 A 
ATOM     59  C   UNL     1      -0.332 -11.270   9.029  1.00  0.00     0.049 A 
ATOM     60  H   UNL     1       1.209 -10.405   7.875  1.00  0.00     0.167 HD
ATOM     61  C   UNL     1       0.639  -9.537  10.511  1.00  0.00     0.074 A 
ATOM     62  C   UNL     1       0.705  -8.792  11.751  1.00  0.00     0.031 C 
ATOM     63  C   UNL     1      -0.258 -10.523  10.261  1.00  0.00     0.031 A 
BRANCH  50  64
ATOM     64  C   UNL     1       0.220 -12.989   4.612  1.00  0.00    -0.014 A 
ATOM     65  C   UNL     1       0.956 -14.115   4.198  1.00  0.00     0.010 A 
ATOM     66  C   UNL     1      -1.079 -12.800   4.106  1.00  0.00     0.010 A 
ATOM     67  C   UNL     1       0.419 -15.009   3.267  1.00  0.00     0.020 A 
ATOM     68  C   UNL     1      -1.632 -13.709   3.199  1.00  0.00     0.020 A 
ATOM     69  C   UNL     1      -0.872 -14.799   2.773  1.00  0.00     0.054 A 
BRANCH  69  70
ATOM     70  S   UNL     1      -1.552 -15.991   1.587  1.00  0.00     0.124 S 
ATOM     71  O   UNL     1      -0.760 -15.711   0.392  1.00  0.00    -0.237 OA
ATOM     72  O   UNL     1      -1.281 -17.273   2.232  1.00  0.00    -0.237 OA
ATOM     73  O   UNL     1      -2.963 -15.627   1.497  1.00  0.00    -0.744 OA
ENDBRANCH  69  70
ENDBRANCH  50  64
BRANCH  51  74
ATOM     74  C   UNL     1       3.946  -6.215  10.942  1.00  0.00    -0.014 A 
ATOM     75  C   UNL     1       4.574  -6.606  12.138  1.00  0.00     0.010 A 
ATOM     76  C   UNL     1       3.828  -4.843  10.651  1.00  0.00     0.010 A 
ATOM     77  C   UNL     1       5.053  -5.646  13.035  1.00  0.00     0.020 A 
ATOM     78  C   UNL     1       4.335  -3.881  11.530  1.00  0.00     0.020 A 
ATOM     79  C   UNL     1       4.933  -4.289  12.723  1.00  0.00     0.054 A 
BRANCH  79  80
ATOM     80  S   UNL     1       5.600  -3.063  13.883  1.00  0.00     0.124 S 
ATOM     81  O   UNL     1       4.654  -3.146  14.991  1.00  0.00    -0.237 OA
ATOM     82  O   UNL     1       6.939  -3.583  14.152  1.00  0.00    -0.237 OA
ATOM     83  O   UNL     1       5.565  -1.817  13.120  1.00  0.00    -0.744 OA
ENDBRANCH  79  80
ENDBRANCH  51  74
BRANCH  63  84
ATOM     84  C   UNL     1      -1.218 -10.890  11.363  1.00  0.00    -0.014 A 
ATOM     85  C   UNL     1      -2.259 -10.027  11.748  1.00  0.00     0.010 A 
ATOM     86  C   UNL     1      -1.106 -12.148  11.986  1.00  0.00     0.010 A 
ATOM     87  C   UNL     1      -3.150 -10.402  12.759  1.00  0.00     0.020 A 
ATOM     88  C   UNL     1      -2.015 -12.539  12.972  1.00  0.00     0.020 A 
ATOM     89  C   UNL     1      -3.023 -11.657  13.363  1.00  0.00     0.054 A 
BRANCH  89  90
ATOM     90  S   UNL     1      -4.220 -12.136  14.638  1.00  0.00     0.124 S 
ATOM     91  O   UNL     1      -3.827 -11.286  15.759  1.00  0.00    -0.237 OA
ATOM     92  O   UNL     1      -5.499 -11.804  14.016  1.00  0.00    -0.237 OA
ATOM     93  O   UNL     1      -3.976 -13.565  14.824  1.00  0.00    -0.744 OA
ENDBRANCH  89  90
ENDBRANCH  63  84
ENDBRANCH  37  38
ENDBRANCH  29  32
ENDBRANCH  27  28
ENDBRANCH  26  27
ENDBRANCH   1  26
TORSDOF 19
