REMARK SMILES Cc1ccccc1[C@@H]1[NH2+][C@@H](C(=O)NCCCCNC(=O)c2ccc(-c3c4nc(c(-c5ccc(S(=O)(=O)[O-])cc5)c5ccc([nH]5)c(-c5ccc(S(=O)(=O)[O-])cc5)c5nc(c(-c6ccc(S(=O)(=O)[O-])cc6)c6ccc3[nH]6)C=C5)C=C4)cc2)CC2=c3ccccc3=N[C@@H]21
REMARK SMILES IDX 16 1 15 2 14 3 13 4 11 5 12 6 10 8 8 9 9 10 90 11 82 14
REMARK SMILES IDX 89 15 81 16 83 17 88 18 84 19 87 20 85 21 86 22 7 23 1 24
REMARK SMILES IDX 2 25 3 26 4 27 6 28 5 29 17 30 18 31 19 32 20 34 21 35 22 36
REMARK SMILES IDX 80 37 23 38 79 39 24 40 25 41 26 42 73 43 27 44 78 45 72 46
REMARK SMILES IDX 74 47 28 48 77 49 71 50 70 51 29 53 59 54 40 55 58 56 41 57
REMARK SMILES IDX 44 58 57 59 75 60 42 61 43 62 56 64 76 65 45 66 30 67 31 68
REMARK SMILES IDX 39 69 32 70 38 71 33 72 34 73 35 74 36 75 37 76 60 77 61 78
REMARK SMILES IDX 69 79 62 80 68 81 63 82 64 83 65 84 66 85 67 86 46 87 47 88
REMARK SMILES IDX 55 89 48 90 54 91 49 92 50 93 51 94 52 95 53 96
REMARK H PARENT 13 7 9 12 9 13 18 33 74 52 44 63
REMARK Flexibility Score: inf
ROOT
ATOM      1  C   UNL     1       4.021   2.206  -1.088  1.00  0.00     0.023 C 
ENDROOT
BRANCH   1   2
ATOM      2  C   UNL     1       3.313   3.680  -0.472  1.00  0.00     0.023 C 
BRANCH   2   3
ATOM      3  C   UNL     1       2.826   5.137  -1.030  1.00  0.00     0.116 C 
BRANCH   3   4
ATOM      4  N   UNL     1       1.554   5.874  -0.663  1.00  0.00    -0.351 N 
ATOM      5  C   UNL     1       0.935   6.146   0.562  1.00  0.00     0.278 C 
ATOM      6  O   UNL     1       0.247   7.142   0.755  1.00  0.00    -0.268 OA
ATOM      7  H   UNL     1       1.067   6.232  -1.439  1.00  0.00     0.163 HD
BRANCH   5   8
ATOM      8  C   UNL     1       0.982   4.944   1.473  1.00  0.00     0.277 C 
ATOM      9  C   UNL     1       0.303   2.599   1.157  1.00  0.00     0.243 C 
ATOM     10  N   UNL     1      -0.061   4.034   1.002  1.00  0.00    -0.327 N 
ATOM     11  C   UNL     1       1.466   2.294   2.316  1.00  0.00     0.196 C 
ATOM     12  H   UNL     1      -0.912   4.213   1.534  1.00  0.00     0.347 HD
ATOM     13  H   UNL     1      -0.189   4.210   0.005  1.00  0.00     0.347 HD
ATOM     14  C   UNL     1       1.923   3.576   3.071  1.00  0.00    -0.024 C 
ATOM     15  N   UNL     1       2.765   1.668   1.893  1.00  0.00    -0.270 NA
ATOM     16  C   UNL     1       1.025   4.806   2.981  1.00  0.00     0.109 C 
ATOM     17  C   UNL     1       3.260   3.674   3.097  1.00  0.00     0.002 A 
ATOM     18  C   UNL     1       3.689   2.459   2.373  1.00  0.00     0.066 A 
ATOM     19  C   UNL     1       4.117   4.837   3.155  1.00  0.00     0.010 A 
ATOM     20  C   UNL     1       5.160   2.375   2.111  1.00  0.00     0.028 A 
ATOM     21  C   UNL     1       5.370   4.756   2.677  1.00  0.00     0.001 A 
ATOM     22  C   UNL     1       5.908   3.493   2.206  1.00  0.00     0.002 A 
BRANCH   9  23
ATOM     23  C   UNL     1      -0.070   1.944  -0.229  1.00  0.00     0.015 A 
ATOM     24  C   UNL     1      -2.005   0.576   0.742  1.00  0.00     0.045 C 
ATOM     25  C   UNL     1      -1.268   1.206  -0.402  1.00  0.00    -0.042 A 
ATOM     26  C   UNL     1      -1.923   1.159  -1.666  1.00  0.00     0.004 A 
ATOM     27  C   UNL     1      -1.411   1.798  -2.788  1.00  0.00     0.000 A 
ATOM     28  C   UNL     1       0.448   2.489  -1.432  1.00  0.00     0.010 A 
ATOM     29  C   UNL     1      -0.202   2.442  -2.675  1.00  0.00     0.001 A 
ENDBRANCH   9  23
ENDBRANCH   5   8
ENDBRANCH   3   4
ENDBRANCH   2   3
ENDBRANCH   1   2
BRANCH   1  30
ATOM     30  C   UNL     1       4.497   1.857  -2.591  1.00  0.00     0.116 C 
BRANCH  30  31
ATOM     31  N   UNL     1       5.922   1.593  -3.290  1.00  0.00    -0.352 N 
ATOM     32  C   UNL     1       6.675   1.742  -4.611  1.00  0.00     0.251 C 
ATOM     33  H   UNL     1       6.527   1.190  -2.626  1.00  0.00     0.163 HD
ATOM     34  O   UNL     1       7.730   1.071  -4.600  1.00  0.00    -0.269 OA
BRANCH  32  35
ATOM     35  C   UNL     1       6.610   2.753  -5.950  1.00  0.00     0.039 A 
ATOM     36  C   UNL     1       7.633   3.700  -6.251  1.00  0.00     0.014 A 
ATOM     37  C   UNL     1       5.596   2.908  -6.873  1.00  0.00     0.014 A 
ATOM     38  C   UNL     1       7.269   5.051  -6.623  1.00  0.00     0.010 A 
ATOM     39  C   UNL     1       5.221   4.234  -7.262  1.00  0.00     0.010 A 
ATOM     40  C   UNL     1       5.928   5.355  -6.812  1.00  0.00    -0.014 A 
BRANCH  40  41
ATOM     41  C   UNL     1       5.261   6.700  -6.489  1.00  0.00     0.031 A 
ATOM     42  C   UNL     1       4.726   7.447  -7.607  1.00  0.00     0.074 A 
ATOM     43  C   UNL     1       4.901   7.334  -5.318  1.00  0.00     0.049 A 
ATOM     44  N   UNL     1       5.215   8.557  -8.041  1.00  0.00    -0.248 NA
ATOM     45  C   UNL     1       3.529   6.970  -8.282  1.00  0.00     0.031 C 
ATOM     46  C   UNL     1       4.291   8.659  -5.034  1.00  0.00     0.029 A 
ATOM     47  N   UNL     1       5.048   6.907  -4.013  1.00  0.00    -0.354 N 
ATOM     48  C   UNL     1       4.236   9.059  -8.862  1.00  0.00     0.074 A 
ATOM     49  C   UNL     1       3.360   7.942  -9.176  1.00  0.00     0.031 C 
ATOM     50  C   UNL     1       4.595   9.028  -3.763  1.00  0.00     0.029 A 
ATOM     51  C   UNL     1       5.396   7.969  -3.186  1.00  0.00     0.049 A 
ATOM     52  H   UNL     1       4.923   5.978  -3.711  1.00  0.00     0.167 HD
ATOM     53  C   UNL     1       3.993  10.397  -8.946  1.00  0.00     0.031 A 
ATOM     54  C   UNL     1       6.674   8.001  -2.693  1.00  0.00     0.031 A 
ATOM     55  C   UNL     1       4.642  11.146  -7.858  1.00  0.00     0.049 A 
ATOM     56  C   UNL     1       7.466   9.100  -3.347  1.00  0.00     0.074 A 
ATOM     57  C   UNL     1       4.124  11.778  -6.735  1.00  0.00     0.029 A 
ATOM     58  N   UNL     1       6.012  11.033  -7.632  1.00  0.00    -0.354 N 
ATOM     59  N   UNL     1       7.014   9.788  -4.353  1.00  0.00    -0.248 NA
ATOM     60  C   UNL     1       8.813   9.508  -2.961  1.00  0.00     0.031 C 
ATOM     61  C   UNL     1       5.180  11.969  -5.803  1.00  0.00     0.029 A 
ATOM     62  C   UNL     1       6.348  11.488  -6.368  1.00  0.00     0.049 A 
ATOM     63  H   UNL     1       6.656  10.676  -8.285  1.00  0.00     0.167 HD
ATOM     64  C   UNL     1       7.957  10.662  -4.791  1.00  0.00     0.074 A 
ATOM     65  C   UNL     1       9.057  10.482  -3.859  1.00  0.00     0.031 C 
ATOM     66  C   UNL     1       7.732  11.430  -5.896  1.00  0.00     0.031 A 
BRANCH  53  67
ATOM     67  C   UNL     1       2.870  10.933  -9.805  1.00  0.00    -0.014 A 
ATOM     68  C   UNL     1       2.301  12.193  -9.555  1.00  0.00     0.010 A 
ATOM     69  C   UNL     1       2.370  10.233 -10.926  1.00  0.00     0.010 A 
ATOM     70  C   UNL     1       1.236  12.685 -10.326  1.00  0.00     0.020 A 
ATOM     71  C   UNL     1       1.266  10.677 -11.660  1.00  0.00     0.020 A 
ATOM     72  C   UNL     1       0.711  11.913 -11.361  1.00  0.00     0.054 A 
BRANCH  72  73
ATOM     73  S   UNL     1      -0.652  12.567 -12.356  1.00  0.00     0.124 S 
ATOM     74  O   UNL     1      -1.668  12.866 -11.350  1.00  0.00    -0.237 OA
ATOM     75  O   UNL     1      -0.038  13.727 -12.995  1.00  0.00    -0.237 OA
ATOM     76  O   UNL     1      -0.985  11.467 -13.260  1.00  0.00    -0.744 OA
ENDBRANCH  72  73
ENDBRANCH  53  67
BRANCH  54  77
ATOM     77  C   UNL     1       7.223   6.618  -2.392  1.00  0.00    -0.014 A 
ATOM     78  C   UNL     1       6.477   5.844  -1.504  1.00  0.00     0.010 A 
ATOM     79  C   UNL     1       7.656   5.877  -3.467  1.00  0.00     0.010 A 
ATOM     80  C   UNL     1       5.635   4.830  -2.022  1.00  0.00     0.020 A 
ATOM     81  C   UNL     1       6.821   4.810  -3.902  1.00  0.00     0.020 A 
ATOM     82  C   UNL     1       5.588   4.506  -3.361  1.00  0.00     0.054 A 
BRANCH  82  83
ATOM     83  S   UNL     1       3.774   3.998  -4.430  1.00  0.00     0.124 S 
ATOM     84  O   UNL     1       2.746   3.866  -3.411  1.00  0.00    -0.237 OA
ATOM     85  O   UNL     1       3.451   5.096  -5.324  1.00  0.00    -0.237 OA
ATOM     86  O   UNL     1       3.998   2.701  -5.041  1.00  0.00    -0.744 OA
ENDBRANCH  82  83
ENDBRANCH  54  77
BRANCH  66  87
ATOM     87  C   UNL     1       8.769  12.268  -6.592  1.00  0.00    -0.014 A 
ATOM     88  C   UNL     1      10.152  12.099  -6.440  1.00  0.00     0.010 A 
ATOM     89  C   UNL     1       8.337  13.226  -7.539  1.00  0.00     0.010 A 
ATOM     90  C   UNL     1      11.061  12.906  -7.134  1.00  0.00     0.020 A 
ATOM     91  C   UNL     1       9.234  13.995  -8.280  1.00  0.00     0.020 A 
ATOM     92  C   UNL     1      10.594  13.854  -8.044  1.00  0.00     0.054 A 
BRANCH  92  93
ATOM     93  S   UNL     1      11.784  14.871  -8.944  1.00  0.00     0.124 S 
ATOM     94  O   UNL     1      12.120  15.887  -7.951  1.00  0.00    -0.237 OA
ATOM     95  O   UNL     1      12.852  13.922  -9.253  1.00  0.00    -0.237 OA
ATOM     96  O   UNL     1      11.030  15.348 -10.100  1.00  0.00    -0.744 OA
ENDBRANCH  92  93
ENDBRANCH  66  87
ENDBRANCH  40  41
ENDBRANCH  32  35
ENDBRANCH  30  31
ENDBRANCH   1  30
TORSDOF 15
