REMARK SMILES O=C(Nc1c(F)cc(F)cc1F)N[C@H]1C=C[C@H](C(=O)NCCCCNC(=O)c2ccc(-c3c4nc(c(-c5ccc(S(=O)(=O)[O-])cc5)c5ccc([nH]5)c(-c5ccc(S(=O)(=O)[O-])cc5)c5nc(c(-c6ccc(S(=O)(=O)[O-])cc6)c6ccc3[nH]6)C=C5)C=C4)cc2)C1
REMARK SMILES IDX 23 1 22 2 21 3 20 4 18 5 19 6 17 8 14 9 15 10 88 11 16 12
REMARK SMILES IDX 13 13 1 14 2 15 3 16 4 19 5 20 11 21 6 22 7 23 10 24 12 25
REMARK SMILES IDX 8 26 9 27 24 28 25 29 26 30 27 32 28 33 29 34 87 35 30 36
REMARK SMILES IDX 86 37 31 38 32 39 33 40 80 41 34 42 85 43 79 44 81 45 35 46
REMARK SMILES IDX 84 47 78 48 77 49 36 51 66 52 47 53 65 54 48 55 51 56 64 57
REMARK SMILES IDX 82 58 49 59 50 60 63 62 83 63 52 64 37 65 38 66 46 67 39 68
REMARK SMILES IDX 45 69 40 70 41 71 42 72 43 73 44 74 67 75 68 76 76 77 69 78
REMARK SMILES IDX 75 79 70 80 71 81 72 82 73 83 74 84 53 85 54 86 62 87 55 88
REMARK SMILES IDX 61 89 56 90 57 91 58 92 59 93 60 94
REMARK H PARENT 20 7 3 17 13 18 25 31 81 50 51 61
REMARK Flexibility Score: inf
ROOT
ATOM      1  C   UNL     1       1.046   9.646  -0.420  1.00  0.00     0.023 C 
ENDROOT
BRANCH   1   2
ATOM      2  C   UNL     1       2.204   8.707  -0.065  1.00  0.00     0.023 C 
BRANCH   2   3
ATOM      3  C   UNL     1       1.909   7.728   1.071  1.00  0.00     0.116 C 
BRANCH   3   4
ATOM      4  N   UNL     1       0.850   6.802   0.717  1.00  0.00    -0.356 N 
ATOM      5  C   UNL     1       0.921   5.471   0.421  1.00  0.00     0.227 C 
ATOM      6  O   UNL     1      -0.119   4.888   0.113  1.00  0.00    -0.274 OA
ATOM      7  H   UNL     1      -0.053   7.191   0.687  1.00  0.00     0.163 HD
BRANCH   5   8
ATOM      8  C   UNL     1       2.265   4.751   0.527  1.00  0.00     0.103 C 
ATOM      9  C   UNL     1       1.898   2.326   0.578  1.00  0.00     0.107 C 
ATOM     10  C   UNL     1       2.213   2.866   1.935  1.00  0.00    -0.006 C 
ATOM     11  C   UNL     1       2.310   3.485  -0.342  1.00  0.00     0.047 C 
ATOM     12  C   UNL     1       2.420   4.188   1.912  1.00  0.00    -0.016 C 
BRANCH   9  13
ATOM     13  N   UNL     1       2.725   1.166   0.354  1.00  0.00    -0.332 N 
ATOM     14  O   UNL     1       1.052  -0.235  -0.284  1.00  0.00    -0.248 OA
ATOM     15  C   UNL     1       2.247  -0.015  -0.102  1.00  0.00     0.319 C 
ATOM     16  N   UNL     1       3.144  -0.957  -0.503  1.00  0.00    -0.303 N 
ATOM     17  H   UNL     1       2.728  -1.720  -0.965  1.00  0.00     0.172 HD
ATOM     18  H   UNL     1       3.689   1.238   0.544  1.00  0.00     0.165 HD
BRANCH  16  19
ATOM     19  C   UNL     1       4.545  -1.068  -0.395  1.00  0.00     0.115 A 
ATOM     20  C   UNL     1       5.343  -0.453   0.573  1.00  0.00     0.152 A 
ATOM     21  C   UNL     1       5.186  -1.892  -1.330  1.00  0.00     0.152 A 
ATOM     22  F   UNL     1       4.802   0.281   1.554  1.00  0.00    -0.204 F 
ATOM     23  C   UNL     1       6.728  -0.609   0.582  1.00  0.00     0.081 A 
ATOM     24  C   UNL     1       6.568  -2.045  -1.351  1.00  0.00     0.081 A 
ATOM     25  F   UNL     1       4.457  -2.524  -2.264  1.00  0.00    -0.204 F 
ATOM     26  C   UNL     1       7.328  -1.393  -0.392  1.00  0.00     0.129 A 
ATOM     27  F   UNL     1       8.659  -1.530  -0.399  1.00  0.00    -0.207 F 
ENDBRANCH  16  19
ENDBRANCH   9  13
ENDBRANCH   5   8
ENDBRANCH   3   4
ENDBRANCH   2   3
ENDBRANCH   1   2
BRANCH   1  28
ATOM     28  C   UNL     1       0.511  10.496   0.730  1.00  0.00     0.116 C 
BRANCH  28  29
ATOM     29  N   UNL     1       1.517  11.379   1.299  1.00  0.00    -0.352 N 
ATOM     30  C   UNL     1       1.425  12.715   1.613  1.00  0.00     0.251 C 
ATOM     31  H   UNL     1       2.388  10.961   1.486  1.00  0.00     0.163 HD
ATOM     32  O   UNL     1       2.432  13.327   1.962  1.00  0.00    -0.269 OA
BRANCH  30  33
ATOM     33  C   UNL     1       0.129  13.420   1.499  1.00  0.00     0.039 A 
ATOM     34  C   UNL     1       0.097  14.678   0.890  1.00  0.00     0.014 A 
ATOM     35  C   UNL     1      -1.050  12.849   1.985  1.00  0.00     0.014 A 
ATOM     36  C   UNL     1      -1.127  15.329   0.704  1.00  0.00     0.010 A 
ATOM     37  C   UNL     1      -2.275  13.465   1.734  1.00  0.00     0.010 A 
ATOM     38  C   UNL     1      -2.328  14.711   1.089  1.00  0.00    -0.014 A 
BRANCH  38  39
ATOM     39  C   UNL     1      -3.645  15.344   0.816  1.00  0.00     0.031 A 
ATOM     40  C   UNL     1      -4.547  15.746   1.952  1.00  0.00     0.074 A 
ATOM     41  C   UNL     1      -4.061  15.497  -0.458  1.00  0.00     0.049 A 
ATOM     42  N   UNL     1      -5.753  16.253   1.908  1.00  0.00    -0.248 NA
ATOM     43  C   UNL     1      -4.038  15.527   3.316  1.00  0.00     0.031 C 
ATOM     44  C   UNL     1      -3.300  15.114  -1.650  1.00  0.00     0.029 A 
ATOM     45  N   UNL     1      -5.231  16.009  -0.964  1.00  0.00    -0.354 N 
ATOM     46  C   UNL     1      -6.152  16.398   3.232  1.00  0.00     0.074 A 
ATOM     47  C   UNL     1      -5.081  15.879   4.054  1.00  0.00     0.031 C 
ATOM     48  C   UNL     1      -4.010  15.428  -2.745  1.00  0.00     0.029 A 
ATOM     49  C   UNL     1      -5.293  15.991  -2.338  1.00  0.00     0.049 A 
ATOM     50  H   UNL     1      -5.956  16.356  -0.396  1.00  0.00     0.167 HD
ATOM     51  C   UNL     1      -7.298  16.932   3.721  1.00  0.00     0.031 A 
ATOM     52  C   UNL     1      -6.274  16.375  -3.178  1.00  0.00     0.031 A 
ATOM     53  C   UNL     1      -8.361  17.452   2.902  1.00  0.00     0.049 A 
ATOM     54  C   UNL     1      -7.545  16.947  -2.612  1.00  0.00     0.074 A 
ATOM     55  C   UNL     1      -9.537  18.061   3.304  1.00  0.00     0.029 A 
ATOM     56  N   UNL     1      -8.383  17.419   1.515  1.00  0.00    -0.354 N 
ATOM     57  N   UNL     1      -7.876  17.137  -1.357  1.00  0.00    -0.248 NA
ATOM     58  C   UNL     1      -8.571  17.368  -3.577  1.00  0.00     0.031 C 
ATOM     59  C   UNL     1     -10.295  18.345   2.163  1.00  0.00     0.029 A 
ATOM     60  C   UNL     1      -9.563  17.973   1.047  1.00  0.00     0.049 A 
ATOM     61  H   UNL     1      -7.665  17.056   0.948  1.00  0.00     0.167 HD
ATOM     62  C   UNL     1      -9.136  17.726  -1.382  1.00  0.00     0.074 A 
ATOM     63  C   UNL     1      -9.500  17.873  -2.777  1.00  0.00     0.031 C 
ATOM     64  C   UNL     1      -9.918  18.112  -0.344  1.00  0.00     0.031 A 
BRANCH  51  65
ATOM     65  C   UNL     1      -7.464  16.968   5.219  1.00  0.00    -0.014 A 
ATOM     66  C   UNL     1      -6.671  17.812   6.020  1.00  0.00     0.010 A 
ATOM     67  C   UNL     1      -8.449  16.173   5.833  1.00  0.00     0.010 A 
ATOM     68  C   UNL     1      -6.826  17.822   7.408  1.00  0.00     0.020 A 
ATOM     69  C   UNL     1      -8.629  16.204   7.220  1.00  0.00     0.020 A 
ATOM     70  C   UNL     1      -7.802  17.015   8.000  1.00  0.00     0.054 A 
BRANCH  70  71
ATOM     71  S   UNL     1      -7.988  17.058   9.804  1.00  0.00     0.124 S 
ATOM     72  O   UNL     1      -6.790  16.348  10.246  1.00  0.00    -0.237 OA
ATOM     73  O   UNL     1      -8.009  18.491  10.089  1.00  0.00    -0.237 OA
ATOM     74  O   UNL     1      -9.249  16.360  10.040  1.00  0.00    -0.744 OA
ENDBRANCH  70  71
ENDBRANCH  51  65
BRANCH  52  75
ATOM     75  C   UNL     1      -6.084  16.242  -4.649  1.00  0.00    -0.014 A 
ATOM     76  C   UNL     1      -5.917  17.383  -5.454  1.00  0.00     0.010 A 
ATOM     77  C   UNL     1      -6.047  14.971  -5.252  1.00  0.00     0.010 A 
ATOM     78  C   UNL     1      -5.731  17.257  -6.833  1.00  0.00     0.020 A 
ATOM     79  C   UNL     1      -5.831  14.839  -6.626  1.00  0.00     0.020 A 
ATOM     80  C   UNL     1      -5.684  15.985  -7.410  1.00  0.00     0.054 A 
BRANCH  80  81
ATOM     81  S   UNL     1      -5.378  15.845  -9.194  1.00  0.00     0.124 S 
ATOM     82  O   UNL     1      -6.646  16.298  -9.756  1.00  0.00    -0.237 OA
ATOM     83  O   UNL     1      -4.242  16.741  -9.389  1.00  0.00    -0.237 OA
ATOM     84  O   UNL     1      -5.081  14.426  -9.379  1.00  0.00    -0.744 OA
ENDBRANCH  80  81
ENDBRANCH  52  75
BRANCH  64  85
ATOM     85  C   UNL     1     -11.235  18.765  -0.670  1.00  0.00    -0.014 A 
ATOM     86  C   UNL     1     -12.309  18.026  -1.197  1.00  0.00     0.010 A 
ATOM     87  C   UNL     1     -11.417  20.132  -0.390  1.00  0.00     0.010 A 
ATOM     88  C   UNL     1     -13.531  18.650  -1.468  1.00  0.00     0.020 A 
ATOM     89  C   UNL     1     -12.646  20.752  -0.631  1.00  0.00     0.020 A 
ATOM     90  C   UNL     1     -13.691  20.009  -1.182  1.00  0.00     0.054 A 
BRANCH  90  91
ATOM     91  S   UNL     1     -15.300  20.784  -1.499  1.00  0.00     0.124 S 
ATOM     92  O   UNL     1     -15.317  20.864  -2.957  1.00  0.00    -0.237 OA
ATOM     93  O   UNL     1     -16.237  19.829  -0.911  1.00  0.00    -0.237 OA
ATOM     94  O   UNL     1     -15.211  22.067  -0.806  1.00  0.00    -0.744 OA
ENDBRANCH  90  91
ENDBRANCH  64  85
ENDBRANCH  38  39
ENDBRANCH  30  33
ENDBRANCH  28  29
ENDBRANCH   1  28
TORSDOF 16
