REMARK SMILES CC[NH+]1CCN(c2ccc(NC(=O)C3CCCC3)c(C(=O)NCCCCNC(=O)c3ccc(-c4c5nc(c(-c6ccc(S(=O)(=O)[O-])cc6)c6ccc([nH]6)c(-c6ccc(S(=O)(=O)[O-])cc6)c6nc(c(-c7ccc(S(=O)(=O)[O-])cc7)c7ccc4[nH]7)C=C6)C=C5)cc3)c2)CC1
REMARK SMILES IDX 25 1 24 2 23 3 22 4 20 5 21 6 19 8 7 9 8 10 90 11 9 12 10 13
REMARK SMILES IDX 6 14 3 15 4 16 92 17 5 19 91 20 2 21 1 22 11 23 12 24 13 26
REMARK SMILES IDX 14 27 15 28 18 29 16 30 17 31 26 32 27 33 28 34 29 36 30 37
REMARK SMILES IDX 31 38 89 39 32 40 88 41 33 42 34 43 35 44 82 45 36 46 87 47
REMARK SMILES IDX 81 48 83 49 37 50 86 51 80 52 79 53 38 55 68 56 49 57 67 58
REMARK SMILES IDX 50 59 53 60 66 61 84 62 51 63 52 64 65 66 85 67 54 68 39 69
REMARK SMILES IDX 40 70 48 71 41 72 47 73 42 74 43 75 44 76 45 77 46 78 69 79
REMARK SMILES IDX 70 80 78 81 71 82 77 83 72 84 73 85 74 86 75 87 76 88 55 89
REMARK SMILES IDX 56 90 64 91 57 92 63 93 58 94 59 95 60 96 61 97 62 98
REMARK H PARENT 22 7 3 18 11 25 27 35 83 54 53 65
REMARK Flexibility Score: inf
ROOT
ATOM      1  C   UNL     1       2.849  -5.186  -6.753  1.00  0.00     0.023 C 
ENDROOT
BRANCH   1   2
ATOM      2  C   UNL     1       3.209  -4.280  -5.589  1.00  0.00     0.023 C 
BRANCH   2   3
ATOM      3  C   UNL     1       2.888  -4.790  -4.192  1.00  0.00     0.116 C 
BRANCH   3   4
ATOM      4  N   UNL     1       3.630  -5.966  -3.737  1.00  0.00    -0.352 N 
ATOM      5  C   UNL     1       4.268  -6.226  -2.530  1.00  0.00     0.253 C 
ATOM      6  O   UNL     1       4.814  -7.313  -2.352  1.00  0.00    -0.269 OA
ATOM      7  H   UNL     1       3.686  -6.696  -4.396  1.00  0.00     0.163 HD
BRANCH   5   8
ATOM      8  C   UNL     1       4.402  -5.165  -1.489  1.00  0.00     0.065 A 
ATOM      9  C   UNL     1       3.583  -2.958  -0.890  1.00  0.00     0.038 A 
ATOM     10  C   UNL     1       4.867  -2.683  -0.418  1.00  0.00     0.028 A 
ATOM     11  C   UNL     1       3.347  -4.265  -1.310  1.00  0.00     0.042 A 
ATOM     12  C   UNL     1       5.856  -3.667  -0.365  1.00  0.00     0.029 A 
ATOM     13  C   UNL     1       5.613  -4.951  -0.816  1.00  0.00     0.054 A 
BRANCH   9  14
ATOM     14  N   UNL     1       2.649  -1.962  -1.102  1.00  0.00    -0.360 N 
ATOM     15  N   UNL     1       0.768   0.061  -2.134  1.00  0.00    -0.332 N 
ATOM     16  C   UNL     1       2.221   0.190  -2.289  1.00  0.00     0.283 C 
ATOM     17  C   UNL     1       0.391  -1.352  -1.991  1.00  0.00     0.283 C 
ATOM     18  H   UNL     1       0.340   0.384  -3.002  1.00  0.00     0.348 HD
ATOM     19  C   UNL     1       3.091  -0.570  -1.271  1.00  0.00     0.178 C 
ATOM     20  C   UNL     1       1.201  -2.190  -0.972  1.00  0.00     0.178 C 
BRANCH  15  21
ATOM     21  C   UNL     1       0.160   0.986  -1.183  1.00  0.00     0.258 C 
ATOM     22  C   UNL     1       0.301   0.713   0.308  1.00  0.00     0.071 C 
ENDBRANCH  15  21
ENDBRANCH   9  14
BRANCH  13  23
ATOM     23  N   UNL     1       6.526  -6.002  -0.624  1.00  0.00    -0.325 N 
ATOM     24  C   UNL     1       7.483  -6.269   0.308  1.00  0.00     0.227 C 
ATOM     25  H   UNL     1       6.459  -6.700  -1.316  1.00  0.00     0.169 HD
ATOM     26  O   UNL     1       8.162  -7.290   0.117  1.00  0.00    -0.274 OA
BRANCH  24  27
ATOM     27  C   UNL     1       7.798  -5.452   1.569  1.00  0.00     0.079 C 
ATOM     28  C   UNL     1       8.868  -4.384   1.354  1.00  0.00     0.013 C 
ATOM     29  C   UNL     1       6.685  -4.812   2.410  1.00  0.00     0.013 C 
ATOM     30  C   UNL     1       8.645  -3.382   2.478  1.00  0.00     0.001 C 
ATOM     31  C   UNL     1       7.143  -3.383   2.714  1.00  0.00     0.001 C 
ENDBRANCH  24  27
ENDBRANCH  13  23
ENDBRANCH   5   8
ENDBRANCH   3   4
ENDBRANCH   2   3
ENDBRANCH   1   2
BRANCH   1  32
ATOM     32  C   UNL     1       1.445  -5.779  -6.738  1.00  0.00     0.116 C 
BRANCH  32  33
ATOM     33  N   UNL     1       0.374  -4.792  -6.686  1.00  0.00    -0.352 N 
ATOM     34  C   UNL     1      -0.745  -4.674  -7.480  1.00  0.00     0.251 C 
ATOM     35  H   UNL     1       0.464  -4.111  -5.981  1.00  0.00     0.163 HD
ATOM     36  O   UNL     1      -1.524  -3.740  -7.308  1.00  0.00    -0.269 OA
BRANCH  34  37
ATOM     37  C   UNL     1      -0.980  -5.644  -8.573  1.00  0.00     0.039 A 
ATOM     38  C   UNL     1      -1.266  -5.161  -9.852  1.00  0.00     0.014 A 
ATOM     39  C   UNL     1      -0.860  -7.017  -8.352  1.00  0.00     0.014 A 
ATOM     40  C   UNL     1      -1.327  -6.049 -10.930  1.00  0.00     0.010 A 
ATOM     41  C   UNL     1      -0.836  -7.889  -9.437  1.00  0.00     0.010 A 
ATOM     42  C   UNL     1      -1.056  -7.413 -10.739  1.00  0.00    -0.014 A 
BRANCH  42  43
ATOM     43  C   UNL     1      -0.969  -8.357 -11.884  1.00  0.00     0.031 A 
ATOM     44  C   UNL     1      -1.919  -9.520 -11.981  1.00  0.00     0.074 A 
ATOM     45  C   UNL     1       0.024  -8.223 -12.787  1.00  0.00     0.049 A 
ATOM     46  N   UNL     1      -1.939 -10.498 -12.849  1.00  0.00    -0.248 NA
ATOM     47  C   UNL     1      -2.966  -9.610 -10.950  1.00  0.00     0.031 C 
ATOM     48  C   UNL     1       1.045  -7.172 -12.777  1.00  0.00     0.029 A 
ATOM     49  N   UNL     1       0.349  -8.986 -13.882  1.00  0.00    -0.354 N 
ATOM     50  C   UNL     1      -2.978 -11.333 -12.454  1.00  0.00     0.074 A 
ATOM     51  C   UNL     1      -3.536 -10.769 -11.245  1.00  0.00     0.031 C 
ATOM     52  C   UNL     1       1.867  -7.345 -13.825  1.00  0.00     0.029 A 
ATOM     53  C   UNL     1       1.460  -8.540 -14.558  1.00  0.00     0.049 A 
ATOM     54  H   UNL     1      -0.166  -9.780 -14.156  1.00  0.00     0.167 HD
ATOM     55  C   UNL     1      -3.438 -12.458 -13.052  1.00  0.00     0.031 A 
ATOM     56  C   UNL     1       2.091  -9.039 -15.639  1.00  0.00     0.031 A 
ATOM     57  C   UNL     1      -2.895 -13.007 -14.266  1.00  0.00     0.049 A 
ATOM     58  C   UNL     1       1.557 -10.284 -16.292  1.00  0.00     0.074 A 
ATOM     59  C   UNL     1      -3.340 -14.099 -14.990  1.00  0.00     0.029 A 
ATOM     60  N   UNL     1      -1.786 -12.509 -14.933  1.00  0.00    -0.354 N 
ATOM     61  N   UNL     1       0.524 -11.015 -15.946  1.00  0.00    -0.248 NA
ATOM     62  C   UNL     1       2.267 -10.765 -17.485  1.00  0.00     0.031 C 
ATOM     63  C   UNL     1      -2.471 -14.291 -16.069  1.00  0.00     0.029 A 
ATOM     64  C   UNL     1      -1.516 -13.287 -16.046  1.00  0.00     0.049 A 
ATOM     65  H   UNL     1      -1.268 -11.720 -14.656  1.00  0.00     0.167 HD
ATOM     66  C   UNL     1       0.451 -12.034 -16.890  1.00  0.00     0.074 A 
ATOM     67  C   UNL     1       1.531 -11.814 -17.830  1.00  0.00     0.031 C 
ATOM     68  C   UNL     1      -0.432 -13.060 -16.969  1.00  0.00     0.031 A 
BRANCH  55  69
ATOM     69  C   UNL     1      -4.587 -13.173 -12.392  1.00  0.00    -0.014 A 
ATOM     70  C   UNL     1      -5.879 -12.617 -12.380  1.00  0.00     0.010 A 
ATOM     71  C   UNL     1      -4.378 -14.430 -11.796  1.00  0.00     0.010 A 
ATOM     72  C   UNL     1      -6.929 -13.280 -11.742  1.00  0.00     0.020 A 
ATOM     73  C   UNL     1      -5.433 -15.111 -11.181  1.00  0.00     0.020 A 
ATOM     74  C   UNL     1      -6.698 -14.521 -11.140  1.00  0.00     0.054 A 
BRANCH  74  75
ATOM     75  S   UNL     1      -8.082 -15.365 -10.326  1.00  0.00     0.124 S 
ATOM     76  O   UNL     1      -8.230 -14.585  -9.100  1.00  0.00    -0.237 OA
ATOM     77  O   UNL     1      -9.163 -15.219 -11.297  1.00  0.00    -0.237 OA
ATOM     78  O   UNL     1      -7.595 -16.730 -10.141  1.00  0.00    -0.744 OA
ENDBRANCH  74  75
ENDBRANCH  55  69
BRANCH  56  79
ATOM     79  C   UNL     1       3.295  -8.350 -16.177  1.00  0.00    -0.014 A 
ATOM     80  C   UNL     1       3.225  -7.631 -17.384  1.00  0.00     0.010 A 
ATOM     81  C   UNL     1       4.513  -8.388 -15.474  1.00  0.00     0.010 A 
ATOM     82  C   UNL     1       4.352  -6.971 -17.882  1.00  0.00     0.020 A 
ATOM     83  C   UNL     1       5.636  -7.708 -15.956  1.00  0.00     0.020 A 
ATOM     84  C   UNL     1       5.550  -7.011 -17.163  1.00  0.00     0.054 A 
BRANCH  84  85
ATOM     85  S   UNL     1       6.981  -6.090 -17.794  1.00  0.00     0.124 S 
ATOM     86  O   UNL     1       7.421  -6.934 -18.900  1.00  0.00    -0.237 OA
ATOM     87  O   UNL     1       6.391  -4.808 -18.171  1.00  0.00    -0.237 OA
ATOM     88  O   UNL     1       7.885  -6.037 -16.647  1.00  0.00    -0.744 OA
ENDBRANCH  84  85
ENDBRANCH  56  79
BRANCH  68  89
ATOM     89  C   UNL     1      -0.280 -14.017 -18.121  1.00  0.00    -0.014 A 
ATOM     90  C   UNL     1       0.764 -14.957 -18.150  1.00  0.00     0.010 A 
ATOM     91  C   UNL     1      -1.230 -14.011 -19.159  1.00  0.00     0.010 A 
ATOM     92  C   UNL     1       0.871 -15.860 -19.212  1.00  0.00     0.020 A 
ATOM     93  C   UNL     1      -1.141 -14.929 -20.208  1.00  0.00     0.020 A 
ATOM     94  C   UNL     1      -0.083 -15.840 -20.234  1.00  0.00     0.054 A 
BRANCH  94  95
ATOM     95  S   UNL     1       0.049 -17.053 -21.576  1.00  0.00     0.124 S 
ATOM     96  O   UNL     1       1.157 -16.517 -22.363  1.00  0.00    -0.237 OA
ATOM     97  O   UNL     1       0.330 -18.295 -20.860  1.00  0.00    -0.237 OA
ATOM     98  O   UNL     1      -1.260 -16.997 -22.223  1.00  0.00    -0.744 OA
ENDBRANCH  94  95
ENDBRANCH  68  89
ENDBRANCH  42  43
ENDBRANCH  34  37
ENDBRANCH  32  33
ENDBRANCH   1  32
TORSDOF 18
