REMARK SMILES O=C(NCCCCNC(=O)c1ccc(Cl)nc1NC[C@@H]1C[N@@H+]2CCC[C@@H]2CO1)c1ccc(-c2c3nc(c(-c4ccc(S(=O)(=O)[O-])cc4)c4ccc([nH]4)c(-c4ccc(S(=O)(=O)[O-])cc4)c4nc(c(-c5ccc(S(=O)(=O)[O-])cc5)c5ccc2[nH]5)C=C4)C=C3)cc1
REMARK SMILES IDX 5 1 4 2 3 3 1 4 2 5 29 7 30 8 88 9 31 10 87 11 32 12 33 13
REMARK SMILES IDX 34 14 81 15 35 16 86 17 80 18 82 19 36 20 85 21 79 22 78 23
REMARK SMILES IDX 37 25 67 26 48 27 66 28 49 29 52 30 65 31 83 32 50 33 51 34
REMARK SMILES IDX 64 36 84 37 53 38 38 39 39 40 47 41 40 42 46 43 41 44 42 45
REMARK SMILES IDX 43 46 44 47 45 48 68 49 69 50 77 51 70 52 76 53 71 54 72 55
REMARK SMILES IDX 73 56 74 57 75 58 54 59 55 60 63 61 56 62 62 63 57 64 58 65
REMARK SMILES IDX 59 66 60 67 61 68 6 69 7 70 8 71 9 72 10 74 11 75 12 76
REMARK SMILES IDX 17 77 13 78 16 79 14 80 15 81 18 82 19 84 20 85 21 86 28 87
REMARK SMILES IDX 22 88 27 89 23 90 26 91 24 93 25 94
REMARK H PARENT 3 6 82 24 52 35 8 73 18 83 22 92
REMARK Flexibility Score: inf
ROOT
ATOM      1  C   UNL     1       9.946  -2.251  -0.965  1.00  0.00     0.023 C 
ENDROOT
BRANCH   1   2
ATOM      2  C   UNL     1       9.369  -3.338  -0.066  1.00  0.00     0.116 C 
BRANCH   2   3
ATOM      3  N   UNL     1      10.361  -3.947   0.806  1.00  0.00    -0.352 N 
ATOM      4  O   UNL     1      11.315  -4.563   2.753  1.00  0.00    -0.269 OA
ATOM      5  C   UNL     1      10.323  -4.133   2.168  1.00  0.00     0.251 C 
ATOM      6  H   UNL     1      11.175  -4.271   0.358  1.00  0.00     0.163 HD
BRANCH   5   7
ATOM      7  C   UNL     1       9.102  -3.786   2.929  1.00  0.00     0.039 A 
ATOM      8  C   UNL     1       7.841  -4.171   2.470  1.00  0.00     0.014 A 
ATOM      9  C   UNL     1       9.223  -3.057   4.116  1.00  0.00     0.014 A 
ATOM     10  C   UNL     1       6.700  -3.704   3.114  1.00  0.00     0.010 A 
ATOM     11  C   UNL     1       8.075  -2.657   4.807  1.00  0.00     0.010 A 
ATOM     12  C   UNL     1       6.803  -2.948   4.293  1.00  0.00    -0.014 A 
BRANCH  12  13
ATOM     13  C   UNL     1       5.564  -2.522   4.994  1.00  0.00     0.031 A 
ATOM     14  C   UNL     1       5.193  -1.068   5.112  1.00  0.00     0.074 A 
ATOM     15  C   UNL     1       4.746  -3.470   5.492  1.00  0.00     0.049 A 
ATOM     16  N   UNL     1       4.130  -0.535   5.660  1.00  0.00    -0.248 NA
ATOM     17  C   UNL     1       6.133  -0.086   4.550  1.00  0.00     0.031 C 
ATOM     18  C   UNL     1       5.000  -4.913   5.442  1.00  0.00     0.029 A 
ATOM     19  N   UNL     1       3.528  -3.370   6.114  1.00  0.00    -0.354 N 
ATOM     20  C   UNL     1       4.276   0.841   5.520  1.00  0.00     0.074 A 
ATOM     21  C   UNL     1       5.545   1.062   4.859  1.00  0.00     0.031 C 
ATOM     22  C   UNL     1       3.949  -5.563   5.963  1.00  0.00     0.029 A 
ATOM     23  C   UNL     1       2.976  -4.586   6.437  1.00  0.00     0.049 A 
ATOM     24  H   UNL     1       3.092  -2.510   6.311  1.00  0.00     0.167 HD
ATOM     25  C   UNL     1       3.429   1.828   5.901  1.00  0.00     0.031 A 
ATOM     26  C   UNL     1       1.820  -4.888   7.058  1.00  0.00     0.031 A 
ATOM     27  C   UNL     1       2.169   1.604   6.563  1.00  0.00     0.049 A 
ATOM     28  C   UNL     1       0.914  -3.775   7.494  1.00  0.00     0.074 A 
ATOM     29  C   UNL     1       1.237   2.539   6.980  1.00  0.00     0.029 A 
ATOM     30  N   UNL     1       1.663   0.359   6.904  1.00  0.00    -0.354 N 
ATOM     31  N   UNL     1       1.066  -2.482   7.338  1.00  0.00    -0.248 NA
ATOM     32  C   UNL     1      -0.320  -4.161   8.191  1.00  0.00     0.031 C 
ATOM     33  C   UNL     1       0.186   1.862   7.610  1.00  0.00     0.029 A 
ATOM     34  C   UNL     1       0.441   0.502   7.541  1.00  0.00     0.049 A 
ATOM     35  H   UNL     1       2.107  -0.500   6.721  1.00  0.00     0.167 HD
ATOM     36  C   UNL     1      -0.059  -1.899   7.907  1.00  0.00     0.074 A 
ATOM     37  C   UNL     1      -0.893  -2.982   8.390  1.00  0.00     0.031 C 
ATOM     38  C   UNL     1      -0.372  -0.586   8.024  1.00  0.00     0.031 A 
BRANCH  25  39
ATOM     39  C   UNL     1       3.846   3.250   5.629  1.00  0.00    -0.014 A 
ATOM     40  C   UNL     1       3.818   3.777   4.325  1.00  0.00     0.010 A 
ATOM     41  C   UNL     1       4.222   4.085   6.697  1.00  0.00     0.010 A 
ATOM     42  C   UNL     1       4.194   5.103   4.090  1.00  0.00     0.020 A 
ATOM     43  C   UNL     1       4.577   5.418   6.468  1.00  0.00     0.020 A 
ATOM     44  C   UNL     1       4.577   5.914   5.162  1.00  0.00     0.054 A 
BRANCH  44  45
ATOM     45  S   UNL     1       5.044   7.636   4.831  1.00  0.00     0.124 S 
ATOM     46  O   UNL     1       6.372   7.478   4.242  1.00  0.00    -0.237 OA
ATOM     47  O   UNL     1       3.999   8.083   3.914  1.00  0.00    -0.237 OA
ATOM     48  O   UNL     1       5.019   8.262   6.151  1.00  0.00    -0.744 OA
ENDBRANCH  44  45
ENDBRANCH  25  39
BRANCH  26  49
ATOM     49  C   UNL     1       1.471  -6.311   7.313  1.00  0.00    -0.014 A 
ATOM     50  C   UNL     1       0.428  -6.931   6.605  1.00  0.00     0.010 A 
ATOM     51  C   UNL     1       2.203  -7.059   8.253  1.00  0.00     0.010 A 
ATOM     52  C   UNL     1       0.114  -8.272   6.844  1.00  0.00     0.020 A 
ATOM     53  C   UNL     1       1.910  -8.406   8.474  1.00  0.00     0.020 A 
ATOM     54  C   UNL     1       0.858  -9.001   7.777  1.00  0.00     0.054 A 
BRANCH  54  55
ATOM     55  S   UNL     1       0.472 -10.755   8.034  1.00  0.00     0.124 S 
ATOM     56  O   UNL     1      -0.714 -10.682   8.882  1.00  0.00    -0.237 OA
ATOM     57  O   UNL     1       0.250 -11.236   6.673  1.00  0.00    -0.237 OA
ATOM     58  O   UNL     1       1.675 -11.275   8.681  1.00  0.00    -0.744 OA
ENDBRANCH  54  55
ENDBRANCH  26  49
BRANCH  38  59
ATOM     59  C   UNL     1      -1.682  -0.252   8.682  1.00  0.00    -0.014 A 
ATOM     60  C   UNL     1      -1.847  -0.380  10.073  1.00  0.00     0.010 A 
ATOM     61  C   UNL     1      -2.752   0.222   7.902  1.00  0.00     0.010 A 
ATOM     62  C   UNL     1      -3.073  -0.073  10.668  1.00  0.00     0.020 A 
ATOM     63  C   UNL     1      -3.971   0.553   8.498  1.00  0.00     0.020 A 
ATOM     64  C   UNL     1      -4.129   0.387   9.876  1.00  0.00     0.054 A 
BRANCH  64  65
ATOM     65  S   UNL     1      -5.703   0.809  10.673  1.00  0.00     0.124 S 
ATOM     66  O   UNL     1      -6.281  -0.508  10.918  1.00  0.00    -0.237 OA
ATOM     67  O   UNL     1      -5.276   1.540  11.864  1.00  0.00    -0.237 OA
ATOM     68  O   UNL     1      -6.392   1.617   9.669  1.00  0.00    -0.744 OA
ENDBRANCH  64  65
ENDBRANCH  38  59
ENDBRANCH  12  13
ENDBRANCH   5   7
ENDBRANCH   2   3
ENDBRANCH   1   2
BRANCH   1  69
ATOM     69  C   UNL     1      11.050  -2.700  -1.921  1.00  0.00     0.023 C 
BRANCH  69  70
ATOM     70  C   UNL     1      10.725  -3.929  -2.767  1.00  0.00     0.116 C 
BRANCH  70  71
ATOM     71  N   UNL     1       9.551  -3.741  -3.603  1.00  0.00    -0.352 N 
ATOM     72  C   UNL     1       9.447  -3.716  -4.971  1.00  0.00     0.255 C 
ATOM     73  H   UNL     1       8.705  -3.613  -3.115  1.00  0.00     0.163 HD
ATOM     74  O   UNL     1       8.392  -3.385  -5.505  1.00  0.00    -0.269 OA
BRANCH  72  75
ATOM     75  C   UNL     1      10.602  -4.073  -5.814  1.00  0.00     0.082 A 
ATOM     76  C   UNL     1      11.244  -5.304  -5.634  1.00  0.00     0.021 A 
ATOM     77  C   UNL     1      11.027  -3.201  -6.829  1.00  0.00     0.140 A 
ATOM     78  C   UNL     1      12.354  -5.603  -6.409  1.00  0.00     0.042 A 
ATOM     79  N   UNL     1      12.116  -3.492  -7.576  1.00  0.00    -0.219 NA
ATOM     80  C   UNL     1      12.747  -4.665  -7.345  1.00  0.00     0.131 A 
ATOM     81  Cl  UNL     1      14.131  -4.933  -8.322  1.00  0.00    -0.062 Cl
BRANCH  77  82
ATOM     82  N   UNL     1      10.391  -1.988  -7.024  1.00  0.00    -0.367 N 
ATOM     83  H   UNL     1       9.599  -1.784  -6.476  1.00  0.00     0.162 HD
BRANCH  82  84
ATOM     84  C   UNL     1      10.829  -1.002  -7.992  1.00  0.00     0.152 C 
BRANCH  84  85
ATOM     85  C   UNL     1       9.958  -0.986  -9.271  1.00  0.00     0.192 C 
ATOM     86  C   UNL     1      10.396  -2.093 -10.278  1.00  0.00     0.296 C 
ATOM     87  O   UNL     1       9.972   0.353  -9.809  1.00  0.00    -0.364 OA
ATOM     88  N   UNL     1      10.511  -1.724 -11.698  1.00  0.00    -0.328 N 
ATOM     89  C   UNL     1      11.063   0.547 -10.703  1.00  0.00     0.225 C 
ATOM     90  C   UNL     1      11.477  -2.560 -12.421  1.00  0.00     0.262 C 
ATOM     91  C   UNL     1      10.845  -0.310 -11.947  1.00  0.00     0.210 C 
ATOM     92  H   UNL     1       9.569  -1.888 -12.053  1.00  0.00     0.348 HD
ATOM     93  C   UNL     1      11.970  -1.670 -13.548  1.00  0.00     0.068 C 
ATOM     94  C   UNL     1      12.051  -0.312 -12.879  1.00  0.00     0.073 C 
ENDBRANCH  84  85
ENDBRANCH  82  84
ENDBRANCH  77  82
ENDBRANCH  72  75
ENDBRANCH  70  71
ENDBRANCH  69  70
ENDBRANCH   1  69
TORSDOF 17
