REMARK SMILES CC(C)CSc1cc2c(cc1Cl)C=C(C(=O)NCCCCNC(=O)c1ccc(-c3c4nc(c(-c5ccc(S(=O)(=O)[O-])cc5)c5ccc([nH]5)c(-c5ccc(S(=O)(=O)[O-])cc5)c5nc(c(-c6ccc(S(=O)(=O)[O-])cc6)c6ccc3[nH]6)C=C5)C=C4)cc1)[C@@H](C(F)(F)F)O2
REMARK SMILES IDX 19 1 18 2 17 3 15 4 16 5 14 7 6 8 7 9 11 10 8 11 10 12 12 13
REMARK SMILES IDX 9 14 90 15 13 16 85 17 5 18 4 19 2 20 1 21 3 22 86 23 87 24
REMARK SMILES IDX 88 25 89 26 20 27 21 28 22 29 23 30 24 32 25 33 26 34 84 35
REMARK SMILES IDX 27 36 83 37 28 38 29 39 30 40 77 41 31 42 82 43 76 44 78 45
REMARK SMILES IDX 32 46 81 47 75 48 74 49 33 51 63 52 44 53 62 54 45 55 48 56
REMARK SMILES IDX 61 57 79 58 46 59 47 60 60 62 80 63 49 64 34 65 35 66 43 67
REMARK SMILES IDX 36 68 42 69 37 70 38 71 39 72 40 73 41 74 64 75 65 76 73 77
REMARK SMILES IDX 66 78 72 79 67 80 68 81 69 82 70 83 71 84 50 85 51 86 59 87
REMARK SMILES IDX 52 88 58 89 53 90 54 91 55 92 56 93 57 94
REMARK H PARENT 17 6 22 31 78 50 48 61
REMARK Flexibility Score: inf
ROOT
ATOM      1  C   UNL     1       0.798  -0.498   9.700  1.00  0.00     0.023 C 
ENDROOT
BRANCH   1   2
ATOM      2  C   UNL     1       1.749  -1.098   8.668  1.00  0.00     0.116 C 
BRANCH   2   3
ATOM      3  N   UNL     1       1.223  -2.315   8.076  1.00  0.00    -0.352 N 
ATOM      4  C   UNL     1       0.638  -2.675   6.910  1.00  0.00     0.251 C 
ATOM      5  O   UNL     1       0.345  -3.871   6.811  1.00  0.00    -0.270 OA
ATOM      6  H   UNL     1       1.316  -3.083   8.685  1.00  0.00     0.163 HD
BRANCH   4   7
ATOM      7  C   UNL     1       0.331  -1.751   5.776  1.00  0.00     0.067 C 
ATOM      8  C   UNL     1      -1.486   0.222   1.484  1.00  0.00     0.030 A 
ATOM      9  C   UNL     1      -0.829   0.740   2.610  1.00  0.00     0.063 A 
ATOM     10  C   UNL     1      -1.838  -1.138   1.485  1.00  0.00     0.055 A 
ATOM     11  C   UNL     1      -0.472  -0.088   3.673  1.00  0.00     0.129 A 
ATOM     12  C   UNL     1      -1.477  -1.965   2.559  1.00  0.00     0.033 A 
ATOM     13  Cl  UNL     1      -2.778  -1.866   0.228  1.00  0.00    -0.083 Cl
ATOM     14  C   UNL     1      -0.787  -1.442   3.655  1.00  0.00     0.019 A 
ATOM     15  O   UNL     1       0.149   0.515   4.727  1.00  0.00    -0.475 OA
ATOM     16  C   UNL     1      -0.445  -2.268   4.804  1.00  0.00     0.025 C 
ATOM     17  C   UNL     1       0.862  -0.350   5.657  1.00  0.00     0.314 C 
BRANCH   8  18
ATOM     18  S   UNL     1      -1.848   1.406   0.191  1.00  0.00    -0.124 SA
BRANCH  18  19
ATOM     19  C   UNL     1      -0.963   0.717  -1.257  1.00  0.00     0.078 C 
BRANCH  19  20
ATOM     20  C   UNL     1       0.566   0.904  -1.277  1.00  0.00    -0.007 C 
ATOM     21  C   UNL     1       1.304   0.007  -0.282  1.00  0.00     0.008 C 
ATOM     22  C   UNL     1       1.080   0.599  -2.690  1.00  0.00     0.008 C 
ENDBRANCH  19  20
ENDBRANCH  18  19
ENDBRANCH   8  18
BRANCH  17  23
ATOM     23  C   UNL     1       2.362  -0.310   5.312  1.00  0.00     0.429 C 
ATOM     24  F   UNL     1       2.865   0.931   5.529  1.00  0.00    -0.167 F 
ATOM     25  F   UNL     1       3.096  -1.159   6.068  1.00  0.00    -0.167 F 
ATOM     26  F   UNL     1       2.602  -0.623   4.018  1.00  0.00    -0.167 F 
ENDBRANCH  17  23
ENDBRANCH   4   7
ENDBRANCH   2   3
ENDBRANCH   1   2
BRANCH   1  27
ATOM     27  C   UNL     1       0.909  -1.118  11.095  1.00  0.00     0.023 C 
BRANCH  27  28
ATOM     28  C   UNL     1       2.308  -1.120  11.709  1.00  0.00     0.116 C 
BRANCH  28  29
ATOM     29  N   UNL     1       2.969   0.179  11.697  1.00  0.00    -0.352 N 
ATOM     30  C   UNL     1       3.887   0.676  12.595  1.00  0.00     0.251 C 
ATOM     31  H   UNL     1       2.729   0.777  10.953  1.00  0.00     0.163 HD
ATOM     32  O   UNL     1       4.305   1.824  12.483  1.00  0.00    -0.269 OA
BRANCH  30  33
ATOM     33  C   UNL     1       4.317  -0.174  13.725  1.00  0.00     0.039 A 
ATOM     34  C   UNL     1       4.719  -1.492  13.502  1.00  0.00     0.014 A 
ATOM     35  C   UNL     1       4.236   0.331  15.025  1.00  0.00     0.014 A 
ATOM     36  C   UNL     1       4.862  -2.354  14.582  1.00  0.00     0.010 A 
ATOM     37  C   UNL     1       4.463  -0.519  16.111  1.00  0.00     0.010 A 
ATOM     38  C   UNL     1       4.720  -1.881  15.899  1.00  0.00    -0.014 A 
BRANCH  38  39
ATOM     39  C   UNL     1       4.831  -2.842  17.027  1.00  0.00     0.031 A 
ATOM     40  C   UNL     1       3.638  -3.156  17.892  1.00  0.00     0.074 A 
ATOM     41  C   UNL     1       5.993  -3.497  17.216  1.00  0.00     0.049 A 
ATOM     42  N   UNL     1       3.542  -4.018  18.872  1.00  0.00    -0.248 NA
ATOM     43  C   UNL     1       2.394  -2.413  17.627  1.00  0.00     0.031 C 
ATOM     44  C   UNL     1       7.208  -3.293  16.424  1.00  0.00     0.029 A 
ATOM     45  N   UNL     1       6.332  -4.494  18.095  1.00  0.00    -0.354 N 
ATOM     46  C   UNL     1       2.240  -3.914  19.347  1.00  0.00     0.074 A 
ATOM     47  C   UNL     1       1.588  -2.885  18.570  1.00  0.00     0.031 C 
ATOM     48  C   UNL     1       8.131  -4.189  16.801  1.00  0.00     0.029 A 
ATOM     49  C   UNL     1       7.602  -4.984  17.904  1.00  0.00     0.049 A 
ATOM     50  H   UNL     1       5.724  -4.825  18.795  1.00  0.00     0.167 HD
ATOM     51  C   UNL     1       1.641  -4.622  20.333  1.00  0.00     0.031 A 
ATOM     52  C   UNL     1       8.273  -5.963  18.542  1.00  0.00     0.031 A 
ATOM     53  C   UNL     1       2.290  -5.658  21.094  1.00  0.00     0.049 A 
ATOM     54  C   UNL     1       7.601  -6.704  19.659  1.00  0.00     0.074 A 
ATOM     55  C   UNL     1       1.758  -6.438  22.106  1.00  0.00     0.029 A 
ATOM     56  N   UNL     1       3.605  -6.063  20.927  1.00  0.00    -0.354 N 
ATOM     57  N   UNL     1       6.372  -6.582  20.100  1.00  0.00    -0.248 NA
ATOM     58  C   UNL     1       8.404  -7.706  20.373  1.00  0.00     0.031 C 
ATOM     59  C   UNL     1       2.765  -7.277  22.587  1.00  0.00     0.029 A 
ATOM     60  C   UNL     1       3.909  -7.064  21.834  1.00  0.00     0.049 A 
ATOM     61  H   UNL     1       4.230  -5.694  20.262  1.00  0.00     0.167 HD
ATOM     62  C   UNL     1       6.254  -7.488  21.146  1.00  0.00     0.074 A 
ATOM     63  C   UNL     1       7.527  -8.172  21.255  1.00  0.00     0.031 C 
ATOM     64  C   UNL     1       5.186  -7.724  21.947  1.00  0.00     0.031 A 
BRANCH  51  65
ATOM     65  C   UNL     1       0.203  -4.312  20.662  1.00  0.00    -0.014 A 
ATOM     66  C   UNL     1      -0.116  -3.703  21.890  1.00  0.00     0.010 A 
ATOM     67  C   UNL     1      -0.838  -4.723  19.811  1.00  0.00     0.010 A 
ATOM     68  C   UNL     1      -1.449  -3.529  22.272  1.00  0.00     0.020 A 
ATOM     69  C   UNL     1      -2.173  -4.529  20.179  1.00  0.00     0.020 A 
ATOM     70  C   UNL     1      -2.470  -3.952  21.417  1.00  0.00     0.054 A 
BRANCH  70  71
ATOM     71  S   UNL     1      -4.196  -3.729  21.930  1.00  0.00     0.124 S 
ATOM     72  O   UNL     1      -4.383  -4.829  22.869  1.00  0.00    -0.237 OA
ATOM     73  O   UNL     1      -4.186  -2.391  22.517  1.00  0.00    -0.237 OA
ATOM     74  O   UNL     1      -4.940  -3.841  20.676  1.00  0.00    -0.744 OA
ENDBRANCH  70  71
ENDBRANCH  51  65
BRANCH  52  75
ATOM     75  C   UNL     1       9.656  -6.290  18.103  1.00  0.00    -0.014 A 
ATOM     76  C   UNL     1      10.700  -5.367  18.302  1.00  0.00     0.010 A 
ATOM     77  C   UNL     1       9.914  -7.474  17.392  1.00  0.00     0.010 A 
ATOM     78  C   UNL     1      11.960  -5.590  17.742  1.00  0.00     0.020 A 
ATOM     79  C   UNL     1      11.183  -7.714  16.853  1.00  0.00     0.020 A 
ATOM     80  C   UNL     1      12.187  -6.754  17.004  1.00  0.00     0.054 A 
BRANCH  80  81
ATOM     81  S   UNL     1      13.808  -6.994  16.227  1.00  0.00     0.124 S 
ATOM     82  O   UNL     1      13.697  -6.149  15.040  1.00  0.00    -0.237 OA
ATOM     83  O   UNL     1      14.731  -6.518  17.254  1.00  0.00    -0.237 OA
ATOM     84  O   UNL     1      13.853  -8.431  15.971  1.00  0.00    -0.744 OA
ENDBRANCH  80  81
ENDBRANCH  52  75
BRANCH  64  85
ATOM     85  C   UNL     1       5.338  -8.748  23.038  1.00  0.00    -0.014 A 
ATOM     86  C   UNL     1       4.643  -9.969  22.956  1.00  0.00     0.010 A 
ATOM     87  C   UNL     1       6.070  -8.450  24.201  1.00  0.00     0.010 A 
ATOM     88  C   UNL     1       4.653 -10.862  24.029  1.00  0.00     0.020 A 
ATOM     89  C   UNL     1       6.102  -9.353  25.267  1.00  0.00     0.020 A 
ATOM     90  C   UNL     1       5.373 -10.542  25.184  1.00  0.00     0.054 A 
BRANCH  90  91
ATOM     91  S   UNL     1       5.354 -11.700  26.580  1.00  0.00     0.124 S 
ATOM     92  O   UNL     1       4.062 -11.415  27.197  1.00  0.00    -0.237 OA
ATOM     93  O   UNL     1       5.465 -13.000  25.923  1.00  0.00    -0.237 OA
ATOM     94  O   UNL     1       6.522 -11.306  27.365  1.00  0.00    -0.744 OA
ENDBRANCH  90  91
ENDBRANCH  64  85
ENDBRANCH  38  39
ENDBRANCH  30  33
ENDBRANCH  28  29
ENDBRANCH  27  28
ENDBRANCH   1  27
TORSDOF 18
