REMARK SMILES COc1ccc2c(c1)OC[C@@]1(C(=O)NCCCCNC(=O)c3ccc(-c4c5nc(c(-c6ccc(S(=O)(=O)[O-])cc6)c6ccc([nH]6)c(-c6ccc(S(=O)(=O)[O-])cc6)c6nc(c(-c7ccc(S(=O)(=O)[O-])cc7)c7ccc4[nH]7)C=C6)C=C5)cc3)C[N@@H+](Cc3cc(C(C)(C)C)n[nH]3)C[C@H]21
REMARK SMILES IDX 16 1 15 2 14 3 12 4 13 5 11 7 3 8 4 9 8 10 5 11 7 12 6 13
REMARK SMILES IDX 9 14 95 15 10 16 94 17 82 18 83 19 2 21 1 22 84 23 85 24
REMARK SMILES IDX 86 25 93 26 87 27 92 28 88 30 89 31 90 32 91 33 17 34 18 35
REMARK SMILES IDX 19 36 20 37 21 39 22 40 23 41 81 42 24 43 80 44 25 45 26 46
REMARK SMILES IDX 27 47 74 48 28 49 79 50 73 51 75 52 29 53 78 54 72 55 71 56
REMARK SMILES IDX 30 58 60 59 41 60 59 61 42 62 45 63 58 64 76 65 43 66 44 67
REMARK SMILES IDX 57 69 77 70 46 71 31 72 32 73 40 74 33 75 39 76 34 77 35 78
REMARK SMILES IDX 36 79 37 80 38 81 61 82 62 83 70 84 63 85 69 86 64 87 65 88
REMARK SMILES IDX 66 89 67 90 68 91 47 92 48 93 56 94 49 95 55 96 50 97 51 98
REMARK SMILES IDX 52 99 53 100 54 101
REMARK H PARENT 14 6 83 20 93 29 19 38 75 57 45 68
REMARK Flexibility Score: inf
ROOT
ATOM      1  C   UNL     1       5.214  -0.443   8.532  1.00  0.00     0.023 C 
ENDROOT
BRANCH   1   2
ATOM      2  C   UNL     1       4.660   0.930   8.190  1.00  0.00     0.116 C 
BRANCH   2   3
ATOM      3  N   UNL     1       5.457   1.687   7.243  1.00  0.00    -0.355 N 
ATOM      4  C   UNL     1       4.973   2.720   6.480  1.00  0.00     0.236 C 
ATOM      5  O   UNL     1       5.715   3.692   6.301  1.00  0.00    -0.274 OA
ATOM      6  H   UNL     1       6.405   1.443   7.140  1.00  0.00     0.163 HD
BRANCH   4   7
ATOM      7  C   UNL     1       3.541   2.583   5.907  1.00  0.00     0.144 C 
ATOM      8  C   UNL     1       0.780   1.459   1.568  1.00  0.00     0.122 A 
ATOM      9  C   UNL     1      -0.091   2.223   2.346  1.00  0.00     0.047 A 
ATOM     10  C   UNL     1       2.076   1.222   2.023  1.00  0.00     0.093 A 
ATOM     11  C   UNL     1       0.307   2.697   3.597  1.00  0.00     0.012 A 
ATOM     12  C   UNL     1       2.479   1.747   3.252  1.00  0.00     0.126 A 
ATOM     13  C   UNL     1       1.596   2.430   4.074  1.00  0.00     0.005 A 
ATOM     14  O   UNL     1       3.785   1.619   3.617  1.00  0.00    -0.492 OA
ATOM     15  C   UNL     1       2.103   2.992   5.382  1.00  0.00     0.103 C 
ATOM     16  C   UNL     1       4.205   2.728   4.458  1.00  0.00     0.253 C 
ATOM     17  C   UNL     1       1.162   2.629   6.530  1.00  0.00     0.272 C 
ATOM     18  C   UNL     1       3.188   3.576   7.164  1.00  0.00     0.284 C 
ATOM     19  N   UNL     1       1.941   2.985   7.699  1.00  0.00    -0.328 N 
ATOM     20  H   UNL     1       2.156   2.163   8.262  1.00  0.00     0.348 HD
BRANCH   8  21
ATOM     21  O   UNL     1       0.272   1.055   0.364  1.00  0.00    -0.497 OA
ATOM     22  C   UNL     1       0.860  -0.118  -0.186  1.00  0.00     0.278 C 
ENDBRANCH   8  21
BRANCH  19  23
ATOM     23  C   UNL     1       1.239   3.747   8.728  1.00  0.00     0.319 C 
BRANCH  23  24
ATOM     24  C   UNL     1       1.044   5.167   8.357  1.00  0.00     0.090 A 
ATOM     25  C   UNL     1       0.256   5.770   7.404  1.00  0.00     0.055 A 
ATOM     26  N   UNL     1       1.802   6.169   8.894  1.00  0.00    -0.277 N 
ATOM     27  C   UNL     1       0.782   7.076   7.275  1.00  0.00     0.068 A 
ATOM     28  N   UNL     1       1.666   7.336   8.249  1.00  0.00    -0.180 NA
ATOM     29  H   UNL     1       2.388   6.046   9.675  1.00  0.00     0.190 HD
BRANCH  27  30
ATOM     30  C   UNL     1       0.521   8.089   6.179  1.00  0.00     0.006 C 
ATOM     31  C   UNL     1      -0.228   9.303   6.751  1.00  0.00     0.017 C 
ATOM     32  C   UNL     1       1.861   8.550   5.564  1.00  0.00     0.017 C 
ATOM     33  C   UNL     1      -0.322   7.481   5.037  1.00  0.00     0.017 C 
ENDBRANCH  27  30
ENDBRANCH  23  24
ENDBRANCH  19  23
ENDBRANCH   4   7
ENDBRANCH   2   3
ENDBRANCH   1   2
BRANCH   1  34
ATOM     34  C   UNL     1       6.706  -0.516   8.840  1.00  0.00     0.023 C 
BRANCH  34  35
ATOM     35  C   UNL     1       7.265   0.539   9.786  1.00  0.00     0.116 C 
BRANCH  35  36
ATOM     36  N   UNL     1       6.739   0.474  11.140  1.00  0.00    -0.352 N 
ATOM     37  C   UNL     1       7.413   0.285  12.328  1.00  0.00     0.251 C 
ATOM     38  H   UNL     1       5.764   0.581  11.220  1.00  0.00     0.163 HD
ATOM     39  O   UNL     1       6.796   0.221  13.387  1.00  0.00    -0.269 OA
BRANCH  37  40
ATOM     40  C   UNL     1       8.879   0.093  12.305  1.00  0.00     0.039 A 
ATOM     41  C   UNL     1       9.701   0.979  11.608  1.00  0.00     0.014 A 
ATOM     42  C   UNL     1       9.421  -1.048  12.901  1.00  0.00     0.014 A 
ATOM     43  C   UNL     1      11.009   0.608  11.316  1.00  0.00     0.010 A 
ATOM     44  C   UNL     1      10.766  -1.366  12.691  1.00  0.00     0.010 A 
ATOM     45  C   UNL     1      11.553  -0.578  11.838  1.00  0.00    -0.014 A 
BRANCH  45  46
ATOM     46  C   UNL     1      12.934  -0.982  11.460  1.00  0.00     0.031 A 
ATOM     47  C   UNL     1      13.187  -2.258  10.695  1.00  0.00     0.074 A 
ATOM     48  C   UNL     1      13.964  -0.164  11.756  1.00  0.00     0.049 A 
ATOM     49  N   UNL     1      14.327  -2.757  10.288  1.00  0.00    -0.248 NA
ATOM     50  C   UNL     1      12.019  -3.083  10.339  1.00  0.00     0.031 C 
ATOM     51  C   UNL     1      13.846   1.106  12.476  1.00  0.00     0.029 A 
ATOM     52  N   UNL     1      15.303  -0.259  11.467  1.00  0.00    -0.354 N 
ATOM     53  C   UNL     1      14.019  -3.957   9.656  1.00  0.00     0.074 A 
ATOM     54  C   UNL     1      12.586  -4.126   9.747  1.00  0.00     0.031 C 
ATOM     55  C   UNL     1      15.048   1.698  12.522  1.00  0.00     0.029 A 
ATOM     56  C   UNL     1      16.036   0.819  11.904  1.00  0.00     0.049 A 
ATOM     57  H   UNL     1      15.699  -1.025  10.993  1.00  0.00     0.167 HD
ATOM     58  C   UNL     1      14.855  -4.830   9.047  1.00  0.00     0.031 A 
ATOM     59  C   UNL     1      17.358   1.075  11.838  1.00  0.00     0.031 A 
ATOM     60  C   UNL     1      16.278  -4.640   8.928  1.00  0.00     0.049 A 
ATOM     61  C   UNL     1      18.265   0.082  11.175  1.00  0.00     0.074 A 
ATOM     62  C   UNL     1      17.199  -5.464   8.304  1.00  0.00     0.029 A 
ATOM     63  N   UNL     1      16.983  -3.556   9.426  1.00  0.00    -0.354 N 
ATOM     64  N   UNL     1      17.951  -1.050  10.592  1.00  0.00    -0.248 NA
ATOM     65  C   UNL     1      19.702   0.391  11.163  1.00  0.00     0.031 C 
ATOM     66  C   UNL     1      18.468  -4.907   8.472  1.00  0.00     0.029 A 
ATOM     67  C   UNL     1      18.331  -3.703   9.145  1.00  0.00     0.049 A 
ATOM     68  H   UNL     1      16.585  -2.795   9.908  1.00  0.00     0.167 HD
ATOM     69  C   UNL     1      19.151  -1.590  10.146  1.00  0.00     0.074 A 
ATOM     70  C   UNL     1      20.193  -0.649  10.500  1.00  0.00     0.031 C 
ATOM     71  C   UNL     1      19.363  -2.766   9.508  1.00  0.00     0.031 A 
BRANCH  58  72
ATOM     72  C   UNL     1      14.281  -6.086   8.444  1.00  0.00    -0.014 A 
ATOM     73  C   UNL     1      14.579  -7.334   9.024  1.00  0.00     0.010 A 
ATOM     74  C   UNL     1      13.589  -6.048   7.221  1.00  0.00     0.010 A 
ATOM     75  C   UNL     1      14.235  -8.521   8.373  1.00  0.00     0.020 A 
ATOM     76  C   UNL     1      13.222  -7.235   6.577  1.00  0.00     0.020 A 
ATOM     77  C   UNL     1      13.572  -8.464   7.145  1.00  0.00     0.054 A 
BRANCH  77  78
ATOM     78  S   UNL     1      13.182 -10.014   6.286  1.00  0.00     0.124 S 
ATOM     79  O   UNL     1      14.481 -10.405   5.749  1.00  0.00    -0.237 OA
ATOM     80  O   UNL     1      12.665 -10.855   7.364  1.00  0.00    -0.237 OA
ATOM     81  O   UNL     1      12.188  -9.612   5.293  1.00  0.00    -0.744 OA
ENDBRANCH  77  78
ENDBRANCH  58  72
BRANCH  59  82
ATOM     82  C   UNL     1      17.875   2.335  12.437  1.00  0.00    -0.014 A 
ATOM     83  C   UNL     1      17.832   2.520  13.832  1.00  0.00     0.010 A 
ATOM     84  C   UNL     1      18.309   3.392  11.620  1.00  0.00     0.010 A 
ATOM     85  C   UNL     1      18.149   3.757  14.395  1.00  0.00     0.020 A 
ATOM     86  C   UNL     1      18.659   4.624  12.183  1.00  0.00     0.020 A 
ATOM     87  C   UNL     1      18.544   4.807  13.564  1.00  0.00     0.054 A 
BRANCH  87  88
ATOM     88  S   UNL     1      18.896   6.425  14.306  1.00  0.00     0.124 S 
ATOM     89  O   UNL     1      17.552   6.970  14.480  1.00  0.00    -0.237 OA
ATOM     90  O   UNL     1      19.595   6.069  15.538  1.00  0.00    -0.237 OA
ATOM     91  O   UNL     1      19.717   7.089  13.298  1.00  0.00    -0.744 OA
ENDBRANCH  87  88
ENDBRANCH  59  82
BRANCH  71  92
ATOM     92  C   UNL     1      20.778  -3.135   9.152  1.00  0.00    -0.014 A 
ATOM     93  C   UNL     1      21.174  -3.164   7.802  1.00  0.00     0.010 A 
ATOM     94  C   UNL     1      21.667  -3.590  10.141  1.00  0.00     0.010 A 
ATOM     95  C   UNL     1      22.423  -3.676   7.443  1.00  0.00     0.020 A 
ATOM     96  C   UNL     1      22.927  -4.080   9.786  1.00  0.00     0.020 A 
ATOM     97  C   UNL     1      23.286  -4.144   8.437  1.00  0.00     0.054 A 
BRANCH  97  98
ATOM     98  S   UNL     1      24.888  -4.843   7.951  1.00  0.00     0.124 S 
ATOM     99  O   UNL     1      24.514  -6.176   7.489  1.00  0.00    -0.237 OA
ATOM    100  O   UNL     1      25.340  -3.920   6.912  1.00  0.00    -0.237 OA
ATOM    101  O   UNL     1      25.667  -4.805   9.187  1.00  0.00    -0.744 OA
ENDBRANCH  97  98
ENDBRANCH  71  92
ENDBRANCH  45  46
ENDBRANCH  37  40
ENDBRANCH  35  36
ENDBRANCH  34  35
ENDBRANCH   1  34
TORSDOF 18
