REMARK SMILES CC(C)(C)c1nnsc1C(=O)N[C@](C)(C(=O)NCCCCNC(=O)c1ccc(-c2c3nc(c(-c4ccc(S(=O)(=O)[O-])cc4)c4ccc([nH]4)c(-c4ccc(S(=O)(=O)[O-])cc4)c4nc(c(-c5ccc(S(=O)(=O)[O-])cc5)c5ccc2[nH]5)C=C4)C=C3)cc1)C(F)(F)F
REMARK SMILES IDX 19 1 18 2 17 3 15 4 16 5 13 7 14 8 12 9 10 10 11 11 9 13
REMARK SMILES IDX 5 14 6 15 7 16 8 17 2 18 1 19 3 20 4 21 85 22 86 23 87 24
REMARK SMILES IDX 88 25 20 26 21 27 22 28 23 29 24 31 25 32 26 33 84 34 27 35
REMARK SMILES IDX 83 36 28 37 29 38 30 39 77 40 31 41 82 42 76 43 78 44 32 45
REMARK SMILES IDX 81 46 75 47 74 48 33 50 63 51 44 52 62 53 45 54 48 55 61 56
REMARK SMILES IDX 79 57 46 58 47 59 60 61 80 62 49 63 34 64 35 65 43 66 36 67
REMARK SMILES IDX 42 68 37 69 38 70 39 71 40 72 41 73 64 74 65 75 73 76 66 77
REMARK SMILES IDX 72 78 67 79 68 80 69 81 70 82 71 83 50 84 51 85 59 86 52 87
REMARK SMILES IDX 58 88 53 89 54 90 55 91 56 92 57 93
REMARK H PARENT 17 6 12 12 22 30 78 49 48 60
REMARK Flexibility Score: inf
ROOT
ATOM      1  C   UNL     1       4.980   3.132   0.340  1.00  0.00     0.023 C 
ENDROOT
BRANCH   1   2
ATOM      2  C   UNL     1       3.420   3.587   0.847  1.00  0.00     0.116 C 
BRANCH   2   3
ATOM      3  N   UNL     1       1.545   2.616   0.677  1.00  0.00    -0.354 N 
ATOM      4  C   UNL     1       0.525   1.671   1.058  1.00  0.00     0.254 C 
ATOM      5  O   UNL     1      -0.390   1.560   0.229  1.00  0.00    -0.272 OA
ATOM      6  H   UNL     1       1.142   3.064  -0.102  1.00  0.00     0.163 HD
BRANCH   4   7
ATOM      7  C   UNL     1       0.564   0.670   2.326  1.00  0.00     0.212 C 
ATOM      8  C   UNL     1       1.287  -0.690   2.187  1.00  0.00     0.056 C 
BRANCH   7   9
ATOM      9  N   UNL     1       1.238   1.265   3.496  1.00  0.00    -0.330 N 
ATOM     10  C   UNL     1       2.561   1.594   3.352  1.00  0.00     0.266 C 
ATOM     11  O   UNL     1       3.336   1.641   4.296  1.00  0.00    -0.268 OA
ATOM     12  H   UNL     1       0.758   1.418   4.343  1.00  0.00     0.165 HD
BRANCH  10  13
ATOM     13  C   UNL     1       2.807   2.095   2.034  1.00  0.00     0.137 A 
ATOM     14  C   UNL     1       3.106   1.600   0.348  1.00  0.00     0.094 A 
ATOM     15  N   UNL     1       2.603   2.967  -0.828  1.00  0.00    -0.142 NA
ATOM     16  N   UNL     1       1.818   4.292  -0.149  1.00  0.00    -0.090 NA
ATOM     17  S   UNL     1       1.663   4.146   2.126  1.00  0.00    -0.006 S 
BRANCH  14  18
ATOM     18  C   UNL     1       3.360   0.300  -0.464  1.00  0.00     0.008 C 
ATOM     19  C   UNL     1       2.031  -0.233  -1.059  1.00  0.00     0.018 C 
ATOM     20  C   UNL     1       4.117  -0.793   0.298  1.00  0.00     0.018 C 
ATOM     21  C   UNL     1       4.191   0.616  -1.745  1.00  0.00     0.018 C 
ENDBRANCH  14  18
ENDBRANCH  10  13
ENDBRANCH   7   9
BRANCH   7  22
ATOM     22  C   UNL     1      -0.912   0.275   2.569  1.00  0.00     0.420 C 
ATOM     23  F   UNL     1      -1.392  -0.544   1.603  1.00  0.00    -0.168 F 
ATOM     24  F   UNL     1      -1.002  -0.431   3.733  1.00  0.00    -0.168 F 
ATOM     25  F   UNL     1      -1.740   1.328   2.698  1.00  0.00    -0.168 F 
ENDBRANCH   7  22
ENDBRANCH   4   7
ENDBRANCH   2   3
ENDBRANCH   1   2
BRANCH   1  26
ATOM     26  C   UNL     1       5.582   3.901  -0.838  1.00  0.00     0.023 C 
BRANCH  26  27
ATOM     27  C   UNL     1       5.639   5.414  -0.675  1.00  0.00     0.116 C 
BRANCH  27  28
ATOM     28  N   UNL     1       6.160   5.871   0.610  1.00  0.00    -0.352 N 
ATOM     29  C   UNL     1       6.534   7.154   0.942  1.00  0.00     0.251 C 
ATOM     30  H   UNL     1       6.254   5.189   1.314  1.00  0.00     0.163 HD
ATOM     31  O   UNL     1       7.005   7.415   2.042  1.00  0.00    -0.269 OA
BRANCH  29  32
ATOM     32  C   UNL     1       6.422   8.185  -0.104  1.00  0.00     0.039 A 
ATOM     33  C   UNL     1       7.592   8.781  -0.578  1.00  0.00     0.014 A 
ATOM     34  C   UNL     1       5.191   8.422  -0.718  1.00  0.00     0.014 A 
ATOM     35  C   UNL     1       7.538   9.553  -1.737  1.00  0.00     0.010 A 
ATOM     36  C   UNL     1       5.154   9.129  -1.913  1.00  0.00     0.010 A 
ATOM     37  C   UNL     1       6.329   9.689  -2.438  1.00  0.00    -0.014 A 
BRANCH  37  38
ATOM     38  C   UNL     1       6.280  10.399  -3.738  1.00  0.00     0.031 A 
ATOM     39  C   UNL     1       5.514  11.683  -3.861  1.00  0.00     0.074 A 
ATOM     40  C   UNL     1       6.882   9.858  -4.816  1.00  0.00     0.049 A 
ATOM     41  N   UNL     1       5.353  12.448  -4.909  1.00  0.00    -0.248 NA
ATOM     42  C   UNL     1       4.820  12.159  -2.653  1.00  0.00     0.031 C 
ATOM     43  C   UNL     1       7.617   8.590  -4.832  1.00  0.00     0.029 A 
ATOM     44  N   UNL     1       6.975  10.311  -6.107  1.00  0.00    -0.354 N 
ATOM     45  C   UNL     1       4.538  13.491  -4.490  1.00  0.00     0.074 A 
ATOM     46  C   UNL     1       4.188  13.229  -3.111  1.00  0.00     0.031 C 
ATOM     47  C   UNL     1       8.118   8.388  -6.062  1.00  0.00     0.029 A 
ATOM     48  C   UNL     1       7.716   9.493  -6.927  1.00  0.00     0.049 A 
ATOM     49  H   UNL     1       6.550  11.143  -6.418  1.00  0.00     0.167 HD
ATOM     50  C   UNL     1       4.136  14.584  -5.181  1.00  0.00     0.031 A 
ATOM     51  C   UNL     1       8.045   9.626  -8.226  1.00  0.00     0.031 A 
ATOM     52  C   UNL     1       4.482  14.841  -6.552  1.00  0.00     0.049 A 
ATOM     53  C   UNL     1       7.573  10.839  -8.980  1.00  0.00     0.074 A 
ATOM     54  C   UNL     1       4.160  15.937  -7.331  1.00  0.00     0.029 A 
ATOM     55  N   UNL     1       5.228  13.986  -7.349  1.00  0.00    -0.354 N 
ATOM     56  N   UNL     1       6.857  11.850  -8.548  1.00  0.00    -0.248 NA
ATOM     57  C   UNL     1       7.964  10.934 -10.393  1.00  0.00     0.031 C 
ATOM     58  C   UNL     1       4.680  15.727  -8.614  1.00  0.00     0.029 A 
ATOM     59  C   UNL     1       5.363  14.520  -8.619  1.00  0.00     0.049 A 
ATOM     60  H   UNL     1       5.605  13.125  -7.056  1.00  0.00     0.167 HD
ATOM     61  C   UNL     1       6.733  12.714  -9.630  1.00  0.00     0.074 A 
ATOM     62  C   UNL     1       7.455  12.111 -10.732  1.00  0.00     0.031 C 
ATOM     63  C   UNL     1       6.082  13.901  -9.704  1.00  0.00     0.031 A 
BRANCH  50  64
ATOM     64  C   UNL     1       3.275  15.573  -4.444  1.00  0.00    -0.014 A 
ATOM     65  C   UNL     1       3.813  16.368  -3.415  1.00  0.00     0.010 A 
ATOM     66  C   UNL     1       1.913  15.697  -4.767  1.00  0.00     0.010 A 
ATOM     67  C   UNL     1       2.991  17.224  -2.680  1.00  0.00     0.020 A 
ATOM     68  C   UNL     1       1.092  16.574  -4.051  1.00  0.00     0.020 A 
ATOM     69  C   UNL     1       1.632  17.312  -2.995  1.00  0.00     0.054 A 
BRANCH  69  70
ATOM     70  S   UNL     1       0.580  18.417  -2.014  1.00  0.00     0.124 S 
ATOM     71  O   UNL     1       0.389  17.640  -0.791  1.00  0.00    -0.237 OA
ATOM     72  O   UNL     1       1.407  19.613  -1.874  1.00  0.00    -0.237 OA
ATOM     73  O   UNL     1      -0.613  18.582  -2.840  1.00  0.00    -0.744 OA
ENDBRANCH  69  70
ENDBRANCH  50  64
BRANCH  51  74
ATOM     74  C   UNL     1       8.903   8.605  -8.884  1.00  0.00    -0.014 A 
ATOM     75  C   UNL     1      10.246   8.898  -9.181  1.00  0.00     0.010 A 
ATOM     76  C   UNL     1       8.394   7.333  -9.199  1.00  0.00     0.010 A 
ATOM     77  C   UNL     1      11.062   7.941  -9.790  1.00  0.00     0.020 A 
ATOM     78  C   UNL     1       9.214   6.366  -9.789  1.00  0.00     0.020 A 
ATOM     79  C   UNL     1      10.541   6.680 -10.089  1.00  0.00     0.054 A 
BRANCH  79  80
ATOM     80  S   UNL     1      11.636   5.432 -10.824  1.00  0.00     0.124 S 
ATOM     81  O   UNL     1      11.732   5.889 -12.207  1.00  0.00    -0.237 OA
ATOM     82  O   UNL     1      12.851   5.567 -10.026  1.00  0.00    -0.237 OA
ATOM     83  O   UNL     1      10.907   4.181 -10.626  1.00  0.00    -0.744 OA
ENDBRANCH  79  80
ENDBRANCH  51  74
BRANCH  63  84
ATOM     84  C   UNL     1       6.142  14.639 -11.012  1.00  0.00    -0.014 A 
ATOM     85  C   UNL     1       5.385  14.217 -12.118  1.00  0.00     0.010 A 
ATOM     86  C   UNL     1       6.925  15.803 -11.117  1.00  0.00     0.010 A 
ATOM     87  C   UNL     1       5.429  14.933 -13.317  1.00  0.00     0.020 A 
ATOM     88  C   UNL     1       6.954  16.534 -12.307  1.00  0.00     0.020 A 
ATOM     89  C   UNL     1       6.215  16.087 -13.404  1.00  0.00     0.054 A 
BRANCH  89  90
ATOM     90  S   UNL     1       6.219  17.029 -14.955  1.00  0.00     0.124 S 
ATOM     91  O   UNL     1       7.085  16.215 -15.802  1.00  0.00    -0.237 OA
ATOM     92  O   UNL     1       4.806  17.042 -15.328  1.00  0.00    -0.237 OA
ATOM     93  O   UNL     1       6.766  18.328 -14.568  1.00  0.00    -0.744 OA
ENDBRANCH  89  90
ENDBRANCH  63  84
ENDBRANCH  37  38
ENDBRANCH  29  32
ENDBRANCH  27  28
ENDBRANCH  26  27
ENDBRANCH   1  26
TORSDOF 18
