REMARK SMILES CC[N@@H+]1CCO[C@@H](Cn2cc(C(=O)NCCCCNC(=O)c3ccc(-c4c5nc(c(-c6ccc(S(=O)(=O)[O-])cc6)c6ccc([nH]6)c(-c6ccc(S(=O)(=O)[O-])cc6)c6nc(c(-c7ccc(S(=O)(=O)[O-])cc7)c7ccc4[nH]7)C=C6)C=C5)cc3)nn2)C1
REMARK SMILES IDX 16 1 15 2 14 3 12 4 13 5 11 7 9 8 10 9 83 10 82 11 8 12 7 13
REMARK SMILES IDX 3 14 4 15 84 16 5 18 6 19 2 20 1 21 17 22 18 23 19 24 20 25
REMARK SMILES IDX 21 27 22 28 23 29 81 30 24 31 80 32 25 33 26 34 27 35 74 36
REMARK SMILES IDX 28 37 79 38 73 39 75 40 29 41 78 42 72 43 71 44 30 46 60 47
REMARK SMILES IDX 41 48 59 49 42 50 45 51 58 52 76 53 43 54 44 55 57 57 77 58
REMARK SMILES IDX 46 59 31 60 32 61 40 62 33 63 39 64 34 65 35 66 36 67 37 68
REMARK SMILES IDX 38 69 61 70 62 71 70 72 63 73 69 74 64 75 65 76 66 77 67 78
REMARK SMILES IDX 68 79 47 80 48 81 56 82 49 83 55 84 50 85 51 86 52 87 53 88
REMARK SMILES IDX 54 89
REMARK H PARENT 14 6 3 17 19 26 75 45 45 56
REMARK Flexibility Score: inf
ROOT
ATOM      1  C   UNL     1       0.545   1.061   4.703  1.00  0.00     0.023 C 
ENDROOT
BRANCH   1   2
ATOM      2  C   UNL     1       1.153   1.585   3.399  1.00  0.00     0.116 C 
BRANCH   2   3
ATOM      3  N   UNL     1       2.539   1.975   3.557  1.00  0.00    -0.351 N 
ATOM      4  C   UNL     1       3.719   1.358   3.204  1.00  0.00     0.273 C 
ATOM      5  O   UNL     1       4.751   2.000   3.407  1.00  0.00    -0.267 OA
ATOM      6  H   UNL     1       2.660   2.846   4.000  1.00  0.00     0.163 HD
BRANCH   4   7
ATOM      7  C   UNL     1       3.751   0.029   2.597  1.00  0.00     0.170 A 
ATOM      8  N   UNL     1       3.358  -1.931   1.750  1.00  0.00    -0.249 N 
ATOM      9  C   UNL     1       2.842  -1.012   2.620  1.00  0.00     0.145 A 
ATOM     10  N   UNL     1       4.583  -1.583   1.342  1.00  0.00    -0.067 NA
ATOM     11  N   UNL     1       4.838  -0.385   1.850  1.00  0.00    -0.125 NA
BRANCH   8  12
ATOM     12  C   UNL     1       2.664  -3.032   1.117  1.00  0.00     0.184 C 
BRANCH  12  13
ATOM     13  C   UNL     1       1.562  -2.526   0.184  1.00  0.00     0.194 C 
ATOM     14  N   UNL     1       1.081  -1.269  -1.937  1.00  0.00    -0.331 N 
ATOM     15  C   UNL     1       0.161  -2.361  -2.286  1.00  0.00     0.291 C 
ATOM     16  C   UNL     1       2.132  -1.764  -1.037  1.00  0.00     0.296 C 
ATOM     17  H   UNL     1       1.581  -0.968  -2.773  1.00  0.00     0.348 HD
ATOM     18  C   UNL     1      -0.337  -3.154  -1.066  1.00  0.00     0.222 C 
ATOM     19  O   UNL     1       0.754  -3.637  -0.258  1.00  0.00    -0.365 OA
BRANCH  14  20
ATOM     20  C   UNL     1       0.421  -0.002  -1.600  1.00  0.00     0.258 C 
ATOM     21  C   UNL     1       0.652   0.634  -0.232  1.00  0.00     0.071 C 
ENDBRANCH  14  20
ENDBRANCH  12  13
ENDBRANCH   8  12
ENDBRANCH   4   7
ENDBRANCH   2   3
ENDBRANCH   1   2
BRANCH   1  22
ATOM     22  C   UNL     1       0.266   2.123   5.780  1.00  0.00     0.023 C 
BRANCH  22  23
ATOM     23  C   UNL     1      -0.785   3.165   5.411  1.00  0.00     0.116 C 
BRANCH  23  24
ATOM     24  N   UNL     1      -2.111   2.593   5.165  1.00  0.00    -0.352 N 
ATOM     25  C   UNL     1      -3.220   3.229   4.633  1.00  0.00     0.251 C 
ATOM     26  H   UNL     1      -2.228   1.646   5.406  1.00  0.00     0.163 HD
ATOM     27  O   UNL     1      -4.353   2.800   4.845  1.00  0.00    -0.269 OA
BRANCH  25  28
ATOM     28  C   UNL     1      -3.012   4.421   3.794  1.00  0.00     0.039 A 
ATOM     29  C   UNL     1      -3.797   5.570   3.918  1.00  0.00     0.014 A 
ATOM     30  C   UNL     1      -1.946   4.381   2.902  1.00  0.00     0.014 A 
ATOM     31  C   UNL     1      -3.432   6.711   3.204  1.00  0.00     0.010 A 
ATOM     32  C   UNL     1      -1.492   5.543   2.337  1.00  0.00     0.010 A 
ATOM     33  C   UNL     1      -2.256   6.700   2.433  1.00  0.00    -0.014 A 
BRANCH  33  34
ATOM     34  C   UNL     1      -1.742   7.918   1.811  1.00  0.00     0.031 A 
ATOM     35  C   UNL     1      -1.587   9.078   2.733  1.00  0.00     0.074 A 
ATOM     36  C   UNL     1      -1.226   7.948   0.561  1.00  0.00     0.049 A 
ATOM     37  N   UNL     1      -2.283  10.166   2.747  1.00  0.00    -0.248 NA
ATOM     38  C   UNL     1      -0.645   8.963   3.858  1.00  0.00     0.031 C 
ATOM     39  C   UNL     1      -1.016   6.829  -0.369  1.00  0.00     0.029 A 
ATOM     40  N   UNL     1      -0.657   8.988  -0.105  1.00  0.00    -0.354 N 
ATOM     41  C   UNL     1      -1.720  10.973   3.731  1.00  0.00     0.074 A 
ATOM     42  C   UNL     1      -0.850  10.116   4.498  1.00  0.00     0.031 C 
ATOM     43  C   UNL     1      -0.153   7.199  -1.341  1.00  0.00     0.029 A 
ATOM     44  C   UNL     1       0.093   8.622  -1.219  1.00  0.00     0.049 A 
ATOM     45  H   UNL     1      -0.767   9.925   0.178  1.00  0.00     0.167 HD
ATOM     46  C   UNL     1      -1.825  12.331   3.684  1.00  0.00     0.031 A 
ATOM     47  C   UNL     1       0.871   9.430  -1.983  1.00  0.00     0.031 A 
ATOM     48  C   UNL     1      -2.798  12.752   2.708  1.00  0.00     0.049 A 
ATOM     49  C   UNL     1       0.391  10.815  -1.762  1.00  0.00     0.074 A 
ATOM     50  C   UNL     1      -4.150  12.545   2.527  1.00  0.00     0.029 A 
ATOM     51  N   UNL     1      -2.311  13.171   1.491  1.00  0.00    -0.354 N 
ATOM     52  N   UNL     1      -0.795  11.224  -2.119  1.00  0.00    -0.248 NA
ATOM     53  C   UNL     1       1.042  11.609  -0.734  1.00  0.00     0.031 C 
ATOM     54  C   UNL     1      -4.307  12.375   1.120  1.00  0.00     0.029 A 
ATOM     55  C   UNL     1      -3.063  12.570   0.515  1.00  0.00     0.049 A 
ATOM     56  H   UNL     1      -1.559  13.790   1.347  1.00  0.00     0.167 HD
ATOM     57  C   UNL     1      -1.219  12.032  -1.074  1.00  0.00     0.074 A 
ATOM     58  C   UNL     1      -0.009  12.312  -0.301  1.00  0.00     0.031 C 
ATOM     59  C   UNL     1      -2.546  12.166  -0.777  1.00  0.00     0.031 A 
BRANCH  46  60
ATOM     60  C   UNL     1      -0.777  13.284   4.211  1.00  0.00    -0.014 A 
ATOM     61  C   UNL     1      -1.026  14.671   4.140  1.00  0.00     0.010 A 
ATOM     62  C   UNL     1       0.543  12.887   4.507  1.00  0.00     0.010 A 
ATOM     63  C   UNL     1       0.008  15.606   4.279  1.00  0.00     0.020 A 
ATOM     64  C   UNL     1       1.573  13.812   4.691  1.00  0.00     0.020 A 
ATOM     65  C   UNL     1       1.306  15.166   4.539  1.00  0.00     0.054 A 
BRANCH  65  66
ATOM     66  S   UNL     1       2.652  16.373   4.610  1.00  0.00     0.124 S 
ATOM     67  O   UNL     1       2.693  16.857   3.234  1.00  0.00    -0.237 OA
ATOM     68  O   UNL     1       2.161  17.324   5.603  1.00  0.00    -0.237 OA
ATOM     69  O   UNL     1       3.802  15.577   5.032  1.00  0.00    -0.744 OA
ENDBRANCH  65  66
ENDBRANCH  46  60
BRANCH  47  70
ATOM     70  C   UNL     1       2.169   9.121  -2.634  1.00  0.00    -0.014 A 
ATOM     71  C   UNL     1       2.723   9.989  -3.594  1.00  0.00     0.010 A 
ATOM     72  C   UNL     1       3.007   8.125  -2.092  1.00  0.00     0.010 A 
ATOM     73  C   UNL     1       4.083   9.910  -3.944  1.00  0.00     0.020 A 
ATOM     74  C   UNL     1       4.362   8.038  -2.439  1.00  0.00     0.020 A 
ATOM     75  C   UNL     1       4.901   8.949  -3.344  1.00  0.00     0.054 A 
BRANCH  75  76
ATOM     76  S   UNL     1       6.694   8.981  -3.652  1.00  0.00     0.124 S 
ATOM     77  O   UNL     1       6.779   8.529  -5.038  1.00  0.00    -0.237 OA
ATOM     78  O   UNL     1       7.030  10.384  -3.425  1.00  0.00    -0.237 OA
ATOM     79  O   UNL     1       7.230   8.051  -2.661  1.00  0.00    -0.744 OA
ENDBRANCH  75  76
ENDBRANCH  47  70
BRANCH  59  80
ATOM     80  C   UNL     1      -3.565  11.660  -1.776  1.00  0.00    -0.014 A 
ATOM     81  C   UNL     1      -3.683  10.313  -2.175  1.00  0.00     0.010 A 
ATOM     82  C   UNL     1      -4.542  12.572  -2.211  1.00  0.00     0.010 A 
ATOM     83  C   UNL     1      -4.738   9.901  -3.007  1.00  0.00     0.020 A 
ATOM     84  C   UNL     1      -5.603  12.165  -3.023  1.00  0.00     0.020 A 
ATOM     85  C   UNL     1      -5.692  10.833  -3.426  1.00  0.00     0.054 A 
BRANCH  85  86
ATOM     86  S   UNL     1      -7.077  10.294  -4.468  1.00  0.00     0.124 S 
ATOM     87  O   UNL     1      -6.418   9.965  -5.729  1.00  0.00    -0.237 OA
ATOM     88  O   UNL     1      -7.620   9.158  -3.727  1.00  0.00    -0.237 OA
ATOM     89  O   UNL     1      -7.953  11.464  -4.516  1.00  0.00    -0.744 OA
ENDBRANCH  85  86
ENDBRANCH  59  80
ENDBRANCH  33  34
ENDBRANCH  25  28
ENDBRANCH  23  24
ENDBRANCH  22  23
ENDBRANCH   1  22
TORSDOF 17
