REMARK SMILES Cc1ccc(-c2cc(Cl)cc3c2O[C@@H](C(F)(F)F)C(C(=O)NCCCCNC(=O)c2ccc(-c4c5nc(c(-c6ccc(S(=O)(=O)[O-])cc6)c6ccc([nH]6)c(-c6ccc(S(=O)(=O)[O-])cc6)c6nc(c(-c7ccc(S(=O)(=O)[O-])cc7)c7ccc4[nH]7)C=C6)C=C5)cc2)=C3)cc1
REMARK SMILES IDX 25 1 24 2 23 3 22 4 20 5 21 6 19 8 6 9 7 10 12 11 8 12 11 13
REMARK SMILES IDX 13 14 9 15 10 16 90 17 14 18 5 19 1 20 2 21 3 22 92 23 4 24
REMARK SMILES IDX 91 25 15 26 16 27 17 28 18 29 26 30 27 31 28 32 29 34 30 35
REMARK SMILES IDX 31 36 89 37 32 38 88 39 33 40 34 41 35 42 82 43 36 44 87 45
REMARK SMILES IDX 81 46 83 47 37 48 86 49 80 50 79 51 38 53 68 54 49 55 67 56
REMARK SMILES IDX 50 57 53 58 66 59 84 60 51 61 52 62 65 64 85 65 54 66 39 67
REMARK SMILES IDX 40 68 48 69 41 70 47 71 42 72 43 73 44 74 45 75 46 76 69 77
REMARK SMILES IDX 70 78 78 79 71 80 77 81 72 82 73 83 74 84 75 85 76 86 55 87
REMARK SMILES IDX 56 88 64 89 57 90 63 91 58 92 59 93 60 94 61 95 62 96
REMARK H PARENT 22 7 27 33 83 52 53 63
REMARK Flexibility Score: inf
ROOT
ATOM      1  C   UNL     1      -2.111  -4.753   4.926  1.00  0.00     0.023 C 
ENDROOT
BRANCH   1   2
ATOM      2  C   UNL     1      -3.558  -4.250   4.935  1.00  0.00     0.023 C 
BRANCH   2   3
ATOM      3  C   UNL     1      -3.829  -2.834   5.477  1.00  0.00     0.116 C 
BRANCH   3   4
ATOM      4  N   UNL     1      -3.363  -1.733   4.640  1.00  0.00    -0.352 N 
ATOM      5  C   UNL     1      -3.960  -0.581   4.203  1.00  0.00     0.251 C 
ATOM      6  O   UNL     1      -3.218   0.392   4.030  1.00  0.00    -0.270 OA
ATOM      7  H   UNL     1      -2.436  -1.841   4.327  1.00  0.00     0.163 HD
BRANCH   5   8
ATOM      8  C   UNL     1      -5.431  -0.479   3.782  1.00  0.00     0.067 C 
ATOM      9  C   UNL     1      -3.882  -1.220   0.178  1.00  0.00     0.026 A 
ATOM     10  C   UNL     1      -4.371  -0.584  -0.980  1.00  0.00     0.033 A 
ATOM     11  C   UNL     1      -4.680  -1.065   1.310  1.00  0.00     0.135 A 
ATOM     12  C   UNL     1      -5.326   0.434  -0.873  1.00  0.00     0.042 A 
ATOM     13  C   UNL     1      -5.356   0.164   1.509  1.00  0.00     0.019 A 
ATOM     14  O   UNL     1      -4.957  -2.157   2.166  1.00  0.00    -0.475 OA
ATOM     15  Cl  UNL     1      -5.857   1.245  -2.295  1.00  0.00    -0.084 Cl
ATOM     16  C   UNL     1      -5.742   0.884   0.383  1.00  0.00     0.032 A 
ATOM     17  C   UNL     1      -5.665   0.560   2.931  1.00  0.00     0.025 C 
ATOM     18  C   UNL     1      -5.981  -1.730   3.124  1.00  0.00     0.314 C 
BRANCH   9  19
ATOM     19  C   UNL     1      -2.397  -1.104   0.328  1.00  0.00    -0.015 A 
ATOM     20  C   UNL     1       1.881  -0.358   0.168  1.00  0.00     0.044 C 
ATOM     21  C   UNL     1       0.407  -0.623   0.273  1.00  0.00    -0.051 A 
ATOM     22  C   UNL     1      -0.112  -1.925   0.178  1.00  0.00     0.004 A 
ATOM     23  C   UNL     1      -0.476   0.434   0.466  1.00  0.00     0.004 A 
ATOM     24  C   UNL     1      -1.501  -2.166   0.202  1.00  0.00     0.009 A 
ATOM     25  C   UNL     1      -1.849   0.192   0.502  1.00  0.00     0.009 A 
ENDBRANCH   9  19
BRANCH  18  26
ATOM     26  C   UNL     1      -6.763  -2.683   4.039  1.00  0.00     0.429 C 
ATOM     27  F   UNL     1      -8.066  -2.741   3.631  1.00  0.00    -0.167 F 
ATOM     28  F   UNL     1      -6.304  -3.945   4.036  1.00  0.00    -0.167 F 
ATOM     29  F   UNL     1      -6.828  -2.240   5.317  1.00  0.00    -0.167 F 
ENDBRANCH  18  26
ENDBRANCH   5   8
ENDBRANCH   3   4
ENDBRANCH   2   3
ENDBRANCH   1   2
BRANCH   1  30
ATOM     30  C   UNL     1      -1.335  -4.583   6.224  1.00  0.00     0.116 C 
BRANCH  30  31
ATOM     31  N   UNL     1      -1.333  -5.697   7.157  1.00  0.00    -0.352 N 
ATOM     32  C   UNL     1      -0.524  -5.814   8.288  1.00  0.00     0.251 C 
ATOM     33  H   UNL     1      -1.958  -6.435   6.974  1.00  0.00     0.163 HD
ATOM     34  O   UNL     1      -0.244  -6.885   8.793  1.00  0.00    -0.269 OA
BRANCH  32  35
ATOM     35  C   UNL     1      -0.136  -4.547   8.961  1.00  0.00     0.039 A 
ATOM     36  C   UNL     1      -0.662  -4.304  10.236  1.00  0.00     0.014 A 
ATOM     37  C   UNL     1       0.458  -3.521   8.235  1.00  0.00     0.014 A 
ATOM     38  C   UNL     1      -0.780  -2.991  10.690  1.00  0.00     0.010 A 
ATOM     39  C   UNL     1       0.208  -2.221   8.615  1.00  0.00     0.010 A 
ATOM     40  C   UNL     1      -0.445  -1.952   9.823  1.00  0.00    -0.014 A 
BRANCH  40  41
ATOM     41  C   UNL     1      -0.746  -0.546  10.063  1.00  0.00     0.031 A 
ATOM     42  C   UNL     1       0.359   0.369  10.438  1.00  0.00     0.074 A 
ATOM     43  C   UNL     1      -1.984  -0.060   9.819  1.00  0.00     0.049 A 
ATOM     44  N   UNL     1       0.209   1.492  11.054  1.00  0.00    -0.248 NA
ATOM     45  C   UNL     1       1.760   0.052  10.169  1.00  0.00     0.031 C 
ATOM     46  C   UNL     1      -2.368   1.349   9.737  1.00  0.00     0.029 A 
ATOM     47  N   UNL     1      -3.208  -0.735   9.787  1.00  0.00    -0.354 N 
ATOM     48  C   UNL     1       1.407   2.172  10.970  1.00  0.00     0.074 A 
ATOM     49  C   UNL     1       2.360   1.199  10.494  1.00  0.00     0.031 C 
ATOM     50  C   UNL     1      -3.684   1.450   9.986  1.00  0.00     0.029 A 
ATOM     51  C   UNL     1      -4.140   0.129  10.387  1.00  0.00     0.049 A 
ATOM     52  H   UNL     1      -3.382  -1.631   9.420  1.00  0.00     0.167 HD
ATOM     53  C   UNL     1       1.434   3.522  11.164  1.00  0.00     0.031 A 
ATOM     54  C   UNL     1      -4.784  -0.148  11.561  1.00  0.00     0.031 A 
ATOM     55  C   UNL     1       0.120   4.025  11.561  1.00  0.00     0.049 A 
ATOM     56  C   UNL     1      -4.503   0.878  12.645  1.00  0.00     0.074 A 
ATOM     57  C   UNL     1      -0.889   4.672  10.867  1.00  0.00     0.029 A 
ATOM     58  N   UNL     1      -0.438   3.600  12.762  1.00  0.00    -0.354 N 
ATOM     59  N   UNL     1      -3.525   1.740  12.601  1.00  0.00    -0.248 NA
ATOM     60  C   UNL     1      -5.284   0.995  13.874  1.00  0.00     0.031 C 
ATOM     61  C   UNL     1      -2.086   4.551  11.623  1.00  0.00     0.029 A 
ATOM     62  C   UNL     1      -1.794   3.865  12.789  1.00  0.00     0.049 A 
ATOM     63  H   UNL     1       0.064   3.170  13.492  1.00  0.00     0.167 HD
ATOM     64  C   UNL     1      -3.527   2.511  13.735  1.00  0.00     0.074 A 
ATOM     65  C   UNL     1      -4.657   2.011  14.497  1.00  0.00     0.031 C 
ATOM     66  C   UNL     1      -2.596   3.490  13.949  1.00  0.00     0.031 A 
BRANCH  53  67
ATOM     67  C   UNL     1       2.572   4.416  10.708  1.00  0.00    -0.014 A 
ATOM     68  C   UNL     1       2.315   5.768  10.397  1.00  0.00     0.010 A 
ATOM     69  C   UNL     1       3.897   3.983  10.506  1.00  0.00     0.010 A 
ATOM     70  C   UNL     1       3.289   6.605   9.826  1.00  0.00     0.020 A 
ATOM     71  C   UNL     1       4.872   4.794   9.902  1.00  0.00     0.020 A 
ATOM     72  C   UNL     1       4.558   6.102   9.554  1.00  0.00     0.054 A 
BRANCH  72  73
ATOM     73  S   UNL     1       5.784   7.166   8.749  1.00  0.00     0.124 S 
ATOM     74  O   UNL     1       5.102   7.560   7.519  1.00  0.00    -0.237 OA
ATOM     75  O   UNL     1       5.972   8.228   9.733  1.00  0.00    -0.237 OA
ATOM     76  O   UNL     1       6.936   6.287   8.558  1.00  0.00    -0.744 OA
ENDBRANCH  72  73
ENDBRANCH  53  67
BRANCH  54  77
ATOM     77  C   UNL     1      -5.040  -1.599  11.792  1.00  0.00    -0.014 A 
ATOM     78  C   UNL     1      -6.008  -2.221  10.975  1.00  0.00     0.010 A 
ATOM     79  C   UNL     1      -4.074  -2.398  12.428  1.00  0.00     0.010 A 
ATOM     80  C   UNL     1      -5.891  -3.573  10.638  1.00  0.00     0.020 A 
ATOM     81  C   UNL     1      -3.961  -3.757  12.096  1.00  0.00     0.020 A 
ATOM     82  C   UNL     1      -4.819  -4.309  11.141  1.00  0.00     0.054 A 
BRANCH  82  83
ATOM     83  S   UNL     1      -4.452  -5.919  10.377  1.00  0.00     0.124 S 
ATOM     84  O   UNL     1      -5.728  -6.620  10.489  1.00  0.00    -0.237 OA
ATOM     85  O   UNL     1      -4.065  -5.529   9.021  1.00  0.00    -0.237 OA
ATOM     86  O   UNL     1      -3.373  -6.443  11.209  1.00  0.00    -0.744 OA
ENDBRANCH  82  83
ENDBRANCH  54  77
BRANCH  66  87
ATOM     87  C   UNL     1      -2.377   4.262  15.234  1.00  0.00    -0.014 A 
ATOM     88  C   UNL     1      -2.825   3.850  16.498  1.00  0.00     0.010 A 
ATOM     89  C   UNL     1      -1.566   5.426  15.199  1.00  0.00     0.010 A 
ATOM     90  C   UNL     1      -2.536   4.591  17.655  1.00  0.00     0.020 A 
ATOM     91  C   UNL     1      -1.230   6.144  16.350  1.00  0.00     0.020 A 
ATOM     92  C   UNL     1      -1.742   5.736  17.573  1.00  0.00     0.054 A 
BRANCH  92  93
ATOM     93  S   UNL     1      -1.326   6.648  19.080  1.00  0.00     0.124 S 
ATOM     94  O   UNL     1      -2.480   7.531  19.226  1.00  0.00    -0.237 OA
ATOM     95  O   UNL     1      -1.216   5.591  20.083  1.00  0.00    -0.237 OA
ATOM     96  O   UNL     1      -0.068   7.310  18.745  1.00  0.00    -0.744 OA
ENDBRANCH  92  93
ENDBRANCH  66  87
ENDBRANCH  40  41
ENDBRANCH  32  35
ENDBRANCH  30  31
ENDBRANCH   1  30
TORSDOF 16
