REMARK SMILES CC[C@H](C)[NH+]1CCN(C(=O)CC(=O)NCCCCNC(=O)c2ccc(-c3c4nc(c(-c5ccc(S(=O)(=O)[O-])cc5)c5ccc([nH]5)c(-c5ccc(S(=O)(=O)[O-])cc5)c5nc(c(-c6ccc(S(=O)(=O)[O-])cc6)c6ccc3[nH]6)C=C5)C=C4)cc2)CC1
REMARK SMILES IDX 16 1 15 2 14 3 12 4 13 5 11 7 9 8 5 9 6 10 83 11 7 13 82 14
REMARK SMILES IDX 8 15 10 16 3 17 4 18 2 19 1 20 17 21 18 22 19 23 20 24 21 26
REMARK SMILES IDX 22 27 23 28 81 29 24 30 80 31 25 32 26 33 27 34 74 35 28 36
REMARK SMILES IDX 79 37 73 38 75 39 29 40 78 41 72 42 71 43 30 45 60 46 41 47
REMARK SMILES IDX 59 48 42 49 45 50 58 51 76 52 43 53 44 54 57 56 77 57 46 58
REMARK SMILES IDX 31 59 32 60 40 61 33 62 39 63 34 64 35 65 36 66 37 67 38 68
REMARK SMILES IDX 61 69 62 70 70 71 63 72 69 73 64 74 65 75 66 76 67 77 68 78
REMARK SMILES IDX 47 79 48 80 56 81 49 82 55 83 50 84 51 85 52 86 53 87 54 88
REMARK H PARENT 14 6 5 12 19 25 75 44 45 55
REMARK Flexibility Score: inf
ROOT
ATOM      1  C   UNL     1      -0.141  -5.498   5.197  1.00  0.00     0.023 C 
ENDROOT
BRANCH   1   2
ATOM      2  C   UNL     1      -1.607  -5.930   5.141  1.00  0.00     0.116 C 
BRANCH   2   3
ATOM      3  N   UNL     1      -2.449  -4.893   4.573  1.00  0.00    -0.356 N 
ATOM      4  C   UNL     1      -3.034  -4.852   3.343  1.00  0.00     0.229 C 
ATOM      5  O   UNL     1      -3.691  -3.856   3.035  1.00  0.00    -0.275 OA
ATOM      6  H   UNL     1      -2.620  -4.116   5.153  1.00  0.00     0.163 HD
BRANCH   4   7
ATOM      7  C   UNL     1      -2.902  -6.018   2.397  1.00  0.00     0.200 C 
BRANCH   7   8
ATOM      8  C   UNL     1      -1.502  -6.249   1.881  1.00  0.00     0.232 C 
ATOM      9  N   UNL     1       0.445  -3.346  -0.708  1.00  0.00    -0.330 N 
ATOM     10  C   UNL     1       1.016  -4.677  -0.448  1.00  0.00     0.284 C 
ATOM     11  C   UNL     1      -1.018  -3.401  -0.608  1.00  0.00     0.284 C 
ATOM     12  H   UNL     1       0.641  -3.092  -1.676  1.00  0.00     0.348 HD
ATOM     13  C   UNL     1       0.516  -5.403   0.810  1.00  0.00     0.181 C 
ATOM     14  C   UNL     1      -1.580  -4.045   0.669  1.00  0.00     0.181 C 
ATOM     15  N   UNL     1      -0.929  -5.306   1.041  1.00  0.00    -0.331 N 
ATOM     16  O   UNL     1      -0.896  -7.272   2.215  1.00  0.00    -0.274 OA
BRANCH   9  17
ATOM     17  C   UNL     1       1.134  -2.229  -0.035  1.00  0.00     0.180 C 
ATOM     18  C   UNL     1       0.875  -0.947  -0.848  1.00  0.00     0.075 C 
BRANCH  17  19
ATOM     19  C   UNL     1       0.808  -1.994   1.454  1.00  0.00     0.061 C 
ATOM     20  C   UNL     1       1.834  -1.115   2.161  1.00  0.00     0.010 C 
ENDBRANCH  17  19
ENDBRANCH   9  17
ENDBRANCH   7   8
ENDBRANCH   4   7
ENDBRANCH   2   3
ENDBRANCH   1   2
BRANCH   1  21
ATOM     21  C   UNL     1       0.157  -4.377   6.198  1.00  0.00     0.023 C 
BRANCH  21  22
ATOM     22  C   UNL     1      -0.299  -4.640   7.630  1.00  0.00     0.116 C 
BRANCH  22  23
ATOM     23  N   UNL     1       0.262  -5.856   8.196  1.00  0.00    -0.352 N 
ATOM     24  C   UNL     1       0.727  -6.083   9.472  1.00  0.00     0.251 C 
ATOM     25  H   UNL     1       0.318  -6.623   7.582  1.00  0.00     0.163 HD
ATOM     26  O   UNL     1       1.282  -7.140   9.741  1.00  0.00    -0.269 OA
BRANCH  24  27
ATOM     27  C   UNL     1       0.584  -5.030  10.502  1.00  0.00     0.039 A 
ATOM     28  C   UNL     1       1.684  -4.728  11.309  1.00  0.00     0.014 A 
ATOM     29  C   UNL     1      -0.617  -4.333  10.663  1.00  0.00     0.014 A 
ATOM     30  C   UNL     1       1.596  -3.686  12.235  1.00  0.00     0.010 A 
ATOM     31  C   UNL     1      -0.676  -3.244  11.529  1.00  0.00     0.010 A 
ATOM     32  C   UNL     1       0.427  -2.911  12.328  1.00  0.00    -0.014 A 
BRANCH  32  33
ATOM     33  C   UNL     1       0.355  -1.747  13.250  1.00  0.00     0.031 A 
ATOM     34  C   UNL     1      -0.633  -1.730  14.385  1.00  0.00     0.074 A 
ATOM     35  C   UNL     1       1.149  -0.678  13.034  1.00  0.00     0.049 A 
ATOM     36  N   UNL     1      -0.834  -0.804  15.288  1.00  0.00    -0.248 NA
ATOM     37  C   UNL     1      -1.530  -2.891  14.508  1.00  0.00     0.031 C 
ATOM     38  C   UNL     1       2.107  -0.544  11.933  1.00  0.00     0.029 A 
ATOM     39  N   UNL     1       1.278   0.499  13.729  1.00  0.00    -0.354 N 
ATOM     40  C   UNL     1      -1.887  -1.261  16.072  1.00  0.00     0.074 A 
ATOM     41  C   UNL     1      -2.319  -2.520  15.505  1.00  0.00     0.031 C 
ATOM     42  C   UNL     1       2.747   0.630  12.048  1.00  0.00     0.029 A 
ATOM     43  C   UNL     1       2.223   1.349  13.204  1.00  0.00     0.049 A 
ATOM     44  H   UNL     1       0.744   0.714  14.527  1.00  0.00     0.167 HD
ATOM     45  C   UNL     1      -2.433  -0.696  17.176  1.00  0.00     0.031 A 
ATOM     46  C   UNL     1       2.626   2.571  13.606  1.00  0.00     0.031 A 
ATOM     47  C   UNL     1      -1.994   0.553  17.741  1.00  0.00     0.049 A 
ATOM     48  C   UNL     1       2.016   3.174  14.841  1.00  0.00     0.074 A 
ATOM     49  C   UNL     1      -2.434   1.175  18.897  1.00  0.00     0.029 A 
ATOM     50  N   UNL     1      -1.023   1.375  17.190  1.00  0.00    -0.354 N 
ATOM     51  N   UNL     1       1.083   2.684  15.622  1.00  0.00    -0.248 NA
ATOM     52  C   UNL     1       2.526   4.487  15.261  1.00  0.00     0.031 C 
ATOM     53  C   UNL     1      -1.773   2.402  19.011  1.00  0.00     0.029 A 
ATOM     54  C   UNL     1      -0.870   2.513  17.965  1.00  0.00     0.049 A 
ATOM     55  H   UNL     1      -0.516   1.179  16.369  1.00  0.00     0.167 HD
ATOM     56  C   UNL     1       0.914   3.615  16.641  1.00  0.00     0.074 A 
ATOM     57  C   UNL     1       1.851   4.689  16.384  1.00  0.00     0.031 C 
ATOM     58  C   UNL     1       0.063   3.579  17.697  1.00  0.00     0.031 A 
BRANCH  45  59
ATOM     59  C   UNL     1      -3.576  -1.422  17.839  1.00  0.00    -0.014 A 
ATOM     60  C   UNL     1      -3.381  -2.654  18.492  1.00  0.00     0.010 A 
ATOM     61  C   UNL     1      -4.862  -0.850  17.835  1.00  0.00     0.010 A 
ATOM     62  C   UNL     1      -4.457  -3.323  19.081  1.00  0.00     0.020 A 
ATOM     63  C   UNL     1      -5.934  -1.500  18.452  1.00  0.00     0.020 A 
ATOM     64  C   UNL     1      -5.728  -2.743  19.054  1.00  0.00     0.054 A 
BRANCH  64  65
ATOM     65  S   UNL     1      -7.104  -3.630  19.835  1.00  0.00     0.124 S 
ATOM     66  O   UNL     1      -7.322  -4.730  18.899  1.00  0.00    -0.237 OA
ATOM     67  O   UNL     1      -6.547  -4.008  21.131  1.00  0.00    -0.237 OA
ATOM     68  O   UNL     1      -8.174  -2.636  19.886  1.00  0.00    -0.744 OA
ENDBRANCH  64  65
ENDBRANCH  45  59
BRANCH  46  69
ATOM     69  C   UNL     1       3.681   3.289  12.838  1.00  0.00    -0.014 A 
ATOM     70  C   UNL     1       4.971   3.454  13.373  1.00  0.00     0.010 A 
ATOM     71  C   UNL     1       3.408   3.782  11.549  1.00  0.00     0.010 A 
ATOM     72  C   UNL     1       5.965   4.107  12.637  1.00  0.00     0.020 A 
ATOM     73  C   UNL     1       4.407   4.409  10.799  1.00  0.00     0.020 A 
ATOM     74  C   UNL     1       5.678   4.575  11.351  1.00  0.00     0.054 A 
BRANCH  74  75
ATOM     75  S   UNL     1       7.002   5.357  10.389  1.00  0.00     0.124 S 
ATOM     76  O   UNL     1       7.154   6.640  11.066  1.00  0.00    -0.237 OA
ATOM     77  O   UNL     1       8.108   4.417  10.554  1.00  0.00    -0.237 OA
ATOM     78  O   UNL     1       6.449   5.423   9.037  1.00  0.00    -0.744 OA
ENDBRANCH  74  75
ENDBRANCH  46  69
BRANCH  58  79
ATOM     79  C   UNL     1       0.126   4.717  18.681  1.00  0.00    -0.014 A 
ATOM     80  C   UNL     1      -0.341   6.001  18.350  1.00  0.00     0.010 A 
ATOM     81  C   UNL     1       0.608   4.479  19.982  1.00  0.00     0.010 A 
ATOM     82  C   UNL     1      -0.297   7.034  19.291  1.00  0.00     0.020 A 
ATOM     83  C   UNL     1       0.624   5.500  20.935  1.00  0.00     0.020 A 
ATOM     84  C   UNL     1       0.184   6.776  20.579  1.00  0.00     0.054 A 
BRANCH  84  85
ATOM     85  S   UNL     1       0.189   8.121  21.795  1.00  0.00     0.124 S 
ATOM     86  O   UNL     1       1.281   8.963  21.313  1.00  0.00    -0.237 OA
ATOM     87  O   UNL     1      -1.150   8.687  21.652  1.00  0.00    -0.237 OA
ATOM     88  O   UNL     1       0.441   7.441  23.064  1.00  0.00    -0.744 OA
ENDBRANCH  84  85
ENDBRANCH  58  79
ENDBRANCH  32  33
ENDBRANCH  24  27
ENDBRANCH  22  23
ENDBRANCH  21  22
ENDBRANCH   1  21
TORSDOF 17
