REMARK SMILES Cc1cccc(CN(C)c2nc(C)c(C(=O)NCCCCNC(=O)c3ccc(-c4c5nc(c(-c6ccc(S(=O)(=O)[O-])cc6)c6ccc([nH]6)c(-c6ccc(S(=O)(=O)[O-])cc6)c6nc(c(-c7ccc(S(=O)(=O)[O-])cc7)c7ccc4[nH]7)C=C6)C=C5)cc3)s2)n1
REMARK SMILES IDX 19 1 18 2 17 3 15 4 16 5 14 7 10 8 11 9 85 10 12 11 13 12
REMARK SMILES IDX 8 13 9 14 7 15 6 16 1 17 2 18 3 19 86 20 4 21 5 22 20 23
REMARK SMILES IDX 21 24 22 25 23 26 24 28 25 29 26 30 84 31 27 32 83 33 28 34
REMARK SMILES IDX 29 35 30 36 77 37 31 38 82 39 76 40 78 41 32 42 81 43 75 44
REMARK SMILES IDX 74 45 33 47 63 48 44 49 62 50 45 51 48 52 61 53 79 54 46 55
REMARK SMILES IDX 47 56 60 58 80 59 49 60 34 61 35 62 43 63 36 64 42 65 37 66
REMARK SMILES IDX 38 67 39 68 40 69 41 70 64 71 65 72 73 73 66 74 72 75 67 76
REMARK SMILES IDX 68 77 69 78 70 79 71 80 50 81 51 82 59 83 52 84 58 85 53 86
REMARK SMILES IDX 54 87 55 88 56 89 57 90
REMARK H PARENT 17 6 22 27 78 46 48 57
REMARK Flexibility Score: inf
ROOT
ATOM      1  C   UNL     1      -3.424   2.132   8.010  1.00  0.00     0.023 C 
ENDROOT
BRANCH   1   2
ATOM      2  C   UNL     1      -1.966   1.841   7.656  1.00  0.00     0.116 C 
BRANCH   2   3
ATOM      3  N   UNL     1      -1.904   0.714   6.764  1.00  0.00    -0.351 N 
ATOM      4  C   UNL     1      -1.917   0.601   5.400  1.00  0.00     0.263 C 
ATOM      5  O   UNL     1      -1.971  -0.578   5.024  1.00  0.00    -0.268 OA
ATOM      6  H   UNL     1      -1.840  -0.151   7.229  1.00  0.00     0.163 HD
BRANCH   4   7
ATOM      7  C   UNL     1      -1.819   1.716   4.463  1.00  0.00     0.117 A 
ATOM      8  C   UNL     1      -1.356   2.848   2.299  1.00  0.00     0.186 A 
ATOM      9  N   UNL     1      -1.729   3.706   3.216  1.00  0.00    -0.225 NA
ATOM     10  S   UNL     1      -1.281   1.244   2.883  1.00  0.00    -0.091 S 
ATOM     11  C   UNL     1      -2.074   3.084   4.415  1.00  0.00     0.063 A 
ATOM     12  C   UNL     1      -2.693   4.017   5.388  1.00  0.00     0.068 C 
BRANCH   8  13
ATOM     13  N   UNL     1      -1.027   3.216   1.029  1.00  0.00    -0.345 N 
ATOM     14  C   UNL     1      -0.572   4.578   0.827  1.00  0.00     0.146 C 
BRANCH  13  15
ATOM     15  C   UNL     1      -1.509   2.471  -0.138  1.00  0.00     0.174 C 
BRANCH  15  16
ATOM     16  C   UNL     1      -0.875   1.100  -0.299  1.00  0.00     0.060 A 
ATOM     17  C   UNL     1       2.549  -0.220  -0.166  1.00  0.00     0.067 C 
ATOM     18  C   UNL     1       1.056  -0.193  -0.276  1.00  0.00     0.038 A 
ATOM     19  C   UNL     1       0.314  -1.369  -0.256  1.00  0.00     0.023 A 
ATOM     20  N   UNL     1       0.481   1.031  -0.327  1.00  0.00    -0.256 NA
ATOM     21  C   UNL     1      -1.073  -1.288  -0.300  1.00  0.00     0.004 A 
ATOM     22  C   UNL     1      -1.681  -0.039  -0.324  1.00  0.00     0.026 A 
ENDBRANCH  15  16
ENDBRANCH  13  15
ENDBRANCH   8  13
ENDBRANCH   4   7
ENDBRANCH   2   3
ENDBRANCH   1   2
BRANCH   1  23
ATOM     23  C   UNL     1      -3.955   1.345   9.207  1.00  0.00     0.023 C 
BRANCH  23  24
ATOM     24  C   UNL     1      -3.298   1.700  10.534  1.00  0.00     0.116 C 
BRANCH  24  25
ATOM     25  N   UNL     1      -3.366   3.119  10.855  1.00  0.00    -0.352 N 
ATOM     26  C   UNL     1      -3.360   3.710  12.097  1.00  0.00     0.251 C 
ATOM     27  H   UNL     1      -3.423   3.731  10.086  1.00  0.00     0.163 HD
ATOM     28  O   UNL     1      -3.506   4.917  12.213  1.00  0.00    -0.269 OA
BRANCH  26  29
ATOM     29  C   UNL     1      -3.230   2.844  13.285  1.00  0.00     0.039 A 
ATOM     30  C   UNL     1      -4.192   2.940  14.291  1.00  0.00     0.014 A 
ATOM     31  C   UNL     1      -2.212   1.890  13.358  1.00  0.00     0.014 A 
ATOM     32  C   UNL     1      -4.175   2.024  15.342  1.00  0.00     0.010 A 
ATOM     33  C   UNL     1      -2.243   0.932  14.363  1.00  0.00     0.010 A 
ATOM     34  C   UNL     1      -3.225   0.990  15.363  1.00  0.00    -0.014 A 
BRANCH  34  35
ATOM     35  C   UNL     1      -3.243  -0.047  16.423  1.00  0.00     0.031 A 
ATOM     36  C   UNL     1      -2.089  -0.161  17.379  1.00  0.00     0.074 A 
ATOM     37  C   UNL     1      -4.263  -0.926  16.477  1.00  0.00     0.049 A 
ATOM     38  N   UNL     1      -1.896  -1.032  18.335  1.00  0.00    -0.248 NA
ATOM     39  C   UNL     1      -0.993   0.809  17.218  1.00  0.00     0.031 C 
ATOM     40  C   UNL     1      -5.411  -0.952  15.566  1.00  0.00     0.029 A 
ATOM     41  N   UNL     1      -4.495  -1.973  17.331  1.00  0.00    -0.354 N 
ATOM     42  C   UNL     1      -0.652  -0.729  18.875  1.00  0.00     0.074 A 
ATOM     43  C   UNL     1      -0.113   0.372  18.107  1.00  0.00     0.031 C 
ATOM     44  C   UNL     1      -6.238  -1.946  15.929  1.00  0.00     0.029 A 
ATOM     45  C   UNL     1      -5.666  -2.646  17.074  1.00  0.00     0.049 A 
ATOM     46  H   UNL     1      -3.881  -2.220  18.060  1.00  0.00     0.167 HD
ATOM     47  C   UNL     1      -0.024  -1.301  19.928  1.00  0.00     0.031 A 
ATOM     48  C   UNL     1      -6.219  -3.707  17.694  1.00  0.00     0.031 A 
ATOM     49  C   UNL     1      -0.574  -2.379  20.703  1.00  0.00     0.049 A 
ATOM     50  C   UNL     1      -5.517  -4.307  18.880  1.00  0.00     0.074 A 
ATOM     51  C   UNL     1      -0.048  -2.986  21.830  1.00  0.00     0.029 A 
ATOM     52  N   UNL     1      -1.779  -3.010  20.433  1.00  0.00    -0.354 N 
ATOM     53  N   UNL     1      -4.373  -3.959  19.421  1.00  0.00    -0.248 NA
ATOM     54  C   UNL     1      -6.186  -5.431  19.548  1.00  0.00     0.031 C 
ATOM     55  C   UNL     1      -0.919  -4.010  22.219  1.00  0.00     0.029 A 
ATOM     56  C   UNL     1      -2.008  -4.009  21.362  1.00  0.00     0.049 A 
ATOM     57  H   UNL     1      -2.383  -2.781  19.689  1.00  0.00     0.167 HD
ATOM     58  C   UNL     1      -4.199  -4.806  20.510  1.00  0.00     0.074 A 
ATOM     59  C   UNL     1      -5.359  -5.673  20.556  1.00  0.00     0.031 C 
ATOM     60  C   UNL     1      -3.171  -4.859  21.392  1.00  0.00     0.031 A 
BRANCH  47  61
ATOM     61  C   UNL     1       1.332  -0.763  20.299  1.00  0.00    -0.014 A 
ATOM     62  C   UNL     1       1.472   0.513  20.874  1.00  0.00     0.010 A 
ATOM     63  C   UNL     1       2.479  -1.548  20.086  1.00  0.00     0.010 A 
ATOM     64  C   UNL     1       2.739   1.014  21.184  1.00  0.00     0.020 A 
ATOM     65  C   UNL     1       3.746  -1.062  20.421  1.00  0.00     0.020 A 
ATOM     66  C   UNL     1       3.868   0.226  20.949  1.00  0.00     0.054 A 
BRANCH  66  67
ATOM     67  S   UNL     1       5.500   0.895  21.370  1.00  0.00     0.124 S 
ATOM     68  O   UNL     1       5.728   1.839  20.278  1.00  0.00    -0.237 OA
ATOM     69  O   UNL     1       5.273   1.497  22.682  1.00  0.00    -0.237 OA
ATOM     70  O   UNL     1       6.368  -0.280  21.369  1.00  0.00    -0.744 OA
ENDBRANCH  66  67
ENDBRANCH  47  61
BRANCH  48  71
ATOM     71  C   UNL     1      -7.522  -4.245  17.221  1.00  0.00    -0.014 A 
ATOM     72  C   UNL     1      -8.693  -4.027  17.967  1.00  0.00     0.010 A 
ATOM     73  C   UNL     1      -7.603  -4.958  16.011  1.00  0.00     0.010 A 
ATOM     74  C   UNL     1      -9.921  -4.526  17.521  1.00  0.00     0.020 A 
ATOM     75  C   UNL     1      -8.833  -5.438  15.550  1.00  0.00     0.020 A 
ATOM     76  C   UNL     1      -9.983  -5.227  16.314  1.00  0.00     0.054 A 
BRANCH  76  77
ATOM     77  S   UNL     1     -11.595  -5.815  15.723  1.00  0.00     0.124 S 
ATOM     78  O   UNL     1     -11.826  -6.975  16.578  1.00  0.00    -0.237 OA
ATOM     79  O   UNL     1     -12.461  -4.664  15.968  1.00  0.00    -0.237 OA
ATOM     80  O   UNL     1     -11.353  -6.113  14.313  1.00  0.00    -0.744 OA
ENDBRANCH  76  77
ENDBRANCH  48  71
BRANCH  60  81
ATOM     81  C   UNL     1      -3.268  -5.867  22.505  1.00  0.00    -0.014 A 
ATOM     82  C   UNL     1      -3.066  -7.237  22.263  1.00  0.00     0.010 A 
ATOM     83  C   UNL     1      -3.504  -5.426  23.819  1.00  0.00     0.010 A 
ATOM     84  C   UNL     1      -3.124  -8.153  23.316  1.00  0.00     0.020 A 
ATOM     85  C   UNL     1      -3.539  -6.337  24.878  1.00  0.00     0.020 A 
ATOM     86  C   UNL     1      -3.362  -7.697  24.617  1.00  0.00     0.054 A 
BRANCH  86  87
ATOM     87  S   UNL     1      -3.384  -8.899  25.975  1.00  0.00     0.124 S 
ATOM     88  O   UNL     1      -4.691  -9.528  25.802  1.00  0.00    -0.237 OA
ATOM     89  O   UNL     1      -2.233  -9.747  25.674  1.00  0.00    -0.237 OA
ATOM     90  O   UNL     1      -3.244  -8.071  27.171  1.00  0.00    -0.744 OA
ENDBRANCH  86  87
ENDBRANCH  60  81
ENDBRANCH  34  35
ENDBRANCH  26  29
ENDBRANCH  24  25
ENDBRANCH  23  24
ENDBRANCH   1  23
TORSDOF 17
