REMARK SMILES C[C@@H](C(=O)NCCCCNC(=O)c1ccc(-c2c3nc(c(-c4ccc(S(=O)(=O)[O-])cc4)c4ccc([nH]4)c(-c4ccc(S(=O)(=O)[O-])cc4)c4nc(c(-c5ccc(S(=O)(=O)[O-])cc5)c5ccc2[nH]5)C=C4)C=C3)cc1)[N@@H+]1CCc2n[nH]c(C(c3ccccc3)c3ccccc3)c2C1
REMARK SMILES IDX 7 1 6 2 5 3 3 4 4 5 2 7 1 8 73 9 74 10 94 11 75 13 93 14
REMARK SMILES IDX 76 15 79 16 77 17 78 18 80 20 81 21 82 22 86 23 83 24 85 25
REMARK SMILES IDX 84 26 87 27 88 28 92 29 89 30 91 31 90 32 8 33 9 34 10 35
REMARK SMILES IDX 11 36 12 38 13 39 14 40 72 41 15 42 71 43 16 44 17 45 18 46
REMARK SMILES IDX 65 47 19 48 70 49 64 50 66 51 20 52 69 53 63 54 62 55 21 57
REMARK SMILES IDX 51 58 32 59 50 60 33 61 36 62 49 63 67 64 34 65 35 66 48 68
REMARK SMILES IDX 68 69 37 70 22 71 23 72 31 73 24 74 30 75 25 76 26 77 27 78
REMARK SMILES IDX 28 79 29 80 52 81 53 82 61 83 54 84 60 85 55 86 56 87 57 88
REMARK SMILES IDX 58 89 59 90 38 91 39 92 47 93 40 94 46 95 41 96 42 97 43 98
REMARK SMILES IDX 44 99 45 100
REMARK H PARENT 5 6 73 12 78 19 10 37 66 56 36 67
REMARK Flexibility Score: inf
ROOT
ATOM      1  C   UNL     1       4.584   1.338  -0.181  1.00  0.00     0.023 C 
ENDROOT
BRANCH   1   2
ATOM      2  C   UNL     1       3.844   2.400   0.618  1.00  0.00     0.116 C 
BRANCH   2   3
ATOM      3  N   UNL     1       2.592   2.796   0.001  1.00  0.00    -0.351 N 
ATOM      4  C   UNL     1       1.378   2.813   0.665  1.00  0.00     0.278 C 
ATOM      5  O   UNL     1       1.007   3.878   1.164  1.00  0.00    -0.268 OA
ATOM      6  H   UNL     1       2.607   3.068  -0.946  1.00  0.00     0.163 HD
BRANCH   4   7
ATOM      7  C   UNL     1       0.400   1.588   0.507  1.00  0.00     0.271 C 
ATOM      8  C   UNL     1       1.057   0.246   0.815  1.00  0.00     0.086 C 
BRANCH   7   9
ATOM      9  N   UNL     1      -0.358   1.692  -0.780  1.00  0.00    -0.321 N 
ATOM     10  C   UNL     1      -1.357   0.604  -1.077  1.00  0.00     0.269 C 
ATOM     11  C   UNL     1       0.510   1.958  -1.927  1.00  0.00     0.303 C 
ATOM     12  H   UNL     1      -0.945   2.510  -0.618  1.00  0.00     0.349 HD
ATOM     13  C   UNL     1      -1.520   0.193  -2.597  1.00  0.00     0.120 C 
ATOM     14  C   UNL     1       0.937   0.647  -2.506  1.00  0.00     0.052 A 
ATOM     15  C   UNL     1      -0.160   0.074  -3.192  1.00  0.00     0.077 A 
ATOM     16  C   UNL     1       1.996   0.199  -3.275  1.00  0.00     0.056 A 
ATOM     17  N   UNL     1       0.111   0.069  -4.504  1.00  0.00    -0.180 NA
ATOM     18  N   UNL     1       1.425   0.406  -4.519  1.00  0.00    -0.281 N 
ATOM     19  H   UNL     1       1.907   0.751  -5.306  1.00  0.00     0.190 HD
BRANCH  16  20
ATOM     20  C   UNL     1       3.172  -0.778  -3.078  1.00  0.00     0.098 C 
BRANCH  20  21
ATOM     21  C   UNL     1       3.216  -1.620  -1.774  1.00  0.00    -0.035 A 
ATOM     22  C   UNL     1       4.463  -1.830  -1.139  1.00  0.00     0.005 A 
ATOM     23  C   UNL     1       2.118  -2.328  -1.260  1.00  0.00     0.005 A 
ATOM     24  C   UNL     1       4.590  -2.618   0.010  1.00  0.00     0.000 A 
ATOM     25  C   UNL     1       2.248  -3.140  -0.119  1.00  0.00     0.000 A 
ATOM     26  C   UNL     1       3.478  -3.270   0.525  1.00  0.00     0.000 A 
ENDBRANCH  20  21
BRANCH  20  27
ATOM     27  C   UNL     1       3.474  -1.632  -4.322  1.00  0.00    -0.035 A 
ATOM     28  C   UNL     1       3.400  -3.035  -4.322  1.00  0.00     0.005 A 
ATOM     29  C   UNL     1       3.866  -0.995  -5.515  1.00  0.00     0.005 A 
ATOM     30  C   UNL     1       3.687  -3.769  -5.472  1.00  0.00     0.000 A 
ATOM     31  C   UNL     1       4.085  -1.724  -6.681  1.00  0.00     0.000 A 
ATOM     32  C   UNL     1       4.007  -3.112  -6.656  1.00  0.00     0.000 A 
ENDBRANCH  20  27
ENDBRANCH  16  20
ENDBRANCH   7   9
ENDBRANCH   4   7
ENDBRANCH   2   3
ENDBRANCH   1   2
BRANCH   1  33
ATOM     33  C   UNL     1       5.150   1.747  -1.542  1.00  0.00     0.023 C 
BRANCH  33  34
ATOM     34  C   UNL     1       6.252   2.788  -1.536  1.00  0.00     0.116 C 
BRANCH  34  35
ATOM     35  N   UNL     1       7.414   2.363  -0.769  1.00  0.00    -0.352 N 
ATOM     36  C   UNL     1       8.735   2.240  -1.144  1.00  0.00     0.251 C 
ATOM     37  H   UNL     1       7.226   2.125   0.168  1.00  0.00     0.163 HD
ATOM     38  O   UNL     1       9.527   1.690  -0.394  1.00  0.00    -0.269 OA
BRANCH  36  39
ATOM     39  C   UNL     1       9.187   2.754  -2.459  1.00  0.00     0.039 A 
ATOM     40  C   UNL     1      10.139   2.034  -3.188  1.00  0.00     0.014 A 
ATOM     41  C   UNL     1       8.676   3.946  -2.973  1.00  0.00     0.014 A 
ATOM     42  C   UNL     1      10.521   2.476  -4.460  1.00  0.00     0.010 A 
ATOM     43  C   UNL     1       8.967   4.319  -4.277  1.00  0.00     0.010 A 
ATOM     44  C   UNL     1       9.908   3.601  -5.030  1.00  0.00    -0.014 A 
BRANCH  44  45
ATOM     45  C   UNL     1      10.244   4.089  -6.392  1.00  0.00     0.031 A 
ATOM     46  C   UNL     1      10.768   5.491  -6.566  1.00  0.00     0.074 A 
ATOM     47  C   UNL     1       9.969   3.328  -7.469  1.00  0.00     0.049 A 
ATOM     48  N   UNL     1      10.963   6.170  -7.665  1.00  0.00    -0.248 NA
ATOM     49  C   UNL     1      11.066   6.243  -5.335  1.00  0.00     0.031 C 
ATOM     50  C   UNL     1       9.414   1.973  -7.433  1.00  0.00     0.029 A 
ATOM     51  N   UNL     1      10.093   3.599  -8.810  1.00  0.00    -0.354 N 
ATOM     52  C   UNL     1      11.363   7.438  -7.257  1.00  0.00     0.074 A 
ATOM     53  C   UNL     1      11.327   7.450  -5.812  1.00  0.00     0.031 C 
ATOM     54  C   UNL     1       9.257   1.529  -8.690  1.00  0.00     0.029 A 
ATOM     55  C   UNL     1       9.647   2.583  -9.621  1.00  0.00     0.049 A 
ATOM     56  H   UNL     1      10.465   4.442  -9.157  1.00  0.00     0.167 HD
ATOM     57  C   UNL     1      11.742   8.494  -8.016  1.00  0.00     0.031 A 
ATOM     58  C   UNL     1       9.540   2.513 -10.963  1.00  0.00     0.031 A 
ATOM     59  C   UNL     1      11.795   8.462  -9.452  1.00  0.00     0.049 A 
ATOM     60  C   UNL     1       9.979   3.688 -11.793  1.00  0.00     0.074 A 
ATOM     61  C   UNL     1      12.241   9.444 -10.317  1.00  0.00     0.029 A 
ATOM     62  N   UNL     1      11.383   7.393 -10.234  1.00  0.00    -0.354 N 
ATOM     63  N   UNL     1      10.430   4.853 -11.391  1.00  0.00    -0.248 NA
ATOM     64  C   UNL     1       9.908   3.539 -13.252  1.00  0.00     0.031 C 
ATOM     65  C   UNL     1      12.037   8.994 -11.625  1.00  0.00     0.029 A 
ATOM     66  C   UNL     1      11.534   7.702 -11.574  1.00  0.00     0.049 A 
ATOM     67  H   UNL     1      11.034   6.540  -9.887  1.00  0.00     0.167 HD
ATOM     68  C   UNL     1      10.722   5.567 -12.548  1.00  0.00     0.074 A 
ATOM     69  C   UNL     1      10.403   4.700 -13.664  1.00  0.00     0.031 C 
ATOM     70  C   UNL     1      11.216   6.824 -12.673  1.00  0.00     0.031 A 
BRANCH  57  71
ATOM     71  C   UNL     1      12.102   9.772  -7.302  1.00  0.00    -0.014 A 
ATOM     72  C   UNL     1      13.231   9.854  -6.464  1.00  0.00     0.010 A 
ATOM     73  C   UNL     1      11.299  10.914  -7.474  1.00  0.00     0.010 A 
ATOM     74  C   UNL     1      13.508  11.029  -5.760  1.00  0.00     0.020 A 
ATOM     75  C   UNL     1      11.593  12.103  -6.801  1.00  0.00     0.020 A 
ATOM     76  C   UNL     1      12.681  12.144  -5.928  1.00  0.00     0.054 A 
BRANCH  76  77
ATOM     77  S   UNL     1      13.057  13.652  -4.992  1.00  0.00     0.124 S 
ATOM     78  O   UNL     1      12.672  13.267  -3.637  1.00  0.00    -0.237 OA
ATOM     79  O   UNL     1      14.491  13.817  -5.214  1.00  0.00    -0.237 OA
ATOM     80  O   UNL     1      12.212  14.667  -5.615  1.00  0.00    -0.744 OA
ENDBRANCH  76  77
ENDBRANCH  57  71
BRANCH  58  81
ATOM     81  C   UNL     1       8.992   1.278 -11.590  1.00  0.00    -0.014 A 
ATOM     82  C   UNL     1       9.832   0.392 -12.286  1.00  0.00     0.010 A 
ATOM     83  C   UNL     1       7.632   0.952 -11.436  1.00  0.00     0.010 A 
ATOM     84  C   UNL     1       9.323  -0.798 -12.815  1.00  0.00     0.020 A 
ATOM     85  C   UNL     1       7.125  -0.250 -11.939  1.00  0.00     0.020 A 
ATOM     86  C   UNL     1       7.974  -1.117 -12.629  1.00  0.00     0.054 A 
BRANCH  86  87
ATOM     87  S   UNL     1       7.357  -2.709 -13.243  1.00  0.00     0.124 S 
ATOM     88  O   UNL     1       7.348  -2.495 -14.687  1.00  0.00    -0.237 OA
ATOM     89  O   UNL     1       8.361  -3.647 -12.747  1.00  0.00    -0.237 OA
ATOM     90  O   UNL     1       6.042  -2.829 -12.617  1.00  0.00    -0.744 OA
ENDBRANCH  86  87
ENDBRANCH  58  81
BRANCH  70  91
ATOM     91  C   UNL     1      11.487   7.339 -14.061  1.00  0.00    -0.014 A 
ATOM     92  C   UNL     1      10.440   7.720 -14.918  1.00  0.00     0.010 A 
ATOM     93  C   UNL     1      12.818   7.547 -14.467  1.00  0.00     0.010 A 
ATOM     94  C   UNL     1      10.722   8.296 -16.159  1.00  0.00     0.020 A 
ATOM     95  C   UNL     1      13.103   8.149 -15.694  1.00  0.00     0.020 A 
ATOM     96  C   UNL     1      12.052   8.516 -16.535  1.00  0.00     0.054 A 
BRANCH  96  97
ATOM     97  S   UNL     1      12.386   9.347 -18.112  1.00  0.00     0.124 S 
ATOM     98  O   UNL     1      12.025   8.317 -19.082  1.00  0.00    -0.237 OA
ATOM     99  O   UNL     1      11.493  10.502 -18.059  1.00  0.00    -0.237 OA
ATOM    100  O   UNL     1      13.811   9.665 -18.042  1.00  0.00    -0.744 OA
ENDBRANCH  96  97
ENDBRANCH  70  91
ENDBRANCH  44  45
ENDBRANCH  36  39
ENDBRANCH  34  35
ENDBRANCH  33  34
ENDBRANCH   1  33
TORSDOF 18
