REMARK SMILES Cc1cccc(C[NH+]2CCC(OCC(=O)NCCCCNC(=O)c3ccc(-c4c5nc(c(-c6ccc(S(=O)(=O)[O-])cc6)c6ccc([nH]6)c(-c6ccc(S(=O)(=O)[O-])cc6)c6nc(c(-c7ccc(S(=O)(=O)[O-])cc7)c7ccc4[nH]7)C=C6)C=C5)cc3)CC2)n1
REMARK SMILES IDX 18 1 17 2 16 3 14 4 15 5 13 7 12 8 11 9 8 10 9 11 85 12
REMARK SMILES IDX 10 14 84 15 7 16 6 17 1 18 2 19 3 20 86 21 4 22 5 23 19 24
REMARK SMILES IDX 20 25 21 26 22 27 23 29 24 30 25 31 83 32 26 33 82 34 27 35
REMARK SMILES IDX 28 36 29 37 76 38 30 39 81 40 75 41 77 42 31 43 80 44 74 45
REMARK SMILES IDX 73 46 32 48 62 49 43 50 61 51 44 52 47 53 60 54 78 55 45 56
REMARK SMILES IDX 46 57 59 59 79 60 48 61 33 62 34 63 42 64 35 65 41 66 36 67
REMARK SMILES IDX 37 68 38 69 39 70 40 71 63 72 64 73 72 74 65 75 71 76 66 77
REMARK SMILES IDX 67 78 68 79 69 80 70 81 49 82 50 83 58 84 51 85 57 86 52 87
REMARK SMILES IDX 53 88 54 89 55 90 56 91
REMARK H PARENT 16 6 8 13 21 28 77 47 47 58
REMARK Flexibility Score: inf
ROOT
ATOM      1  C   UNL     1       3.672   5.753   3.818  1.00  0.00     0.023 C 
ENDROOT
BRANCH   1   2
ATOM      2  C   UNL     1       2.804   6.878   4.380  1.00  0.00     0.116 C 
BRANCH   2   3
ATOM      3  N   UNL     1       1.793   7.363   3.463  1.00  0.00    -0.354 N 
ATOM      4  C   UNL     1       0.441   7.171   3.511  1.00  0.00     0.246 C 
ATOM      5  O   UNL     1      -0.278   7.822   2.750  1.00  0.00    -0.272 OA
ATOM      6  H   UNL     1       2.123   7.900   2.707  1.00  0.00     0.163 HD
BRANCH   4   7
ATOM      7  C   UNL     1      -0.153   6.177   4.518  1.00  0.00     0.260 C 
BRANCH   7   8
ATOM      8  O   UNL     1       0.389   4.869   4.559  1.00  0.00    -0.368 OA
BRANCH   8   9
ATOM      9  C   UNL     1       0.039   3.970   3.500  1.00  0.00     0.130 C 
ATOM     10  N   UNL     1      -1.287   3.078   1.084  1.00  0.00    -0.330 N 
ATOM     11  C   UNL     1      -1.721   2.548   2.379  1.00  0.00     0.265 C 
ATOM     12  C   UNL     1       0.153   3.373   1.077  1.00  0.00     0.265 C 
ATOM     13  H   UNL     1      -1.792   3.956   0.958  1.00  0.00     0.348 HD
ATOM     14  C   UNL     1      -1.437   3.558   3.499  1.00  0.00     0.093 C 
ATOM     15  C   UNL     1       0.464   4.442   2.111  1.00  0.00     0.093 C 
BRANCH  10  16
ATOM     16  C   UNL     1      -1.668   2.222  -0.061  1.00  0.00     0.319 C 
BRANCH  16  17
ATOM     17  C   UNL     1      -1.052   0.833  -0.116  1.00  0.00     0.095 A 
ATOM     18  C   UNL     1       2.382  -0.463  -0.327  1.00  0.00     0.067 C 
ATOM     19  C   UNL     1       0.886  -0.459  -0.259  1.00  0.00     0.038 A 
ATOM     20  C   UNL     1       0.159  -1.632  -0.119  1.00  0.00     0.023 A 
ATOM     21  N   UNL     1       0.293   0.754  -0.275  1.00  0.00    -0.252 NA
ATOM     22  C   UNL     1      -1.226  -1.550   0.005  1.00  0.00     0.004 A 
ATOM     23  C   UNL     1      -1.843  -0.302   0.014  1.00  0.00     0.030 A 
ENDBRANCH  16  17
ENDBRANCH  10  16
ENDBRANCH   8   9
ENDBRANCH   7   8
ENDBRANCH   4   7
ENDBRANCH   2   3
ENDBRANCH   1   2
BRANCH   1  24
ATOM     24  C   UNL     1       4.352   6.041   2.476  1.00  0.00     0.023 C 
BRANCH  24  25
ATOM     25  C   UNL     1       5.164   7.331   2.406  1.00  0.00     0.116 C 
BRANCH  25  26
ATOM     26  N   UNL     1       6.224   7.397   3.400  1.00  0.00    -0.352 N 
ATOM     27  C   UNL     1       7.518   7.840   3.257  1.00  0.00     0.251 C 
ATOM     28  H   UNL     1       5.982   7.082   4.300  1.00  0.00     0.163 HD
ATOM     29  O   UNL     1       8.311   7.728   4.188  1.00  0.00    -0.269 OA
BRANCH  27  30
ATOM     30  C   UNL     1       7.962   8.414   1.968  1.00  0.00     0.039 A 
ATOM     31  C   UNL     1       9.154   7.955   1.399  1.00  0.00     0.014 A 
ATOM     32  C   UNL     1       7.197   9.380   1.310  1.00  0.00     0.014 A 
ATOM     33  C   UNL     1       9.539   8.406   0.134  1.00  0.00     0.010 A 
ATOM     34  C   UNL     1       7.549   9.782   0.025  1.00  0.00     0.010 A 
ATOM     35  C   UNL     1       8.717   9.291  -0.581  1.00  0.00    -0.014 A 
BRANCH  35  36
ATOM     36  C   UNL     1       9.038   9.708  -1.970  1.00  0.00     0.031 A 
ATOM     37  C   UNL     1       9.323  11.152  -2.275  1.00  0.00     0.074 A 
ATOM     38  C   UNL     1       8.966   8.808  -2.970  1.00  0.00     0.049 A 
ATOM     39  N   UNL     1       9.480  11.735  -3.436  1.00  0.00    -0.248 NA
ATOM     40  C   UNL     1       9.415  12.064  -1.124  1.00  0.00     0.031 C 
ATOM     41  C   UNL     1       8.660   7.385  -2.810  1.00  0.00     0.029 A 
ATOM     42  N   UNL     1       9.119   8.964  -4.326  1.00  0.00    -0.354 N 
ATOM     43  C   UNL     1       9.662  13.084  -3.158  1.00  0.00     0.074 A 
ATOM     44  C   UNL     1       9.558  13.237  -1.722  1.00  0.00     0.031 C 
ATOM     45  C   UNL     1       8.647   6.799  -4.018  1.00  0.00     0.029 A 
ATOM     46  C   UNL     1       8.902   7.809  -5.041  1.00  0.00     0.049 A 
ATOM     47  H   UNL     1       9.361   9.820  -4.746  1.00  0.00     0.167 HD
ATOM     48  C   UNL     1       9.903  14.102  -4.019  1.00  0.00     0.031 A 
ATOM     49  C   UNL     1       8.885   7.589  -6.370  1.00  0.00     0.031 A 
ATOM     50  C   UNL     1      10.012  13.945  -5.444  1.00  0.00     0.049 A 
ATOM     51  C   UNL     1       9.156   8.731  -7.309  1.00  0.00     0.074 A 
ATOM     52  C   UNL     1      10.306  14.906  -6.396  1.00  0.00     0.029 A 
ATOM     53  N   UNL     1       9.828  12.751  -6.124  1.00  0.00    -0.354 N 
ATOM     54  N   UNL     1       9.385   9.991  -7.025  1.00  0.00    -0.248 NA
ATOM     55  C   UNL     1       9.177   8.423  -8.746  1.00  0.00     0.031 C 
ATOM     56  C   UNL     1      10.260  14.299  -7.656  1.00  0.00     0.029 A 
ATOM     57  C   UNL     1       9.985  12.951  -7.485  1.00  0.00     0.049 A 
ATOM     58  H   UNL     1       9.616  11.887  -5.702  1.00  0.00     0.167 HD
ATOM     59  C   UNL     1       9.599  10.622  -8.245  1.00  0.00     0.074 A 
ATOM     60  C   UNL     1       9.482   9.604  -9.269  1.00  0.00     0.031 C 
ATOM     61  C   UNL     1       9.871  11.927  -8.492  1.00  0.00     0.031 A 
BRANCH  48  62
ATOM     62  C   UNL     1      10.048  15.480  -3.430  1.00  0.00    -0.014 A 
ATOM     63  C   UNL     1      11.171  15.824  -2.656  1.00  0.00     0.010 A 
ATOM     64  C   UNL     1       9.051  16.446  -3.655  1.00  0.00     0.010 A 
ATOM     65  C   UNL     1      11.266  17.088  -2.068  1.00  0.00     0.020 A 
ATOM     66  C   UNL     1       9.155  17.722  -3.092  1.00  0.00     0.020 A 
ATOM     67  C   UNL     1      10.250  18.025  -2.280  1.00  0.00     0.054 A 
BRANCH  67  68
ATOM     68  S   UNL     1      10.389  19.654  -1.494  1.00  0.00     0.124 S 
ATOM     69  O   UNL     1      10.033  19.349  -0.110  1.00  0.00    -0.237 OA
ATOM     70  O   UNL     1      11.789  20.004  -1.719  1.00  0.00    -0.237 OA
ATOM     71  O   UNL     1       9.421  20.472  -2.220  1.00  0.00    -0.744 OA
ENDBRANCH  67  68
ENDBRANCH  48  62
BRANCH  49  72
ATOM     72  C   UNL     1       8.601   6.222  -6.883  1.00  0.00    -0.014 A 
ATOM     73  C   UNL     1       9.634   5.430  -7.413  1.00  0.00     0.010 A 
ATOM     74  C   UNL     1       7.302   5.687  -6.800  1.00  0.00     0.010 A 
ATOM     75  C   UNL     1       9.373   4.129  -7.853  1.00  0.00     0.020 A 
ATOM     76  C   UNL     1       7.042   4.378  -7.217  1.00  0.00     0.020 A 
ATOM     77  C   UNL     1       8.080   3.609  -7.747  1.00  0.00     0.054 A 
BRANCH  77  78
ATOM     78  S   UNL     1       7.782   1.890  -8.249  1.00  0.00     0.124 S 
ATOM     79  O   UNL     1       7.786   1.994  -9.705  1.00  0.00    -0.237 OA
ATOM     80  O   UNL     1       8.919   1.187  -7.662  1.00  0.00    -0.237 OA
ATOM     81  O   UNL     1       6.489   1.577  -7.646  1.00  0.00    -0.744 OA
ENDBRANCH  77  78
ENDBRANCH  49  72
BRANCH  61  82
ATOM     82  C   UNL     1      10.096  12.334  -9.923  1.00  0.00    -0.014 A 
ATOM     83  C   UNL     1       9.021  12.472 -10.817  1.00  0.00     0.010 A 
ATOM     84  C   UNL     1      11.394  12.667 -10.351  1.00  0.00     0.010 A 
ATOM     85  C   UNL     1       9.242  12.928 -12.120  1.00  0.00     0.020 A 
ATOM     86  C   UNL     1      11.616  13.144 -11.645  1.00  0.00     0.020 A 
ATOM     87  C   UNL     1      10.538  13.265 -12.524  1.00  0.00     0.054 A 
BRANCH  87  88
ATOM     88  S   UNL     1      10.790  13.928 -14.194  1.00  0.00     0.124 S 
ATOM     89  O   UNL     1      10.668  12.729 -15.019  1.00  0.00    -0.237 OA
ATOM     90  O   UNL     1       9.702  14.894 -14.324  1.00  0.00    -0.237 OA
ATOM     91  O   UNL     1      12.128  14.512 -14.137  1.00  0.00    -0.744 OA
ENDBRANCH  87  88
ENDBRANCH  61  82
ENDBRANCH  35  36
ENDBRANCH  27  30
ENDBRANCH  25  26
ENDBRANCH  24  25
ENDBRANCH   1  24
TORSDOF 18
