REMARK SMILES Cc1cc2c(cc1C)/C(=C/C(=O)NCCCCNC(=O)c1ccc(-c3c4nc(c(-c5ccc(S(=O)(=O)[O-])cc5)c5ccc([nH]5)c(-c5ccc(S(=O)(=O)[O-])cc5)c5nc(c(-c6ccc(S(=O)(=O)[O-])cc6)c6ccc3[nH]6)C=C5)C=C4)cc1)CO2
REMARK SMILES IDX 17 1 16 2 15 3 14 4 13 5 11 6 12 7 10 9 1 10 2 11 3 12 7 13
REMARK SMILES IDX 4 14 6 15 8 16 5 17 82 18 9 19 81 20 18 21 19 22 20 24 21 25
REMARK SMILES IDX 22 26 80 27 23 28 79 29 24 30 25 31 26 32 73 33 27 34 78 35
REMARK SMILES IDX 72 36 74 37 28 38 77 39 71 40 70 41 29 43 59 44 40 45 58 46
REMARK SMILES IDX 41 47 44 48 57 49 75 50 42 51 43 52 56 54 76 55 45 56 30 57
REMARK SMILES IDX 31 58 39 59 32 60 38 61 33 62 34 63 35 64 36 65 37 66 60 67
REMARK SMILES IDX 61 68 69 69 62 70 68 71 63 72 64 73 65 74 66 75 67 76 46 77
REMARK SMILES IDX 47 78 55 79 48 80 54 81 49 82 50 83 51 84 52 85 53 86
REMARK H PARENT 13 8 18 23 74 42 44 53
REMARK Flexibility Score: inf
ROOT
ATOM      1  C   UNL     1       1.122   8.264  -7.069  1.00  0.00     0.116 C 
ENDROOT
BRANCH   1   2
ATOM      2  C   UNL     1       2.026   7.054  -6.880  1.00  0.00     0.023 C 
BRANCH   2   3
ATOM      3  C   UNL     1       1.576   6.086  -5.787  1.00  0.00     0.023 C 
BRANCH   3   4
ATOM      4  C   UNL     1       0.162   5.541  -5.981  1.00  0.00     0.116 C 
BRANCH   4   5
ATOM      5  N   UNL     1       0.103   4.542  -7.032  1.00  0.00    -0.353 N 
ATOM      6  C   UNL     1       0.456   3.226  -6.922  1.00  0.00     0.244 C 
ATOM      7  O   UNL     1       0.354   2.436  -7.849  1.00  0.00    -0.270 OA
ATOM      8  H   UNL     1      -0.222   4.841  -7.912  1.00  0.00     0.163 HD
BRANCH   6   9
ATOM      9  C   UNL     1       0.943   2.815  -5.594  1.00  0.00     0.079 C 
ATOM     10  C   UNL     1       0.425  -0.054   0.439  1.00  0.00     0.045 C 
ATOM     11  C   UNL     1       0.386   0.681  -0.871  1.00  0.00    -0.044 A 
ATOM     12  C   UNL     1      -0.567   0.289  -1.828  1.00  0.00     0.050 A 
ATOM     13  C   UNL     1       1.245   1.779  -1.142  1.00  0.00    -0.047 A 
ATOM     14  C   UNL     1      -0.596   0.943  -3.040  1.00  0.00     0.127 A 
ATOM     15  C   UNL     1       1.250   2.359  -2.425  1.00  0.00     0.016 A 
ATOM     16  C   UNL     1       2.061   2.434  -0.058  1.00  0.00     0.044 C 
ATOM     17  C   UNL     1       0.349   1.897  -3.368  1.00  0.00     0.024 A 
ATOM     18  O   UNL     1      -1.548   0.723  -4.006  1.00  0.00    -0.488 OA
ATOM     19  C   UNL     1       0.074   2.286  -4.728  1.00  0.00     0.006 C 
ATOM     20  C   UNL     1      -1.323   1.794  -4.964  1.00  0.00     0.266 C 
ENDBRANCH   6   9
ENDBRANCH   4   5
ENDBRANCH   3   4
ENDBRANCH   2   3
ENDBRANCH   1   2
BRANCH   1  21
ATOM     21  N   UNL     1       0.852   8.991  -5.834  1.00  0.00    -0.352 N 
ATOM     22  C   UNL     1       0.603  10.336  -5.684  1.00  0.00     0.251 C 
ATOM     23  H   UNL     1       0.846   8.454  -5.009  1.00  0.00     0.163 HD
ATOM     24  O   UNL     1       0.462  10.829  -4.574  1.00  0.00    -0.269 OA
BRANCH  22  25
ATOM     25  C   UNL     1       0.571  11.171  -6.899  1.00  0.00     0.039 A 
ATOM     26  C   UNL     1      -0.250  10.810  -7.970  1.00  0.00     0.014 A 
ATOM     27  C   UNL     1       1.466  12.237  -7.005  1.00  0.00     0.014 A 
ATOM     28  C   UNL     1      -0.055  11.411  -9.206  1.00  0.00     0.010 A 
ATOM     29  C   UNL     1       1.606  12.888  -8.230  1.00  0.00     0.010 A 
ATOM     30  C   UNL     1       0.886  12.443  -9.352  1.00  0.00    -0.014 A 
BRANCH  30  31
ATOM     31  C   UNL     1       1.132  13.029 -10.691  1.00  0.00     0.031 A 
ATOM     32  C   UNL     1       2.458  12.834 -11.375  1.00  0.00     0.074 A 
ATOM     33  C   UNL     1       0.139  13.695 -11.310  1.00  0.00     0.049 A 
ATOM     34  N   UNL     1       2.863  13.306 -12.525  1.00  0.00    -0.248 NA
ATOM     35  C   UNL     1       3.459  12.002 -10.684  1.00  0.00     0.031 C 
ATOM     36  C   UNL     1      -1.204  13.898 -10.762  1.00  0.00     0.029 A 
ATOM     37  N   UNL     1       0.094  14.299 -12.540  1.00  0.00    -0.354 N 
ATOM     38  C   UNL     1       4.165  12.848 -12.688  1.00  0.00     0.074 A 
ATOM     39  C   UNL     1       4.494  12.076 -11.511  1.00  0.00     0.031 C 
ATOM     40  C   UNL     1      -1.955  14.534 -11.673  1.00  0.00     0.029 A 
ATOM     41  C   UNL     1      -1.129  14.851 -12.834  1.00  0.00     0.049 A 
ATOM     42  H   UNL     1       0.864  14.334 -13.152  1.00  0.00     0.167 HD
ATOM     43  C   UNL     1       5.004  13.049 -13.731  1.00  0.00     0.031 A 
ATOM     44  C   UNL     1      -1.541  15.555 -13.907  1.00  0.00     0.031 A 
ATOM     45  C   UNL     1       4.659  13.803 -14.906  1.00  0.00     0.049 A 
ATOM     46  C   UNL     1      -0.569  15.831 -15.015  1.00  0.00     0.074 A 
ATOM     47  C   UNL     1       5.440  14.054 -16.020  1.00  0.00     0.029 A 
ATOM     48  N   UNL     1       3.437  14.420 -15.125  1.00  0.00    -0.354 N 
ATOM     49  N   UNL     1       0.669  15.415 -15.138  1.00  0.00    -0.248 NA
ATOM     50  C   UNL     1      -1.034  16.682 -16.118  1.00  0.00     0.031 C 
ATOM     51  C   UNL     1       4.710  14.867 -16.889  1.00  0.00     0.029 A 
ATOM     52  C   UNL     1       3.452  15.075 -16.343  1.00  0.00     0.049 A 
ATOM     53  H   UNL     1       2.672  14.395 -14.506  1.00  0.00     0.167 HD
ATOM     54  C   UNL     1       1.132  15.954 -16.331  1.00  0.00     0.074 A 
ATOM     55  C   UNL     1       0.037  16.712 -16.903  1.00  0.00     0.031 C 
ATOM     56  C   UNL     1       2.357  15.834 -16.895  1.00  0.00     0.031 A 
BRANCH  43  57
ATOM     57  C   UNL     1       6.387  12.460 -13.662  1.00  0.00    -0.014 A 
ATOM     58  C   UNL     1       7.498  13.310 -13.509  1.00  0.00     0.010 A 
ATOM     59  C   UNL     1       6.599  11.085 -13.864  1.00  0.00     0.010 A 
ATOM     60  C   UNL     1       8.798  12.801 -13.583  1.00  0.00     0.020 A 
ATOM     61  C   UNL     1       7.898  10.569 -13.917  1.00  0.00     0.020 A 
ATOM     62  C   UNL     1       8.989  11.434 -13.797  1.00  0.00     0.054 A 
BRANCH  62  63
ATOM     63  S   UNL     1      10.682  10.789 -13.901  1.00  0.00     0.124 S 
ATOM     64  O   UNL     1      11.067  11.150 -15.261  1.00  0.00    -0.237 OA
ATOM     65  O   UNL     1      11.369  11.515 -12.835  1.00  0.00    -0.237 OA
ATOM     66  O   UNL     1      10.515   9.357 -13.655  1.00  0.00    -0.744 OA
ENDBRANCH  62  63
ENDBRANCH  43  57
BRANCH  44  67
ATOM     67  C   UNL     1      -2.945  16.041 -13.949  1.00  0.00    -0.014 A 
ATOM     68  C   UNL     1      -3.375  17.043 -13.058  1.00  0.00     0.010 A 
ATOM     69  C   UNL     1      -3.883  15.427 -14.795  1.00  0.00     0.010 A 
ATOM     70  C   UNL     1      -4.728  17.373 -12.963  1.00  0.00     0.020 A 
ATOM     71  C   UNL     1      -5.236  15.775 -14.721  1.00  0.00     0.020 A 
ATOM     72  C   UNL     1      -5.653  16.721 -13.782  1.00  0.00     0.054 A 
BRANCH  72  73
ATOM     73  S   UNL     1      -7.415  17.111 -13.595  1.00  0.00     0.124 S 
ATOM     74  O   UNL     1      -7.771  16.322 -12.419  1.00  0.00    -0.237 OA
ATOM     75  O   UNL     1      -7.406  18.559 -13.401  1.00  0.00    -0.237 OA
ATOM     76  O   UNL     1      -7.998  16.658 -14.855  1.00  0.00    -0.744 OA
ENDBRANCH  72  73
ENDBRANCH  44  67
BRANCH  56  77
ATOM     77  C   UNL     1       2.616  16.543 -18.195  1.00  0.00    -0.014 A 
ATOM     78  C   UNL     1       2.759  15.797 -19.380  1.00  0.00     0.010 A 
ATOM     79  C   UNL     1       2.883  17.922 -18.211  1.00  0.00     0.010 A 
ATOM     80  C   UNL     1       3.214  16.410 -20.549  1.00  0.00     0.020 A 
ATOM     81  C   UNL     1       3.318  18.543 -19.385  1.00  0.00     0.020 A 
ATOM     82  C   UNL     1       3.509  17.776 -20.538  1.00  0.00     0.054 A 
BRANCH  82  83
ATOM     83  S   UNL     1       4.167  18.541 -22.045  1.00  0.00     0.124 S 
ATOM     84  O   UNL     1       5.558  18.099 -22.030  1.00  0.00    -0.237 OA
ATOM     85  O   UNL     1       3.332  17.958 -23.093  1.00  0.00    -0.237 OA
ATOM     86  O   UNL     1       3.962  19.970 -21.820  1.00  0.00    -0.744 OA
ENDBRANCH  82  83
ENDBRANCH  56  77
ENDBRANCH  30  31
ENDBRANCH  22  25
ENDBRANCH   1  21
TORSDOF 14
