REMARK SMILES C[C@@]([NH2+]CC(=O)Nc1cccc(F)c1)(C(=O)NCCCCNC(=O)c1ccc(-c2c3nc(c(-c4ccc(S(=O)(=O)[O-])cc4)c4ccc([nH]4)c(-c4ccc(S(=O)(=O)[O-])cc4)c4nc(c(-c5ccc(S(=O)(=O)[O-])cc5)c5ccc2[nH]5)C=C4)C=C3)cc1)C(F)(F)F
REMARK SMILES IDX 19 1 18 2 17 3 15 4 16 5 2 7 1 8 3 9 4 12 5 13 6 14 7 15
REMARK SMILES IDX 8 17 9 18 14 19 10 20 12 21 11 22 13 23 85 24 86 25 87 26
REMARK SMILES IDX 88 27 20 28 21 29 22 30 23 31 24 33 25 34 26 35 84 36 27 37
REMARK SMILES IDX 83 38 28 39 29 40 30 41 77 42 31 43 82 44 76 45 78 46 32 47
REMARK SMILES IDX 81 48 75 49 74 50 33 52 63 53 44 54 62 55 45 56 48 57 61 58
REMARK SMILES IDX 79 59 46 60 47 61 60 63 80 64 49 65 34 66 35 67 43 68 36 69
REMARK SMILES IDX 42 70 37 71 38 72 39 73 40 74 41 75 64 76 65 77 73 78 66 79
REMARK SMILES IDX 72 80 67 81 68 82 69 83 70 84 71 85 50 86 51 87 59 88 52 89
REMARK SMILES IDX 58 90 53 91 54 92 55 93 56 94 57 95
REMARK H PARENT 17 6 3 10 3 11 7 16 22 32 78 51 48 62
REMARK Flexibility Score: inf
ROOT
ATOM      1  C   UNL     1      -1.073  -1.229  -2.905  1.00  0.00     0.023 C 
ENDROOT
BRANCH   1   2
ATOM      2  C   UNL     1      -0.666   0.243  -2.879  1.00  0.00     0.116 C 
BRANCH   2   3
ATOM      3  N   UNL     1      -0.968   0.761  -1.571  1.00  0.00    -0.350 N 
ATOM      4  C   UNL     1      -0.270   1.269  -0.530  1.00  0.00     0.290 C 
ATOM      5  O   UNL     1      -1.103   1.822   0.189  1.00  0.00    -0.267 OA
ATOM      6  H   UNL     1      -1.934   0.739  -1.385  1.00  0.00     0.163 HD
BRANCH   4   7
ATOM      7  C   UNL     1       1.321   1.512  -0.470  1.00  0.00     0.268 C 
ATOM      8  C   UNL     1       1.920   0.218  -1.093  1.00  0.00     0.101 C 
BRANCH   7   9
ATOM      9  N   UNL     1       1.374   2.863  -1.139  1.00  0.00    -0.318 N 
ATOM     10  H   UNL     1       1.069   2.767  -2.107  1.00  0.00     0.347 HD
ATOM     11  H   UNL     1       2.333   3.207  -1.097  1.00  0.00     0.347 HD
BRANCH   9  12
ATOM     12  C   UNL     1       0.457   3.877  -0.420  1.00  0.00     0.363 C 
BRANCH  12  13
ATOM     13  C   UNL     1       0.555   4.171   1.131  1.00  0.00     0.279 C 
ATOM     14  O   UNL     1       1.132   5.239   1.432  1.00  0.00    -0.268 OA
ATOM     15  N   UNL     1       0.077   3.511   2.247  1.00  0.00    -0.321 N 
ATOM     16  H   UNL     1       0.455   3.906   3.065  1.00  0.00     0.170 HD
BRANCH  15  17
ATOM     17  C   UNL     1      -0.794   2.435   2.576  1.00  0.00     0.044 A 
ATOM     18  C   UNL     1      -0.471   1.069   2.487  1.00  0.00     0.026 A 
ATOM     19  C   UNL     1      -2.034   2.736   3.134  1.00  0.00     0.065 A 
ATOM     20  C   UNL     1      -1.413   0.047   2.693  1.00  0.00     0.005 A 
ATOM     21  C   UNL     1      -2.962   1.716   3.387  1.00  0.00     0.125 A 
ATOM     22  C   UNL     1      -2.681   0.380   3.128  1.00  0.00     0.039 A 
ATOM     23  F   UNL     1      -4.166   2.037   3.879  1.00  0.00    -0.207 F 
ENDBRANCH  15  17
ENDBRANCH  12  13
ENDBRANCH   9  12
ENDBRANCH   7   9
BRANCH   7  24
ATOM     24  C   UNL     1       2.385   1.645   0.724  1.00  0.00     0.453 C 
ATOM     25  F   UNL     1       2.326   0.715   1.690  1.00  0.00    -0.164 F 
ATOM     26  F   UNL     1       3.645   1.491   0.183  1.00  0.00    -0.164 F 
ATOM     27  F   UNL     1       2.476   2.852   1.309  1.00  0.00    -0.164 F 
ENDBRANCH   7  24
ENDBRANCH   4   7
ENDBRANCH   2   3
ENDBRANCH   1   2
BRANCH   1  28
ATOM     28  C   UNL     1      -2.595  -1.440  -2.898  1.00  0.00     0.023 C 
BRANCH  28  29
ATOM     29  C   UNL     1      -3.340  -0.694  -4.001  1.00  0.00     0.116 C 
BRANCH  29  30
ATOM     30  N   UNL     1      -2.722  -0.892  -5.306  1.00  0.00    -0.352 N 
ATOM     31  C   UNL     1      -3.311  -1.199  -6.500  1.00  0.00     0.251 C 
ATOM     32  H   UNL     1      -1.743  -0.790  -5.330  1.00  0.00     0.163 HD
ATOM     33  O   UNL     1      -2.616  -1.517  -7.466  1.00  0.00    -0.269 OA
BRANCH  31  34
ATOM     34  C   UNL     1      -4.777  -1.166  -6.607  1.00  0.00     0.039 A 
ATOM     35  C   UNL     1      -5.436  -2.246  -7.193  1.00  0.00     0.014 A 
ATOM     36  C   UNL     1      -5.495  -0.078  -6.100  1.00  0.00     0.014 A 
ATOM     37  C   UNL     1      -6.829  -2.260  -7.222  1.00  0.00     0.010 A 
ATOM     38  C   UNL     1      -6.882  -0.131  -6.061  1.00  0.00     0.010 A 
ATOM     39  C   UNL     1      -7.562  -1.219  -6.628  1.00  0.00    -0.014 A 
BRANCH  39  40
ATOM     40  C   UNL     1      -9.044  -1.252  -6.591  1.00  0.00     0.031 A 
ATOM     41  C   UNL     1      -9.838  -0.200  -7.313  1.00  0.00     0.074 A 
ATOM     42  C   UNL     1      -9.667  -2.199  -5.862  1.00  0.00     0.049 A 
ATOM     43  N   UNL     1     -11.135  -0.036  -7.359  1.00  0.00    -0.248 NA
ATOM     44  C   UNL     1      -9.078   0.815  -8.060  1.00  0.00     0.031 C 
ATOM     45  C   UNL     1      -9.000  -3.246  -5.083  1.00  0.00     0.029 A 
ATOM     46  N   UNL     1     -11.003  -2.430  -5.651  1.00  0.00    -0.354 N 
ATOM     47  C   UNL     1     -11.344   1.102  -8.129  1.00  0.00     0.074 A 
ATOM     48  C   UNL     1     -10.041   1.622  -8.479  1.00  0.00     0.031 C 
ATOM     49  C   UNL     1      -9.930  -4.023  -4.505  1.00  0.00     0.029 A 
ATOM     50  C   UNL     1     -11.254  -3.505  -4.832  1.00  0.00     0.049 A 
ATOM     51  H   UNL     1     -11.714  -1.878  -6.049  1.00  0.00     0.167 HD
ATOM     52  C   UNL     1     -12.516   1.651  -8.527  1.00  0.00     0.031 A 
ATOM     53  C   UNL     1     -12.420  -4.012  -4.386  1.00  0.00     0.031 A 
ATOM     54  C   UNL     1     -13.809   1.126  -8.175  1.00  0.00     0.049 A 
ATOM     55  C   UNL     1     -13.708  -3.372  -4.826  1.00  0.00     0.074 A 
ATOM     56  C   UNL     1     -15.056   1.581  -8.565  1.00  0.00     0.029 A 
ATOM     57  N   UNL     1     -14.021   0.032  -7.349  1.00  0.00    -0.354 N 
ATOM     58  N   UNL     1     -13.887  -2.335  -5.609  1.00  0.00    -0.248 NA
ATOM     59  C   UNL     1     -14.952  -3.979  -4.333  1.00  0.00     0.031 C 
ATOM     60  C   UNL     1     -16.024   0.799  -7.927  1.00  0.00     0.029 A 
ATOM     61  C   UNL     1     -15.380  -0.187  -7.196  1.00  0.00     0.049 A 
ATOM     62  H   UNL     1     -13.311  -0.508  -6.933  1.00  0.00     0.167 HD
ATOM     63  C   UNL     1     -15.264  -2.182  -5.725  1.00  0.00     0.074 A 
ATOM     64  C   UNL     1     -15.869  -3.244  -4.947  1.00  0.00     0.031 C 
ATOM     65  C   UNL     1     -15.965  -1.249  -6.415  1.00  0.00     0.031 A 
BRANCH  52  66
ATOM     66  C   UNL     1     -12.449   2.886  -9.387  1.00  0.00    -0.014 A 
ATOM     67  C   UNL     1     -11.962   2.828 -10.706  1.00  0.00     0.010 A 
ATOM     68  C   UNL     1     -12.914   4.115  -8.885  1.00  0.00     0.010 A 
ATOM     69  C   UNL     1     -11.901   3.983 -11.491  1.00  0.00     0.020 A 
ATOM     70  C   UNL     1     -12.884   5.267  -9.678  1.00  0.00     0.020 A 
ATOM     71  C   UNL     1     -12.362   5.195 -10.970  1.00  0.00     0.054 A 
BRANCH  71  72
ATOM     72  S   UNL     1     -12.292   6.671 -12.022  1.00  0.00     0.124 S 
ATOM     73  O   UNL     1     -10.857   6.940 -12.069  1.00  0.00    -0.237 OA
ATOM     74  O   UNL     1     -12.884   6.201 -13.272  1.00  0.00    -0.237 OA
ATOM     75  O   UNL     1     -13.086   7.656 -11.291  1.00  0.00    -0.744 OA
ENDBRANCH  71  72
ENDBRANCH  52  66
BRANCH  53  76
ATOM     76  C   UNL     1     -12.417  -5.191  -3.477  1.00  0.00    -0.014 A 
ATOM     77  C   UNL     1     -12.889  -6.440  -3.920  1.00  0.00     0.010 A 
ATOM     78  C   UNL     1     -11.928  -5.074  -2.163  1.00  0.00     0.010 A 
ATOM     79  C   UNL     1     -12.890  -7.542  -3.060  1.00  0.00     0.020 A 
ATOM     80  C   UNL     1     -11.898  -6.181  -1.310  1.00  0.00     0.020 A 
ATOM     81  C   UNL     1     -12.391  -7.406  -1.761  1.00  0.00     0.054 A 
BRANCH  81  82
ATOM     82  S   UNL     1     -12.357  -8.862  -0.679  1.00  0.00     0.124 S 
ATOM     83  O   UNL     1     -13.771  -9.043  -0.368  1.00  0.00    -0.237 OA
ATOM     84  O   UNL     1     -11.762  -9.880  -1.542  1.00  0.00    -0.237 OA
ATOM     85  O   UNL     1     -11.518  -8.438   0.439  1.00  0.00    -0.744 OA
ENDBRANCH  81  82
ENDBRANCH  53  76
BRANCH  65  86
ATOM     86  C   UNL     1     -17.468  -1.352  -6.393  1.00  0.00    -0.014 A 
ATOM     87  C   UNL     1     -18.205  -1.055  -5.233  1.00  0.00     0.010 A 
ATOM     88  C   UNL     1     -18.155  -1.697  -7.572  1.00  0.00     0.010 A 
ATOM     89  C   UNL     1     -19.600  -1.134  -5.244  1.00  0.00     0.020 A 
ATOM     90  C   UNL     1     -19.550  -1.746  -7.595  1.00  0.00     0.020 A 
ATOM     91  C   UNL     1     -20.264  -1.477  -6.426  1.00  0.00     0.054 A 
BRANCH  91  92
ATOM     92  S   UNL     1     -22.077  -1.528  -6.425  1.00  0.00     0.124 S 
ATOM     93  O   UNL     1     -22.347  -2.733  -5.646  1.00  0.00    -0.237 OA
ATOM     94  O   UNL     1     -22.431  -0.268  -5.777  1.00  0.00    -0.237 OA
ATOM     95  O   UNL     1     -22.423  -1.612  -7.842  1.00  0.00    -0.744 OA
ENDBRANCH  91  92
ENDBRANCH  65  86
ENDBRANCH  39  40
ENDBRANCH  31  34
ENDBRANCH  29  30
ENDBRANCH  28  29
ENDBRANCH   1  28
TORSDOF 19
