REMARK SMILES CCCCCCNC(=O)Oc1cccc(-c2ccc([C@H](C)C(=O)NCCCCNC(=O)c3ccc(-c4c5nc(c(-c6ccc(S(=O)(=O)[O-])cc6)c6ccc([nH]6)c(-c6ccc(S(=O)(=O)[O-])cc6)c6nc(c(-c7ccc(S(=O)(=O)[O-])cc7)c7ccc4[nH]7)C=C6)C=C5)cc3)cc2F)c1
REMARK SMILES IDX 20 1 21 2 19 3 16 4 17 5 93 6 18 7 92 8 94 9 15 10 11 11
REMARK SMILES IDX 12 12 95 13 13 14 14 15 10 16 8 17 7 18 9 20 6 21 5 22 4 23
REMARK SMILES IDX 3 24 2 25 1 26 22 27 23 28 24 29 25 31 26 32 27 33 28 34
REMARK SMILES IDX 29 35 30 36 31 38 32 39 33 40 91 41 34 42 90 43 35 44 36 45
REMARK SMILES IDX 37 46 84 47 38 48 89 49 83 50 85 51 39 52 88 53 82 54 81 55
REMARK SMILES IDX 40 57 70 58 51 59 69 60 52 61 55 62 68 63 86 64 53 65 54 66
REMARK SMILES IDX 67 68 87 69 56 70 41 71 42 72 50 73 43 74 49 75 44 76 45 77
REMARK SMILES IDX 46 78 47 79 48 80 71 81 72 82 80 83 73 84 79 85 74 86 75 87
REMARK SMILES IDX 76 88 77 89 78 90 57 91 58 92 66 93 59 94 65 95 60 96 61 97
REMARK SMILES IDX 62 98 63 99 64 100
REMARK H PARENT 7 19 24 30 29 37 85 56 55 67
REMARK Flexibility Score: inf
ROOT
ATOM      1  C   UNL     1      -4.458   2.947 -13.473  1.00  0.00     0.105 C 
ATOM      2  C   UNL     1      -4.773   2.816 -11.975  1.00  0.00     0.023 C 
ENDROOT
BRANCH   1   3
ATOM      3  C   UNL     1      -5.655   3.375 -14.314  1.00  0.00    -0.033 A 
ATOM      4  C   UNL     1      -8.010   4.218 -15.702  1.00  0.00     0.018 A 
ATOM      5  C   UNL     1      -6.807   4.932 -15.796  1.00  0.00     0.012 A 
ATOM      6  C   UNL     1      -7.979   3.030 -14.959  1.00  0.00     0.131 A 
ATOM      7  C   UNL     1      -5.646   4.497 -15.149  1.00  0.00     0.005 A 
ATOM      8  C   UNL     1      -6.834   2.617 -14.272  1.00  0.00     0.044 A 
ATOM      9  F   UNL     1      -9.067   2.248 -14.877  1.00  0.00    -0.206 F 
BRANCH   4  10
ATOM     10  C   UNL     1      -9.241   4.734 -16.332  1.00  0.00    -0.012 A 
ATOM     11  C   UNL     1     -11.622   5.215 -16.244  1.00  0.00     0.133 A 
ATOM     12  C   UNL     1     -11.582   5.819 -17.496  1.00  0.00     0.047 A 
ATOM     13  C   UNL     1     -10.476   4.667 -15.667  1.00  0.00     0.056 A 
ATOM     14  C   UNL     1     -10.370   5.894 -18.173  1.00  0.00     0.004 A 
ATOM     15  C   UNL     1      -9.215   5.353 -17.598  1.00  0.00     0.009 A 
BRANCH  11  16
ATOM     16  O   UNL     1     -12.880   5.077 -15.640  1.00  0.00    -0.410 OA
BRANCH  16  17
ATOM     17  C   UNL     1     -13.031   5.515 -14.335  1.00  0.00     0.412 C 
ATOM     18  N   UNL     1     -14.266   5.244 -13.820  1.00  0.00    -0.321 N 
ATOM     19  H   UNL     1     -14.442   5.556 -12.903  1.00  0.00     0.167 HD
ATOM     20  O   UNL     1     -12.185   6.100 -13.661  1.00  0.00    -0.224 OA
BRANCH  18  21
ATOM     21  C   UNL     1     -15.343   4.543 -14.489  1.00  0.00     0.119 C 
BRANCH  21  22
ATOM     22  C   UNL     1     -15.753   3.278 -13.735  1.00  0.00     0.021 C 
BRANCH  22  23
ATOM     23  C   UNL     1     -16.343   3.526 -12.341  1.00  0.00     0.002 C 
BRANCH  23  24
ATOM     24  C   UNL     1     -17.587   4.421 -12.304  1.00  0.00    -0.000 C 
BRANCH  24  25
ATOM     25  C   UNL     1     -18.771   3.933 -13.142  1.00  0.00    -0.003 C 
ATOM     26  C   UNL     1     -19.323   2.594 -12.679  1.00  0.00     0.004 C 
ENDBRANCH  24  25
ENDBRANCH  23  24
ENDBRANCH  22  23
ENDBRANCH  21  22
ENDBRANCH  18  21
ENDBRANCH  16  17
ENDBRANCH  11  16
ENDBRANCH   4  10
ENDBRANCH   1   3
BRANCH   1  27
ATOM     27  C   UNL     1      -3.159   3.729 -13.684  1.00  0.00     0.227 C 
ATOM     28  O   UNL     1      -2.184   3.187 -14.214  1.00  0.00    -0.274 OA
ATOM     29  N   UNL     1      -3.012   5.025 -13.287  1.00  0.00    -0.356 N 
ATOM     30  H   UNL     1      -2.091   5.370 -13.335  1.00  0.00     0.163 HD
BRANCH  29  31
ATOM     31  C   UNL     1      -3.995   5.979 -12.803  1.00  0.00     0.116 C 
BRANCH  31  32
ATOM     32  C   UNL     1      -3.477   6.804 -11.633  1.00  0.00     0.023 C 
BRANCH  32  33
ATOM     33  C   UNL     1      -2.324   7.747 -11.982  1.00  0.00     0.023 C 
BRANCH  33  34
ATOM     34  C   UNL     1      -2.580   8.692 -13.153  1.00  0.00     0.116 C 
BRANCH  34  35
ATOM     35  N   UNL     1      -3.738   9.550 -12.951  1.00  0.00    -0.352 N 
ATOM     36  C   UNL     1      -3.831  10.916 -13.086  1.00  0.00     0.251 C 
ATOM     37  H   UNL     1      -4.567   9.092 -12.683  1.00  0.00     0.163 HD
ATOM     38  O   UNL     1      -4.851  11.505 -12.745  1.00  0.00    -0.269 OA
BRANCH  36  39
ATOM     39  C   UNL     1      -2.674  11.669 -13.613  1.00  0.00     0.039 A 
ATOM     40  C   UNL     1      -2.201  12.773 -12.900  1.00  0.00     0.014 A 
ATOM     41  C   UNL     1      -2.030  11.250 -14.780  1.00  0.00     0.014 A 
ATOM     42  C   UNL     1      -1.032  13.412 -13.319  1.00  0.00     0.010 A 
ATOM     43  C   UNL     1      -0.826  11.840 -15.150  1.00  0.00     0.010 A 
ATOM     44  C   UNL     1      -0.311  12.924 -14.422  1.00  0.00    -0.014 A 
BRANCH  44  45
ATOM     45  C   UNL     1       0.984  13.528 -14.829  1.00  0.00     0.031 A 
ATOM     46  C   UNL     1       1.120  14.176 -16.181  1.00  0.00     0.074 A 
ATOM     47  C   UNL     1       2.054  13.436 -14.012  1.00  0.00     0.049 A 
ATOM     48  N   UNL     1       2.183  14.685 -16.747  1.00  0.00    -0.248 NA
ATOM     49  C   UNL     1      -0.092  14.238 -17.015  1.00  0.00     0.031 C 
ATOM     50  C   UNL     1       2.062  12.801 -12.691  1.00  0.00     0.029 A 
ATOM     51  N   UNL     1       3.346  13.870 -14.176  1.00  0.00    -0.354 N 
ATOM     52  C   UNL     1       1.774  15.113 -18.004  1.00  0.00     0.074 A 
ATOM     53  C   UNL     1       0.379  14.757 -18.140  1.00  0.00     0.031 C 
ATOM     54  C   UNL     1       3.290  12.911 -12.157  1.00  0.00     0.029 A 
ATOM     55  C   UNL     1       4.168  13.581 -13.111  1.00  0.00     0.049 A 
ATOM     56  H   UNL     1       3.656  14.345 -14.981  1.00  0.00     0.167 HD
ATOM     57  C   UNL     1       2.487  15.765 -18.953  1.00  0.00     0.031 A 
ATOM     58  C   UNL     1       5.481  13.819 -12.926  1.00  0.00     0.031 A 
ATOM     59  C   UNL     1       3.871  16.131 -18.811  1.00  0.00     0.049 A 
ATOM     60  C   UNL     1       6.257  14.527 -14.006  1.00  0.00     0.074 A 
ATOM     61  C   UNL     1       4.669  16.833 -19.698  1.00  0.00     0.029 A 
ATOM     62  N   UNL     1       4.662  15.829 -17.713  1.00  0.00    -0.354 N 
ATOM     63  N   UNL     1       5.835  14.974 -15.165  1.00  0.00    -0.248 NA
ATOM     64  C   UNL     1       7.683  14.772 -13.748  1.00  0.00     0.031 C 
ATOM     65  C   UNL     1       5.957  16.912 -19.158  1.00  0.00     0.029 A 
ATOM     66  C   UNL     1       5.944  16.314 -17.908  1.00  0.00     0.049 A 
ATOM     67  H   UNL     1       4.357  15.342 -16.914  1.00  0.00     0.167 HD
ATOM     68  C   UNL     1       6.936  15.584 -15.757  1.00  0.00     0.074 A 
ATOM     69  C   UNL     1       8.037  15.459 -14.825  1.00  0.00     0.031 C 
ATOM     70  C   UNL     1       7.027  16.193 -16.965  1.00  0.00     0.031 A 
BRANCH  57  71
ATOM     71  C   UNL     1       1.780  16.132 -20.231  1.00  0.00    -0.014 A 
ATOM     72  C   UNL     1       0.792  17.133 -20.249  1.00  0.00     0.010 A 
ATOM     73  C   UNL     1       2.149  15.513 -21.439  1.00  0.00     0.010 A 
ATOM     74  C   UNL     1       0.162  17.485 -21.446  1.00  0.00     0.020 A 
ATOM     75  C   UNL     1       1.542  15.883 -22.643  1.00  0.00     0.020 A 
ATOM     76  C   UNL     1       0.543  16.858 -22.636  1.00  0.00     0.054 A 
BRANCH  76  77
ATOM     77  S   UNL     1      -0.263  17.366 -24.179  1.00  0.00     0.124 S 
ATOM     78  O   UNL     1      -1.601  16.801 -24.020  1.00  0.00    -0.237 OA
ATOM     79  O   UNL     1      -0.185  18.823 -24.115  1.00  0.00    -0.237 OA
ATOM     80  O   UNL     1       0.554  16.747 -25.219  1.00  0.00    -0.744 OA
ENDBRANCH  76  77
ENDBRANCH  57  71
BRANCH  58  81
ATOM     81  C   UNL     1       6.153  13.392 -11.666  1.00  0.00    -0.014 A 
ATOM     82  C   UNL     1       6.618  14.347 -10.744  1.00  0.00     0.010 A 
ATOM     83  C   UNL     1       6.348  12.027 -11.390  1.00  0.00     0.010 A 
ATOM     84  C   UNL     1       7.294  13.947  -9.588  1.00  0.00     0.020 A 
ATOM     85  C   UNL     1       6.995  11.621 -10.219  1.00  0.00     0.020 A 
ATOM     86  C   UNL     1       7.480  12.585  -9.334  1.00  0.00     0.054 A 
BRANCH  86  87
ATOM     87  S   UNL     1       8.339  12.088  -7.814  1.00  0.00     0.124 S 
ATOM     88  O   UNL     1       9.723  12.433  -8.122  1.00  0.00    -0.237 OA
ATOM     89  O   UNL     1       7.690  12.914  -6.800  1.00  0.00    -0.237 OA
ATOM     90  O   UNL     1       8.056  10.657  -7.716  1.00  0.00    -0.744 OA
ENDBRANCH  86  87
ENDBRANCH  58  81
BRANCH  70  91
ATOM     91  C   UNL     1       8.345  16.820 -17.332  1.00  0.00    -0.014 A 
ATOM     92  C   UNL     1       9.463  16.035 -17.664  1.00  0.00     0.010 A 
ATOM     93  C   UNL     1       8.445  18.222 -17.408  1.00  0.00     0.010 A 
ATOM     94  C   UNL     1      10.665  16.642 -18.038  1.00  0.00     0.020 A 
ATOM     95  C   UNL     1       9.636  18.831 -17.809  1.00  0.00     0.020 A 
ATOM     96  C   UNL     1      10.744  18.036 -18.109  1.00  0.00     0.054 A 
BRANCH  96  97
ATOM     97  S   UNL     1      12.300  18.797 -18.646  1.00  0.00     0.124 S 
ATOM     98  O   UNL     1      13.156  18.594 -17.481  1.00  0.00    -0.237 OA
ATOM     99  O   UNL     1      12.650  18.011 -19.827  1.00  0.00    -0.237 OA
ATOM    100  O   UNL     1      11.933  20.185 -18.916  1.00  0.00    -0.744 OA
ENDBRANCH  96  97
ENDBRANCH  70  91
ENDBRANCH  44  45
ENDBRANCH  36  39
ENDBRANCH  34  35
ENDBRANCH  33  34
ENDBRANCH  32  33
ENDBRANCH  31  32
ENDBRANCH  29  31
ENDBRANCH   1  27
TORSDOF 23
