REMARK SMILES CC(C)COc1cccc(N2C[C@@H](C(=O)NCCCCNC(=O)c3ccc(-c4c5nc(c(-c6ccc(S(=O)(=O)[O-])cc6)c6ccc([nH]6)c(-c6ccc(S(=O)(=O)[O-])cc6)c6nc(c(-c7ccc(S(=O)(=O)[O-])cc7)c7ccc4[nH]7)C=C6)C=C5)cc3)CC2=O)c1
REMARK SMILES IDX 18 1 17 2 16 3 14 4 15 5 13 7 11 8 12 9 85 10 84 11 86 12
REMARK SMILES IDX 10 13 6 14 7 15 87 16 8 17 9 18 5 19 4 20 2 21 1 22 3 23
REMARK SMILES IDX 19 24 20 25 21 26 22 27 23 29 24 30 25 31 83 32 26 33 82 34
REMARK SMILES IDX 27 35 28 36 29 37 76 38 30 39 81 40 75 41 77 42 31 43 80 44
REMARK SMILES IDX 74 45 73 46 32 48 62 49 43 50 61 51 44 52 47 53 60 54 78 55
REMARK SMILES IDX 45 56 46 57 59 59 79 60 48 61 33 62 34 63 42 64 35 65 41 66
REMARK SMILES IDX 36 67 37 68 38 69 39 70 40 71 63 72 64 73 72 74 65 75 71 76
REMARK SMILES IDX 66 77 67 78 68 79 69 80 70 81 49 82 50 83 58 84 51 85 57 86
REMARK SMILES IDX 52 87 53 88 54 89 55 90 56 91
REMARK H PARENT 16 6 21 28 77 47 47 58
REMARK Flexibility Score: inf
ROOT
ATOM      1  C   UNL     1       5.279   1.772  -0.008  1.00  0.00     0.023 C 
ENDROOT
BRANCH   1   2
ATOM      2  C   UNL     1       4.186   2.330  -0.921  1.00  0.00     0.116 C 
BRANCH   2   3
ATOM      3  N   UNL     1       4.720   2.914  -2.139  1.00  0.00    -0.356 N 
ATOM      4  C   UNL     1       4.606   2.559  -3.444  1.00  0.00     0.225 C 
ATOM      5  O   UNL     1       5.131   3.304  -4.277  1.00  0.00    -0.275 OA
ATOM      6  H   UNL     1       5.267   3.719  -1.990  1.00  0.00     0.163 HD
BRANCH   4   7
ATOM      7  C   UNL     1       3.853   1.332  -3.920  1.00  0.00     0.107 C 
ATOM      8  N   UNL     1       1.931   0.093  -3.360  1.00  0.00    -0.311 N 
ATOM      9  C   UNL     1       2.354   1.429  -3.712  1.00  0.00     0.139 C 
ATOM     10  C   UNL     1       3.011  -0.737  -3.062  1.00  0.00     0.227 C 
ATOM     11  C   UNL     1       4.290   0.017  -3.300  1.00  0.00     0.116 C 
ATOM     12  O   UNL     1       2.993  -1.897  -2.667  1.00  0.00    -0.274 OA
BRANCH   8  13
ATOM     13  C   UNL     1       0.574  -0.190  -3.063  1.00  0.00     0.047 A 
ATOM     14  C   UNL     1      -1.031  -1.005  -1.456  1.00  0.00     0.121 A 
ATOM     15  C   UNL     1      -2.077  -0.399  -2.140  1.00  0.00     0.046 A 
ATOM     16  C   UNL     1       0.258  -1.012  -1.982  1.00  0.00     0.072 A 
ATOM     17  C   UNL     1      -1.797   0.314  -3.304  1.00  0.00     0.006 A 
ATOM     18  C   UNL     1      -0.472   0.462  -3.732  1.00  0.00     0.026 A 
BRANCH  14  19
ATOM     19  O   UNL     1      -1.236  -1.561  -0.222  1.00  0.00    -0.493 OA
BRANCH  19  20
ATOM     20  C   UNL     1      -1.013  -0.596   0.836  1.00  0.00     0.232 C 
BRANCH  20  21
ATOM     21  C   UNL     1       0.477  -0.466   1.233  1.00  0.00     0.020 C 
ATOM     22  C   UNL     1       1.137   0.782   0.632  1.00  0.00     0.011 C 
ATOM     23  C   UNL     1       0.644  -0.379   2.752  1.00  0.00     0.011 C 
ENDBRANCH  20  21
ENDBRANCH  19  20
ENDBRANCH  14  19
ENDBRANCH   8  13
ENDBRANCH   4   7
ENDBRANCH   2   3
ENDBRANCH   1   2
BRANCH   1  24
ATOM     24  C   UNL     1       6.252   2.805   0.564  1.00  0.00     0.023 C 
BRANCH  24  25
ATOM     25  C   UNL     1       5.618   3.949   1.348  1.00  0.00     0.116 C 
BRANCH  25  26
ATOM     26  N   UNL     1       4.838   3.497   2.490  1.00  0.00    -0.352 N 
ATOM     27  C   UNL     1       4.861   3.944   3.791  1.00  0.00     0.251 C 
ATOM     28  H   UNL     1       4.202   2.768   2.305  1.00  0.00     0.163 HD
ATOM     29  O   UNL     1       4.215   3.350   4.650  1.00  0.00    -0.269 OA
BRANCH  27  30
ATOM     30  C   UNL     1       5.686   5.116   4.158  1.00  0.00     0.039 A 
ATOM     31  C   UNL     1       6.484   5.051   5.303  1.00  0.00     0.014 A 
ATOM     32  C   UNL     1       5.687   6.270   3.370  1.00  0.00     0.014 A 
ATOM     33  C   UNL     1       7.335   6.115   5.617  1.00  0.00     0.010 A 
ATOM     34  C   UNL     1       6.593   7.293   3.638  1.00  0.00     0.010 A 
ATOM     35  C   UNL     1       7.426   7.229   4.766  1.00  0.00    -0.014 A 
BRANCH  35  36
ATOM     36  C   UNL     1       8.384   8.334   5.035  1.00  0.00     0.031 A 
ATOM     37  C   UNL     1       7.877   9.729   5.293  1.00  0.00     0.074 A 
ATOM     38  C   UNL     1       9.711   8.099   4.985  1.00  0.00     0.049 A 
ATOM     39  N   UNL     1       8.557  10.831   5.485  1.00  0.00    -0.248 NA
ATOM     40  C   UNL     1       6.417   9.915   5.311  1.00  0.00     0.031 C 
ATOM     41  C   UNL     1      10.332   6.801   4.708  1.00  0.00     0.029 A 
ATOM     42  N   UNL     1      10.779   8.945   5.159  1.00  0.00    -0.354 N 
ATOM     43  C   UNL     1       7.611  11.839   5.631  1.00  0.00     0.074 A 
ATOM     44  C   UNL     1       6.312  11.229   5.449  1.00  0.00     0.031 C 
ATOM     45  C   UNL     1      11.668   6.932   4.760  1.00  0.00     0.029 A 
ATOM     46  C   UNL     1      12.001   8.328   5.026  1.00  0.00     0.049 A 
ATOM     47  H   UNL     1      10.679   9.903   5.360  1.00  0.00     0.167 HD
ATOM     48  C   UNL     1       7.802  13.151   5.911  1.00  0.00     0.031 A 
ATOM     49  C   UNL     1      13.251   8.828   5.101  1.00  0.00     0.031 A 
ATOM     50  C   UNL     1       9.095  13.754   6.098  1.00  0.00     0.049 A 
ATOM     51  C   UNL     1      13.439  10.293   5.391  1.00  0.00     0.074 A 
ATOM     52  C   UNL     1       9.392  15.063   6.436  1.00  0.00     0.029 A 
ATOM     53  N   UNL     1      10.307  13.094   5.959  1.00  0.00    -0.354 N 
ATOM     54  N   UNL     1      12.529  11.216   5.591  1.00  0.00    -0.248 NA
ATOM     55  C   UNL     1      14.822  10.780   5.480  1.00  0.00     0.031 C 
ATOM     56  C   UNL     1      10.782  15.209   6.441  1.00  0.00     0.029 A 
ATOM     57  C   UNL     1      11.353  13.974   6.178  1.00  0.00     0.049 A 
ATOM     58  H   UNL     1      10.408  12.140   5.738  1.00  0.00     0.167 HD
ATOM     59  C   UNL     1      13.231  12.386   5.862  1.00  0.00     0.074 A 
ATOM     60  C   UNL     1      14.639  12.050   5.814  1.00  0.00     0.031 C 
ATOM     61  C   UNL     1      12.752  13.627   6.129  1.00  0.00     0.031 A 
BRANCH  48  62
ATOM     62  C   UNL     1       6.580  14.027   6.024  1.00  0.00    -0.014 A 
ATOM     63  C   UNL     1       5.671  13.876   7.088  1.00  0.00     0.010 A 
ATOM     64  C   UNL     1       6.358  15.043   5.077  1.00  0.00     0.010 A 
ATOM     65  C   UNL     1       4.542  14.694   7.177  1.00  0.00     0.020 A 
ATOM     66  C   UNL     1       5.247  15.885   5.180  1.00  0.00     0.020 A 
ATOM     67  C   UNL     1       4.336  15.693   6.221  1.00  0.00     0.054 A 
BRANCH  67  68
ATOM     68  S   UNL     1       2.873  16.753   6.374  1.00  0.00     0.124 S 
ATOM     69  O   UNL     1       1.795  15.830   6.023  1.00  0.00    -0.237 OA
ATOM     70  O   UNL     1       2.919  17.160   7.776  1.00  0.00    -0.237 OA
ATOM     71  O   UNL     1       3.114  17.822   5.409  1.00  0.00    -0.744 OA
ENDBRANCH  67  68
ENDBRANCH  48  62
BRANCH  49  72
ATOM     72  C   UNL     1      14.425   7.931   4.908  1.00  0.00    -0.014 A 
ATOM     73  C   UNL     1      15.277   7.625   5.984  1.00  0.00     0.010 A 
ATOM     74  C   UNL     1      14.695   7.372   3.645  1.00  0.00     0.010 A 
ATOM     75  C   UNL     1      16.386   6.795   5.797  1.00  0.00     0.020 A 
ATOM     76  C   UNL     1      15.785   6.516   3.461  1.00  0.00     0.020 A 
ATOM     77  C   UNL     1      16.631   6.243   4.537  1.00  0.00     0.054 A 
BRANCH  77  78
ATOM     78  S   UNL     1      18.050   5.130   4.330  1.00  0.00     0.124 S 
ATOM     79  O   UNL     1      19.176   6.055   4.412  1.00  0.00    -0.237 OA
ATOM     80  O   UNL     1      17.897   4.214   5.457  1.00  0.00    -0.237 OA
ATOM     81  O   UNL     1      17.826   4.531   3.016  1.00  0.00    -0.744 OA
ENDBRANCH  77  78
ENDBRANCH  49  72
BRANCH  61  82
ATOM     82  C   UNL     1      13.753  14.710   6.437  1.00  0.00    -0.014 A 
ATOM     83  C   UNL     1      14.590  15.243   5.441  1.00  0.00     0.010 A 
ATOM     84  C   UNL     1      13.815  15.242   7.739  1.00  0.00     0.010 A 
ATOM     85  C   UNL     1      15.492  16.265   5.748  1.00  0.00     0.020 A 
ATOM     86  C   UNL     1      14.691  16.286   8.042  1.00  0.00     0.020 A 
ATOM     87  C   UNL     1      15.535  16.782   7.047  1.00  0.00     0.054 A 
BRANCH  87  88
ATOM     88  S   UNL     1      16.683  18.139   7.408  1.00  0.00     0.124 S 
ATOM     89  O   UNL     1      17.976  17.461   7.379  1.00  0.00    -0.237 OA
ATOM     90  O   UNL     1      16.435  19.068   6.308  1.00  0.00    -0.237 OA
ATOM     91  O   UNL     1      16.258  18.612   8.724  1.00  0.00    -0.744 OA
ENDBRANCH  87  88
ENDBRANCH  61  82
ENDBRANCH  35  36
ENDBRANCH  27  30
ENDBRANCH  25  26
ENDBRANCH  24  25
ENDBRANCH   1  24
TORSDOF 18
