REMARK SMILES N#C/C(=C/c1cc(Br)ccc1OCC(=O)NCCCCNC(=O)c1ccc(-c2c3nc(c(-c4ccc(S(=O)(=O)[O-])cc4)c4ccc([nH]4)c(-c4ccc(S(=O)(=O)[O-])cc4)c4nc(c(-c5ccc(S(=O)(=O)[O-])cc5)c5ccc2[nH]5)C=C4)C=C3)cc1)c1ccc(F)cc1
REMARK SMILES IDX 18 1 17 2 16 3 14 4 15 5 13 7 12 8 11 9 5 10 6 11 7 12 10 13
REMARK SMILES IDX 8 14 9 15 4 16 3 17 2 18 1 19 84 20 85 21 90 22 86 23 89 24
REMARK SMILES IDX 87 25 88 26 19 27 20 28 21 29 22 30 23 32 24 33 25 34 83 35
REMARK SMILES IDX 26 36 82 37 27 38 28 39 29 40 76 41 30 42 81 43 75 44 77 45
REMARK SMILES IDX 31 46 80 47 74 48 73 49 32 51 62 52 43 53 61 54 44 55 47 56
REMARK SMILES IDX 60 57 78 58 45 59 46 60 59 62 79 63 48 64 33 65 34 66 42 67
REMARK SMILES IDX 35 68 41 69 36 70 37 71 38 72 39 73 40 74 63 75 64 76 72 77
REMARK SMILES IDX 65 78 71 79 66 80 67 81 68 82 69 83 70 84 49 85 50 86 58 87
REMARK SMILES IDX 51 88 57 89 52 90 53 91 54 92 55 93 56 94
REMARK H PARENT 16 6 21 31 77 50 47 61
REMARK Flexibility Score: inf
ROOT
ATOM      1  C   UNL     1       6.689  -5.372  -2.033  1.00  0.00     0.023 C 
ENDROOT
BRANCH   1   2
ATOM      2  C   UNL     1       5.512  -5.034  -2.943  1.00  0.00     0.116 C 
BRANCH   2   3
ATOM      3  N   UNL     1       4.347  -4.560  -2.230  1.00  0.00    -0.353 N 
ATOM      4  C   UNL     1       3.788  -3.320  -2.280  1.00  0.00     0.257 C 
ATOM      5  O   UNL     1       2.647  -3.176  -1.834  1.00  0.00    -0.271 OA
ATOM      6  H   UNL     1       3.907  -5.211  -1.638  1.00  0.00     0.163 HD
BRANCH   4   7
ATOM      7  C   UNL     1       4.556  -2.141  -2.893  1.00  0.00     0.329 C 
BRANCH   7   8
ATOM      8  O   UNL     1       5.943  -2.012  -2.660  1.00  0.00    -0.483 OA
BRANCH   8   9
ATOM      9  C   UNL     1       6.489  -1.680  -1.453  1.00  0.00     0.127 A 
ATOM     10  C   UNL     1       5.873  -1.380  -0.224  1.00  0.00     0.019 A 
ATOM     11  C   UNL     1       6.681  -1.100   0.899  1.00  0.00     0.027 A 
ATOM     12  C   UNL     1       8.069  -1.044   0.784  1.00  0.00     0.018 A 
ATOM     13  C   UNL     1       7.893  -1.638  -1.533  1.00  0.00     0.048 A 
ATOM     14  Br  UNL     1       9.120  -0.543   2.272  1.00  0.00    -0.051 Br
ATOM     15  C   UNL     1       8.681  -1.310  -0.432  1.00  0.00     0.019 A 
BRANCH  10  16
ATOM     16  C   UNL     1       4.420  -1.229  -0.071  1.00  0.00     0.032 C 
ATOM     17  C   UNL     1       3.757  -0.065   0.072  1.00  0.00     0.060 C 
BRANCH  17  18
ATOM     18  C   UNL     1       2.237  -0.065   0.072  1.00  0.00     0.100 C 
ATOM     19  N   UNL     1       0.976  -0.065   0.072  1.00  0.00    -0.192 NA
ENDBRANCH  17  18
BRANCH  17  20
ATOM     20  C   UNL     1       4.428   1.181   0.526  1.00  0.00    -0.008 A 
ATOM     21  C   UNL     1       5.482   1.786  -0.174  1.00  0.00     0.012 A 
ATOM     22  C   UNL     1       4.079   1.690   1.795  1.00  0.00     0.012 A 
ATOM     23  C   UNL     1       6.211   2.827   0.412  1.00  0.00     0.040 A 
ATOM     24  C   UNL     1       4.796   2.741   2.368  1.00  0.00     0.040 A 
ATOM     25  C   UNL     1       5.867   3.288   1.678  1.00  0.00     0.123 A 
ATOM     26  F   UNL     1       6.588   4.263   2.246  1.00  0.00    -0.207 F 
ENDBRANCH  17  20
ENDBRANCH  10  16
ENDBRANCH   8   9
ENDBRANCH   7   8
ENDBRANCH   4   7
ENDBRANCH   2   3
ENDBRANCH   1   2
BRANCH   1  27
ATOM     27  C   UNL     1       6.417  -6.418  -0.951  1.00  0.00     0.023 C 
BRANCH  27  28
ATOM     28  C   UNL     1       5.704  -7.681  -1.414  1.00  0.00     0.116 C 
BRANCH  28  29
ATOM     29  N   UNL     1       6.382  -8.347  -2.512  1.00  0.00    -0.352 N 
ATOM     30  C   UNL     1       6.630  -9.684  -2.704  1.00  0.00     0.251 C 
ATOM     31  H   UNL     1       6.712  -7.752  -3.224  1.00  0.00     0.163 HD
ATOM     32  O   UNL     1       7.327 -10.034  -3.651  1.00  0.00    -0.269 OA
BRANCH  30  33
ATOM     33  C   UNL     1       6.087 -10.691  -1.765  1.00  0.00     0.039 A 
ATOM     34  C   UNL     1       6.902 -11.765  -1.397  1.00  0.00     0.014 A 
ATOM     35  C   UNL     1       4.784 -10.604  -1.268  1.00  0.00     0.014 A 
ATOM     36  C   UNL     1       6.421 -12.730  -0.510  1.00  0.00     0.010 A 
ATOM     37  C   UNL     1       4.338 -11.517  -0.316  1.00  0.00     0.010 A 
ATOM     38  C   UNL     1       5.139 -12.607   0.052  1.00  0.00    -0.014 A 
BRANCH  38  39
ATOM     39  C   UNL     1       4.611 -13.642   0.978  1.00  0.00     0.031 A 
ATOM     40  C   UNL     1       3.405 -14.459   0.586  1.00  0.00     0.074 A 
ATOM     41  C   UNL     1       5.198 -13.837   2.175  1.00  0.00     0.049 A 
ATOM     42  N   UNL     1       2.804 -15.413   1.250  1.00  0.00    -0.248 NA
ATOM     43  C   UNL     1       2.779 -14.149  -0.710  1.00  0.00     0.031 C 
ATOM     44  C   UNL     1       6.343 -13.083   2.691  1.00  0.00     0.029 A 
ATOM     45  N   UNL     1       4.916 -14.735   3.175  1.00  0.00    -0.354 N 
ATOM     46  C   UNL     1       1.727 -15.803   0.462  1.00  0.00     0.074 A 
ATOM     47  C   UNL     1       1.719 -14.943  -0.699  1.00  0.00     0.031 C 
ATOM     48  C   UNL     1       6.689 -13.575   3.892  1.00  0.00     0.029 A 
ATOM     49  C   UNL     1       5.771 -14.653   4.249  1.00  0.00     0.049 A 
ATOM     50  H   UNL     1       4.171 -15.377   3.127  1.00  0.00     0.167 HD
ATOM     51  C   UNL     1       0.839 -16.805   0.669  1.00  0.00     0.031 A 
ATOM     52  C   UNL     1       5.815 -15.368   5.389  1.00  0.00     0.031 A 
ATOM     53  C   UNL     1       0.856 -17.670   1.818  1.00  0.00     0.049 A 
ATOM     54  C   UNL     1       4.821 -16.480   5.594  1.00  0.00     0.074 A 
ATOM     55  C   UNL     1       0.032 -18.745   2.099  1.00  0.00     0.029 A 
ATOM     56  N   UNL     1       1.745 -17.561   2.877  1.00  0.00    -0.354 N 
ATOM     57  N   UNL     1       3.849 -16.875   4.806  1.00  0.00    -0.248 NA
ATOM     58  C   UNL     1       4.949 -17.261   6.832  1.00  0.00     0.031 C 
ATOM     59  C   UNL     1       0.388 -19.253   3.353  1.00  0.00     0.029 A 
ATOM     60  C   UNL     1       1.480 -18.539   3.820  1.00  0.00     0.049 A 
ATOM     61  H   UNL     1       2.460 -16.887   2.947  1.00  0.00     0.167 HD
ATOM     62  C   UNL     1       3.274 -17.975   5.436  1.00  0.00     0.074 A 
ATOM     63  C   UNL     1       4.019 -18.189   6.660  1.00  0.00     0.031 C 
ATOM     64  C   UNL     1       2.230 -18.742   5.034  1.00  0.00     0.031 A 
BRANCH  51  65
ATOM     65  C   UNL     1      -0.230 -17.017  -0.374  1.00  0.00    -0.014 A 
ATOM     66  C   UNL     1       0.089 -17.493  -1.659  1.00  0.00     0.010 A 
ATOM     67  C   UNL     1      -1.578 -16.775  -0.052  1.00  0.00     0.010 A 
ATOM     68  C   UNL     1      -0.912 -17.683  -2.615  1.00  0.00     0.020 A 
ATOM     69  C   UNL     1      -2.587 -16.995  -0.995  1.00  0.00     0.020 A 
ATOM     70  C   UNL     1      -2.245 -17.432  -2.276  1.00  0.00     0.054 A 
BRANCH  70  71
ATOM     71  S   UNL     1      -3.526 -17.716  -3.528  1.00  0.00     0.124 S 
ATOM     72  O   UNL     1      -3.292 -16.611  -4.455  1.00  0.00    -0.237 OA
ATOM     73  O   UNL     1      -3.188 -19.043  -4.036  1.00  0.00    -0.237 OA
ATOM     74  O   UNL     1      -4.774 -17.639  -2.772  1.00  0.00    -0.744 OA
ENDBRANCH  70  71
ENDBRANCH  51  65
BRANCH  52  75
ATOM     75  C   UNL     1       6.856 -15.077   6.415  1.00  0.00    -0.014 A 
ATOM     76  C   UNL     1       7.893 -15.993   6.668  1.00  0.00     0.010 A 
ATOM     77  C   UNL     1       6.813 -13.877   7.148  1.00  0.00     0.010 A 
ATOM     78  C   UNL     1       8.848 -15.730   7.655  1.00  0.00     0.020 A 
ATOM     79  C   UNL     1       7.785 -13.595   8.113  1.00  0.00     0.020 A 
ATOM     80  C   UNL     1       8.788 -14.531   8.370  1.00  0.00     0.054 A 
BRANCH  80  81
ATOM     81  S   UNL     1      10.060 -14.193   9.619  1.00  0.00     0.124 S 
ATOM     82  O   UNL     1       9.690 -15.116  10.688  1.00  0.00    -0.237 OA
ATOM     83  O   UNL     1      11.294 -14.512   8.906  1.00  0.00    -0.237 OA
ATOM     84  O   UNL     1       9.873 -12.776   9.922  1.00  0.00    -0.744 OA
ENDBRANCH  80  81
ENDBRANCH  52  75
BRANCH  64  85
ATOM     85  C   UNL     1       1.868 -19.923   5.897  1.00  0.00    -0.014 A 
ATOM     86  C   UNL     1       1.303 -19.762   7.175  1.00  0.00     0.010 A 
ATOM     87  C   UNL     1       2.081 -21.224   5.403  1.00  0.00     0.010 A 
ATOM     88  C   UNL     1       1.014 -20.878   7.965  1.00  0.00     0.020 A 
ATOM     89  C   UNL     1       1.761 -22.342   6.176  1.00  0.00     0.020 A 
ATOM     90  C   UNL     1       1.252 -22.161   7.463  1.00  0.00     0.054 A 
BRANCH  90  91
ATOM     91  S   UNL     1       0.868 -23.594   8.505  1.00  0.00     0.124 S 
ATOM     92  O   UNL     1       1.948 -23.552   9.488  1.00  0.00    -0.237 OA
ATOM     93  O   UNL     1      -0.461 -23.271   9.018  1.00  0.00    -0.237 OA
ATOM     94  O   UNL     1       0.914 -24.721   7.577  1.00  0.00    -0.744 OA
ENDBRANCH  90  91
ENDBRANCH  64  85
ENDBRANCH  38  39
ENDBRANCH  30  33
ENDBRANCH  28  29
ENDBRANCH  27  28
ENDBRANCH   1  27
TORSDOF 19
