REMARK SMILES Cc1cc(C)c(C(=O)NC[C@H]2CC[C@@H](C(=O)NCCCCNC(=O)c3ccc(-c4c5nc(c(-c6ccc(S(=O)(=O)[O-])cc6)c6ccc([nH]6)c(-c6ccc(S(=O)(=O)[O-])cc6)c6nc(c(-c7ccc(S(=O)(=O)[O-])cc7)c7ccc4[nH]7)C=C6)C=C5)cc3)O2)c(C)c1
REMARK SMILES IDX 19 1 18 2 17 3 15 4 16 5 14 7 11 8 12 9 85 10 13 11 10 12
REMARK SMILES IDX 9 13 7 14 8 15 6 17 1 18 2 19 3 20 88 21 4 22 86 23 5 24
REMARK SMILES IDX 87 25 20 26 21 27 22 28 23 29 24 31 25 32 26 33 84 34 27 35
REMARK SMILES IDX 83 36 28 37 29 38 30 39 77 40 31 41 82 42 76 43 78 44 32 45
REMARK SMILES IDX 81 46 75 47 74 48 33 50 63 51 44 52 62 53 45 54 48 55 61 56
REMARK SMILES IDX 79 57 46 58 47 59 60 61 80 62 49 63 34 64 35 65 43 66 36 67
REMARK SMILES IDX 42 68 37 69 38 70 39 71 40 72 41 73 64 74 65 75 73 76 66 77
REMARK SMILES IDX 72 78 67 79 68 80 69 81 70 82 71 83 50 84 51 85 59 86 52 87
REMARK SMILES IDX 58 88 53 89 54 90 55 91 56 92 57 93
REMARK H PARENT 17 6 9 16 22 30 78 49 48 60
REMARK Flexibility Score: inf
ROOT
ATOM      1  C   UNL     1      -4.127  -8.302   0.632  1.00  0.00     0.023 C 
ENDROOT
BRANCH   1   2
ATOM      2  C   UNL     1      -3.256  -7.261   1.329  1.00  0.00     0.116 C 
BRANCH   2   3
ATOM      3  N   UNL     1      -2.442  -7.838   2.385  1.00  0.00    -0.354 N 
ATOM      4  C   UNL     1      -1.084  -7.774   2.544  1.00  0.00     0.249 C 
ATOM      5  O   UNL     1      -0.583  -8.311   3.533  1.00  0.00    -0.272 OA
ATOM      6  H   UNL     1      -2.931  -8.341   3.076  1.00  0.00     0.163 HD
BRANCH   4   7
ATOM      7  C   UNL     1      -0.245  -7.072   1.466  1.00  0.00     0.207 C 
ATOM      8  C   UNL     1       0.406  -4.818   1.448  1.00  0.00     0.138 C 
ATOM      9  C   UNL     1       1.647  -5.662   1.230  1.00  0.00     0.037 C 
ATOM     10  O   UNL     1      -0.696  -5.718   1.277  1.00  0.00    -0.363 OA
ATOM     11  C   UNL     1       1.239  -6.996   1.804  1.00  0.00     0.045 C 
BRANCH   8  12
ATOM     12  C   UNL     1       0.314  -4.155   2.842  1.00  0.00     0.148 C 
BRANCH  12  13
ATOM     13  N   UNL     1       1.027  -2.893   2.867  1.00  0.00    -0.349 N 
ATOM     14  C   UNL     1       0.827  -1.630   2.378  1.00  0.00     0.251 C 
ATOM     15  O   UNL     1       1.898  -1.096   2.055  1.00  0.00    -0.269 OA
ATOM     16  H   UNL     1       1.874  -2.963   3.365  1.00  0.00     0.163 HD
BRANCH  14  17
ATOM     17  C   UNL     1      -0.451  -0.816   2.241  1.00  0.00     0.045 A 
ATOM     18  C   UNL     1      -3.687   1.993   1.324  1.00  0.00     0.044 C 
ATOM     19  C   UNL     1      -2.592   1.039   1.689  1.00  0.00    -0.051 A 
ATOM     20  C   UNL     1      -1.335   1.500   2.037  1.00  0.00     0.007 A 
ATOM     21  C   UNL     1      -2.795  -0.334   1.667  1.00  0.00     0.007 A 
ATOM     22  C   UNL     1      -0.282   0.610   2.351  1.00  0.00    -0.038 A 
ATOM     23  C   UNL     1      -1.756  -1.270   1.921  1.00  0.00    -0.038 A 
ATOM     24  C   UNL     1       1.005   1.304   2.751  1.00  0.00     0.045 C 
ATOM     25  C   UNL     1      -2.224  -2.686   1.806  1.00  0.00     0.045 C 
ENDBRANCH  14  17
ENDBRANCH  12  13
ENDBRANCH   8  12
ENDBRANCH   4   7
ENDBRANCH   2   3
ENDBRANCH   1   2
BRANCH   1  26
ATOM     26  C   UNL     1      -5.135  -9.015   1.532  1.00  0.00     0.023 C 
BRANCH  26  27
ATOM     27  C   UNL     1      -6.088  -8.102   2.297  1.00  0.00     0.116 C 
BRANCH  27  28
ATOM     28  N   UNL     1      -6.929  -7.300   1.422  1.00  0.00    -0.352 N 
ATOM     29  C   UNL     1      -8.301  -7.193   1.382  1.00  0.00     0.251 C 
ATOM     30  H   UNL     1      -6.446  -6.754   0.761  1.00  0.00     0.163 HD
ATOM     31  O   UNL     1      -8.837  -6.574   0.471  1.00  0.00    -0.269 OA
BRANCH  29  32
ATOM     32  C   UNL     1      -9.126  -7.853   2.420  1.00  0.00     0.039 A 
ATOM     33  C   UNL     1     -10.247  -8.587   2.026  1.00  0.00     0.014 A 
ATOM     34  C   UNL     1      -8.791  -7.761   3.773  1.00  0.00     0.014 A 
ATOM     35  C   UNL     1     -10.982  -9.297   2.980  1.00  0.00     0.010 A 
ATOM     36  C   UNL     1      -9.477  -8.529   4.711  1.00  0.00     0.010 A 
ATOM     37  C   UNL     1     -10.576  -9.312   4.324  1.00  0.00    -0.014 A 
BRANCH  37  38
ATOM     38  C   UNL     1     -11.269 -10.152   5.336  1.00  0.00     0.031 A 
ATOM     39  C   UNL     1     -11.960  -9.512   6.511  1.00  0.00     0.074 A 
ATOM     40  C   UNL     1     -11.220 -11.496   5.236  1.00  0.00     0.049 A 
ATOM     41  N   UNL     1     -12.542 -10.081   7.535  1.00  0.00    -0.248 NA
ATOM     42  C   UNL     1     -11.981  -8.041   6.550  1.00  0.00     0.031 C 
ATOM     43  C   UNL     1     -10.561 -12.243   4.161  1.00  0.00     0.029 A 
ATOM     44  N   UNL     1     -11.726 -12.476   6.054  1.00  0.00    -0.354 N 
ATOM     45  C   UNL     1     -12.990  -9.042   8.343  1.00  0.00     0.074 A 
ATOM     46  C   UNL     1     -12.565  -7.809   7.717  1.00  0.00     0.031 C 
ATOM     47  C   UNL     1     -10.726 -13.559   4.372  1.00  0.00     0.029 A 
ATOM     48  C   UNL     1     -11.456 -13.754   5.621  1.00  0.00     0.049 A 
ATOM     49  H   UNL     1     -12.235 -12.283   6.874  1.00  0.00     0.167 HD
ATOM     50  C   UNL     1     -13.707  -9.106   9.491  1.00  0.00     0.031 A 
ATOM     51  C   UNL     1     -11.747 -14.949   6.171  1.00  0.00     0.031 A 
ATOM     52  C   UNL     1     -14.128 -10.334  10.113  1.00  0.00     0.049 A 
ATOM     53  C   UNL     1     -12.501 -14.992   7.474  1.00  0.00     0.074 A 
ATOM     54  C   UNL     1     -14.889 -10.500  11.257  1.00  0.00     0.029 A 
ATOM     55  N   UNL     1     -13.824 -11.604   9.648  1.00  0.00    -0.354 N 
ATOM     56  N   UNL     1     -12.962 -13.997   8.193  1.00  0.00    -0.248 NA
ATOM     57  C   UNL     1     -12.779 -16.321   8.036  1.00  0.00     0.031 C 
ATOM     58  C   UNL     1     -14.996 -11.870  11.517  1.00  0.00     0.029 A 
ATOM     59  C   UNL     1     -14.358 -12.559  10.498  1.00  0.00     0.049 A 
ATOM     60  H   UNL     1     -13.305 -11.799   8.835  1.00  0.00     0.167 HD
ATOM     61  C   UNL     1     -13.610 -14.582   9.276  1.00  0.00     0.074 A 
ATOM     62  C   UNL     1     -13.498 -16.015   9.107  1.00  0.00     0.031 C 
ATOM     63  C   UNL     1     -14.241 -13.985  10.318  1.00  0.00     0.031 A 
BRANCH  50  64
ATOM     64  C   UNL     1     -14.082  -7.805  10.154  1.00  0.00    -0.014 A 
ATOM     65  C   UNL     1     -15.023  -6.938   9.569  1.00  0.00     0.010 A 
ATOM     66  C   UNL     1     -13.529  -7.469  11.403  1.00  0.00     0.010 A 
ATOM     67  C   UNL     1     -15.376  -5.744  10.201  1.00  0.00     0.020 A 
ATOM     68  C   UNL     1     -13.902  -6.289  12.055  1.00  0.00     0.020 A 
ATOM     69  C   UNL     1     -14.813  -5.427  11.441  1.00  0.00     0.054 A 
BRANCH  69  70
ATOM     70  S   UNL     1     -15.316  -3.884  12.252  1.00  0.00     0.124 S 
ATOM     71  O   UNL     1     -14.678  -2.878  11.406  1.00  0.00    -0.237 OA
ATOM     72  O   UNL     1     -16.773  -3.941  12.170  1.00  0.00    -0.237 OA
ATOM     73  O   UNL     1     -14.764  -4.003  13.599  1.00  0.00    -0.744 OA
ENDBRANCH  69  70
ENDBRANCH  50  64
BRANCH  51  74
ATOM     74  C   UNL     1     -11.326 -16.210   5.497  1.00  0.00    -0.014 A 
ATOM     75  C   UNL     1     -12.285 -17.083   4.954  1.00  0.00     0.010 A 
ATOM     76  C   UNL     1      -9.964 -16.551   5.406  1.00  0.00     0.010 A 
ATOM     77  C   UNL     1     -11.893 -18.286   4.359  1.00  0.00     0.020 A 
ATOM     78  C   UNL     1      -9.566 -17.738   4.783  1.00  0.00     0.020 A 
ATOM     79  C   UNL     1     -10.535 -18.605   4.277  1.00  0.00     0.054 A 
BRANCH  79  80
ATOM     80  S   UNL     1     -10.049 -20.157   3.472  1.00  0.00     0.124 S 
ATOM     81  O   UNL     1     -10.464 -21.152   4.455  1.00  0.00    -0.237 OA
ATOM     82  O   UNL     1     -10.825 -20.126   2.235  1.00  0.00    -0.237 OA
ATOM     83  O   UNL     1      -8.605 -20.012   3.296  1.00  0.00    -0.744 OA
ENDBRANCH  79  80
ENDBRANCH  51  74
BRANCH  63  84
ATOM     84  C   UNL     1     -14.893 -14.879  11.340  1.00  0.00    -0.014 A 
ATOM     85  C   UNL     1     -14.127 -15.647  12.235  1.00  0.00     0.010 A 
ATOM     86  C   UNL     1     -16.297 -14.910  11.440  1.00  0.00     0.010 A 
ATOM     87  C   UNL     1     -14.753 -16.454  13.189  1.00  0.00     0.020 A 
ATOM     88  C   UNL     1     -16.925 -15.690  12.414  1.00  0.00     0.020 A 
ATOM     89  C   UNL     1     -16.149 -16.469  13.273  1.00  0.00     0.054 A 
BRANCH  89  90
ATOM     90  S   UNL     1     -16.934 -17.489  14.551  1.00  0.00     0.124 S 
ATOM     91  O   UNL     1     -16.712 -18.839  14.041  1.00  0.00    -0.237 OA
ATOM     92  O   UNL     1     -16.177 -17.137  15.750  1.00  0.00    -0.237 OA
ATOM     93  O   UNL     1     -18.325 -17.042  14.547  1.00  0.00    -0.744 OA
ENDBRANCH  89  90
ENDBRANCH  63  84
ENDBRANCH  37  38
ENDBRANCH  29  32
ENDBRANCH  27  28
ENDBRANCH  26  27
ENDBRANCH   1  26
TORSDOF 17
