REMARK SMILES O=C(NCCCCNC(=O)c1ccc(-c2c3nc(c(-c4ccc(S(=O)(=O)[O-])cc4)c4ccc([nH]4)c(-c4ccc(S(=O)(=O)[O-])cc4)c4nc(c(-c5ccc(S(=O)(=O)[O-])cc5)c5ccc2[nH]5)C=C4)C=C3)cc1)C1=Cc2cc(Cl)cc(-c3ccccc3)c2O[C@@H]1C(F)(F)F
REMARK SMILES IDX 6 1 5 2 4 3 3 4 1 5 2 6 71 8 72 9 87 10 73 11 86 12 74 13
REMARK SMILES IDX 85 14 75 15 78 16 76 17 77 18 88 19 89 20 90 21 91 22 79 23
REMARK SMILES IDX 80 24 84 25 81 26 83 27 82 28 7 29 8 30 9 31 10 33 11 34
REMARK SMILES IDX 12 35 70 36 13 37 69 38 14 39 15 40 16 41 63 42 17 43 68 44
REMARK SMILES IDX 62 45 64 46 18 47 67 48 61 49 60 50 19 52 49 53 30 54 48 55
REMARK SMILES IDX 31 56 34 57 47 58 65 59 32 60 33 61 46 63 66 64 35 65 20 66
REMARK SMILES IDX 21 67 29 68 22 69 28 70 23 71 24 72 25 73 26 74 27 75 50 76
REMARK SMILES IDX 51 77 59 78 52 79 58 80 53 81 54 82 55 83 56 84 57 85 36 86
REMARK SMILES IDX 37 87 45 88 38 89 44 90 39 91 40 92 41 93 42 94 43 95
REMARK H PARENT 3 7 8 32 64 51 34 62
REMARK Flexibility Score: inf
ROOT
ATOM      1  C   UNL     1       4.217  -4.159  -2.374  1.00  0.00     0.023 C 
ENDROOT
BRANCH   1   2
ATOM      2  C   UNL     1       4.457  -3.610  -0.970  1.00  0.00     0.023 C 
BRANCH   2   3
ATOM      3  C   UNL     1       4.079  -2.154  -0.726  1.00  0.00     0.116 C 
BRANCH   3   4
ATOM      4  N   UNL     1       2.779  -1.913  -0.123  1.00  0.00    -0.352 N 
ATOM      5  O   UNL     1       1.129  -0.738   0.850  1.00  0.00    -0.270 OA
ATOM      6  C   UNL     1       2.324  -0.821   0.569  1.00  0.00     0.251 C 
ATOM      7  H   UNL     1       2.127  -2.644  -0.228  1.00  0.00     0.163 HD
BRANCH   6   8
ATOM      8  C   UNL     1       3.206   0.327   0.945  1.00  0.00     0.067 C 
ATOM      9  C   UNL     1       4.469   0.161   1.377  1.00  0.00     0.025 C 
ATOM     10  C   UNL     1       2.887   1.590   0.176  1.00  0.00     0.314 C 
ATOM     11  C   UNL     1       5.449   0.535   0.318  1.00  0.00     0.019 A 
ATOM     12  O   UNL     1       3.746   1.694  -0.991  1.00  0.00    -0.475 OA
ATOM     13  C   UNL     1       6.732  -0.014   0.405  1.00  0.00     0.032 A 
ATOM     14  C   UNL     1       5.005   1.141  -0.878  1.00  0.00     0.135 A 
ATOM     15  C   UNL     1       7.532  -0.049  -0.729  1.00  0.00     0.042 A 
ATOM     16  C   UNL     1       5.799   1.074  -2.037  1.00  0.00     0.026 A 
ATOM     17  Cl  UNL     1       9.041  -0.872  -0.673  1.00  0.00    -0.084 Cl
ATOM     18  C   UNL     1       7.070   0.471  -1.938  1.00  0.00     0.033 A 
BRANCH  10  19
ATOM     19  C   UNL     1       2.950   2.852   1.059  1.00  0.00     0.429 C 
ATOM     20  F   UNL     1       2.539   3.954   0.389  1.00  0.00    -0.167 F 
ATOM     21  F   UNL     1       2.151   2.735   2.149  1.00  0.00    -0.167 F 
ATOM     22  F   UNL     1       4.199   3.109   1.519  1.00  0.00    -0.167 F 
ENDBRANCH  10  19
BRANCH  16  23
ATOM     23  C   UNL     1       5.302   1.433  -3.376  1.00  0.00    -0.015 A 
ATOM     24  C   UNL     1       4.279   0.681  -3.982  1.00  0.00     0.009 A 
ATOM     25  C   UNL     1       5.912   2.445  -4.129  1.00  0.00     0.009 A 
ATOM     26  C   UNL     1       3.913   0.896  -5.312  1.00  0.00     0.001 A 
ATOM     27  C   UNL     1       5.538   2.670  -5.457  1.00  0.00     0.001 A 
ATOM     28  C   UNL     1       4.552   1.885  -6.052  1.00  0.00     0.000 A 
ENDBRANCH  16  23
ENDBRANCH   6   8
ENDBRANCH   3   4
ENDBRANCH   2   3
ENDBRANCH   1   2
BRANCH   1  29
ATOM     29  C   UNL     1       4.820  -3.389  -3.550  1.00  0.00     0.116 C 
BRANCH  29  30
ATOM     30  N   UNL     1       6.267  -3.224  -3.526  1.00  0.00    -0.352 N 
ATOM     31  C   UNL     1       7.140  -3.260  -4.601  1.00  0.00     0.251 C 
ATOM     32  H   UNL     1       6.672  -3.070  -2.642  1.00  0.00     0.163 HD
ATOM     33  O   UNL     1       8.339  -3.099  -4.446  1.00  0.00    -0.269 OA
BRANCH  31  34
ATOM     34  C   UNL     1       6.591  -3.562  -5.945  1.00  0.00     0.039 A 
ATOM     35  C   UNL     1       7.011  -4.722  -6.599  1.00  0.00     0.014 A 
ATOM     36  C   UNL     1       5.571  -2.774  -6.484  1.00  0.00     0.014 A 
ATOM     37  C   UNL     1       6.319  -5.162  -7.732  1.00  0.00     0.010 A 
ATOM     38  C   UNL     1       4.845  -3.248  -7.577  1.00  0.00     0.010 A 
ATOM     39  C   UNL     1       5.186  -4.466  -8.188  1.00  0.00    -0.014 A 
BRANCH  39  40
ATOM     40  C   UNL     1       4.293  -5.041  -9.232  1.00  0.00     0.031 A 
ATOM     41  C   UNL     1       4.093  -4.336 -10.546  1.00  0.00     0.074 A 
ATOM     42  C   UNL     1       3.577  -6.152  -8.953  1.00  0.00     0.049 A 
ATOM     43  N   UNL     1       3.289  -4.646 -11.531  1.00  0.00    -0.248 NA
ATOM     44  C   UNL     1       4.874  -3.110 -10.773  1.00  0.00     0.031 C 
ATOM     45  C   UNL     1       3.627  -6.902  -7.693  1.00  0.00     0.029 A 
ATOM     46  N   UNL     1       2.649  -6.836  -9.701  1.00  0.00    -0.354 N 
ATOM     47  C   UNL     1       3.445  -3.644 -12.481  1.00  0.00     0.074 A 
ATOM     48  C   UNL     1       4.401  -2.700 -11.943  1.00  0.00     0.031 C 
ATOM     49  C   UNL     1       2.782  -7.944  -7.763  1.00  0.00     0.029 A 
ATOM     50  C   UNL     1       2.102  -7.921  -9.053  1.00  0.00     0.049 A 
ATOM     51  H   UNL     1       2.398  -6.574 -10.617  1.00  0.00     0.167 HD
ATOM     52  C   UNL     1       2.856  -3.527 -13.694  1.00  0.00     0.031 A 
ATOM     53  C   UNL     1       1.152  -8.794  -9.444  1.00  0.00     0.031 A 
ATOM     54  C   UNL     1       1.934  -4.485 -14.246  1.00  0.00     0.049 A 
ATOM     55  C   UNL     1       0.533  -8.652 -10.808  1.00  0.00     0.074 A 
ATOM     56  C   UNL     1       1.365  -4.497 -15.508  1.00  0.00     0.029 A 
ATOM     57  N   UNL     1       1.443  -5.593 -13.576  1.00  0.00    -0.354 N 
ATOM     58  N   UNL     1       0.776  -7.752 -11.731  1.00  0.00    -0.248 NA
ATOM     59  C   UNL     1      -0.480  -9.648 -11.190  1.00  0.00     0.031 C 
ATOM     60  C   UNL     1       0.493  -5.586 -15.585  1.00  0.00     0.029 A 
ATOM     61  C   UNL     1       0.558  -6.281 -14.389  1.00  0.00     0.049 A 
ATOM     62  H   UNL     1       1.687  -5.853 -12.658  1.00  0.00     0.167 HD
ATOM     63  C   UNL     1      -0.027  -8.097 -12.813  1.00  0.00     0.074 A 
ATOM     64  C   UNL     1      -0.756  -9.288 -12.436  1.00  0.00     0.031 C 
ATOM     65  C   UNL     1      -0.146  -7.479 -14.013  1.00  0.00     0.031 A 
BRANCH  52  66
ATOM     66  C   UNL     1       3.188  -2.320 -14.529  1.00  0.00    -0.014 A 
ATOM     67  C   UNL     1       4.435  -2.199 -15.166  1.00  0.00     0.010 A 
ATOM     68  C   UNL     1       2.202  -1.341 -14.757  1.00  0.00     0.010 A 
ATOM     69  C   UNL     1       4.698  -1.110 -16.001  1.00  0.00     0.020 A 
ATOM     70  C   UNL     1       2.454  -0.263 -15.610  1.00  0.00     0.020 A 
ATOM     71  C   UNL     1       3.705  -0.150 -16.219  1.00  0.00     0.054 A 
BRANCH  71  72
ATOM     72  S   UNL     1       4.055   1.221 -17.355  1.00  0.00     0.124 S 
ATOM     73  O   UNL     1       4.958   2.047 -16.558  1.00  0.00    -0.237 OA
ATOM     74  O   UNL     1       4.666   0.544 -18.496  1.00  0.00    -0.237 OA
ATOM     75  O   UNL     1       2.740   1.804 -17.610  1.00  0.00    -0.744 OA
ENDBRANCH  71  72
ENDBRANCH  52  66
BRANCH  53  76
ATOM     76  C   UNL     1       0.718  -9.893  -8.536  1.00  0.00    -0.014 A 
ATOM     77  C   UNL     1       1.042 -11.230  -8.829  1.00  0.00     0.010 A 
ATOM     78  C   UNL     1      -0.050  -9.611  -7.392  1.00  0.00     0.010 A 
ATOM     79  C   UNL     1       0.573 -12.268  -8.018  1.00  0.00     0.020 A 
ATOM     80  C   UNL     1      -0.497 -10.644  -6.563  1.00  0.00     0.020 A 
ATOM     81  C   UNL     1      -0.199 -11.968  -6.893  1.00  0.00     0.054 A 
BRANCH  81  82
ATOM     82  S   UNL     1      -0.788 -13.326  -5.843  1.00  0.00     0.124 S 
ATOM     83  O   UNL     1      -1.901 -13.852  -6.626  1.00  0.00    -0.237 OA
ATOM     84  O   UNL     1       0.387 -14.190  -5.752  1.00  0.00    -0.237 OA
ATOM     85  O   UNL     1      -1.157 -12.656  -4.598  1.00  0.00    -0.744 OA
ENDBRANCH  81  82
ENDBRANCH  53  76
BRANCH  65  86
ATOM     86  C   UNL     1      -1.057  -8.102 -15.034  1.00  0.00    -0.014 A 
ATOM     87  C   UNL     1      -2.455  -8.008 -14.919  1.00  0.00     0.010 A 
ATOM     88  C   UNL     1      -0.501  -8.723 -16.168  1.00  0.00     0.010 A 
ATOM     89  C   UNL     1      -3.281  -8.541 -15.912  1.00  0.00     0.020 A 
ATOM     90  C   UNL     1      -1.323  -9.236 -17.174  1.00  0.00     0.020 A 
ATOM     91  C   UNL     1      -2.710  -9.150 -17.035  1.00  0.00     0.054 A 
BRANCH  91  92
ATOM     92  S   UNL     1      -3.801  -9.774 -18.343  1.00  0.00     0.124 S 
ATOM     93  O   UNL     1      -4.320 -11.001 -17.745  1.00  0.00    -0.237 OA
ATOM     94  O   UNL     1      -4.770  -8.691 -18.497  1.00  0.00    -0.237 OA
ATOM     95  O   UNL     1      -2.904  -9.965 -19.480  1.00  0.00    -0.744 OA
ENDBRANCH  91  92
ENDBRANCH  65  86
ENDBRANCH  39  40
ENDBRANCH  31  34
ENDBRANCH  29  30
ENDBRANCH   1  29
TORSDOF 16
