REMARK SMILES CCn1cc(S(=O)(=O)N2CCC(CCc3ccc(C(=O)NCCCCNC(=O)c4ccc(-c5c6nc(c(-c7ccc(S(=O)(=O)[O-])cc7)c7ccc([nH]7)c(-c7ccc(S(=O)(=O)[O-])cc7)c7nc(c(-c8ccc(S(=O)(=O)[O-])cc8)c8ccc5[nH]8)C=C7)C=C6)cc4)cc3)CC2)cn1
REMARK SMILES IDX 22 1 21 2 19 3 20 4 18 6 15 7 16 8 90 9 17 10 89 11 14 12
REMARK SMILES IDX 13 13 12 14 9 15 10 16 92 17 11 18 91 19 6 20 7 21 8 22 5 23
REMARK SMILES IDX 3 24 4 25 94 26 93 27 2 28 1 29 23 30 24 31 25 32 26 33
REMARK SMILES IDX 27 34 28 36 29 37 30 38 88 39 31 40 87 41 32 42 33 43 34 44
REMARK SMILES IDX 81 45 35 46 86 47 80 48 82 49 36 50 85 51 79 52 78 53 37 55
REMARK SMILES IDX 67 56 48 57 66 58 49 59 52 60 65 61 83 62 50 63 51 64 64 66
REMARK SMILES IDX 84 67 53 68 38 69 39 70 47 71 40 72 46 73 41 74 42 75 43 76
REMARK SMILES IDX 44 77 45 78 68 79 69 80 77 81 70 82 76 83 71 84 72 85 73 86
REMARK SMILES IDX 74 87 75 88 54 89 55 90 63 91 56 92 62 93 57 94 58 95 59 96
REMARK SMILES IDX 60 97 61 98
REMARK H PARENT 21 5 26 35 82 54 52 65
REMARK Flexibility Score: inf
ROOT
ATOM      1  C   UNL     1      -6.457   1.034   4.642  1.00  0.00     0.116 C 
ENDROOT
BRANCH   1   2
ATOM      2  N   UNL     1      -5.058   0.680   4.781  1.00  0.00    -0.352 N 
ATOM      3  C   UNL     1      -3.910   1.417   4.648  1.00  0.00     0.251 C 
ATOM      4  O   UNL     1      -2.830   0.835   4.747  1.00  0.00    -0.269 OA
ATOM      5  H   UNL     1      -4.904  -0.264   5.014  1.00  0.00     0.163 HD
BRANCH   3   6
ATOM      6  C   UNL     1      -3.913   2.888   4.435  1.00  0.00     0.039 A 
ATOM      7  C   UNL     1      -3.754   5.693   4.136  1.00  0.00    -0.048 A 
ATOM      8  C   UNL     1      -2.802   5.001   4.897  1.00  0.00     0.004 A 
ATOM      9  C   UNL     1      -4.792   4.966   3.542  1.00  0.00     0.004 A 
ATOM     10  C   UNL     1      -2.871   3.612   5.029  1.00  0.00     0.014 A 
ATOM     11  C   UNL     1      -4.853   3.575   3.666  1.00  0.00     0.014 A 
BRANCH   7  12
ATOM     12  C   UNL     1      -3.690   7.189   3.938  1.00  0.00     0.036 C 
BRANCH  12  13
ATOM     13  C   UNL     1      -2.285   7.760   3.688  1.00  0.00     0.008 C 
BRANCH  13  14
ATOM     14  C   UNL     1      -1.486   7.046   2.583  1.00  0.00    -0.008 C 
ATOM     15  N   UNL     1       0.135   6.827   0.184  1.00  0.00    -0.198 NA
ATOM     16  C   UNL     1      -1.300   6.444   0.148  1.00  0.00     0.103 C 
ATOM     17  C   UNL     1       0.774   6.781   1.524  1.00  0.00     0.103 C 
ATOM     18  C   UNL     1      -2.107   7.209   1.192  1.00  0.00     0.020 C 
ATOM     19  C   UNL     1      -0.044   7.558   2.546  1.00  0.00     0.020 C 
BRANCH  15  20
ATOM     20  S   UNL     1       1.085   6.163  -1.075  1.00  0.00     0.246 S 
ATOM     21  O   UNL     1       2.443   6.623  -0.927  1.00  0.00    -0.207 OA
ATOM     22  O   UNL     1       0.361   6.319  -2.324  1.00  0.00    -0.207 OA
BRANCH  20  23
ATOM     23  C   UNL     1       1.207   4.461  -0.897  1.00  0.00     0.120 A 
ATOM     24  N   UNL     1       1.056   2.368  -0.271  1.00  0.00    -0.272 N 
ATOM     25  C   UNL     1       0.687   3.639   0.077  1.00  0.00     0.130 A 
ATOM     26  N   UNL     1       1.798   2.323  -1.396  1.00  0.00    -0.180 NA
ATOM     27  C   UNL     1       1.887   3.604  -1.773  1.00  0.00     0.156 A 
BRANCH  24  28
ATOM     28  C   UNL     1       0.679   1.172   0.462  1.00  0.00     0.141 C 
ATOM     29  C   UNL     1       1.155  -0.143  -0.130  1.00  0.00     0.029 C 
ENDBRANCH  24  28
ENDBRANCH  20  23
ENDBRANCH  15  20
ENDBRANCH  13  14
ENDBRANCH  12  13
ENDBRANCH   7  12
ENDBRANCH   3   6
ENDBRANCH   1   2
BRANCH   1  30
ATOM     30  C   UNL     1      -6.971   0.653   3.248  1.00  0.00     0.023 C 
BRANCH  30  31
ATOM     31  C   UNL     1      -7.180  -0.853   3.025  1.00  0.00     0.023 C 
BRANCH  31  32
ATOM     32  C   UNL     1      -8.291  -1.469   3.866  1.00  0.00     0.116 C 
BRANCH  32  33
ATOM     33  N   UNL     1      -9.601  -0.881   3.587  1.00  0.00    -0.352 N 
ATOM     34  C   UNL     1     -10.778  -1.053   4.292  1.00  0.00     0.251 C 
ATOM     35  H   UNL     1      -9.651  -0.291   2.800  1.00  0.00     0.163 HD
ATOM     36  O   UNL     1     -11.864  -0.877   3.751  1.00  0.00    -0.269 OA
BRANCH  34  37
ATOM     37  C   UNL     1     -10.697  -1.417   5.717  1.00  0.00     0.039 A 
ATOM     38  C   UNL     1     -11.563  -2.344   6.302  1.00  0.00     0.014 A 
ATOM     39  C   UNL     1      -9.691  -0.811   6.466  1.00  0.00     0.014 A 
ATOM     40  C   UNL     1     -11.356  -2.705   7.633  1.00  0.00     0.010 A 
ATOM     41  C   UNL     1      -9.385  -1.287   7.712  1.00  0.00     0.010 A 
ATOM     42  C   UNL     1     -10.253  -2.179   8.327  1.00  0.00    -0.014 A 
BRANCH  42  43
ATOM     43  C   UNL     1      -9.868  -2.664   9.647  1.00  0.00     0.031 A 
ATOM     44  C   UNL     1      -9.589  -4.123   9.670  1.00  0.00     0.074 A 
ATOM     45  C   UNL     1      -9.539  -1.835  10.665  1.00  0.00     0.049 A 
ATOM     46  N   UNL     1     -10.351  -5.053  10.141  1.00  0.00    -0.248 NA
ATOM     47  C   UNL     1      -8.442  -4.634   8.896  1.00  0.00     0.031 C 
ATOM     48  C   UNL     1      -9.478  -0.367  10.653  1.00  0.00     0.029 A 
ATOM     49  N   UNL     1      -9.068  -2.130  11.908  1.00  0.00    -0.354 N 
ATOM     50  C   UNL     1      -9.625  -6.229   9.999  1.00  0.00     0.074 A 
ATOM     51  C   UNL     1      -8.619  -5.953   9.005  1.00  0.00     0.031 C 
ATOM     52  C   UNL     1      -8.775   0.072  11.722  1.00  0.00     0.029 A 
ATOM     53  C   UNL     1      -8.480  -1.059  12.582  1.00  0.00     0.049 A 
ATOM     54  H   UNL     1      -9.136  -3.030  12.300  1.00  0.00     0.167 HD
ATOM     55  C   UNL     1      -9.679  -7.199  10.955  1.00  0.00     0.031 A 
ATOM     56  C   UNL     1      -7.788  -1.102  13.754  1.00  0.00     0.031 A 
ATOM     57  C   UNL     1     -10.762  -6.958  11.880  1.00  0.00     0.049 A 
ATOM     58  C   UNL     1      -8.190  -2.356  14.435  1.00  0.00     0.074 A 
ATOM     59  C   UNL     1     -12.129  -6.791  11.772  1.00  0.00     0.029 A 
ATOM     60  N   UNL     1     -10.409  -6.434  13.102  1.00  0.00    -0.354 N 
ATOM     61  N   UNL     1      -9.400  -2.572  14.869  1.00  0.00    -0.248 NA
ATOM     62  C   UNL     1      -7.390  -3.545  14.194  1.00  0.00     0.031 C 
ATOM     63  C   UNL     1     -12.449  -5.768  12.714  1.00  0.00     0.029 A 
ATOM     64  C   UNL     1     -11.288  -5.433  13.413  1.00  0.00     0.049 A 
ATOM     65  H   UNL     1      -9.652  -6.728  13.658  1.00  0.00     0.167 HD
ATOM     66  C   UNL     1      -9.669  -3.885  14.512  1.00  0.00     0.074 A 
ATOM     67  C   UNL     1      -8.362  -4.463  14.190  1.00  0.00     0.031 C 
ATOM     68  C   UNL     1     -10.944  -4.287  14.228  1.00  0.00     0.031 A 
BRANCH  55  69
ATOM     69  C   UNL     1      -8.490  -8.049  11.356  1.00  0.00    -0.014 A 
ATOM     70  C   UNL     1      -8.669  -9.000  12.383  1.00  0.00     0.010 A 
ATOM     71  C   UNL     1      -7.161  -7.751  10.992  1.00  0.00     0.010 A 
ATOM     72  C   UNL     1      -7.578  -9.541  13.073  1.00  0.00     0.020 A 
ATOM     73  C   UNL     1      -6.065  -8.320  11.642  1.00  0.00     0.020 A 
ATOM     74  C   UNL     1      -6.282  -9.185  12.704  1.00  0.00     0.054 A 
BRANCH  74  75
ATOM     75  S   UNL     1      -4.884  -9.819  13.659  1.00  0.00     0.124 S 
ATOM     76  O   UNL     1      -5.091  -9.175  14.953  1.00  0.00    -0.237 OA
ATOM     77  O   UNL     1      -5.117 -11.260  13.620  1.00  0.00    -0.237 OA
ATOM     78  O   UNL     1      -3.721  -9.359  12.905  1.00  0.00    -0.744 OA
ENDBRANCH  74  75
ENDBRANCH  55  69
BRANCH  56  79
ATOM     79  C   UNL     1      -6.595  -0.319  14.181  1.00  0.00    -0.014 A 
ATOM     80  C   UNL     1      -6.128  -0.360  15.512  1.00  0.00     0.010 A 
ATOM     81  C   UNL     1      -5.730   0.227  13.211  1.00  0.00     0.010 A 
ATOM     82  C   UNL     1      -4.825   0.059  15.845  1.00  0.00     0.020 A 
ATOM     83  C   UNL     1      -4.431   0.649  13.536  1.00  0.00     0.020 A 
ATOM     84  C   UNL     1      -3.974   0.539  14.847  1.00  0.00     0.054 A 
BRANCH  84  85
ATOM     85  S   UNL     1      -2.233   0.901  15.240  1.00  0.00     0.124 S 
ATOM     86  O   UNL     1      -2.340   2.104  16.061  1.00  0.00    -0.237 OA
ATOM     87  O   UNL     1      -1.804  -0.305  15.941  1.00  0.00    -0.237 OA
ATOM     88  O   UNL     1      -1.619   1.101  13.928  1.00  0.00    -0.744 OA
ENDBRANCH  84  85
ENDBRANCH  56  79
BRANCH  68  89
ATOM     89  C   UNL     1     -12.090  -3.387  14.631  1.00  0.00    -0.014 A 
ATOM     90  C   UNL     1     -12.301  -2.084  14.136  1.00  0.00     0.010 A 
ATOM     91  C   UNL     1     -13.075  -3.956  15.457  1.00  0.00     0.010 A 
ATOM     92  C   UNL     1     -13.456  -1.365  14.487  1.00  0.00     0.020 A 
ATOM     93  C   UNL     1     -14.232  -3.255  15.793  1.00  0.00     0.020 A 
ATOM     94  C   UNL     1     -14.413  -1.957  15.318  1.00  0.00     0.054 A 
BRANCH  94  95
ATOM     95  S   UNL     1     -15.915  -1.039  15.761  1.00  0.00     0.124 S 
ATOM     96  O   UNL     1     -15.394   0.037  16.599  1.00  0.00    -0.237 OA
ATOM     97  O   UNL     1     -16.439  -0.627  14.461  1.00  0.00    -0.237 OA
ATOM     98  O   UNL     1     -16.733  -2.027  16.463  1.00  0.00    -0.744 OA
ENDBRANCH  94  95
ENDBRANCH  68  89
ENDBRANCH  42  43
ENDBRANCH  34  37
ENDBRANCH  32  33
ENDBRANCH  31  32
ENDBRANCH  30  31
ENDBRANCH   1  30
TORSDOF 20
