REMARK SMILES Cc1ncsc1CCC(=O)N[C@@H](Cc1cnc[nH]1)C(=O)NCCCCNC(=O)c1ccc(-c2c3nc(c(-c4ccc(S(=O)(=O)[O-])cc4)c4ccc([nH]4)c(-c4ccc(S(=O)(=O)[O-])cc4)c4nc(c(-c5ccc(S(=O)(=O)[O-])cc5)c5ccc2[nH]5)C=C4)C=C3)cc1
REMARK SMILES IDX 23 1 22 2 21 3 19 4 20 5 12 7 11 8 9 9 10 10 8 12 7 13 6 14
REMARK SMILES IDX 1 15 2 16 3 17 4 18 5 19 13 20 14 21 15 22 18 23 16 24 17 25
REMARK SMILES IDX 24 27 25 28 26 29 27 30 28 32 29 33 30 34 88 35 31 36 87 37
REMARK SMILES IDX 32 38 33 39 34 40 81 41 35 42 86 43 80 44 82 45 36 46 85 47
REMARK SMILES IDX 79 48 78 49 37 51 67 52 48 53 66 54 49 55 52 56 65 57 83 58
REMARK SMILES IDX 50 59 51 60 64 62 84 63 53 64 38 65 39 66 47 67 40 68 46 69
REMARK SMILES IDX 41 70 42 71 43 72 44 73 45 74 68 75 69 76 77 77 70 78 76 79
REMARK SMILES IDX 71 80 72 81 73 82 74 83 75 84 54 85 55 86 63 87 56 88 62 89
REMARK SMILES IDX 57 90 58 91 59 92 60 93 61 94
REMARK H PARENT 21 6 11 11 18 26 26 31 82 50 52 61
REMARK Flexibility Score: inf
ROOT
ATOM      1  C   UNL     1       5.538  -0.129  -3.468  1.00  0.00     0.023 C 
ENDROOT
BRANCH   1   2
ATOM      2  C   UNL     1       4.376   0.254  -2.567  1.00  0.00     0.116 C 
BRANCH   2   3
ATOM      3  N   UNL     1       3.095   0.339  -3.230  1.00  0.00    -0.354 N 
ATOM      4  C   UNL     1       1.842   0.278  -2.695  1.00  0.00     0.242 C 
ATOM      5  O   UNL     1       0.900   0.620  -3.418  1.00  0.00    -0.273 OA
ATOM      6  H   UNL     1       3.133   0.460  -4.206  1.00  0.00     0.163 HD
BRANCH   4   7
ATOM      7  C   UNL     1       1.564  -0.157  -1.234  1.00  0.00     0.177 C 
BRANCH   7   8
ATOM      8  N   UNL     1       2.097  -1.483  -0.901  1.00  0.00    -0.344 N 
ATOM      9  C   UNL     1       1.464  -2.682  -0.806  1.00  0.00     0.221 C 
ATOM     10  O   UNL     1       2.154  -3.672  -0.553  1.00  0.00    -0.275 OA
ATOM     11  H   UNL     1       3.064  -1.508  -0.717  1.00  0.00     0.164 HD
BRANCH   9  12
ATOM     12  C   UNL     1      -0.036  -2.808  -0.962  1.00  0.00     0.105 C 
BRANCH  12  13
ATOM     13  C   UNL     1      -0.738  -2.890   0.394  1.00  0.00     0.058 C 
BRANCH  13  14
ATOM     14  C   UNL     1      -1.065  -1.544   0.968  1.00  0.00     0.028 A 
ATOM     15  C   UNL     1      -2.980  -0.728  -0.560  1.00  0.00     0.068 C 
ATOM     16  C   UNL     1      -1.998  -0.604   0.551  1.00  0.00     0.051 A 
ATOM     17  N   UNL     1      -1.971   0.590   1.256  1.00  0.00    -0.250 NA
ATOM     18  C   UNL     1      -1.101   0.513   2.236  1.00  0.00     0.176 A 
ATOM     19  S   UNL     1      -0.287  -0.986   2.396  1.00  0.00    -0.127 S 
ENDBRANCH  13  14
ENDBRANCH  12  13
ENDBRANCH   9  12
ENDBRANCH   7   8
BRANCH   7  20
ATOM     20  C   UNL     1       1.821   0.917  -0.162  1.00  0.00     0.090 C 
BRANCH  20  21
ATOM     21  C   UNL     1       3.221   1.275   0.193  1.00  0.00     0.037 A 
ATOM     22  C   UNL     1       3.882   2.485   0.119  1.00  0.00     0.134 A 
ATOM     23  N   UNL     1       4.125   0.429   0.793  1.00  0.00    -0.348 N 
ATOM     24  N   UNL     1       5.179   2.357   0.533  1.00  0.00    -0.245 NA
ATOM     25  C   UNL     1       5.299   1.115   0.936  1.00  0.00     0.196 A 
ATOM     26  H   UNL     1       3.957  -0.501   1.070  1.00  0.00     0.167 HD
ENDBRANCH  20  21
ENDBRANCH   7  20
ENDBRANCH   4   7
ENDBRANCH   2   3
ENDBRANCH   1   2
BRANCH   1  27
ATOM     27  C   UNL     1       6.002   0.970  -4.418  1.00  0.00     0.023 C 
BRANCH  27  28
ATOM     28  C   UNL     1       6.245   2.339  -3.786  1.00  0.00     0.116 C 
BRANCH  28  29
ATOM     29  N   UNL     1       7.194   2.323  -2.677  1.00  0.00    -0.352 N 
ATOM     30  C   UNL     1       8.361   3.045  -2.535  1.00  0.00     0.251 C 
ATOM     31  H   UNL     1       6.973   1.717  -1.933  1.00  0.00     0.163 HD
ATOM     32  O   UNL     1       9.129   2.844  -1.606  1.00  0.00    -0.269 OA
BRANCH  30  33
ATOM     33  C   UNL     1       8.676   4.052  -3.568  1.00  0.00     0.039 A 
ATOM     34  C   UNL     1       9.853   3.928  -4.306  1.00  0.00     0.014 A 
ATOM     35  C   UNL     1       7.723   5.022  -3.890  1.00  0.00     0.014 A 
ATOM     36  C   UNL     1      10.021   4.707  -5.453  1.00  0.00     0.010 A 
ATOM     37  C   UNL     1       7.855   5.730  -5.077  1.00  0.00     0.010 A 
ATOM     38  C   UNL     1       8.994   5.565  -5.882  1.00  0.00    -0.014 A 
BRANCH  38  39
ATOM     39  C   UNL     1       9.061   6.272  -7.187  1.00  0.00     0.031 A 
ATOM     40  C   UNL     1       9.021   7.774  -7.226  1.00  0.00     0.074 A 
ATOM     41  C   UNL     1       9.047   5.564  -8.335  1.00  0.00     0.049 A 
ATOM     42  N   UNL     1       8.944   8.570  -8.261  1.00  0.00    -0.248 NA
ATOM     43  C   UNL     1       9.032   8.472  -5.930  1.00  0.00     0.031 C 
ATOM     44  C   UNL     1       9.028   4.101  -8.436  1.00  0.00     0.029 A 
ATOM     45  N   UNL     1       9.034   5.982  -9.643  1.00  0.00    -0.354 N 
ATOM     46  C   UNL     1       8.862   9.856  -7.742  1.00  0.00     0.074 A 
ATOM     47  C   UNL     1       8.854   9.731  -6.301  1.00  0.00     0.031 C 
ATOM     48  C   UNL     1       9.039   3.747  -9.732  1.00  0.00     0.029 A 
ATOM     49  C   UNL     1       9.021   4.952 -10.555  1.00  0.00     0.049 A 
ATOM     50  H   UNL     1       9.033   6.931  -9.904  1.00  0.00     0.167 HD
ATOM     51  C   UNL     1       8.814  11.036  -8.403  1.00  0.00     0.031 A 
ATOM     52  C   UNL     1       8.993   4.973 -11.902  1.00  0.00     0.031 A 
ATOM     53  C   UNL     1       8.857  11.160  -9.834  1.00  0.00     0.049 A 
ATOM     54  C   UNL     1       8.970   6.297 -12.614  1.00  0.00     0.074 A 
ATOM     55  C   UNL     1       8.889  12.314 -10.597  1.00  0.00     0.029 A 
ATOM     56  N   UNL     1       8.882  10.093 -10.719  1.00  0.00    -0.354 N 
ATOM     57  N   UNL     1       8.953   7.505 -12.104  1.00  0.00    -0.248 NA
ATOM     58  C   UNL     1       8.969   6.261 -14.083  1.00  0.00     0.031 C 
ATOM     59  C   UNL     1       8.898  11.944 -11.946  1.00  0.00     0.029 A 
ATOM     60  C   UNL     1       8.916  10.560 -12.021  1.00  0.00     0.049 A 
ATOM     61  H   UNL     1       8.876   9.143 -10.459  1.00  0.00     0.167 HD
ATOM     62  C   UNL     1       8.970   8.373 -13.189  1.00  0.00     0.074 A 
ATOM     63  C   UNL     1       9.006   7.553 -14.382  1.00  0.00     0.031 C 
ATOM     64  C   UNL     1       8.960   9.729 -13.196  1.00  0.00     0.031 A 
BRANCH  51  65
ATOM     65  C   UNL     1       8.711  12.287  -7.574  1.00  0.00    -0.014 A 
ATOM     66  C   UNL     1       9.798  12.737  -6.801  1.00  0.00     0.010 A 
ATOM     67  C   UNL     1       7.519  13.034  -7.580  1.00  0.00     0.010 A 
ATOM     68  C   UNL     1       9.678  13.883  -6.012  1.00  0.00     0.020 A 
ATOM     69  C   UNL     1       7.404  14.196  -6.813  1.00  0.00     0.020 A 
ATOM     70  C   UNL     1       8.479  14.602  -6.018  1.00  0.00     0.054 A 
BRANCH  70  71
ATOM     71  S   UNL     1       8.352  16.093  -4.994  1.00  0.00     0.124 S 
ATOM     72  O   UNL     1       8.188  15.526  -3.657  1.00  0.00    -0.237 OA
ATOM     73  O   UNL     1       9.628  16.762  -5.238  1.00  0.00    -0.237 OA
ATOM     74  O   UNL     1       7.180  16.782  -5.528  1.00  0.00    -0.744 OA
ENDBRANCH  70  71
ENDBRANCH  51  65
BRANCH  52  75
ATOM     75  C   UNL     1       9.019   3.698 -12.669  1.00  0.00    -0.014 A 
ATOM     76  C   UNL     1      10.184   3.310 -13.355  1.00  0.00     0.010 A 
ATOM     77  C   UNL     1       7.890   2.861 -12.712  1.00  0.00     0.010 A 
ATOM     78  C   UNL     1      10.215   2.118 -14.085  1.00  0.00     0.020 A 
ATOM     79  C   UNL     1       7.924   1.656 -13.421  1.00  0.00     0.020 A 
ATOM     80  C   UNL     1       9.084   1.298 -14.112  1.00  0.00     0.054 A 
BRANCH  80  81
ATOM     81  S   UNL     1       9.162  -0.271 -15.021  1.00  0.00     0.124 S 
ATOM     82  O   UNL     1       9.053   0.174 -16.406  1.00  0.00    -0.237 OA
ATOM     83  O   UNL     1      10.465  -0.801 -14.627  1.00  0.00    -0.237 OA
ATOM     84  O   UNL     1       8.015  -1.018 -14.509  1.00  0.00    -0.744 OA
ENDBRANCH  80  81
ENDBRANCH  52  75
BRANCH  64  85
ATOM     85  C   UNL     1       9.031  10.415 -14.533  1.00  0.00    -0.014 A 
ATOM     86  C   UNL     1       7.914  10.465 -15.385  1.00  0.00     0.010 A 
ATOM     87  C   UNL     1      10.216  11.073 -14.909  1.00  0.00     0.010 A 
ATOM     88  C   UNL     1       7.990  11.143 -16.604  1.00  0.00     0.020 A 
ATOM     89  C   UNL     1      10.287  11.771 -16.116  1.00  0.00     0.020 A 
ATOM     90  C   UNL     1       9.176  11.792 -16.962  1.00  0.00     0.054 A 
BRANCH  90  91
ATOM     91  S   UNL     1       9.234  12.711 -18.525  1.00  0.00     0.124 S 
ATOM     92  O   UNL     1       9.363  11.637 -19.505  1.00  0.00    -0.237 OA
ATOM     93  O   UNL     1       7.955  13.418 -18.531  1.00  0.00    -0.237 OA
ATOM     94  O   UNL     1      10.410  13.567 -18.379  1.00  0.00    -0.744 OA
ENDBRANCH  90  91
ENDBRANCH  64  85
ENDBRANCH  38  39
ENDBRANCH  30  33
ENDBRANCH  28  29
ENDBRANCH  27  28
ENDBRANCH   1  27
TORSDOF 20
