REMARK SMILES CC(C)(C)N(CC(=O)NCCCCNC(=O)c1ccc(-c2c3nc(c(-c4ccc(S(=O)(=O)[O-])cc4)c4ccc([nH]4)c(-c4ccc(S(=O)(=O)[O-])cc4)c4nc(c(-c5ccc(S(=O)(=O)[O-])cc5)c5ccc2[nH]5)C=C4)C=C3)cc1)C(=O)C[NH2+]C1CCCC1
REMARK SMILES IDX 10 1 9 2 7 3 8 4 6 6 5 7 2 8 1 9 3 10 4 11 77 12 78 13 79 14
REMARK SMILES IDX 80 15 81 18 82 19 85 20 83 21 84 22 11 23 12 24 13 25 14 26
REMARK SMILES IDX 15 27 16 29 17 30 18 31 76 32 19 33 75 34 20 35 21 36 22 37
REMARK SMILES IDX 69 38 23 39 74 40 68 41 70 42 24 43 73 44 67 45 66 46 25 48
REMARK SMILES IDX 55 49 36 50 54 51 37 52 40 53 53 54 71 55 38 56 39 57 52 59
REMARK SMILES IDX 72 60 41 61 26 62 27 63 35 64 28 65 34 66 29 67 30 68 31 69
REMARK SMILES IDX 32 70 33 71 56 72 57 73 65 74 58 75 64 76 59 77 60 78 61 79
REMARK SMILES IDX 62 80 63 81 42 82 43 83 51 84 44 85 50 86 45 87 46 88 47 89
REMARK SMILES IDX 48 90 49 91
REMARK H PARENT 9 5 80 16 80 17 14 28 70 47 40 58
REMARK Flexibility Score: inf
ROOT
ATOM      1  C   UNL     1       3.871  -0.335   1.691  1.00  0.00     0.116 C 
ENDROOT
BRANCH   1   2
ATOM      2  N   UNL     1       4.120  -1.743   1.505  1.00  0.00    -0.355 N 
ATOM      3  C   UNL     1       3.331  -2.672   0.895  1.00  0.00     0.239 C 
ATOM      4  O   UNL     1       3.880  -3.714   0.523  1.00  0.00    -0.273 OA
ATOM      5  H   UNL     1       4.973  -2.078   1.866  1.00  0.00     0.163 HD
BRANCH   3   6
ATOM      6  C   UNL     1       1.856  -2.389   0.533  1.00  0.00     0.220 C 
BRANCH   6   7
ATOM      7  N   UNL     1       0.989  -1.713   1.528  1.00  0.00    -0.324 N 
BRANCH   7   8
ATOM      8  C   UNL     1       0.160  -0.501   1.138  1.00  0.00     0.035 C 
ATOM      9  C   UNL     1       0.493   0.082  -0.261  1.00  0.00     0.034 C 
ATOM     10  C   UNL     1       0.348   0.663   2.140  1.00  0.00     0.034 C 
ATOM     11  C   UNL     1      -1.343  -0.870   1.078  1.00  0.00     0.034 C 
ENDBRANCH   7   8
BRANCH   7  12
ATOM     12  C   UNL     1       0.658  -2.390   2.724  1.00  0.00     0.278 C 
ATOM     13  O   UNL     1      -0.134  -1.927   3.552  1.00  0.00    -0.268 OA
BRANCH  12  14
ATOM     14  C   UNL     1       1.262  -3.780   3.012  1.00  0.00     0.362 C 
BRANCH  14  15
ATOM     15  N   UNL     1       0.507  -4.812   2.274  1.00  0.00    -0.336 N 
ATOM     16  H   UNL     1       0.508  -4.579   1.281  1.00  0.00     0.346 HD
ATOM     17  H   UNL     1      -0.446  -4.836   2.638  1.00  0.00     0.346 HD
BRANCH  15  18
ATOM     18  C   UNL     1       1.103  -6.135   2.454  1.00  0.00     0.182 C 
ATOM     19  C   UNL     1       0.142  -7.258   2.065  1.00  0.00     0.065 C 
ATOM     20  C   UNL     1       2.289  -6.401   1.525  1.00  0.00     0.065 C 
ATOM     21  C   UNL     1       1.060  -8.470   1.958  1.00  0.00     0.006 C 
ATOM     22  C   UNL     1       2.383  -7.924   1.423  1.00  0.00     0.006 C 
ENDBRANCH  15  18
ENDBRANCH  14  15
ENDBRANCH  12  14
ENDBRANCH   7  12
ENDBRANCH   6   7
ENDBRANCH   3   6
ENDBRANCH   1   2
BRANCH   1  23
ATOM     23  C   UNL     1       3.690   0.053   3.154  1.00  0.00     0.023 C 
BRANCH  23  24
ATOM     24  C   UNL     1       4.972   0.059   3.985  1.00  0.00     0.023 C 
BRANCH  24  25
ATOM     25  C   UNL     1       6.119   0.891   3.418  1.00  0.00     0.116 C 
BRANCH  25  26
ATOM     26  N   UNL     1       5.754   2.265   3.098  1.00  0.00    -0.352 N 
ATOM     27  C   UNL     1       6.510   3.406   3.232  1.00  0.00     0.251 C 
ATOM     28  H   UNL     1       4.846   2.394   2.739  1.00  0.00     0.163 HD
ATOM     29  O   UNL     1       6.025   4.505   2.977  1.00  0.00    -0.269 OA
BRANCH  27  30
ATOM     30  C   UNL     1       7.896   3.298   3.733  1.00  0.00     0.039 A 
ATOM     31  C   UNL     1       8.286   4.091   4.814  1.00  0.00     0.014 A 
ATOM     32  C   UNL     1       8.780   2.369   3.179  1.00  0.00     0.014 A 
ATOM     33  C   UNL     1       9.538   3.890   5.398  1.00  0.00     0.010 A 
ATOM     34  C   UNL     1       9.997   2.121   3.806  1.00  0.00     0.010 A 
ATOM     35  C   UNL     1      10.384   2.872   4.928  1.00  0.00    -0.014 A 
BRANCH  35  36
ATOM     36  C   UNL     1      11.668   2.559   5.604  1.00  0.00     0.031 A 
ATOM     37  C   UNL     1      12.969   2.731   4.870  1.00  0.00     0.074 A 
ATOM     38  C   UNL     1      11.656   2.039   6.849  1.00  0.00     0.049 A 
ATOM     39  N   UNL     1      14.180   2.428   5.258  1.00  0.00    -0.248 NA
ATOM     40  C   UNL     1      12.896   3.288   3.509  1.00  0.00     0.031 C 
ATOM     41  C   UNL     1      10.457   1.770   7.647  1.00  0.00     0.029 A 
ATOM     42  N   UNL     1      12.688   1.632   7.658  1.00  0.00    -0.354 N 
ATOM     43  C   UNL     1      15.008   2.730   4.184  1.00  0.00     0.074 A 
ATOM     44  C   UNL     1      14.158   3.203   3.114  1.00  0.00     0.031 C 
ATOM     45  C   UNL     1      10.823   1.264   8.837  1.00  0.00     0.029 A 
ATOM     46  C   UNL     1      12.276   1.140   8.874  1.00  0.00     0.049 A 
ATOM     47  H   UNL     1      13.634   1.687   7.392  1.00  0.00     0.167 HD
ATOM     48  C   UNL     1      16.357   2.640   4.102  1.00  0.00     0.031 A 
ATOM     49  C   UNL     1      12.987   0.639   9.903  1.00  0.00     0.031 A 
ATOM     50  C   UNL     1      17.204   2.201   5.178  1.00  0.00     0.049 A 
ATOM     51  C   UNL     1      14.486   0.582   9.799  1.00  0.00     0.074 A 
ATOM     52  C   UNL     1      18.586   2.141   5.215  1.00  0.00     0.029 A 
ATOM     53  N   UNL     1      16.750   1.753   6.409  1.00  0.00    -0.354 N 
ATOM     54  N   UNL     1      15.256   0.936   8.797  1.00  0.00    -0.248 NA
ATOM     55  C   UNL     1      15.214   0.069  10.968  1.00  0.00     0.031 C 
ATOM     56  C   UNL     1      18.967   1.624   6.457  1.00  0.00     0.029 A 
ATOM     57  C   UNL     1      17.824   1.403   7.208  1.00  0.00     0.049 A 
ATOM     58  H   UNL     1      15.804   1.692   6.674  1.00  0.00     0.167 HD
ATOM     59  C   UNL     1      16.559   0.712   9.225  1.00  0.00     0.074 A 
ATOM     60  C   UNL     1      16.475   0.206  10.580  1.00  0.00     0.031 C 
ATOM     61  C   UNL     1      17.721   0.907   8.556  1.00  0.00     0.031 A 
BRANCH  48  62
ATOM     62  C   UNL     1      17.002   3.034   2.801  1.00  0.00    -0.014 A 
ATOM     63  C   UNL     1      17.070   4.382   2.406  1.00  0.00     0.010 A 
ATOM     64  C   UNL     1      17.586   2.049   1.983  1.00  0.00     0.010 A 
ATOM     65  C   UNL     1      17.678   4.735   1.199  1.00  0.00     0.020 A 
ATOM     66  C   UNL     1      18.217   2.401   0.787  1.00  0.00     0.020 A 
ATOM     67  C   UNL     1      18.245   3.742   0.395  1.00  0.00     0.054 A 
BRANCH  67  68
ATOM     68  S   UNL     1      19.054   4.231  -1.153  1.00  0.00     0.124 S 
ATOM     69  O   UNL     1      17.908   4.511  -2.015  1.00  0.00    -0.237 OA
ATOM     70  O   UNL     1      19.837   5.397  -0.752  1.00  0.00    -0.237 OA
ATOM     71  O   UNL     1      19.838   3.055  -1.520  1.00  0.00    -0.744 OA
ENDBRANCH  67  68
ENDBRANCH  48  62
BRANCH  49  72
ATOM     72  C   UNL     1      12.293   0.169  11.132  1.00  0.00    -0.014 A 
ATOM     73  C   UNL     1      12.370   0.914  12.322  1.00  0.00     0.010 A 
ATOM     74  C   UNL     1      11.553  -1.027  11.119  1.00  0.00     0.010 A 
ATOM     75  C   UNL     1      11.739   0.460  13.484  1.00  0.00     0.020 A 
ATOM     76  C   UNL     1      10.901  -1.472  12.273  1.00  0.00     0.020 A 
ATOM     77  C   UNL     1      11.011  -0.732  13.453  1.00  0.00     0.054 A 
BRANCH  77  78
ATOM     78  S   UNL     1      10.166  -1.285  14.960  1.00  0.00     0.124 S 
ATOM     79  O   UNL     1      11.268  -1.839  15.739  1.00  0.00    -0.237 OA
ATOM     80  O   UNL     1       9.588  -0.045  15.474  1.00  0.00    -0.237 OA
ATOM     81  O   UNL     1       9.193  -2.257  14.467  1.00  0.00    -0.744 OA
ENDBRANCH  77  78
ENDBRANCH  49  72
BRANCH  61  82
ATOM     82  C   UNL     1      18.999   0.607   9.290  1.00  0.00    -0.014 A 
ATOM     83  C   UNL     1      19.413  -0.717   9.515  1.00  0.00     0.010 A 
ATOM     84  C   UNL     1      19.822   1.667   9.711  1.00  0.00     0.010 A 
ATOM     85  C   UNL     1      20.617  -0.976  10.175  1.00  0.00     0.020 A 
ATOM     86  C   UNL     1      21.037   1.412  10.350  1.00  0.00     0.020 A 
ATOM     87  C   UNL     1      21.421   0.090  10.590  1.00  0.00     0.054 A 
BRANCH  87  88
ATOM     88  S   UNL     1      23.001  -0.269  11.404  1.00  0.00     0.124 S 
ATOM     89  O   UNL     1      22.572  -0.639  12.750  1.00  0.00    -0.237 OA
ATOM     90  O   UNL     1      23.541  -1.358  10.594  1.00  0.00    -0.237 OA
ATOM     91  O   UNL     1      23.734   0.992  11.308  1.00  0.00    -0.744 OA
ENDBRANCH  87  88
ENDBRANCH  61  82
ENDBRANCH  35  36
ENDBRANCH  27  30
ENDBRANCH  25  26
ENDBRANCH  24  25
ENDBRANCH  23  24
ENDBRANCH   1  23
TORSDOF 20
