REMARK SMILES CCN1C(=O)CC[C@H](C(=O)NCCCCNC(=O)c2ccc(-c3c4nc(c(-c5ccc(S(=O)(=O)[O-])cc5)c5ccc([nH]5)c(-c5ccc(S(=O)(=O)[O-])cc5)c5nc(c(-c6ccc(S(=O)(=O)[O-])cc6)c6ccc3[nH]6)C=C5)C=C4)cc2)[C@@H]1c1ccc(OC)cc1
REMARK SMILES IDX 14 1 13 2 12 3 11 4 9 5 10 6 8 8 3 9 4 10 79 11 5 12 6 13
REMARK SMILES IDX 7 14 2 15 1 16 80 17 81 18 87 19 82 20 86 21 83 22 84 23
REMARK SMILES IDX 85 24 15 25 16 26 17 27 18 29 19 30 20 31 78 32 21 33 77 34
REMARK SMILES IDX 22 35 23 36 24 37 71 38 25 39 76 40 70 41 72 42 26 43 75 44
REMARK SMILES IDX 69 45 68 46 27 48 57 49 38 50 56 51 39 52 42 53 55 54 73 55
REMARK SMILES IDX 40 56 41 57 54 59 74 60 43 61 28 62 29 63 37 64 30 65 36 66
REMARK SMILES IDX 31 67 32 68 33 69 34 70 35 71 58 72 59 73 67 74 60 75 66 76
REMARK SMILES IDX 61 77 62 78 63 79 64 80 65 81 44 82 45 83 53 84 46 85 52 86
REMARK SMILES IDX 47 87 48 88 49 89 50 90 51 91
REMARK H PARENT 11 7 16 28 72 47 42 58
REMARK Flexibility Score: inf
ROOT
ATOM      1  C   UNL     1       5.049   7.175  -3.638  1.00  0.00     0.023 C 
ENDROOT
BRANCH   1   2
ATOM      2  C   UNL     1       4.621   5.709  -3.614  1.00  0.00     0.023 C 
BRANCH   2   3
ATOM      3  C   UNL     1       3.466   5.409  -2.673  1.00  0.00     0.116 C 
BRANCH   3   4
ATOM      4  N   UNL     1       2.181   5.874  -3.156  1.00  0.00    -0.356 N 
ATOM      5  C   UNL     1       0.970   5.252  -3.155  1.00  0.00     0.225 C 
ATOM      6  O   UNL     1      -0.031   5.959  -3.309  1.00  0.00    -0.275 OA
ATOM      7  H   UNL     1       2.185   6.778  -3.546  1.00  0.00     0.163 HD
BRANCH   5   8
ATOM      8  C   UNL     1       0.805   3.746  -2.976  1.00  0.00     0.106 C 
ATOM      9  N   UNL     1       0.702   1.748  -1.420  1.00  0.00    -0.335 N 
ATOM     10  C   UNL     1       1.052   0.893  -2.457  1.00  0.00     0.223 C 
ATOM     11  C   UNL     1       0.713   3.234  -1.523  1.00  0.00     0.128 C 
ATOM     12  O   UNL     1       1.080  -0.334  -2.343  1.00  0.00    -0.275 OA
ATOM     13  C   UNL     1       1.299   1.470  -3.833  1.00  0.00     0.101 C 
ATOM     14  C   UNL     1       1.716   2.918  -3.868  1.00  0.00     0.026 C 
BRANCH   9  15
ATOM     15  C   UNL     1       0.131   1.193  -0.179  1.00  0.00     0.117 C 
ATOM     16  C   UNL     1       0.785  -0.061   0.389  1.00  0.00     0.027 C 
ENDBRANCH   9  15
BRANCH  11  17
ATOM     17  C   UNL     1       1.674   3.871  -0.517  1.00  0.00    -0.024 A 
ATOM     18  C   UNL     1       2.858   3.243  -0.101  1.00  0.00     0.010 A 
ATOM     19  C   UNL     1       1.380   5.143   0.015  1.00  0.00     0.010 A 
ATOM     20  C   UNL     1       3.738   3.890   0.773  1.00  0.00     0.047 A 
ATOM     21  C   UNL     1       2.271   5.795   0.876  1.00  0.00     0.047 A 
ATOM     22  C   UNL     1       3.467   5.178   1.234  1.00  0.00     0.118 A 
BRANCH  22  23
ATOM     23  O   UNL     1       4.431   5.727   2.031  1.00  0.00    -0.497 OA
ATOM     24  C   UNL     1       4.499   7.150   2.030  1.00  0.00     0.278 C 
ENDBRANCH  22  23
ENDBRANCH  11  17
ENDBRANCH   5   8
ENDBRANCH   3   4
ENDBRANCH   2   3
ENDBRANCH   1   2
BRANCH   1  25
ATOM     25  C   UNL     1       5.280   7.821  -2.273  1.00  0.00     0.116 C 
BRANCH  25  26
ATOM     26  N   UNL     1       6.194   7.077  -1.417  1.00  0.00    -0.352 N 
ATOM     27  C   UNL     1       7.190   7.556  -0.595  1.00  0.00     0.251 C 
ATOM     28  H   UNL     1       6.084   6.099  -1.427  1.00  0.00     0.163 HD
ATOM     29  O   UNL     1       7.936   6.789  -0.012  1.00  0.00    -0.269 OA
BRANCH  27  30
ATOM     30  C   UNL     1       7.360   9.018  -0.450  1.00  0.00     0.039 A 
ATOM     31  C   UNL     1       8.632   9.568  -0.624  1.00  0.00     0.014 A 
ATOM     32  C   UNL     1       6.261   9.841  -0.186  1.00  0.00     0.014 A 
ATOM     33  C   UNL     1       8.786  10.955  -0.617  1.00  0.00     0.010 A 
ATOM     34  C   UNL     1       6.406  11.221  -0.236  1.00  0.00     0.010 A 
ATOM     35  C   UNL     1       7.667  11.789  -0.465  1.00  0.00    -0.014 A 
BRANCH  35  36
ATOM     36  C   UNL     1       7.773  13.259  -0.599  1.00  0.00     0.031 A 
ATOM     37  C   UNL     1       7.513  14.146   0.584  1.00  0.00     0.074 A 
ATOM     38  C   UNL     1       8.001  13.788  -1.817  1.00  0.00     0.049 A 
ATOM     39  N   UNL     1       7.493  15.452   0.643  1.00  0.00    -0.248 NA
ATOM     40  C   UNL     1       7.207  13.479   1.860  1.00  0.00     0.031 C 
ATOM     41  C   UNL     1       8.207  13.019  -3.047  1.00  0.00     0.029 A 
ATOM     42  N   UNL     1       8.079  15.094  -2.225  1.00  0.00    -0.354 N 
ATOM     43  C   UNL     1       7.166  15.764   1.957  1.00  0.00     0.074 A 
ATOM     44  C   UNL     1       6.946  14.512   2.648  1.00  0.00     0.031 C 
ATOM     45  C   UNL     1       8.406  13.868  -4.068  1.00  0.00     0.029 A 
ATOM     46  C   UNL     1       8.306  15.237  -3.574  1.00  0.00     0.049 A 
ATOM     47  H   UNL     1       7.982  15.857  -1.611  1.00  0.00     0.167 HD
ATOM     48  C   UNL     1       7.075  16.985   2.538  1.00  0.00     0.031 A 
ATOM     49  C   UNL     1       8.416  16.347  -4.328  1.00  0.00     0.031 A 
ATOM     50  C   UNL     1       7.288  18.223   1.836  1.00  0.00     0.049 A 
ATOM     51  C   UNL     1       8.305  17.690  -3.663  1.00  0.00     0.074 A 
ATOM     52  C   UNL     1       7.281  19.511   2.341  1.00  0.00     0.029 A 
ATOM     53  N   UNL     1       7.538  18.328   0.475  1.00  0.00    -0.354 N 
ATOM     54  N   UNL     1       8.082  17.967  -2.400  1.00  0.00    -0.248 NA
ATOM     55  C   UNL     1       8.475  18.870  -4.521  1.00  0.00     0.031 C 
ATOM     56  C   UNL     1       7.471  20.398   1.275  1.00  0.00     0.029 A 
ATOM     57  C   UNL     1       7.659  19.660   0.117  1.00  0.00     0.049 A 
ATOM     58  H   UNL     1       7.618  17.567  -0.145  1.00  0.00     0.167 HD
ATOM     59  C   UNL     1       8.110  19.353  -2.306  1.00  0.00     0.074 A 
ATOM     60  C   UNL     1       8.387  19.855  -3.638  1.00  0.00     0.031 C 
ATOM     61  C   UNL     1       7.925  20.140  -1.217  1.00  0.00     0.031 A 
BRANCH  48  62
ATOM     62  C   UNL     1       6.723  17.034   4.002  1.00  0.00    -0.014 A 
ATOM     63  C   UNL     1       7.623  16.574   4.981  1.00  0.00     0.010 A 
ATOM     64  C   UNL     1       5.489  17.573   4.409  1.00  0.00     0.010 A 
ATOM     65  C   UNL     1       7.277  16.608   6.334  1.00  0.00     0.020 A 
ATOM     66  C   UNL     1       5.151  17.637   5.764  1.00  0.00     0.020 A 
ATOM     67  C   UNL     1       6.040  17.135   6.717  1.00  0.00     0.054 A 
BRANCH  67  68
ATOM     68  S   UNL     1       5.622  17.177   8.482  1.00  0.00     0.124 S 
ATOM     69  O   UNL     1       5.366  15.766   8.762  1.00  0.00    -0.237 OA
ATOM     70  O   UNL     1       6.834  17.726   9.085  1.00  0.00    -0.237 OA
ATOM     71  O   UNL     1       4.450  18.046   8.541  1.00  0.00    -0.744 OA
ENDBRANCH  67  68
ENDBRANCH  48  62
BRANCH  49  72
ATOM     72  C   UNL     1       8.672  16.226  -5.788  1.00  0.00    -0.014 A 
ATOM     73  C   UNL     1       9.930  16.562  -6.320  1.00  0.00     0.010 A 
ATOM     74  C   UNL     1       7.672  15.743  -6.652  1.00  0.00     0.010 A 
ATOM     75  C   UNL     1      10.178  16.430  -7.689  1.00  0.00     0.020 A 
ATOM     76  C   UNL     1       7.925  15.584  -8.017  1.00  0.00     0.020 A 
ATOM     77  C   UNL     1       9.175  15.938  -8.529  1.00  0.00     0.054 A 
BRANCH  77  78
ATOM     78  S   UNL     1       9.543  15.716 -10.292  1.00  0.00     0.124 S 
ATOM     79  O   UNL     1       9.565  17.093 -10.773  1.00  0.00    -0.237 OA
ATOM     80  O   UNL     1      10.835  15.034 -10.261  1.00  0.00    -0.237 OA
ATOM     81  O   UNL     1       8.429  14.901 -10.773  1.00  0.00    -0.744 OA
ENDBRANCH  77  78
ENDBRANCH  49  72
BRANCH  61  82
ATOM     82  C   UNL     1       8.041  21.628  -1.415  1.00  0.00    -0.014 A 
ATOM     83  C   UNL     1       7.047  22.351  -2.097  1.00  0.00     0.010 A 
ATOM     84  C   UNL     1       9.138  22.317  -0.866  1.00  0.00     0.010 A 
ATOM     85  C   UNL     1       7.165  23.735  -2.254  1.00  0.00     0.020 A 
ATOM     86  C   UNL     1       9.244  23.703  -0.995  1.00  0.00     0.020 A 
ATOM     87  C   UNL     1       8.263  24.402  -1.702  1.00  0.00     0.054 A 
BRANCH  87  88
ATOM     88  S   UNL     1       8.369  26.203  -1.882  1.00  0.00     0.124 S 
ATOM     89  O   UNL     1       8.732  26.346  -3.289  1.00  0.00    -0.237 OA
ATOM     90  O   UNL     1       7.020  26.640  -1.533  1.00  0.00    -0.237 OA
ATOM     91  O   UNL     1       9.408  26.586  -0.928  1.00  0.00    -0.744 OA
ENDBRANCH  87  88
ENDBRANCH  61  82
ENDBRANCH  35  36
ENDBRANCH  27  30
ENDBRANCH  25  26
ENDBRANCH   1  25
TORSDOF 17
