REMARK SMILES CC(=O)N1CCN(C(=O)c2ccc(=O)n(CCC(=O)NCCCCNC(=O)c3ccc(-c4c5nc(c(-c6ccc(S(=O)(=O)[O-])cc6)c6ccc([nH]6)c(-c6ccc(S(=O)(=O)[O-])cc6)c6nc(c(-c7ccc(S(=O)(=O)[O-])cc7)c7ccc4[nH]7)C=C6)C=C5)cc3)n2)CC1
REMARK SMILES IDX 22 1 21 2 20 3 18 4 19 5 17 7 16 8 15 9 10 10 11 11 88 12
REMARK SMILES IDX 12 13 13 14 14 15 8 16 1 17 2 18 3 19 4 20 5 21 90 22 6 23
REMARK SMILES IDX 89 24 7 25 9 26 23 27 24 28 25 29 26 30 27 32 28 33 29 34
REMARK SMILES IDX 87 35 30 36 86 37 31 38 32 39 33 40 80 41 34 42 85 43 79 44
REMARK SMILES IDX 81 45 35 46 84 47 78 48 77 49 36 51 66 52 47 53 65 54 48 55
REMARK SMILES IDX 51 56 64 57 82 58 49 59 50 60 63 62 83 63 52 64 37 65 38 66
REMARK SMILES IDX 46 67 39 68 45 69 40 70 41 71 42 72 43 73 44 74 67 75 68 76
REMARK SMILES IDX 76 77 69 78 75 79 70 80 71 81 72 82 73 83 74 84 53 85 54 86
REMARK SMILES IDX 62 87 55 88 61 89 56 90 57 91 58 92 59 93 60 94
REMARK H PARENT 20 6 25 31 81 50 51 61
REMARK Flexibility Score: inf
ROOT
ATOM      1  C   UNL     1       6.796   6.135   6.759  1.00  0.00     0.023 C 
ENDROOT
BRANCH   1   2
ATOM      2  C   UNL     1       7.339   7.402   6.098  1.00  0.00     0.116 C 
BRANCH   2   3
ATOM      3  N   UNL     1       8.124   7.110   4.913  1.00  0.00    -0.356 N 
ATOM      4  C   UNL     1       7.765   7.041   3.604  1.00  0.00     0.221 C 
ATOM      5  O   UNL     1       8.638   6.820   2.761  1.00  0.00    -0.275 OA
ATOM      6  H   UNL     1       9.076   6.931   5.087  1.00  0.00     0.163 HD
BRANCH   4   7
ATOM      7  C   UNL     1       6.334   7.277   3.186  1.00  0.00     0.124 C 
BRANCH   7   8
ATOM      8  C   UNL     1       5.822   6.089   2.369  1.00  0.00     0.158 C 
BRANCH   8   9
ATOM      9  N   UNL     1       4.752   5.389   3.078  1.00  0.00    -0.229 N 
ATOM     10  C   UNL     1       2.510   5.117   3.354  1.00  0.00     0.149 A 
ATOM     11  C   UNL     1       2.676   4.336   4.591  1.00  0.00     0.042 A 
ATOM     12  N   UNL     1       3.464   5.657   2.663  1.00  0.00    -0.164 NA
ATOM     13  C   UNL     1       3.930   4.006   4.903  1.00  0.00     0.076 A 
ATOM     14  C   UNL     1       5.067   4.476   4.079  1.00  0.00     0.266 A 
ATOM     15  O   UNL     1       6.201   4.097   4.348  1.00  0.00    -0.268 OA
BRANCH  10  16
ATOM     16  C   UNL     1       1.099   5.191   2.803  1.00  0.00     0.274 C 
ATOM     17  C   UNL     1       0.417   0.089  -0.798  1.00  0.00     0.114 C 
ATOM     18  C   UNL     1      -0.465   1.307  -0.689  1.00  0.00     0.219 C 
ATOM     19  O   UNL     1      -1.667   1.225  -0.940  1.00  0.00    -0.275 OA
ATOM     20  N   UNL     1       0.135   2.487  -0.290  1.00  0.00    -0.339 N 
ATOM     21  C   UNL     1      -0.680   3.687  -0.071  1.00  0.00     0.141 C 
ATOM     22  C   UNL     1       1.533   2.642   0.113  1.00  0.00     0.141 C 
ATOM     23  C   UNL     1      -0.627   4.116   1.405  1.00  0.00     0.141 C 
ATOM     24  C   UNL     1       1.614   3.029   1.594  1.00  0.00     0.141 C 
ATOM     25  N   UNL     1       0.748   4.178   1.916  1.00  0.00    -0.334 N 
ATOM     26  O   UNL     1       0.369   6.097   3.180  1.00  0.00    -0.267 OA
ENDBRANCH  10  16
ENDBRANCH   8   9
ENDBRANCH   7   8
ENDBRANCH   4   7
ENDBRANCH   2   3
ENDBRANCH   1   2
BRANCH   1  27
ATOM     27  C   UNL     1       6.447   6.318   8.237  1.00  0.00     0.023 C 
BRANCH  27  28
ATOM     28  C   UNL     1       5.319   7.316   8.485  1.00  0.00     0.116 C 
BRANCH  28  29
ATOM     29  N   UNL     1       3.993   6.750   8.268  1.00  0.00    -0.352 N 
ATOM     30  C   UNL     1       3.135   6.065   9.102  1.00  0.00     0.251 C 
ATOM     31  H   UNL     1       3.646   6.881   7.356  1.00  0.00     0.163 HD
ATOM     32  O   UNL     1       2.134   5.544   8.611  1.00  0.00    -0.269 OA
BRANCH  30  33
ATOM     33  C   UNL     1       3.420   5.886  10.550  1.00  0.00     0.039 A 
ATOM     34  C   UNL     1       4.002   6.886  11.322  1.00  0.00     0.014 A 
ATOM     35  C   UNL     1       3.087   4.670  11.163  1.00  0.00     0.014 A 
ATOM     36  C   UNL     1       4.480   6.593  12.598  1.00  0.00     0.010 A 
ATOM     37  C   UNL     1       3.465   4.416  12.491  1.00  0.00     0.010 A 
ATOM     38  C   UNL     1       4.246   5.343  13.194  1.00  0.00    -0.014 A 
BRANCH  38  39
ATOM     39  C   UNL     1       4.927   5.008  14.481  1.00  0.00     0.031 A 
ATOM     40  C   UNL     1       5.901   3.853  14.553  1.00  0.00     0.074 A 
ATOM     41  C   UNL     1       4.813   5.822  15.552  1.00  0.00     0.049 A 
ATOM     42  N   UNL     1       6.599   3.433  15.579  1.00  0.00    -0.248 NA
ATOM     43  C   UNL     1       6.114   3.063  13.329  1.00  0.00     0.031 C 
ATOM     44  C   UNL     1       3.948   7.001  15.636  1.00  0.00     0.029 A 
ATOM     45  N   UNL     1       5.514   5.842  16.734  1.00  0.00    -0.354 N 
ATOM     46  C   UNL     1       7.255   2.285  15.152  1.00  0.00     0.074 A 
ATOM     47  C   UNL     1       6.907   2.093  13.761  1.00  0.00     0.031 C 
ATOM     48  C   UNL     1       4.296   7.719  16.715  1.00  0.00     0.029 A 
ATOM     49  C   UNL     1       5.359   7.019  17.430  1.00  0.00     0.049 A 
ATOM     50  H   UNL     1       6.070   5.093  17.050  1.00  0.00     0.167 HD
ATOM     51  C   UNL     1       8.059   1.452  15.855  1.00  0.00     0.031 A 
ATOM     52  C   UNL     1       6.030   7.508  18.491  1.00  0.00     0.031 A 
ATOM     53  C   UNL     1       8.479   1.681  17.207  1.00  0.00     0.049 A 
ATOM     54  C   UNL     1       7.077   6.676  19.168  1.00  0.00     0.074 A 
ATOM     55  C   UNL     1       9.156   0.835  18.069  1.00  0.00     0.029 A 
ATOM     56  N   UNL     1       8.327   2.887  17.868  1.00  0.00    -0.354 N 
ATOM     57  N   UNL     1       7.499   5.479  18.849  1.00  0.00    -0.248 NA
ATOM     58  C   UNL     1       7.715   7.248  20.362  1.00  0.00     0.031 C 
ATOM     59  C   UNL     1       9.452   1.550  19.239  1.00  0.00     0.029 A 
ATOM     60  C   UNL     1       8.958   2.836  19.097  1.00  0.00     0.049 A 
ATOM     61  H   UNL     1       7.841   3.667  17.515  1.00  0.00     0.167 HD
ATOM     62  C   UNL     1       8.418   5.132  19.830  1.00  0.00     0.074 A 
ATOM     63  C   UNL     1       8.530   6.265  20.726  1.00  0.00     0.031 C 
ATOM     64  C   UNL     1       9.077   3.959  19.987  1.00  0.00     0.031 A 
BRANCH  51  65
ATOM     65  C   UNL     1       8.489   0.191  15.167  1.00  0.00    -0.014 A 
ATOM     66  C   UNL     1       7.723  -0.977  15.330  1.00  0.00     0.010 A 
ATOM     67  C   UNL     1       9.623   0.166  14.339  1.00  0.00     0.010 A 
ATOM     68  C   UNL     1       8.066  -2.149  14.654  1.00  0.00     0.020 A 
ATOM     69  C   UNL     1       9.964  -1.004  13.653  1.00  0.00     0.020 A 
ATOM     70  C   UNL     1       9.183  -2.154  13.815  1.00  0.00     0.054 A 
BRANCH  70  71
ATOM     71  S   UNL     1       9.585  -3.640  12.854  1.00  0.00     0.124 S 
ATOM     72  O   UNL     1      10.633  -4.256  13.661  1.00  0.00    -0.237 OA
ATOM     73  O   UNL     1       8.317  -4.366  12.809  1.00  0.00    -0.237 OA
ATOM     74  O   UNL     1      10.016  -3.088  11.571  1.00  0.00    -0.744 OA
ENDBRANCH  70  71
ENDBRANCH  51  65
BRANCH  52  75
ATOM     75  C   UNL     1       5.780   8.906  18.916  1.00  0.00    -0.014 A 
ATOM     76  C   UNL     1       4.717   9.227  19.774  1.00  0.00     0.010 A 
ATOM     77  C   UNL     1       6.586   9.934  18.394  1.00  0.00     0.010 A 
ATOM     78  C   UNL     1       4.444  10.563  20.085  1.00  0.00     0.020 A 
ATOM     79  C   UNL     1       6.319  11.268  18.706  1.00  0.00     0.020 A 
ATOM     80  C   UNL     1       5.237  11.575  19.535  1.00  0.00     0.054 A 
BRANCH  80  81
ATOM     81  S   UNL     1       4.876  13.317  19.889  1.00  0.00     0.124 S 
ATOM     82  O   UNL     1       4.197  13.735  18.665  1.00  0.00    -0.237 OA
ATOM     83  O   UNL     1       4.035  13.254  21.081  1.00  0.00    -0.237 OA
ATOM     84  O   UNL     1       6.205  13.885  20.097  1.00  0.00    -0.744 OA
ENDBRANCH  80  81
ENDBRANCH  52  75
BRANCH  64  85
ATOM     85  C   UNL     1       9.956   3.817  21.192  1.00  0.00    -0.014 A 
ATOM     86  C   UNL     1      11.332   4.086  21.107  1.00  0.00     0.010 A 
ATOM     87  C   UNL     1       9.410   3.367  22.406  1.00  0.00     0.010 A 
ATOM     88  C   UNL     1      12.153   3.909  22.224  1.00  0.00     0.020 A 
ATOM     89  C   UNL     1      10.228   3.190  23.524  1.00  0.00     0.020 A 
ATOM     90  C   UNL     1      11.597   3.452  23.423  1.00  0.00     0.054 A 
BRANCH  90  91
ATOM     91  S   UNL     1      12.654   3.235  24.882  1.00  0.00     0.124 S 
ATOM     92  O   UNL     1      13.047   1.833  24.769  1.00  0.00    -0.237 OA
ATOM     93  O   UNL     1      13.724   4.207  24.667  1.00  0.00    -0.237 OA
ATOM     94  O   UNL     1      11.756   3.547  25.992  1.00  0.00    -0.744 OA
ENDBRANCH  90  91
ENDBRANCH  64  85
ENDBRANCH  38  39
ENDBRANCH  30  33
ENDBRANCH  28  29
ENDBRANCH  27  28
ENDBRANCH   1  27
TORSDOF 17
