REMARK SMILES CC[C@@H]1CCCN1C(=O)N1CC[C@@H](C(=O)NCCCCNC(=O)c2ccc(-c3c4nc(c(-c5ccc(S(=O)(=O)[O-])cc5)c5ccc([nH]5)c(-c5ccc(S(=O)(=O)[O-])cc5)c5nc(c(-c6ccc(S(=O)(=O)[O-])cc6)c6ccc3[nH]6)C=C5)C=C4)cc2)[C@@H]1C
REMARK SMILES IDX 18 1 17 2 16 3 14 4 15 5 13 7 10 8 11 9 84 10 12 11 85 12
REMARK SMILES IDX 8 13 9 14 7 15 3 16 4 17 5 18 6 19 2 20 1 21 19 22 20 23
REMARK SMILES IDX 21 24 22 25 23 27 24 28 25 29 83 30 26 31 82 32 27 33 28 34
REMARK SMILES IDX 29 35 76 36 30 37 81 38 75 39 77 40 31 41 80 42 74 43 73 44
REMARK SMILES IDX 32 46 62 47 43 48 61 49 44 50 47 51 60 52 78 53 45 54 46 55
REMARK SMILES IDX 59 57 79 58 48 59 33 60 34 61 42 62 35 63 41 64 36 65 37 66
REMARK SMILES IDX 38 67 39 68 40 69 63 70 64 71 72 72 65 73 71 74 66 75 67 76
REMARK SMILES IDX 68 77 69 78 70 79 49 80 50 81 58 82 51 83 57 84 52 85 53 86
REMARK SMILES IDX 54 87 55 88 56 89
REMARK H PARENT 16 6 21 26 77 45 47 56
REMARK Flexibility Score: inf
ROOT
ATOM      1  C   UNL     1       1.709   6.105  -0.003  1.00  0.00     0.023 C 
ENDROOT
BRANCH   1   2
ATOM      2  C   UNL     1       1.077   5.327   1.149  1.00  0.00     0.116 C 
BRANCH   2   3
ATOM      3  N   UNL     1      -0.311   4.989   0.908  1.00  0.00    -0.356 N 
ATOM      4  C   UNL     1      -0.883   3.803   0.566  1.00  0.00     0.225 C 
ATOM      5  O   UNL     1      -2.107   3.770   0.427  1.00  0.00    -0.275 OA
ATOM      6  H   UNL     1      -0.942   5.739   1.008  1.00  0.00     0.163 HD
BRANCH   4   7
ATOM      7  C   UNL     1      -0.022   2.567   0.390  1.00  0.00     0.102 C 
ATOM      8  N   UNL     1      -0.297   0.367   1.251  1.00  0.00    -0.321 N 
ATOM      9  C   UNL     1      -1.233   0.494   0.153  1.00  0.00     0.122 C 
ATOM     10  C   UNL     1      -0.001   1.731   1.692  1.00  0.00     0.096 C 
ATOM     11  C   UNL     1      -0.647   1.627  -0.665  1.00  0.00     0.037 C 
ATOM     12  C   UNL     1       1.310   1.821   2.465  1.00  0.00     0.032 C 
BRANCH   8  13
ATOM     13  C   UNL     1      -0.503  -0.621   2.179  1.00  0.00     0.320 C 
ATOM     14  O   UNL     1      -1.037  -0.365   3.260  1.00  0.00    -0.248 OA
BRANCH  13  15
ATOM     15  N   UNL     1      -0.074  -1.894   1.867  1.00  0.00    -0.322 N 
ATOM     16  C   UNL     1       0.959  -2.390   0.935  1.00  0.00     0.086 C 
ATOM     17  C   UNL     1       0.727  -3.910   0.995  1.00  0.00     0.027 C 
ATOM     18  C   UNL     1       0.430  -4.151   2.460  1.00  0.00     0.024 C 
ATOM     19  C   UNL     1      -0.383  -2.929   2.851  1.00  0.00     0.122 C 
BRANCH  16  20
ATOM     20  C   UNL     1       0.996  -1.954  -0.532  1.00  0.00     0.022 C 
ATOM     21  C   UNL     1       2.000  -0.838  -0.791  1.00  0.00     0.006 C 
ENDBRANCH  16  20
ENDBRANCH  13  15
ENDBRANCH   8  13
ENDBRANCH   4   7
ENDBRANCH   2   3
ENDBRANCH   1   2
BRANCH   1  22
ATOM     22  C   UNL     1       1.016   7.420  -0.370  1.00  0.00     0.023 C 
BRANCH  22  23
ATOM     23  C   UNL     1       0.712   8.364   0.789  1.00  0.00     0.116 C 
BRANCH  23  24
ATOM     24  N   UNL     1       1.893   8.758   1.539  1.00  0.00    -0.352 N 
ATOM     25  C   UNL     1       2.220   9.995   2.044  1.00  0.00     0.251 C 
ATOM     26  H   UNL     1       2.547   8.043   1.710  1.00  0.00     0.163 HD
ATOM     27  O   UNL     1       3.315  10.167   2.575  1.00  0.00    -0.269 OA
BRANCH  25  28
ATOM     28  C   UNL     1       1.273  11.125   1.908  1.00  0.00     0.039 A 
ATOM     29  C   UNL     1       1.753  12.351   1.440  1.00  0.00     0.014 A 
ATOM     30  C   UNL     1      -0.081  10.975   2.217  1.00  0.00     0.014 A 
ATOM     31  C   UNL     1       0.863  13.404   1.213  1.00  0.00     0.010 A 
ATOM     32  C   UNL     1      -0.977  12.003   1.927  1.00  0.00     0.010 A 
ATOM     33  C   UNL     1      -0.515  13.227   1.418  1.00  0.00    -0.014 A 
BRANCH  33  34
ATOM     34  C   UNL     1      -1.488  14.302   1.091  1.00  0.00     0.031 A 
ATOM     35  C   UNL     1      -2.314  14.935   2.179  1.00  0.00     0.074 A 
ATOM     36  C   UNL     1      -1.675  14.665  -0.194  1.00  0.00     0.049 A 
ATOM     37  N   UNL     1      -3.251  15.843   2.079  1.00  0.00    -0.248 NA
ATOM     38  C   UNL     1      -2.072  14.470   3.554  1.00  0.00     0.031 C 
ATOM     39  C   UNL     1      -0.968  14.100  -1.346  1.00  0.00     0.029 A 
ATOM     40  N   UNL     1      -2.524  15.591  -0.749  1.00  0.00    -0.354 N 
ATOM     41  C   UNL     1      -3.722  16.046   3.371  1.00  0.00     0.074 A 
ATOM     42  C   UNL     1      -2.999  15.133   4.231  1.00  0.00     0.031 C 
ATOM     43  C   UNL     1      -1.395  14.708  -2.465  1.00  0.00     0.029 A 
ATOM     44  C   UNL     1      -2.431  15.675  -2.118  1.00  0.00     0.049 A 
ATOM     45  H   UNL     1      -3.141  16.143  -0.216  1.00  0.00     0.167 HD
ATOM     46  C   UNL     1      -4.657  16.924   3.807  1.00  0.00     0.031 A 
ATOM     47  C   UNL     1      -3.108  16.438  -2.999  1.00  0.00     0.031 A 
ATOM     48  C   UNL     1      -5.368  17.838   2.953  1.00  0.00     0.049 A 
ATOM     49  C   UNL     1      -4.146  17.401  -2.492  1.00  0.00     0.074 A 
ATOM     50  C   UNL     1      -6.293  18.804   3.308  1.00  0.00     0.029 A 
ATOM     51  N   UNL     1      -5.236  17.899   1.574  1.00  0.00    -0.354 N 
ATOM     52  N   UNL     1      -4.530  17.623  -1.258  1.00  0.00    -0.248 NA
ATOM     53  C   UNL     1      -4.834  18.224  -3.496  1.00  0.00     0.031 C 
ATOM     54  C   UNL     1      -6.756  19.416   2.139  1.00  0.00     0.029 A 
ATOM     55  C   UNL     1      -6.078  18.871   1.061  1.00  0.00     0.049 A 
ATOM     56  H   UNL     1      -4.632  17.335   1.038  1.00  0.00     0.167 HD
ATOM     57  C   UNL     1      -5.486  18.630  -1.335  1.00  0.00     0.074 A 
ATOM     58  C   UNL     1      -5.611  18.983  -2.734  1.00  0.00     0.031 C 
ATOM     59  C   UNL     1      -6.194  19.211  -0.335  1.00  0.00     0.031 A 
BRANCH  46  60
ATOM     60  C   UNL     1      -4.969  16.932   5.281  1.00  0.00    -0.014 A 
ATOM     61  C   UNL     1      -4.037  17.415   6.217  1.00  0.00     0.010 A 
ATOM     62  C   UNL     1      -6.223  16.484   5.734  1.00  0.00     0.010 A 
ATOM     63  C   UNL     1      -4.335  17.408   7.582  1.00  0.00     0.020 A 
ATOM     64  C   UNL     1      -6.537  16.502   7.096  1.00  0.00     0.020 A 
ATOM     65  C   UNL     1      -5.583  16.948   8.014  1.00  0.00     0.054 A 
BRANCH  65  66
ATOM     66  S   UNL     1      -5.950  16.967   9.790  1.00  0.00     0.124 S 
ATOM     67  O   UNL     1      -5.136  15.855  10.276  1.00  0.00    -0.237 OA
ATOM     68  O   UNL     1      -5.501  18.296  10.196  1.00  0.00    -0.237 OA
ATOM     69  O   UNL     1      -7.394  16.754   9.848  1.00  0.00    -0.744 OA
ENDBRANCH  65  66
ENDBRANCH  46  60
BRANCH  47  70
ATOM     70  C   UNL     1      -2.810  16.333  -4.454  1.00  0.00    -0.014 A 
ATOM     71  C   UNL     1      -2.142  17.375  -5.122  1.00  0.00     0.010 A 
ATOM     72  C   UNL     1      -3.180  15.184  -5.177  1.00  0.00     0.010 A 
ATOM     73  C   UNL     1      -1.862  17.276  -6.488  1.00  0.00     0.020 A 
ATOM     74  C   UNL     1      -2.878  15.071  -6.537  1.00  0.00     0.020 A 
ATOM     75  C   UNL     1      -2.230  16.123  -7.187  1.00  0.00     0.054 A 
BRANCH  75  76
ATOM     76  S   UNL     1      -1.807  15.993  -8.947  1.00  0.00     0.124 S 
ATOM     77  O   UNL     1      -2.775  16.897  -9.559  1.00  0.00    -0.237 OA
ATOM     78  O   UNL     1      -0.417  16.442  -8.971  1.00  0.00    -0.237 OA
ATOM     79  O   UNL     1      -2.000  14.575  -9.240  1.00  0.00    -0.744 OA
ENDBRANCH  75  76
ENDBRANCH  47  70
BRANCH  59  80
ATOM     80  C   UNL     1      -7.147  20.315  -0.711  1.00  0.00    -0.014 A 
ATOM     81  C   UNL     1      -8.355  20.041  -1.376  1.00  0.00     0.010 A 
ATOM     82  C   UNL     1      -6.851  21.640  -0.343  1.00  0.00     0.010 A 
ATOM     83  C   UNL     1      -9.237  21.078  -1.692  1.00  0.00     0.020 A 
ATOM     84  C   UNL     1      -7.743  22.676  -0.633  1.00  0.00     0.020 A 
ATOM     85  C   UNL     1      -8.925  22.389  -1.319  1.00  0.00     0.054 A 
BRANCH  85  86
ATOM     86  S   UNL     1     -10.107  23.711  -1.701  1.00  0.00     0.124 S 
ATOM     87  O   UNL     1      -9.920  23.879  -3.140  1.00  0.00    -0.237 OA
ATOM     88  O   UNL     1     -11.384  23.128  -1.297  1.00  0.00    -0.237 OA
ATOM     89  O   UNL     1      -9.652  24.831  -0.879  1.00  0.00    -0.744 OA
ENDBRANCH  85  86
ENDBRANCH  59  80
ENDBRANCH  33  34
ENDBRANCH  25  28
ENDBRANCH  23  24
ENDBRANCH  22  23
ENDBRANCH   1  22
TORSDOF 17
