REMARK SMILES COC(=O)c1c(NC(=O)c2ccncc2C(=O)NCCCCNC(=O)c2ccc(-c3c4nc(c(-c5ccc(S(=O)(=O)[O-])cc5)c5ccc([nH]5)c(-c5ccc(S(=O)(=O)[O-])cc5)c5nc(c(-c6ccc(S(=O)(=O)[O-])cc6)c6ccc3[nH]6)C=C5)C=C4)cc2)sc2c1CCCCCC2
REMARK SMILES IDX 19 1 18 2 16 3 17 4 15 6 10 7 11 8 12 9 14 10 13 11 8 12
REMARK SMILES IDX 7 13 9 15 6 16 5 17 88 18 86 19 87 20 3 21 4 22 2 23 1 24
REMARK SMILES IDX 89 25 90 26 91 27 92 28 94 30 93 31 20 33 21 34 22 35 23 36
REMARK SMILES IDX 24 37 25 39 26 40 27 41 85 42 28 43 84 44 29 45 30 46 31 47
REMARK SMILES IDX 78 48 32 49 83 50 77 51 79 52 33 53 82 54 76 55 75 56 34 58
REMARK SMILES IDX 64 59 45 60 63 61 46 62 49 63 62 64 80 65 47 66 48 67 61 69
REMARK SMILES IDX 81 70 50 71 35 72 36 73 44 74 37 75 43 76 38 77 39 78 40 79
REMARK SMILES IDX 41 80 42 81 65 82 66 83 74 84 67 85 73 86 68 87 69 88 70 89
REMARK SMILES IDX 71 90 72 91 51 92 52 93 60 94 53 95 59 96 54 97 55 98 56 99
REMARK SMILES IDX 57 100 58 101
REMARK H PARENT 18 5 7 14 23 38 79 57 49 68
REMARK Flexibility Score: 90.00
ROOT
ATOM      1  C   UNL     1      -2.937  -1.415  -2.221  1.00  0.00     0.116 C 
ENDROOT
BRANCH   1   2
ATOM      2  N   UNL     1      -2.535  -1.818  -0.903  1.00  0.00    -0.352 N 
ATOM      3  C   UNL     1      -1.897  -1.121   0.106  1.00  0.00     0.253 C 
ATOM      4  O   UNL     1      -1.720  -1.781   1.137  1.00  0.00    -0.269 OA
ATOM      5  H   UNL     1      -2.751  -2.752  -0.679  1.00  0.00     0.163 HD
BRANCH   3   6
ATOM      6  C   UNL     1      -1.323   0.275   0.076  1.00  0.00     0.070 A 
ATOM      7  C   UNL     1      -1.454   1.341  -0.824  1.00  0.00     0.056 A 
ATOM      8  C   UNL     1      -0.764   2.558  -0.649  1.00  0.00     0.035 A 
ATOM      9  C   UNL     1       0.099   2.680   0.414  1.00  0.00     0.112 A 
ATOM     10  C   UNL     1      -0.459   0.558   1.143  1.00  0.00     0.125 A 
ATOM     11  N   UNL     1       0.267   1.702   1.315  1.00  0.00    -0.264 NA
BRANCH   7  12
ATOM     12  C   UNL     1      -2.437   1.409  -1.886  1.00  0.00     0.257 C 
ATOM     13  N   UNL     1      -2.101   1.433  -3.213  1.00  0.00    -0.313 N 
ATOM     14  H   UNL     1      -2.891   1.497  -3.797  1.00  0.00     0.171 HD
ATOM     15  O   UNL     1      -3.619   1.484  -1.558  1.00  0.00    -0.269 OA
BRANCH  13  16
ATOM     16  C   UNL     1      -0.926   1.388  -3.929  1.00  0.00     0.110 A 
ATOM     17  C   UNL     1       0.445   1.292  -3.762  1.00  0.00     0.098 A 
ATOM     18  C   UNL     1       1.143   1.612  -5.024  1.00  0.00    -0.017 A 
ATOM     19  S   UNL     1      -1.351   1.488  -5.578  1.00  0.00    -0.122 S 
ATOM     20  C   UNL     1       0.259   1.735  -6.089  1.00  0.00     0.011 A 
BRANCH  17  21
ATOM     21  C   UNL     1       1.175   1.001  -2.538  1.00  0.00     0.341 C 
ATOM     22  O   UNL     1       1.997   1.794  -2.056  1.00  0.00    -0.246 OA
BRANCH  21  23
ATOM     23  O   UNL     1       0.979  -0.264  -2.084  1.00  0.00    -0.465 OA
ATOM     24  C   UNL     1       1.877  -0.659  -1.037  1.00  0.00     0.282 C 
ENDBRANCH  21  23
ENDBRANCH  17  21
BRANCH  18  25
ATOM     25  C   UNL     1       2.642   1.794  -5.118  1.00  0.00     0.037 C 
BRANCH  25  26
ATOM     26  C   UNL     1       3.386   0.647  -5.788  1.00  0.00     0.005 C 
BRANCH  26  27
ATOM     27  C   UNL     1       2.902   0.237  -7.177  1.00  0.00     0.000 C 
BRANCH  27  28
ATOM     28  C   UNL     1       2.852   1.353  -8.219  1.00  0.00     0.000 CG0
ATOM     29  G   UNL     1       1.812   2.464  -8.036  1.00  0.00     0.000 G0
ENDBRANCH  27  28
ENDBRANCH  26  27
ENDBRANCH  25  26
ENDBRANCH  18  25
BRANCH  20  30
ATOM     30  C   UNL     1       0.436   2.015  -7.563  1.00  0.00     0.047 C 
BRANCH  30  31
ATOM     31  C   UNL     1       1.812   2.464  -8.036  1.00  0.00     0.006 CG0
ATOM     32  G   UNL     1       2.852   1.353  -8.219  1.00  0.00     0.000 G0
ENDBRANCH  30  31
ENDBRANCH  20  30
ENDBRANCH  13  16
ENDBRANCH   7  12
ENDBRANCH   3   6
ENDBRANCH   1   2
BRANCH   1  33
ATOM     33  C   UNL     1      -3.102  -2.468  -3.314  1.00  0.00     0.023 C 
BRANCH  33  34
ATOM     34  C   UNL     1      -4.265  -3.455  -3.231  1.00  0.00     0.023 C 
BRANCH  34  35
ATOM     35  C   UNL     1      -5.641  -2.845  -3.013  1.00  0.00     0.116 C 
BRANCH  35  36
ATOM     36  N   UNL     1      -6.133  -2.019  -4.119  1.00  0.00    -0.352 N 
ATOM     37  C   UNL     1      -7.411  -1.488  -4.245  1.00  0.00     0.251 C 
ATOM     38  H   UNL     1      -5.497  -1.821  -4.843  1.00  0.00     0.163 HD
ATOM     39  O   UNL     1      -7.836  -1.093  -5.324  1.00  0.00    -0.269 OA
BRANCH  37  40
ATOM     40  C   UNL     1      -8.242  -1.404  -3.028  1.00  0.00     0.039 A 
ATOM     41  C   UNL     1      -9.571  -1.839  -2.990  1.00  0.00     0.014 A 
ATOM     42  C   UNL     1      -7.603  -0.955  -1.877  1.00  0.00     0.014 A 
ATOM     43  C   UNL     1     -10.218  -1.911  -1.754  1.00  0.00     0.010 A 
ATOM     44  C   UNL     1      -8.177  -1.189  -0.657  1.00  0.00     0.010 A 
ATOM     45  C   UNL     1      -9.502  -1.607  -0.586  1.00  0.00    -0.014 A 
BRANCH  45  46
ATOM     46  C   UNL     1     -10.060  -1.838   0.745  1.00  0.00     0.031 A 
ATOM     47  C   UNL     1     -10.459  -3.249   1.016  1.00  0.00     0.074 A 
ATOM     48  C   UNL     1      -9.933  -0.924   1.735  1.00  0.00     0.049 A 
ATOM     49  N   UNL     1     -11.646  -3.718   1.214  1.00  0.00    -0.248 NA
ATOM     50  C   UNL     1      -9.423  -4.293   0.907  1.00  0.00     0.031 C 
ATOM     51  C   UNL     1      -9.241   0.373   1.678  1.00  0.00     0.029 A 
ATOM     52  N   UNL     1     -10.254  -1.021   3.053  1.00  0.00    -0.354 N 
ATOM     53  C   UNL     1     -11.477  -5.070   1.509  1.00  0.00     0.074 A 
ATOM     54  C   UNL     1     -10.143  -5.404   1.082  1.00  0.00     0.031 C 
ATOM     55  C   UNL     1      -8.964   0.798   2.930  1.00  0.00     0.029 A 
ATOM     56  C   UNL     1      -9.619  -0.089   3.872  1.00  0.00     0.049 A 
ATOM     57  H   UNL     1     -10.884  -1.694   3.400  1.00  0.00     0.167 HD
ATOM     58  C   UNL     1     -12.330  -5.729   2.346  1.00  0.00     0.031 A 
ATOM     59  C   UNL     1      -9.601  -0.065   5.229  1.00  0.00     0.031 A 
ATOM     60  C   UNL     1     -13.529  -4.963   2.581  1.00  0.00     0.049 A 
ATOM     61  C   UNL     1     -10.738  -0.900   5.685  1.00  0.00     0.074 A 
ATOM     62  C   UNL     1     -14.525  -4.433   1.785  1.00  0.00     0.029 A 
ATOM     63  N   UNL     1     -13.603  -4.290   3.779  1.00  0.00    -0.354 N 
ATOM     64  N   UNL     1     -11.986  -0.598   5.457  1.00  0.00    -0.248 NA
ATOM     65  C   UNL     1     -10.479  -2.299   5.980  1.00  0.00     0.031 C 
ATOM     66  C   UNL     1     -14.817  -3.162   2.363  1.00  0.00     0.029 A 
ATOM     67  C   UNL     1     -14.052  -3.022   3.523  1.00  0.00     0.049 A 
ATOM     68  H   UNL     1     -13.374  -4.656   4.664  1.00  0.00     0.167 HD
ATOM     69  C   UNL     1     -12.588  -1.806   5.136  1.00  0.00     0.074 A 
ATOM     70  C   UNL     1     -11.639  -2.828   5.579  1.00  0.00     0.031 C 
ATOM     71  C   UNL     1     -13.659  -1.856   4.288  1.00  0.00     0.031 A 
BRANCH  58  72
ATOM     72  C   UNL     1     -11.898  -6.824   3.304  1.00  0.00    -0.014 A 
ATOM     73  C   UNL     1     -12.867  -7.389   4.161  1.00  0.00     0.010 A 
ATOM     74  C   UNL     1     -10.550  -7.107   3.603  1.00  0.00     0.010 A 
ATOM     75  C   UNL     1     -12.501  -8.099   5.313  1.00  0.00     0.020 A 
ATOM     76  C   UNL     1     -10.174  -7.853   4.723  1.00  0.00     0.020 A 
ATOM     77  C   UNL     1     -11.152  -8.308   5.595  1.00  0.00     0.054 A 
BRANCH  77  78
ATOM     78  S   UNL     1     -10.682  -9.113   7.145  1.00  0.00     0.124 S 
ATOM     79  O   UNL     1     -11.114  -8.131   8.134  1.00  0.00    -0.237 OA
ATOM     80  O   UNL     1     -11.457 -10.350   7.096  1.00  0.00    -0.237 OA
ATOM     81  O   UNL     1      -9.236  -9.283   7.016  1.00  0.00    -0.744 OA
ENDBRANCH  77  78
ENDBRANCH  58  72
BRANCH  59  82
ATOM     82  C   UNL     1      -8.512   0.375   6.141  1.00  0.00    -0.014 A 
ATOM     83  C   UNL     1      -8.754   0.591   7.511  1.00  0.00     0.010 A 
ATOM     84  C   UNL     1      -7.168   0.302   5.720  1.00  0.00     0.010 A 
ATOM     85  C   UNL     1      -7.694   0.665   8.434  1.00  0.00     0.020 A 
ATOM     86  C   UNL     1      -6.106   0.380   6.633  1.00  0.00     0.020 A 
ATOM     87  C   UNL     1      -6.375   0.536   7.991  1.00  0.00     0.054 A 
BRANCH  87  88
ATOM     88  S   UNL     1      -5.025   0.447   9.208  1.00  0.00     0.124 S 
ATOM     89  O   UNL     1      -4.973   1.814   9.718  1.00  0.00    -0.237 OA
ATOM     90  O   UNL     1      -5.510  -0.559  10.149  1.00  0.00    -0.237 OA
ATOM     91  O   UNL     1      -3.869   0.038   8.412  1.00  0.00    -0.744 OA
ENDBRANCH  87  88
ENDBRANCH  59  82
BRANCH  71  92
ATOM     92  C   UNL     1     -14.369  -0.565   3.945  1.00  0.00    -0.014 A 
ATOM     93  C   UNL     1     -13.769   0.515   3.266  1.00  0.00     0.010 A 
ATOM     94  C   UNL     1     -15.752  -0.514   4.189  1.00  0.00     0.010 A 
ATOM     95  C   UNL     1     -14.533   1.625   2.868  1.00  0.00     0.020 A 
ATOM     96  C   UNL     1     -16.520   0.577   3.780  1.00  0.00     0.020 A 
ATOM     97  C   UNL     1     -15.907   1.647   3.130  1.00  0.00     0.054 A 
BRANCH  97  98
ATOM     98  S   UNL     1     -16.904   3.062   2.583  1.00  0.00     0.124 S 
ATOM     99  O   UNL     1     -16.425   4.140   3.444  1.00  0.00    -0.237 OA
ATOM    100  O   UNL     1     -16.553   3.183   1.170  1.00  0.00    -0.237 OA
ATOM    101  O   UNL     1     -18.280   2.637   2.835  1.00  0.00    -0.744 OA
ENDBRANCH  97  98
ENDBRANCH  71  92
ENDBRANCH  45  46
ENDBRANCH  37  40
ENDBRANCH  35  36
ENDBRANCH  34  35
ENDBRANCH  33  34
ENDBRANCH   1  33
TORSDOF 18
