REMARK SMILES CC(=O)Nc1ccc(/C(=C\c2ccc(S(C)(=O)=O)cc2)C(=O)NCCCCNC(=O)c2ccc(-c3c4nc(c(-c5ccc(S(=O)(=O)[O-])cc5)c5ccc([nH]5)c(-c5ccc(S(=O)(=O)[O-])cc5)c5nc(c(-c6ccc(S(=O)(=O)[O-])cc6)c6ccc3[nH]6)C=C5)C=C4)cc2)cc1
REMARK SMILES IDX 26 1 25 2 24 3 23 4 21 5 22 6 9 8 10 9 8 10 5 11 6 12 92 13
REMARK SMILES IDX 7 14 91 15 4 16 1 17 2 18 3 19 11 21 12 22 20 23 13 24 19 25
REMARK SMILES IDX 14 26 15 27 16 28 17 29 18 30 27 31 28 32 29 33 30 35 31 36
REMARK SMILES IDX 32 37 90 38 33 39 89 40 34 41 35 42 36 43 83 44 37 45 88 46
REMARK SMILES IDX 82 47 84 48 38 49 87 50 81 51 80 52 39 54 69 55 50 56 68 57
REMARK SMILES IDX 51 58 54 59 67 60 85 61 52 62 53 63 66 65 86 66 55 67 40 68
REMARK SMILES IDX 41 69 49 70 42 71 48 72 43 73 44 74 45 75 46 76 47 77 70 78
REMARK SMILES IDX 71 79 79 80 72 81 78 82 73 83 74 84 75 85 76 86 77 87 56 88
REMARK SMILES IDX 57 89 65 90 58 91 64 92 59 93 60 94 61 95 62 96 63 97
REMARK H PARENT 23 7 4 20 28 34 84 53 54 64
REMARK Flexibility Score: inf
ROOT
ATOM      1  C   UNL     1       7.079  -4.533   7.639  1.00  0.00     0.023 C 
ENDROOT
BRANCH   1   2
ATOM      2  C   UNL     1       6.052  -3.423   7.892  1.00  0.00     0.023 C 
BRANCH   2   3
ATOM      3  C   UNL     1       6.516  -2.027   7.466  1.00  0.00     0.116 C 
BRANCH   3   4
ATOM      4  N   UNL     1       6.454  -1.888   6.025  1.00  0.00    -0.352 N 
ATOM      5  C   UNL     1       5.578  -1.351   5.136  1.00  0.00     0.251 C 
ATOM      6  O   UNL     1       5.967  -1.424   3.967  1.00  0.00    -0.269 OA
ATOM      7  H   UNL     1       7.240  -2.279   5.581  1.00  0.00     0.163 HD
BRANCH   5   8
ATOM      8  C   UNL     1       4.260  -0.656   5.496  1.00  0.00     0.047 C 
ATOM      9  C   UNL     1       3.682  -0.942   6.687  1.00  0.00     0.022 C 
BRANCH   8  10
ATOM     10  C   UNL     1       3.547   0.177   4.452  1.00  0.00    -0.013 A 
ATOM     11  C   UNL     1       1.866   1.376   2.466  1.00  0.00     0.041 A 
ATOM     12  C   UNL     1       1.874   1.844   3.782  1.00  0.00     0.027 A 
ATOM     13  C   UNL     1       2.804   0.419   2.119  1.00  0.00     0.027 A 
ATOM     14  C   UNL     1       2.727   1.276   4.748  1.00  0.00     0.011 A 
ATOM     15  C   UNL     1       3.598  -0.190   3.099  1.00  0.00     0.011 A 
BRANCH  11  16
ATOM     16  N   UNL     1       0.915   1.913   1.582  1.00  0.00    -0.326 N 
ATOM     17  C   UNL     1       0.854   0.174  -0.224  1.00  0.00     0.114 C 
ATOM     18  C   UNL     1       0.454   1.500   0.363  1.00  0.00     0.221 C 
ATOM     19  O   UNL     1      -0.342   2.227  -0.239  1.00  0.00    -0.275 OA
ATOM     20  H   UNL     1       0.500   2.746   1.903  1.00  0.00     0.169 HD
ENDBRANCH  11  16
ENDBRANCH   8  10
BRANCH   9  21
ATOM     21  C   UNL     1       2.526  -0.333   7.359  1.00  0.00    -0.025 A 
ATOM     22  C   UNL     1       2.779   0.542   8.430  1.00  0.00     0.009 A 
ATOM     23  C   UNL     1       1.210  -0.568   6.952  1.00  0.00     0.009 A 
ATOM     24  C   UNL     1       1.731   1.214   9.059  1.00  0.00     0.021 A 
ATOM     25  C   UNL     1       0.156   0.106   7.576  1.00  0.00     0.021 A 
ATOM     26  C   UNL     1       0.423   0.994   8.624  1.00  0.00     0.067 A 
BRANCH  26  27
ATOM     27  S   UNL     1      -0.897   1.927   9.362  1.00  0.00     0.175 S 
ATOM     28  C   UNL     1      -1.158   1.127  10.922  1.00  0.00     0.163 C 
ATOM     29  O   UNL     1      -0.391   3.262   9.614  1.00  0.00    -0.224 OA
ATOM     30  O   UNL     1      -2.086   1.726   8.554  1.00  0.00    -0.224 OA
ENDBRANCH  26  27
ENDBRANCH   9  21
ENDBRANCH   5   8
ENDBRANCH   3   4
ENDBRANCH   2   3
ENDBRANCH   1   2
BRANCH   1  31
ATOM     31  C   UNL     1       8.429  -4.331   8.319  1.00  0.00     0.116 C 
BRANCH  31  32
ATOM     32  N   UNL     1       8.318  -4.094   9.751  1.00  0.00    -0.352 N 
ATOM     33  C   UNL     1       9.161  -4.507  10.754  1.00  0.00     0.251 C 
ATOM     34  H   UNL     1       7.536  -3.569  10.038  1.00  0.00     0.163 HD
ATOM     35  O   UNL     1       8.859  -4.327  11.928  1.00  0.00    -0.269 OA
BRANCH  33  36
ATOM     36  C   UNL     1      10.411  -5.204  10.394  1.00  0.00     0.039 A 
ATOM     37  C   UNL     1      10.700  -6.427  11.001  1.00  0.00     0.014 A 
ATOM     38  C   UNL     1      11.259  -4.676   9.417  1.00  0.00     0.014 A 
ATOM     39  C   UNL     1      11.807  -7.159  10.573  1.00  0.00     0.010 A 
ATOM     40  C   UNL     1      12.317  -5.442   8.940  1.00  0.00     0.010 A 
ATOM     41  C   UNL     1      12.599  -6.693   9.509  1.00  0.00    -0.014 A 
BRANCH  41  42
ATOM     42  C   UNL     1      13.707  -7.514   8.961  1.00  0.00     0.031 A 
ATOM     43  C   UNL     1      15.125  -7.019   9.031  1.00  0.00     0.074 A 
ATOM     44  C   UNL     1      13.424  -8.675   8.336  1.00  0.00     0.049 A 
ATOM     45  N   UNL     1      16.214  -7.576   8.568  1.00  0.00    -0.248 NA
ATOM     46  C   UNL     1      15.346  -5.718   9.683  1.00  0.00     0.031 C 
ATOM     47  C   UNL     1      12.082  -9.235   8.156  1.00  0.00     0.029 A 
ATOM     48  N   UNL     1      14.247  -9.589   7.727  1.00  0.00    -0.354 N 
ATOM     49  C   UNL     1      17.244  -6.688   8.856  1.00  0.00     0.074 A 
ATOM     50  C   UNL     1      16.643  -5.534   9.488  1.00  0.00     0.031 C 
ATOM     51  C   UNL     1      12.176 -10.406   7.509  1.00  0.00     0.029 A 
ATOM     52  C   UNL     1      13.576 -10.661   7.185  1.00  0.00     0.049 A 
ATOM     53  H   UNL     1      15.225  -9.487   7.682  1.00  0.00     0.167 HD
ATOM     54  C   UNL     1      18.572  -6.829   8.629  1.00  0.00     0.031 A 
ATOM     55  C   UNL     1      14.033 -11.724   6.495  1.00  0.00     0.031 A 
ATOM     56  C   UNL     1      19.163  -7.982   8.003  1.00  0.00     0.049 A 
ATOM     57  C   UNL     1      15.511 -11.854   6.248  1.00  0.00     0.074 A 
ATOM     58  C   UNL     1      20.503  -8.252   7.791  1.00  0.00     0.029 A 
ATOM     59  N   UNL     1      18.452  -9.051   7.477  1.00  0.00    -0.354 N 
ATOM     60  N   UNL     1      16.480 -11.046   6.609  1.00  0.00    -0.248 NA
ATOM     61  C   UNL     1      15.959 -13.044   5.511  1.00  0.00     0.031 C 
ATOM     62  C   UNL     1      20.599  -9.451   7.077  1.00  0.00     0.029 A 
ATOM     63  C   UNL     1      19.323  -9.964   6.908  1.00  0.00     0.049 A 
ATOM     64  H   UNL     1      17.472  -9.146   7.505  1.00  0.00     0.167 HD
ATOM     65  C   UNL     1      17.654 -11.640   6.160  1.00  0.00     0.074 A 
ATOM     66  C   UNL     1      17.275 -12.885   5.522  1.00  0.00     0.031 C 
ATOM     67  C   UNL     1      18.931 -11.195   6.267  1.00  0.00     0.031 A 
BRANCH  54  68
ATOM     68  C   UNL     1      19.476  -5.698   9.048  1.00  0.00    -0.014 A 
ATOM     69  C   UNL     1      19.687  -5.395  10.406  1.00  0.00     0.010 A 
ATOM     70  C   UNL     1      20.156  -4.950   8.069  1.00  0.00     0.010 A 
ATOM     71  C   UNL     1      20.523  -4.338  10.774  1.00  0.00     0.020 A 
ATOM     72  C   UNL     1      21.019  -3.913   8.434  1.00  0.00     0.020 A 
ATOM     73  C   UNL     1      21.183  -3.602   9.785  1.00  0.00     0.054 A 
BRANCH  73  74
ATOM     74  S   UNL     1      22.277  -2.249  10.294  1.00  0.00     0.124 S 
ATOM     75  O   UNL     1      21.320  -1.249  10.764  1.00  0.00    -0.237 OA
ATOM     76  O   UNL     1      23.093  -2.872  11.333  1.00  0.00    -0.237 OA
ATOM     77  O   UNL     1      22.991  -1.899   9.069  1.00  0.00    -0.744 OA
ENDBRANCH  73  74
ENDBRANCH  54  68
BRANCH  55  78
ATOM     78  C   UNL     1      13.076 -12.749   5.995  1.00  0.00    -0.014 A 
ATOM     79  C   UNL     1      13.046 -14.039   6.554  1.00  0.00     0.010 A 
ATOM     80  C   UNL     1      12.168 -12.430   4.967  1.00  0.00     0.010 A 
ATOM     81  C   UNL     1      12.137 -14.993   6.088  1.00  0.00     0.020 A 
ATOM     82  C   UNL     1      11.238 -13.371   4.519  1.00  0.00     0.020 A 
ATOM     83  C   UNL     1      11.234 -14.651   5.076  1.00  0.00     0.054 A 
BRANCH  83  84
ATOM     84  S   UNL     1      10.022 -15.886   4.531  1.00  0.00     0.124 S 
ATOM     85  O   UNL     1      10.858 -16.827   3.792  1.00  0.00    -0.237 OA
ATOM     86  O   UNL     1       9.482 -16.376   5.797  1.00  0.00    -0.237 OA
ATOM     87  O   UNL     1       9.085 -15.111   3.722  1.00  0.00    -0.744 OA
ENDBRANCH  83  84
ENDBRANCH  55  78
BRANCH  67  88
ATOM     88  C   UNL     1      20.020 -12.067   5.699  1.00  0.00    -0.014 A 
ATOM     89  C   UNL     1      20.182 -12.222   4.311  1.00  0.00     0.010 A 
ATOM     90  C   UNL     1      20.931 -12.694   6.569  1.00  0.00     0.010 A 
ATOM     91  C   UNL     1      21.218 -13.012   3.805  1.00  0.00     0.020 A 
ATOM     92  C   UNL     1      21.987 -13.457   6.066  1.00  0.00     0.020 A 
ATOM     93  C   UNL     1      22.116 -13.623   4.686  1.00  0.00     0.054 A 
BRANCH  93  94
ATOM     94  S   UNL     1      23.479 -14.603   4.001  1.00  0.00     0.124 S 
ATOM     95  O   UNL     1      22.783 -15.788   3.508  1.00  0.00    -0.237 OA
ATOM     96  O   UNL     1      24.022 -13.719   2.973  1.00  0.00    -0.237 OA
ATOM     97  O   UNL     1      24.356 -14.827   5.148  1.00  0.00    -0.744 OA
ENDBRANCH  93  94
ENDBRANCH  67  88
ENDBRANCH  41  42
ENDBRANCH  33  36
ENDBRANCH  31  32
ENDBRANCH   1  31
TORSDOF 18
