REMARK SMILES COc1cc([C@@H]2CC(=O)Nc3c(C(=O)NCCCCNC(=O)c4ccc(-c5c6nc(c(-c7ccc(S(=O)(=O)[O-])cc7)c7ccc([nH]7)c(-c7ccc(S(=O)(=O)[O-])cc7)c7nc(c(-c8ccc(S(=O)(=O)[O-])cc8)c8ccc5[nH]8)C=C7)C=C6)cc4)cn(-c4ccc(F)cc4)c32)c(OC)c2c1OCO2
REMARK SMILES IDX 18 1 17 2 16 3 15 4 13 5 14 6 12 8 6 9 7 10 92 11 8 12 11 13
REMARK SMILES IDX 84 14 9 15 10 16 83 17 5 19 3 20 4 21 97 22 96 23 98 24
REMARK SMILES IDX 93 25 100 26 99 27 2 28 1 29 94 30 95 31 85 32 86 33 91 34
REMARK SMILES IDX 87 35 90 36 88 37 89 38 19 39 20 40 21 41 22 43 23 44 24 45
REMARK SMILES IDX 82 46 25 47 81 48 26 49 27 50 28 51 75 52 29 53 80 54 74 55
REMARK SMILES IDX 76 56 30 57 79 58 73 59 72 60 31 62 61 63 42 64 60 65 43 66
REMARK SMILES IDX 46 67 59 68 77 69 44 70 45 71 58 73 78 74 47 75 32 76 33 77
REMARK SMILES IDX 41 78 34 79 40 80 35 81 36 82 37 83 38 84 39 85 62 86 63 87
REMARK SMILES IDX 71 88 64 89 70 90 65 91 66 92 67 93 68 94 69 95 48 96 49 97
REMARK SMILES IDX 57 98 50 99 56 100 51 101 52 102 53 103 54 104 55 105
REMARK H PARENT 15 7 10 18 20 42 76 61 46 72
REMARK Flexibility Score: inf
ROOT
ATOM      1  C   UNL     1       0.384  -2.502 -12.678  1.00  0.00     0.023 C 
ENDROOT
BRANCH   1   2
ATOM      2  C   UNL     1       0.462  -2.271 -11.166  1.00  0.00     0.023 C 
BRANCH   2   3
ATOM      3  C   UNL     1       1.115  -0.951 -10.731  1.00  0.00     0.116 C 
BRANCH   3   4
ATOM      4  N   UNL     1       0.159   0.130 -10.736  1.00  0.00    -0.352 N 
ATOM      5  C   UNL     1      -0.704   0.647  -9.807  1.00  0.00     0.254 C 
ATOM      6  O   UNL     1      -1.367   1.611 -10.207  1.00  0.00    -0.269 OA
ATOM      7  H   UNL     1       0.118   0.601 -11.600  1.00  0.00     0.163 HD
BRANCH   5   8
ATOM      8  C   UNL     1      -0.860   0.174  -8.423  1.00  0.00     0.081 A 
ATOM      9  C   UNL     1      -0.670  -1.765  -5.229  1.00  0.00     0.082 C 
ATOM     10  C   UNL     1      -0.574  -3.178  -5.809  1.00  0.00     0.115 C 
ATOM     11  C   UNL     1      -0.880  -0.768  -6.335  1.00  0.00     0.055 A 
ATOM     12  C   UNL     1       0.173  -3.246  -7.119  1.00  0.00     0.225 C 
ATOM     13  C   UNL     1      -0.533  -0.984  -7.656  1.00  0.00     0.076 A 
ATOM     14  N   UNL     1      -1.556   0.428  -6.259  1.00  0.00    -0.317 N 
ATOM     15  O   UNL     1       0.768  -4.263  -7.476  1.00  0.00    -0.275 OA
ATOM     16  N   UNL     1       0.037  -2.192  -7.981  1.00  0.00    -0.324 N 
ATOM     17  C   UNL     1      -1.573   0.970  -7.520  1.00  0.00     0.107 A 
ATOM     18  H   UNL     1       0.370  -2.308  -8.900  1.00  0.00     0.170 HD
BRANCH   9  19
ATOM     19  C   UNL     1       0.501  -1.473  -4.287  1.00  0.00     0.012 A 
ATOM     20  C   UNL     1       1.184  -1.217  -1.939  1.00  0.00     0.165 A 
ATOM     21  C   UNL     1       0.227  -1.551  -2.894  1.00  0.00     0.059 A 
ATOM     22  C   UNL     1       2.448  -0.891  -2.384  1.00  0.00     0.211 A 
ATOM     23  C   UNL     1       2.754  -0.859  -3.731  1.00  0.00     0.211 A 
ATOM     24  O   UNL     1       3.523  -0.592  -1.601  1.00  0.00    -0.449 OA
ATOM     25  C   UNL     1       1.808  -1.139  -4.712  1.00  0.00     0.168 A 
ATOM     26  O   UNL     1       4.061  -0.521  -3.931  1.00  0.00    -0.449 OA
ATOM     27  C   UNL     1       4.553  -0.424  -2.588  1.00  0.00     0.468 C 
BRANCH  20  28
ATOM     28  O   UNL     1       0.787  -1.278  -0.635  1.00  0.00    -0.493 OA
ATOM     29  C   UNL     1       1.128  -0.108   0.106  1.00  0.00     0.278 C 
ENDBRANCH  20  28
BRANCH  25  30
ATOM     30  O   UNL     1       2.024  -1.123  -6.056  1.00  0.00    -0.492 OA
ATOM     31  C   UNL     1       3.334  -0.885  -6.550  1.00  0.00     0.278 C 
ENDBRANCH  25  30
ENDBRANCH   9  19
BRANCH  14  32
ATOM     32  C   UNL     1      -2.245   0.947  -5.136  1.00  0.00     0.046 A 
ATOM     33  C   UNL     1      -1.588   1.076  -3.909  1.00  0.00     0.029 A 
ATOM     34  C   UNL     1      -3.608   1.248  -5.245  1.00  0.00     0.029 A 
ATOM     35  C   UNL     1      -2.310   1.410  -2.765  1.00  0.00     0.041 A 
ATOM     36  C   UNL     1      -4.327   1.579  -4.094  1.00  0.00     0.041 A 
ATOM     37  C   UNL     1      -3.676   1.638  -2.864  1.00  0.00     0.123 A 
ATOM     38  F   UNL     1      -4.379   1.915  -1.758  1.00  0.00    -0.207 F 
ENDBRANCH  14  32
ENDBRANCH   5   8
ENDBRANCH   3   4
ENDBRANCH   2   3
ENDBRANCH   1   2
BRANCH   1  39
ATOM     39  C   UNL     1       1.723  -2.844 -13.324  1.00  0.00     0.116 C 
BRANCH  39  40
ATOM     40  N   UNL     1       2.297  -4.088 -12.814  1.00  0.00    -0.352 N 
ATOM     41  C   UNL     1       3.619  -4.491 -12.863  1.00  0.00     0.251 C 
ATOM     42  H   UNL     1       1.668  -4.712 -12.386  1.00  0.00     0.163 HD
ATOM     43  O   UNL     1       3.925  -5.668 -12.789  1.00  0.00    -0.269 OA
BRANCH  41  44
ATOM     44  C   UNL     1       4.650  -3.448 -13.009  1.00  0.00     0.039 A 
ATOM     45  C   UNL     1       5.620  -3.545 -14.005  1.00  0.00     0.014 A 
ATOM     46  C   UNL     1       4.568  -2.325 -12.185  1.00  0.00     0.014 A 
ATOM     47  C   UNL     1       6.445  -2.448 -14.239  1.00  0.00     0.010 A 
ATOM     48  C   UNL     1       5.319  -1.207 -12.483  1.00  0.00     0.010 A 
ATOM     49  C   UNL     1       6.267  -1.261 -13.504  1.00  0.00    -0.014 A 
BRANCH  49  50
ATOM     50  C   UNL     1       6.960  -0.041 -13.930  1.00  0.00     0.031 A 
ATOM     51  C   UNL     1       6.801   0.283 -15.375  1.00  0.00     0.074 A 
ATOM     52  C   UNL     1       7.538   0.859 -13.106  1.00  0.00     0.049 A 
ATOM     53  N   UNL     1       7.678   0.134 -16.312  1.00  0.00    -0.248 NA
ATOM     54  C   UNL     1       5.472   0.688 -15.865  1.00  0.00     0.031 C 
ATOM     55  C   UNL     1       7.491   0.889 -11.640  1.00  0.00     0.029 A 
ATOM     56  N   UNL     1       8.210   2.010 -13.409  1.00  0.00    -0.354 N 
ATOM     57  C   UNL     1       7.103   0.678 -17.456  1.00  0.00     0.074 A 
ATOM     58  C   UNL     1       5.695   0.804 -17.177  1.00  0.00     0.031 C 
ATOM     59  C   UNL     1       7.881   2.105 -11.198  1.00  0.00     0.029 A 
ATOM     60  C   UNL     1       8.398   2.859 -12.325  1.00  0.00     0.049 A 
ATOM     61  H   UNL     1       8.533   2.219 -14.316  1.00  0.00     0.167 HD
ATOM     62  C   UNL     1       7.875   1.270 -18.411  1.00  0.00     0.031 A 
ATOM     63  C   UNL     1       8.959   4.091 -12.329  1.00  0.00     0.031 A 
ATOM     64  C   UNL     1       9.275   1.034 -18.171  1.00  0.00     0.049 A 
ATOM     65  C   UNL     1       9.860   4.169 -13.499  1.00  0.00     0.074 A 
ATOM     66  C   UNL     1      10.182   0.014 -18.338  1.00  0.00     0.029 A 
ATOM     67  N   UNL     1       9.829   1.940 -17.307  1.00  0.00    -0.354 N 
ATOM     68  N   UNL     1      10.918   3.418 -13.632  1.00  0.00    -0.248 NA
ATOM     69  C   UNL     1       9.428   4.864 -14.705  1.00  0.00     0.031 C 
ATOM     70  C   UNL     1      11.235   0.263 -17.405  1.00  0.00     0.029 A 
ATOM     71  C   UNL     1      10.964   1.448 -16.724  1.00  0.00     0.049 A 
ATOM     72  H   UNL     1       9.457   2.834 -17.127  1.00  0.00     0.167 HD
ATOM     73  C   UNL     1      11.018   3.210 -14.992  1.00  0.00     0.074 A 
ATOM     74  C   UNL     1      10.202   4.250 -15.603  1.00  0.00     0.031 C 
ATOM     75  C   UNL     1      11.469   2.026 -15.495  1.00  0.00     0.031 A 
BRANCH  62  76
ATOM     76  C   UNL     1       7.451   2.472 -19.233  1.00  0.00    -0.014 A 
ATOM     77  C   UNL     1       8.346   2.971 -20.206  1.00  0.00     0.010 A 
ATOM     78  C   UNL     1       6.365   3.301 -18.887  1.00  0.00     0.010 A 
ATOM     79  C   UNL     1       8.190   4.250 -20.760  1.00  0.00     0.020 A 
ATOM     80  C   UNL     1       6.180   4.563 -19.461  1.00  0.00     0.020 A 
ATOM     81  C   UNL     1       7.109   5.041 -20.375  1.00  0.00     0.054 A 
BRANCH  81  82
ATOM     82  S   UNL     1       6.959   6.721 -21.034  1.00  0.00     0.124 S 
ATOM     83  O   UNL     1       8.122   7.381 -20.450  1.00  0.00    -0.237 OA
ATOM     84  O   UNL     1       7.015   6.492 -22.476  1.00  0.00    -0.237 OA
ATOM     85  O   UNL     1       5.662   7.169 -20.530  1.00  0.00    -0.744 OA
ENDBRANCH  81  82
ENDBRANCH  62  76
BRANCH  63  86
ATOM     86  C   UNL     1       8.597   5.276 -11.517  1.00  0.00    -0.014 A 
ATOM     87  C   UNL     1       9.459   6.385 -11.435  1.00  0.00     0.010 A 
ATOM     88  C   UNL     1       7.268   5.439 -11.076  1.00  0.00     0.010 A 
ATOM     89  C   UNL     1       8.986   7.636 -11.008  1.00  0.00     0.020 A 
ATOM     90  C   UNL     1       6.791   6.682 -10.643  1.00  0.00     0.020 A 
ATOM     91  C   UNL     1       7.646   7.782 -10.640  1.00  0.00     0.054 A 
BRANCH  91  92
ATOM     92  S   UNL     1       6.994   9.444 -10.293  1.00  0.00     0.124 S 
ATOM     93  O   UNL     1       7.617   9.758  -9.011  1.00  0.00    -0.237 OA
ATOM     94  O   UNL     1       7.472  10.218 -11.435  1.00  0.00    -0.237 OA
ATOM     95  O   UNL     1       5.547   9.242 -10.246  1.00  0.00    -0.744 OA
ENDBRANCH  91  92
ENDBRANCH  63  86
BRANCH  75  96
ATOM     96  C   UNL     1      12.427   1.218 -14.666  1.00  0.00    -0.014 A 
ATOM     97  C   UNL     1      12.120   0.629 -13.427  1.00  0.00     0.010 A 
ATOM     98  C   UNL     1      13.701   1.002 -15.219  1.00  0.00     0.010 A 
ATOM     99  C   UNL     1      13.078  -0.145 -12.752  1.00  0.00     0.020 A 
ATOM    100  C   UNL     1      14.651   0.222 -14.563  1.00  0.00     0.020 A 
ATOM    101  C   UNL     1      14.339  -0.341 -13.326  1.00  0.00     0.054 A 
BRANCH 101 102
ATOM    102  S   UNL     1      15.570  -1.360 -12.466  1.00  0.00     0.124 S 
ATOM    103  O   UNL     1      15.891  -0.550 -11.295  1.00  0.00    -0.237 OA
ATOM    104  O   UNL     1      14.836  -2.595 -12.197  1.00  0.00    -0.237 OA
ATOM    105  O   UNL     1      16.653  -1.495 -13.440  1.00  0.00    -0.744 OA
ENDBRANCH 101 102
ENDBRANCH  75  96
ENDBRANCH  49  50
ENDBRANCH  41  44
ENDBRANCH  39  40
ENDBRANCH   1  39
TORSDOF 18
