REMARK SMILES Cc1c(NC(=O)CCCO)cccc1C(=O)NCCCCNC(=O)c1ccc(-c2c3nc(c(-c4ccc(S(=O)(=O)[O-])cc4)c4ccc([nH]4)c(-c4ccc(S(=O)(=O)[O-])cc4)c4nc(c(-c5ccc(S(=O)(=O)[O-])cc5)c5ccc2[nH]5)C=C4)C=C3)cc1
REMARK SMILES IDX 18 1 17 2 15 3 16 4 14 6 1 7 2 8 3 9 11 10 13 11 12 12 4 13
REMARK SMILES IDX 5 14 6 16 7 17 8 18 9 19 10 20 19 22 20 23 21 24 22 25 23 26
REMARK SMILES IDX 24 28 25 29 26 30 84 31 27 32 83 33 28 34 29 35 30 36 77 37
REMARK SMILES IDX 31 38 82 39 76 40 78 41 32 42 81 43 75 44 74 45 33 47 63 48
REMARK SMILES IDX 44 49 62 50 45 51 48 52 61 53 79 54 46 55 47 56 60 58 80 59
REMARK SMILES IDX 49 60 34 61 35 62 43 63 36 64 42 65 37 66 38 67 39 68 40 69
REMARK SMILES IDX 41 70 64 71 65 72 73 73 66 74 72 75 67 76 68 77 69 78 70 79
REMARK SMILES IDX 71 80 50 81 51 82 59 83 52 84 58 85 53 86 54 87 55 88 56 89
REMARK SMILES IDX 57 90
REMARK H PARENT 17 5 4 15 10 21 22 27 78 46 48 57
REMARK Flexibility Score: inf
ROOT
ATOM      1  C   UNL     1       3.788   1.716  -0.035  1.00  0.00     0.116 C 
ENDROOT
BRANCH   1   2
ATOM      2  N   UNL     1       2.558   2.468  -0.164  1.00  0.00    -0.352 N 
ATOM      3  C   UNL     1       1.238   2.235  -0.408  1.00  0.00     0.251 C 
ATOM      4  O   UNL     1       0.595   3.295  -0.489  1.00  0.00    -0.269 OA
ATOM      5  H   UNL     1       2.724   3.430  -0.038  1.00  0.00     0.163 HD
BRANCH   3   6
ATOM      6  C   UNL     1       0.459   0.936  -0.560  1.00  0.00     0.044 A 
ATOM      7  C   UNL     1       2.264  -0.887  -0.763  1.00  0.00     0.047 C 
ATOM      8  C   UNL     1       0.845  -0.433  -0.611  1.00  0.00    -0.015 A 
ATOM      9  C   UNL     1      -0.154  -1.462  -0.612  1.00  0.00     0.044 A 
ATOM     10  C   UNL     1      -1.472  -1.125  -0.891  1.00  0.00     0.026 A 
ATOM     11  C   UNL     1      -0.929   1.196  -0.690  1.00  0.00     0.014 A 
ATOM     12  C   UNL     1      -1.869   0.199  -0.916  1.00  0.00     0.003 A 
BRANCH   9  13
ATOM     13  N   UNL     1       0.237  -2.793  -0.342  1.00  0.00    -0.326 N 
ATOM     14  C   UNL     1      -0.384  -3.950  -0.005  1.00  0.00     0.224 C 
ATOM     15  H   UNL     1       1.212  -2.910  -0.418  1.00  0.00     0.169 HD
ATOM     16  O   UNL     1       0.339  -4.951   0.092  1.00  0.00    -0.275 OA
BRANCH  14  17
ATOM     17  C   UNL     1      -1.844  -4.079   0.356  1.00  0.00     0.103 C 
BRANCH  17  18
ATOM     18  C   UNL     1      -2.093  -3.807   1.841  1.00  0.00     0.038 C 
BRANCH  18  19
ATOM     19  C   UNL     1      -2.402  -2.358   2.186  1.00  0.00     0.156 C 
BRANCH  19  20
ATOM     20  O   UNL     1      -3.640  -1.977   1.599  1.00  0.00    -0.396 OA
ATOM     21  H   UNL     1      -3.583  -2.071   0.635  1.00  0.00     0.210 HD
ENDBRANCH  19  20
ENDBRANCH  18  19
ENDBRANCH  17  18
ENDBRANCH  14  17
ENDBRANCH   9  13
ENDBRANCH   3   6
ENDBRANCH   1   2
BRANCH   1  22
ATOM     22  C   UNL     1       4.425   1.435  -1.406  1.00  0.00     0.023 C 
BRANCH  22  23
ATOM     23  C   UNL     1       5.210   2.586  -2.018  1.00  0.00     0.023 C 
BRANCH  23  24
ATOM     24  C   UNL     1       6.502   2.871  -1.281  1.00  0.00     0.116 C 
BRANCH  24  25
ATOM     25  N   UNL     1       7.696   2.278  -1.859  1.00  0.00    -0.352 N 
ATOM     26  C   UNL     1       9.001   2.500  -1.447  1.00  0.00     0.251 C 
ATOM     27  H   UNL     1       7.566   1.659  -2.614  1.00  0.00     0.163 HD
ATOM     28  O   UNL     1       9.966   2.265  -2.166  1.00  0.00    -0.269 OA
BRANCH  26  29
ATOM     29  C   UNL     1       9.191   2.893  -0.032  1.00  0.00     0.039 A 
ATOM     30  C   UNL     1       9.760   1.936   0.817  1.00  0.00     0.014 A 
ATOM     31  C   UNL     1       8.491   3.978   0.483  1.00  0.00     0.014 A 
ATOM     32  C   UNL     1       9.445   1.952   2.173  1.00  0.00     0.010 A 
ATOM     33  C   UNL     1       8.061   3.904   1.792  1.00  0.00     0.010 A 
ATOM     34  C   UNL     1       8.503   2.870   2.630  1.00  0.00    -0.014 A 
BRANCH  34  35
ATOM     35  C   UNL     1       7.872   2.815   3.946  1.00  0.00     0.031 A 
ATOM     36  C   UNL     1       8.159   3.889   4.929  1.00  0.00     0.074 A 
ATOM     37  C   UNL     1       6.941   1.874   4.229  1.00  0.00     0.049 A 
ATOM     38  N   UNL     1       7.937   3.809   6.198  1.00  0.00    -0.248 NA
ATOM     39  C   UNL     1       8.801   5.145   4.546  1.00  0.00     0.031 C 
ATOM     40  C   UNL     1       5.985   1.900   5.334  1.00  0.00     0.029 A 
ATOM     41  N   UNL     1       6.802   0.588   3.702  1.00  0.00    -0.354 N 
ATOM     42  C   UNL     1       8.077   5.077   6.721  1.00  0.00     0.074 A 
ATOM     43  C   UNL     1       8.727   5.837   5.684  1.00  0.00     0.031 C 
ATOM     44  C   UNL     1       5.602   0.642   5.601  1.00  0.00     0.029 A 
ATOM     45  C   UNL     1       6.411  -0.235   4.773  1.00  0.00     0.049 A 
ATOM     46  H   UNL     1       6.948   0.312   2.768  1.00  0.00     0.167 HD
ATOM     47  C   UNL     1       7.481   5.381   7.909  1.00  0.00     0.031 A 
ATOM     48  C   UNL     1       7.141  -1.294   5.234  1.00  0.00     0.031 A 
ATOM     49  C   UNL     1       6.972   4.179   8.572  1.00  0.00     0.049 A 
ATOM     50  C   UNL     1       7.532  -1.155   6.691  1.00  0.00     0.074 A 
ATOM     51  C   UNL     1       5.705   3.645   8.733  1.00  0.00     0.029 A 
ATOM     52  N   UNL     1       7.869   3.181   8.940  1.00  0.00    -0.354 N 
ATOM     53  N   UNL     1       7.418  -0.048   7.370  1.00  0.00    -0.248 NA
ATOM     54  C   UNL     1       8.126  -2.229   7.486  1.00  0.00     0.031 C 
ATOM     55  C   UNL     1       5.850   2.279   9.096  1.00  0.00     0.029 A 
ATOM     56  C   UNL     1       7.202   1.997   9.192  1.00  0.00     0.049 A 
ATOM     57  H   UNL     1       8.843   3.301   9.011  1.00  0.00     0.167 HD
ATOM     58  C   UNL     1       7.914  -0.222   8.634  1.00  0.00     0.074 A 
ATOM     59  C   UNL     1       8.333  -1.612   8.664  1.00  0.00     0.031 C 
ATOM     60  C   UNL     1       7.951   0.796   9.543  1.00  0.00     0.031 A 
BRANCH  47  61
ATOM     61  C   UNL     1       7.100   6.795   8.320  1.00  0.00    -0.014 A 
ATOM     62  C   UNL     1       6.093   6.990   9.289  1.00  0.00     0.010 A 
ATOM     63  C   UNL     1       7.606   7.968   7.728  1.00  0.00     0.010 A 
ATOM     64  C   UNL     1       5.561   8.262   9.573  1.00  0.00     0.020 A 
ATOM     65  C   UNL     1       7.077   9.241   7.985  1.00  0.00     0.020 A 
ATOM     66  C   UNL     1       6.041   9.380   8.895  1.00  0.00     0.054 A 
BRANCH  66  67
ATOM     67  S   UNL     1       5.295  11.002   9.198  1.00  0.00     0.124 S 
ATOM     68  O   UNL     1       3.898  10.778   8.837  1.00  0.00    -0.237 OA
ATOM     69  O   UNL     1       5.557  11.208  10.619  1.00  0.00    -0.237 OA
ATOM     70  O   UNL     1       6.027  11.893   8.298  1.00  0.00    -0.744 OA
ENDBRANCH  66  67
ENDBRANCH  47  61
BRANCH  48  71
ATOM     71  C   UNL     1       7.944  -1.985   4.187  1.00  0.00    -0.014 A 
ATOM     72  C   UNL     1       7.228  -2.726   3.223  1.00  0.00     0.010 A 
ATOM     73  C   UNL     1       9.241  -1.539   3.880  1.00  0.00     0.010 A 
ATOM     74  C   UNL     1       7.705  -2.834   1.916  1.00  0.00     0.020 A 
ATOM     75  C   UNL     1       9.726  -1.654   2.569  1.00  0.00     0.020 A 
ATOM     76  C   UNL     1       8.916  -2.226   1.583  1.00  0.00     0.054 A 
BRANCH  76  77
ATOM     77  S   UNL     1       9.291  -1.994  -0.182  1.00  0.00     0.124 S 
ATOM     78  O   UNL     1       9.206  -3.354  -0.704  1.00  0.00    -0.237 OA
ATOM     79  O   UNL     1       8.217  -1.091  -0.593  1.00  0.00    -0.237 OA
ATOM     80  O   UNL     1      10.628  -1.409  -0.163  1.00  0.00    -0.744 OA
ENDBRANCH  76  77
ENDBRANCH  48  71
BRANCH  60  81
ATOM     81  C   UNL     1       8.638   0.753  10.886  1.00  0.00    -0.014 A 
ATOM     82  C   UNL     1       9.741  -0.063  11.181  1.00  0.00     0.010 A 
ATOM     83  C   UNL     1       8.242   1.682  11.878  1.00  0.00     0.010 A 
ATOM     84  C   UNL     1      10.381   0.003  12.428  1.00  0.00     0.020 A 
ATOM     85  C   UNL     1       8.898   1.786  13.107  1.00  0.00     0.020 A 
ATOM     86  C   UNL     1       9.952   0.924  13.384  1.00  0.00     0.054 A 
BRANCH  86  87
ATOM     87  S   UNL     1      10.822   1.052  14.968  1.00  0.00     0.124 S 
ATOM     88  O   UNL     1      10.104   0.077  15.784  1.00  0.00    -0.237 OA
ATOM     89  O   UNL     1      12.194   0.688  14.621  1.00  0.00    -0.237 OA
ATOM     90  O   UNL     1      10.635   2.449  15.348  1.00  0.00    -0.744 OA
ENDBRANCH  86  87
ENDBRANCH  60  81
ENDBRANCH  34  35
ENDBRANCH  26  29
ENDBRANCH  24  25
ENDBRANCH  23  24
ENDBRANCH  22  23
ENDBRANCH   1  22
TORSDOF 19
