REMARK SMILES CCOc1cccc(C(=O)Nc2ccc(Cl)c(C(=O)NCCCCNC(=O)c3ccc(-c4c5nc(c(-c6ccc(S(=O)(=O)[O-])cc6)c6ccc([nH]6)c(-c6ccc(S(=O)(=O)[O-])cc6)c6nc(c(-c7ccc(S(=O)(=O)[O-])cc7)c7ccc4[nH]7)C=C6)C=C5)cc3)c2)c1
REMARK SMILES IDX 22 1 21 2 20 3 18 4 19 5 17 7 12 8 13 9 88 10 14 11 15 12
REMARK SMILES IDX 16 13 11 14 9 15 10 16 8 18 4 19 5 20 89 21 6 22 7 23 3 24
REMARK SMILES IDX 2 25 1 26 23 27 24 28 25 29 26 30 27 32 28 33 29 34 87 35
REMARK SMILES IDX 30 36 86 37 31 38 32 39 33 40 80 41 34 42 85 43 79 44 81 45
REMARK SMILES IDX 35 46 84 47 78 48 77 49 36 51 66 52 47 53 65 54 48 55 51 56
REMARK SMILES IDX 64 57 82 58 49 59 50 60 63 62 83 63 52 64 37 65 38 66 46 67
REMARK SMILES IDX 39 68 45 69 40 70 41 71 42 72 43 73 44 74 67 75 68 76 76 77
REMARK SMILES IDX 69 78 75 79 70 80 71 81 72 82 73 83 74 84 53 85 54 86 62 87
REMARK SMILES IDX 55 88 61 89 56 90 57 91 58 92 59 93 60 94
REMARK H PARENT 20 6 11 17 25 31 81 50 51 61
REMARK Flexibility Score: inf
ROOT
ATOM      1  C   UNL     1       2.166  -0.327   4.973  1.00  0.00     0.023 C 
ENDROOT
BRANCH   1   2
ATOM      2  C   UNL     1       1.447  -0.859   3.734  1.00  0.00     0.116 C 
BRANCH   2   3
ATOM      3  N   UNL     1       0.315  -0.016   3.413  1.00  0.00    -0.352 N 
ATOM      4  C   UNL     1       0.157   1.110   2.644  1.00  0.00     0.252 C 
ATOM      5  O   UNL     1      -0.922   1.686   2.775  1.00  0.00    -0.269 OA
ATOM      6  H   UNL     1      -0.521  -0.315   3.837  1.00  0.00     0.163 HD
BRANCH   4   7
ATOM      7  C   UNL     1       1.181   1.628   1.675  1.00  0.00     0.060 A 
ATOM      8  C   UNL     1       3.473   1.696   0.810  1.00  0.00     0.042 A 
ATOM      9  C   UNL     1       3.081   2.536  -0.225  1.00  0.00     0.028 A 
ATOM     10  C   UNL     1       2.552   1.346   1.804  1.00  0.00     0.041 A 
ATOM     11  C   UNL     1       1.740   2.885  -0.348  1.00  0.00     0.023 A 
ATOM     12  C   UNL     1       0.786   2.407   0.566  1.00  0.00     0.053 A 
ATOM     13  Cl  UNL     1      -0.854   2.793   0.160  1.00  0.00    -0.083 Cl
BRANCH   8  14
ATOM     14  N   UNL     1       4.785   1.206   0.784  1.00  0.00    -0.322 N 
ATOM     15  C   UNL     1       5.306  -0.035   1.106  1.00  0.00     0.255 C 
ATOM     16  O   UNL     1       6.528  -0.128   1.235  1.00  0.00    -0.269 OA
ATOM     17  H   UNL     1       5.455   1.861   0.483  1.00  0.00     0.170 HD
BRANCH  15  18
ATOM     18  C   UNL     1       4.482  -1.283   1.192  1.00  0.00     0.043 A 
ATOM     19  C   UNL     1       2.469  -2.583   0.790  1.00  0.00     0.120 A 
ATOM     20  C   UNL     1       2.992  -3.635   1.540  1.00  0.00     0.046 A 
ATOM     21  C   UNL     1       3.239  -1.440   0.562  1.00  0.00     0.060 A 
ATOM     22  C   UNL     1       4.277  -3.545   2.068  1.00  0.00     0.005 A 
ATOM     23  C   UNL     1       5.011  -2.367   1.912  1.00  0.00     0.014 A 
BRANCH  19  24
ATOM     24  O   UNL     1       1.131  -2.655   0.516  1.00  0.00    -0.494 OA
BRANCH  24  25
ATOM     25  C   UNL     1       0.717  -2.369  -0.818  1.00  0.00     0.226 C 
ATOM     26  C   UNL     1       0.268  -0.927  -0.989  1.00  0.00     0.049 C 
ENDBRANCH  24  25
ENDBRANCH  19  24
ENDBRANCH  15  18
ENDBRANCH   8  14
ENDBRANCH   4   7
ENDBRANCH   2   3
ENDBRANCH   1   2
BRANCH   1  27
ATOM     27  C   UNL     1       1.559  -0.838   6.278  1.00  0.00     0.023 C 
BRANCH  27  28
ATOM     28  C   UNL     1       1.720  -2.339   6.490  1.00  0.00     0.116 C 
BRANCH  28  29
ATOM     29  N   UNL     1       3.111  -2.765   6.519  1.00  0.00    -0.352 N 
ATOM     30  C   UNL     1       3.683  -3.732   7.309  1.00  0.00     0.251 C 
ATOM     31  H   UNL     1       3.717  -2.303   5.895  1.00  0.00     0.163 HD
ATOM     32  O   UNL     1       4.898  -3.901   7.308  1.00  0.00    -0.269 OA
BRANCH  30  33
ATOM     33  C   UNL     1       2.810  -4.542   8.181  1.00  0.00     0.039 A 
ATOM     34  C   UNL     1       3.122  -4.655   9.536  1.00  0.00     0.014 A 
ATOM     35  C   UNL     1       1.657  -5.139   7.662  1.00  0.00     0.014 A 
ATOM     36  C   UNL     1       2.246  -5.332  10.386  1.00  0.00     0.010 A 
ATOM     37  C   UNL     1       0.749  -5.742   8.523  1.00  0.00     0.010 A 
ATOM     38  C   UNL     1       1.039  -5.856   9.891  1.00  0.00    -0.014 A 
BRANCH  38  39
ATOM     39  C   UNL     1       0.086  -6.562  10.782  1.00  0.00     0.031 A 
ATOM     40  C   UNL     1      -0.204  -8.021  10.555  1.00  0.00     0.074 A 
ATOM     41  C   UNL     1      -0.549  -5.886  11.761  1.00  0.00     0.049 A 
ATOM     42  N   UNL     1      -1.044  -8.803  11.184  1.00  0.00    -0.248 NA
ATOM     43  C   UNL     1       0.525  -8.684   9.460  1.00  0.00     0.031 C 
ATOM     44  C   UNL     1      -0.388  -4.458  12.051  1.00  0.00     0.029 A 
ATOM     45  N   UNL     1      -1.464  -6.310  12.691  1.00  0.00    -0.354 N 
ATOM     46  C   UNL     1      -0.947 -10.041  10.560  1.00  0.00     0.074 A 
ATOM     47  C   UNL     1      -0.019  -9.891   9.461  1.00  0.00     0.031 C 
ATOM     48  C   UNL     1      -1.159  -4.133  13.101  1.00  0.00     0.029 A 
ATOM     49  C   UNL     1      -1.894  -5.316  13.538  1.00  0.00     0.049 A 
ATOM     50  H   UNL     1      -1.782  -7.240  12.747  1.00  0.00     0.167 HD
ATOM     51  C   UNL     1      -1.548 -11.208  10.890  1.00  0.00     0.031 A 
ATOM     52  C   UNL     1      -2.783  -5.354  14.549  1.00  0.00     0.031 A 
ATOM     53  C   UNL     1      -2.461 -11.359  11.990  1.00  0.00     0.049 A 
ATOM     54  C   UNL     1      -3.438  -6.665  14.897  1.00  0.00     0.074 A 
ATOM     55  C   UNL     1      -3.110 -12.503  12.421  1.00  0.00     0.029 A 
ATOM     56  N   UNL     1      -2.843 -10.335  12.844  1.00  0.00    -0.354 N 
ATOM     57  N   UNL     1      -3.300  -7.835  14.319  1.00  0.00    -0.248 NA
ATOM     58  C   UNL     1      -4.351  -6.665  16.049  1.00  0.00     0.031 C 
ATOM     59  C   UNL     1      -3.911 -12.163  13.515  1.00  0.00     0.029 A 
ATOM     60  C   UNL     1      -3.717 -10.821  13.800  1.00  0.00     0.049 A 
ATOM     61  H   UNL     1      -2.538  -9.402  12.779  1.00  0.00     0.167 HD
ATOM     62  C   UNL     1      -4.079  -8.717  15.061  1.00  0.00     0.074 A 
ATOM     63  C   UNL     1      -4.672  -7.948  16.136  1.00  0.00     0.031 C 
ATOM     64  C   UNL     1      -4.284 -10.043  14.872  1.00  0.00     0.031 A 
BRANCH  51  65
ATOM     65  C   UNL     1      -1.214 -12.419  10.059  1.00  0.00    -0.014 A 
ATOM     66  C   UNL     1       0.063 -13.007  10.129  1.00  0.00     0.010 A 
ATOM     67  C   UNL     1      -2.191 -13.002   9.233  1.00  0.00     0.010 A 
ATOM     68  C   UNL     1       0.367 -14.133   9.361  1.00  0.00     0.020 A 
ATOM     69  C   UNL     1      -1.899 -14.147   8.486  1.00  0.00     0.020 A 
ATOM     70  C   UNL     1      -0.616 -14.696   8.544  1.00  0.00     0.054 A 
BRANCH  70  71
ATOM     71  S   UNL     1      -0.202 -16.180   7.587  1.00  0.00     0.124 S 
ATOM     72  O   UNL     1       0.673 -15.635   6.551  1.00  0.00    -0.237 OA
ATOM     73  O   UNL     1       0.453 -17.028   8.579  1.00  0.00    -0.237 OA
ATOM     74  O   UNL     1      -1.498 -16.663   7.116  1.00  0.00    -0.744 OA
ENDBRANCH  70  71
ENDBRANCH  51  65
BRANCH  52  75
ATOM     75  C   UNL     1      -3.101  -4.118  15.318  1.00  0.00    -0.014 A 
ATOM     76  C   UNL     1      -2.704  -3.983  16.660  1.00  0.00     0.010 A 
ATOM     77  C   UNL     1      -3.827  -3.075  14.713  1.00  0.00     0.010 A 
ATOM     78  C   UNL     1      -3.064  -2.850  17.396  1.00  0.00     0.020 A 
ATOM     79  C   UNL     1      -4.162  -1.927  15.437  1.00  0.00     0.020 A 
ATOM     80  C   UNL     1      -3.796  -1.831  16.780  1.00  0.00     0.054 A 
BRANCH  80  81
ATOM     81  S   UNL     1      -4.244  -0.363  17.749  1.00  0.00     0.124 S 
ATOM     82  O   UNL     1      -5.322  -0.873  18.590  1.00  0.00    -0.237 OA
ATOM     83  O   UNL     1      -2.996  -0.048  18.441  1.00  0.00    -0.237 OA
ATOM     84  O   UNL     1      -4.646   0.606  16.732  1.00  0.00    -0.744 OA
ENDBRANCH  80  81
ENDBRANCH  52  75
BRANCH  64  85
ATOM     85  C   UNL     1      -5.136 -10.763  15.883  1.00  0.00    -0.014 A 
ATOM     86  C   UNL     1      -6.526 -10.563  15.950  1.00  0.00     0.010 A 
ATOM     87  C   UNL     1      -4.532 -11.687  16.757  1.00  0.00     0.010 A 
ATOM     88  C   UNL     1      -7.291 -11.243  16.902  1.00  0.00     0.020 A 
ATOM     89  C   UNL     1      -5.298 -12.389  17.690  1.00  0.00     0.020 A 
ATOM     90  C   UNL     1      -6.671 -12.149  17.768  1.00  0.00     0.054 A 
BRANCH  90  91
ATOM     91  S   UNL     1      -7.688 -13.038  18.978  1.00  0.00     0.124 S 
ATOM     92  O   UNL     1      -7.961 -11.998  19.967  1.00  0.00    -0.237 OA
ATOM     93  O   UNL     1      -8.835 -13.465  18.181  1.00  0.00    -0.237 OA
ATOM     94  O   UNL     1      -6.817 -14.119  19.435  1.00  0.00    -0.744 OA
ENDBRANCH  90  91
ENDBRANCH  64  85
ENDBRANCH  38  39
ENDBRANCH  30  33
ENDBRANCH  28  29
ENDBRANCH  27  28
ENDBRANCH   1  27
TORSDOF 18
