REMARK SMILES O=C(NCCCCNC(=O)c1ccc([C@@H]2CC(O)=Nc3c2ncn3-c2cccc(Cl)c2)cc1)c1ccc(-c2c3nc(c(-c4ccc(S(=O)(=O)[O-])cc4)c4ccc([nH]4)c(-c4ccc(S(=O)(=O)[O-])cc4)c4nc(c(-c5ccc(S(=O)(=O)[O-])cc5)c5ccc2[nH]5)C=C4)C=C3)cc1
REMARK SMILES IDX 5 1 4 2 3 3 1 4 2 5 34 7 35 8 93 9 36 10 92 11 37 12 38 13
REMARK SMILES IDX 39 14 86 15 40 16 91 17 85 18 87 19 41 20 90 21 84 22 83 23
REMARK SMILES IDX 42 25 72 26 53 27 71 28 54 29 57 30 70 31 88 32 55 33 56 34
REMARK SMILES IDX 69 36 89 37 58 38 43 39 44 40 52 41 45 42 51 43 46 44 47 45
REMARK SMILES IDX 48 46 49 47 50 48 73 49 74 50 82 51 75 52 81 53 76 54 77 55
REMARK SMILES IDX 78 56 79 57 80 58 59 59 60 60 68 61 61 62 67 63 62 64 63 65
REMARK SMILES IDX 64 66 65 67 66 68 6 69 7 70 8 71 9 72 10 74 11 75 12 76
REMARK SMILES IDX 33 77 13 78 32 79 14 80 15 81 16 82 21 83 17 84 20 85 22 86
REMARK SMILES IDX 19 87 24 88 23 89 18 90 25 92 26 93 31 94 27 95 29 96 28 97
REMARK SMILES IDX 30 98
REMARK H PARENT 3 6 87 24 57 35 8 73 18 91
REMARK Flexibility Score: inf
ROOT
ATOM      1  C   UNL     1       5.042  -0.056  -2.128  1.00  0.00     0.023 C 
ENDROOT
BRANCH   1   2
ATOM      2  C   UNL     1       4.814   0.806  -0.885  1.00  0.00     0.116 C 
BRANCH   2   3
ATOM      3  N   UNL     1       3.434   1.165  -0.635  1.00  0.00    -0.352 N 
ATOM      4  O   UNL     1       1.358   1.206   0.117  1.00  0.00    -0.269 OA
ATOM      5  C   UNL     1       2.368   0.521  -0.069  1.00  0.00     0.251 C 
ATOM      6  H   UNL     1       3.214   2.075  -0.940  1.00  0.00     0.163 HD
BRANCH   5   7
ATOM      7  C   UNL     1       2.331  -0.928   0.272  1.00  0.00     0.039 A 
ATOM      8  C   UNL     1       3.432  -1.786   0.289  1.00  0.00     0.014 A 
ATOM      9  C   UNL     1       1.063  -1.462   0.565  1.00  0.00     0.014 A 
ATOM     10  C   UNL     1       3.267  -3.154   0.475  1.00  0.00     0.010 A 
ATOM     11  C   UNL     1       0.896  -2.824   0.793  1.00  0.00     0.010 A 
ATOM     12  C   UNL     1       1.996  -3.676   0.702  1.00  0.00    -0.014 A 
BRANCH  12  13
ATOM     13  C   UNL     1       1.879  -5.115   0.927  1.00  0.00     0.031 A 
ATOM     14  C   UNL     1       2.496  -5.643   2.182  1.00  0.00     0.074 A 
ATOM     15  C   UNL     1       1.105  -5.899   0.151  1.00  0.00     0.049 A 
ATOM     16  N   UNL     1       3.309  -6.640   2.339  1.00  0.00    -0.248 NA
ATOM     17  C   UNL     1       2.198  -4.916   3.429  1.00  0.00     0.031 C 
ATOM     18  C   UNL     1       0.194  -5.466  -0.913  1.00  0.00     0.029 A 
ATOM     19  N   UNL     1       0.852  -7.235   0.256  1.00  0.00    -0.354 N 
ATOM     20  C   UNL     1       3.487  -6.780   3.717  1.00  0.00     0.074 A 
ATOM     21  C   UNL     1       2.873  -5.629   4.328  1.00  0.00     0.031 C 
ATOM     22  C   UNL     1      -0.686  -6.457  -1.167  1.00  0.00     0.029 A 
ATOM     23  C   UNL     1      -0.319  -7.623  -0.381  1.00  0.00     0.049 A 
ATOM     24  H   UNL     1       1.441  -7.862   0.735  1.00  0.00     0.167 HD
ATOM     25  C   UNL     1       3.958  -7.920   4.297  1.00  0.00     0.031 A 
ATOM     26  C   UNL     1      -1.004  -8.777  -0.194  1.00  0.00     0.031 A 
ATOM     27  C   UNL     1       4.649  -8.770   3.370  1.00  0.00     0.049 A 
ATOM     28  C   UNL     1      -0.092  -9.757   0.439  1.00  0.00     0.074 A 
ATOM     29  C   UNL     1       5.775  -8.649   2.582  1.00  0.00     0.029 A 
ATOM     30  N   UNL     1       3.995  -9.891   2.920  1.00  0.00    -0.354 N 
ATOM     31  N   UNL     1       0.955 -10.263  -0.149  1.00  0.00    -0.248 NA
ATOM     32  C   UNL     1      -0.124  -9.905   1.885  1.00  0.00     0.031 C 
ATOM     33  C   UNL     1       5.496  -9.415   1.414  1.00  0.00     0.029 A 
ATOM     34  C   UNL     1       4.225  -9.972   1.571  1.00  0.00     0.049 A 
ATOM     35  H   UNL     1       3.463 -10.517   3.462  1.00  0.00     0.167 HD
ATOM     36  C   UNL     1       1.890 -10.430   0.861  1.00  0.00     0.074 A 
ATOM     37  C   UNL     1       1.131 -10.309   2.101  1.00  0.00     0.031 C 
ATOM     38  C   UNL     1       3.230 -10.380   0.601  1.00  0.00     0.031 A 
BRANCH  25  39
ATOM     39  C   UNL     1       3.474  -8.426   5.638  1.00  0.00    -0.014 A 
ATOM     40  C   UNL     1       4.067  -9.578   6.197  1.00  0.00     0.010 A 
ATOM     41  C   UNL     1       2.265  -7.987   6.217  1.00  0.00     0.010 A 
ATOM     42  C   UNL     1       3.434 -10.300   7.219  1.00  0.00     0.020 A 
ATOM     43  C   UNL     1       1.650  -8.671   7.267  1.00  0.00     0.020 A 
ATOM     44  C   UNL     1       2.215  -9.851   7.729  1.00  0.00     0.054 A 
BRANCH  44  45
ATOM     45  S   UNL     1       1.320 -10.873   8.927  1.00  0.00     0.124 S 
ATOM     46  O   UNL     1       0.933 -12.018   8.108  1.00  0.00    -0.237 OA
ATOM     47  O   UNL     1       2.339 -11.134   9.939  1.00  0.00    -0.237 OA
ATOM     48  O   UNL     1       0.224 -10.011   9.360  1.00  0.00    -0.744 OA
ENDBRANCH  44  45
ENDBRANCH  25  39
BRANCH  26  49
ATOM     49  C   UNL     1      -2.479  -8.942  -0.219  1.00  0.00    -0.014 A 
ATOM     50  C   UNL     1      -3.071 -10.213  -0.311  1.00  0.00     0.010 A 
ATOM     51  C   UNL     1      -3.314  -7.850   0.100  1.00  0.00     0.010 A 
ATOM     52  C   UNL     1      -4.442 -10.388  -0.055  1.00  0.00     0.020 A 
ATOM     53  C   UNL     1      -4.681  -8.014   0.343  1.00  0.00     0.020 A 
ATOM     54  C   UNL     1      -5.236  -9.288   0.284  1.00  0.00     0.054 A 
BRANCH  54  55
ATOM     55  S   UNL     1      -6.969  -9.542   0.762  1.00  0.00     0.124 S 
ATOM     56  O   UNL     1      -7.592  -9.897  -0.509  1.00  0.00    -0.237 OA
ATOM     57  O   UNL     1      -6.874 -10.619   1.743  1.00  0.00    -0.237 OA
ATOM     58  O   UNL     1      -7.370  -8.245   1.307  1.00  0.00    -0.744 OA
ENDBRANCH  54  55
ENDBRANCH  26  49
BRANCH  38  59
ATOM     59  C   UNL     1       3.688 -10.441  -0.838  1.00  0.00    -0.014 A 
ATOM     60  C   UNL     1       3.343  -9.465  -1.792  1.00  0.00     0.010 A 
ATOM     61  C   UNL     1       4.636 -11.418  -1.190  1.00  0.00     0.010 A 
ATOM     62  C   UNL     1       3.916  -9.477  -3.071  1.00  0.00     0.020 A 
ATOM     63  C   UNL     1       5.225 -11.425  -2.459  1.00  0.00     0.020 A 
ATOM     64  C   UNL     1       4.859 -10.457  -3.395  1.00  0.00     0.054 A 
BRANCH  64  65
ATOM     65  S   UNL     1       5.656 -10.414  -5.025  1.00  0.00     0.124 S 
ATOM     66  O   UNL     1       4.574 -10.816  -5.919  1.00  0.00    -0.237 OA
ATOM     67  O   UNL     1       6.084  -9.021  -5.141  1.00  0.00    -0.237 OA
ATOM     68  O   UNL     1       6.749 -11.379  -4.903  1.00  0.00    -0.744 OA
ENDBRANCH  64  65
ENDBRANCH  38  59
ENDBRANCH  12  13
ENDBRANCH   5   7
ENDBRANCH   2   3
ENDBRANCH   1   2
BRANCH   1  69
ATOM     69  C   UNL     1       4.534   0.536  -3.442  1.00  0.00     0.023 C 
BRANCH  69  70
ATOM     70  C   UNL     1       4.926   1.984  -3.704  1.00  0.00     0.116 C 
BRANCH  70  71
ATOM     71  N   UNL     1       6.365   2.192  -3.704  1.00  0.00    -0.352 N 
ATOM     72  C   UNL     1       7.139   2.844  -4.636  1.00  0.00     0.251 C 
ATOM     73  H   UNL     1       6.851   1.817  -2.934  1.00  0.00     0.163 HD
ATOM     74  O   UNL     1       8.353   2.880  -4.535  1.00  0.00    -0.269 OA
BRANCH  72  75
ATOM     75  C   UNL     1       6.475   3.484  -5.787  1.00  0.00     0.039 A 
ATOM     76  C   UNL     1       6.824   3.064  -7.069  1.00  0.00     0.014 A 
ATOM     77  C   UNL     1       5.495   4.462  -5.598  1.00  0.00     0.014 A 
ATOM     78  C   UNL     1       6.138   3.579  -8.168  1.00  0.00     0.005 A 
ATOM     79  C   UNL     1       4.804   4.969  -6.698  1.00  0.00     0.005 A 
ATOM     80  C   UNL     1       5.106   4.522  -7.997  1.00  0.00    -0.038 A 
BRANCH  80  81
ATOM     81  C   UNL     1       4.363   5.029  -9.220  1.00  0.00     0.081 C 
ATOM     82  C   UNL     1       4.427   6.563  -9.360  1.00  0.00     0.111 C 
ATOM     83  C   UNL     1       2.962   4.550  -9.099  1.00  0.00     0.093 A 
ATOM     84  C   UNL     1       3.110   7.289  -9.135  1.00  0.00     0.188 C 
ATOM     85  C   UNL     1       1.899   5.425  -9.079  1.00  0.00     0.164 A 
ATOM     86  N   UNL     1       2.553   3.253  -8.959  1.00  0.00    -0.238 NA
ATOM     87  N   UNL     1       1.923   6.779  -9.060  1.00  0.00    -0.198 NA
ATOM     88  N   UNL     1       0.776   4.629  -8.933  1.00  0.00    -0.283 N 
ATOM     89  C   UNL     1       1.246   3.337  -8.807  1.00  0.00     0.206 A 
BRANCH  84  90
ATOM     90  O   UNL     1       3.233   8.629  -9.054  1.00  0.00    -0.496 OA
ATOM     91  H   UNL     1       4.081   9.025  -9.106  1.00  0.00     0.294 HD
ENDBRANCH  84  90
BRANCH  88  92
ATOM     92  C   UNL     1      -0.578   5.043  -8.920  1.00  0.00     0.050 A 
ATOM     93  C   UNL     1      -1.503   4.406  -8.084  1.00  0.00     0.027 A 
ATOM     94  C   UNL     1      -0.988   6.089  -9.758  1.00  0.00     0.047 A 
ATOM     95  C   UNL     1      -2.828   4.849  -8.058  1.00  0.00     0.004 A 
ATOM     96  C   UNL     1      -2.322   6.489  -9.757  1.00  0.00     0.043 A 
ATOM     97  C   UNL     1      -3.240   5.884  -8.900  1.00  0.00     0.020 A 
ATOM     98  Cl  UNL     1      -2.845   7.724 -10.836  1.00  0.00    -0.084 Cl
ENDBRANCH  88  92
ENDBRANCH  80  81
ENDBRANCH  72  75
ENDBRANCH  70  71
ENDBRANCH  69  70
ENDBRANCH   1  69
TORSDOF 17
