REMARK SMILES CC(=O)O[C@H]1C[C@@H](C(=O)NCCCCNC(=O)c2ccc(-c3c4nc(c(-c5ccc(S(=O)(=O)[O-])cc5)c5ccc([nH]5)c(-c5ccc(S(=O)(=O)[O-])cc5)c5nc(c(-c6ccc(S(=O)(=O)[O-])cc6)c6ccc3[nH]6)C=C5)C=C4)cc2)N(S(=O)(=O)c2ccc(F)cc2)C1
REMARK SMILES IDX 13 1 12 2 11 3 10 4 8 5 9 6 7 8 5 9 6 10 89 11 78 12 4 13
REMARK SMILES IDX 2 14 1 15 3 16 79 17 80 18 81 19 82 20 83 21 88 22 84 23
REMARK SMILES IDX 87 24 85 25 86 26 14 27 15 28 16 29 17 31 18 32 19 33 77 34
REMARK SMILES IDX 20 35 76 36 21 37 22 38 23 39 70 40 24 41 75 42 69 43 71 44
REMARK SMILES IDX 25 45 74 46 68 47 67 48 26 50 56 51 37 52 55 53 38 54 41 55
REMARK SMILES IDX 54 56 72 57 39 58 40 59 53 61 73 62 42 63 27 64 28 65 36 66
REMARK SMILES IDX 29 67 35 68 30 69 31 70 32 71 33 72 34 73 57 74 58 75 66 76
REMARK SMILES IDX 59 77 65 78 60 79 61 80 62 81 63 82 64 83 43 84 44 85 52 86
REMARK SMILES IDX 45 87 51 88 46 89 47 90 48 91 49 92 50 93
REMARK H PARENT 10 7 15 30 71 49 41 60
REMARK Flexibility Score: inf
ROOT
ATOM      1  C   UNL     1       7.455   1.627  -5.662  1.00  0.00     0.023 C 
ENDROOT
BRANCH   1   2
ATOM      2  C   UNL     1       6.449   1.997  -4.567  1.00  0.00     0.023 C 
BRANCH   2   3
ATOM      3  C   UNL     1       5.133   2.574  -5.091  1.00  0.00     0.116 C 
BRANCH   3   4
ATOM      4  N   UNL     1       4.354   1.554  -5.774  1.00  0.00    -0.355 N 
ATOM      5  C   UNL     1       3.058   1.169  -5.573  1.00  0.00     0.238 C 
ATOM      6  O   UNL     1       2.628   0.204  -6.201  1.00  0.00    -0.273 OA
ATOM      7  H   UNL     1       4.830   1.069  -6.487  1.00  0.00     0.163 HD
BRANCH   5   8
ATOM      8  C   UNL     1       2.220   1.934  -4.577  1.00  0.00     0.166 C 
ATOM      9  C   UNL     1       0.339   2.176  -3.175  1.00  0.00     0.193 C 
ATOM     10  C   UNL     1       1.012   1.155  -4.076  1.00  0.00     0.077 C 
ATOM     11  C   UNL     1       0.601   3.524  -3.877  1.00  0.00     0.148 C 
ATOM     12  N   UNL     1       1.667   3.280  -4.930  1.00  0.00    -0.182 NA
BRANCH   9  13
ATOM     13  O   UNL     1      -1.075   1.937  -3.082  1.00  0.00    -0.461 OA
BRANCH  13  14
ATOM     14  C   UNL     1      -1.634   1.045  -2.230  1.00  0.00     0.302 C 
ATOM     15  C   UNL     1      -0.729   0.343  -1.263  1.00  0.00     0.139 C 
ATOM     16  O   UNL     1      -2.845   0.848  -2.230  1.00  0.00    -0.253 OA
ENDBRANCH  13  14
ENDBRANCH   9  13
BRANCH  12  17
ATOM     17  S   UNL     1       1.024   3.542  -6.510  1.00  0.00     0.243 S 
ATOM     18  O   UNL     1       0.201   2.401  -6.847  1.00  0.00    -0.207 OA
ATOM     19  O   UNL     1       0.451   4.872  -6.496  1.00  0.00    -0.207 OA
BRANCH  17  20
ATOM     20  C   UNL     1       2.393   3.609  -7.644  1.00  0.00     0.082 A 
ATOM     21  C   UNL     1       3.015   4.840  -7.896  1.00  0.00     0.025 A 
ATOM     22  C   UNL     1       2.713   2.491  -8.424  1.00  0.00     0.025 A 
ATOM     23  C   UNL     1       3.999   4.930  -8.884  1.00  0.00     0.040 A 
ATOM     24  C   UNL     1       3.724   2.577  -9.383  1.00  0.00     0.040 A 
ATOM     25  C   UNL     1       4.356   3.795  -9.604  1.00  0.00     0.123 A 
ATOM     26  F   UNL     1       5.311   3.881 -10.539  1.00  0.00    -0.207 F 
ENDBRANCH  17  20
ENDBRANCH  12  17
ENDBRANCH   5   8
ENDBRANCH   3   4
ENDBRANCH   2   3
ENDBRANCH   1   2
BRANCH   1  27
ATOM     27  C   UNL     1       7.942   2.801  -6.507  1.00  0.00     0.116 C 
BRANCH  27  28
ATOM     28  N   UNL     1       8.689   3.771  -5.721  1.00  0.00    -0.352 N 
ATOM     29  C   UNL     1       9.937   4.297  -5.950  1.00  0.00     0.251 C 
ATOM     30  H   UNL     1       8.235   4.097  -4.910  1.00  0.00     0.163 HD
ATOM     31  O   UNL     1      10.485   4.963  -5.077  1.00  0.00    -0.269 OA
BRANCH  29  32
ATOM     32  C   UNL     1      10.625   4.040  -7.235  1.00  0.00     0.039 A 
ATOM     33  C   UNL     1      11.976   3.683  -7.218  1.00  0.00     0.014 A 
ATOM     34  C   UNL     1       9.946   4.159  -8.451  1.00  0.00     0.014 A 
ATOM     35  C   UNL     1      12.629   3.384  -8.417  1.00  0.00     0.010 A 
ATOM     36  C   UNL     1      10.580   3.799  -9.638  1.00  0.00     0.010 A 
ATOM     37  C   UNL     1      11.928   3.409  -9.634  1.00  0.00    -0.014 A 
BRANCH  37  38
ATOM     38  C   UNL     1      12.586   3.028 -10.910  1.00  0.00     0.031 A 
ATOM     39  C   UNL     1      12.775   4.048 -12.000  1.00  0.00     0.074 A 
ATOM     40  C   UNL     1      12.961   1.749 -11.111  1.00  0.00     0.049 A 
ATOM     41  N   UNL     1      13.271   3.889 -13.200  1.00  0.00    -0.248 NA
ATOM     42  C   UNL     1      12.329   5.421 -11.711  1.00  0.00     0.031 C 
ATOM     43  C   UNL     1      12.804   0.657 -10.147  1.00  0.00     0.029 A 
ATOM     44  N   UNL     1      13.548   1.150 -12.197  1.00  0.00    -0.354 N 
ATOM     45  C   UNL     1      13.184   5.133 -13.814  1.00  0.00     0.074 A 
ATOM     46  C   UNL     1      12.547   6.026 -12.870  1.00  0.00     0.031 C 
ATOM     47  C   UNL     1      13.307  -0.471 -10.674  1.00  0.00     0.029 A 
ATOM     48  C   UNL     1      13.785  -0.194 -12.025  1.00  0.00     0.049 A 
ATOM     49  H   UNL     1      13.777   1.636 -13.022  1.00  0.00     0.167 HD
ATOM     50  C   UNL     1      13.610   5.504 -15.046  1.00  0.00     0.031 A 
ATOM     51  C   UNL     1      14.323  -1.103 -12.861  1.00  0.00     0.031 A 
ATOM     52  C   UNL     1      14.253   4.619 -15.980  1.00  0.00     0.049 A 
ATOM     53  C   UNL     1      14.779  -0.669 -14.227  1.00  0.00     0.074 A 
ATOM     54  C   UNL     1      14.762   4.913 -17.233  1.00  0.00     0.029 A 
ATOM     55  N   UNL     1      14.478   3.268 -15.765  1.00  0.00    -0.354 N 
ATOM     56  N   UNL     1      14.731   0.523 -14.770  1.00  0.00    -0.248 NA
ATOM     57  C   UNL     1      15.371  -1.703 -15.087  1.00  0.00     0.031 C 
ATOM     58  C   UNL     1      15.258   3.731 -17.793  1.00  0.00     0.029 A 
ATOM     59  C   UNL     1      15.104   2.711 -16.868  1.00  0.00     0.049 A 
ATOM     60  H   UNL     1      14.230   2.777 -14.948  1.00  0.00     0.167 HD
ATOM     61  C   UNL     1      15.311   0.389 -16.027  1.00  0.00     0.074 A 
ATOM     62  C   UNL     1      15.712  -0.997 -16.157  1.00  0.00     0.031 C 
ATOM     63  C   UNL     1      15.497   1.330 -16.984  1.00  0.00     0.031 A 
BRANCH  50  64
ATOM     64  C   UNL     1      13.389   6.936 -15.453  1.00  0.00    -0.014 A 
ATOM     65  C   UNL     1      14.136   7.977 -14.871  1.00  0.00     0.010 A 
ATOM     66  C   UNL     1      12.454   7.244 -16.458  1.00  0.00     0.010 A 
ATOM     67  C   UNL     1      13.922   9.303 -15.256  1.00  0.00     0.020 A 
ATOM     68  C   UNL     1      12.255   8.567 -16.864  1.00  0.00     0.020 A 
ATOM     69  C   UNL     1      12.979   9.590 -16.248  1.00  0.00     0.054 A 
BRANCH  69  70
ATOM     70  S   UNL     1      12.736  11.318 -16.743  1.00  0.00     0.124 S 
ATOM     71  O   UNL     1      11.986  11.852 -15.608  1.00  0.00    -0.237 OA
ATOM     72  O   UNL     1      14.104  11.810 -16.877  1.00  0.00    -0.237 OA
ATOM     73  O   UNL     1      11.987  11.218 -17.993  1.00  0.00    -0.744 OA
ENDBRANCH  69  70
ENDBRANCH  50  64
BRANCH  51  74
ATOM     74  C   UNL     1      14.481  -2.515 -12.419  1.00  0.00    -0.014 A 
ATOM     75  C   UNL     1      15.756  -3.028 -12.124  1.00  0.00     0.010 A 
ATOM     76  C   UNL     1      13.357  -3.349 -12.276  1.00  0.00     0.010 A 
ATOM     77  C   UNL     1      15.908  -4.353 -11.709  1.00  0.00     0.020 A 
ATOM     78  C   UNL     1      13.502  -4.668 -11.836  1.00  0.00     0.020 A 
ATOM     79  C   UNL     1      14.779  -5.165 -11.565  1.00  0.00     0.054 A 
BRANCH  79  80
ATOM     80  S   UNL     1      14.993  -6.865 -10.969  1.00  0.00     0.124 S 
ATOM     81  O   UNL     1      15.522  -7.537 -12.151  1.00  0.00    -0.237 OA
ATOM     82  O   UNL     1      15.931  -6.697  -9.862  1.00  0.00    -0.237 OA
ATOM     83  O   UNL     1      13.642  -7.259 -10.573  1.00  0.00    -0.744 OA
ENDBRANCH  79  80
ENDBRANCH  51  74
BRANCH  63  84
ATOM     84  C   UNL     1      16.195   0.903 -18.247  1.00  0.00    -0.014 A 
ATOM     85  C   UNL     1      15.543   0.110 -19.207  1.00  0.00     0.010 A 
ATOM     86  C   UNL     1      17.506   1.347 -18.498  1.00  0.00     0.010 A 
ATOM     87  C   UNL     1      16.202  -0.258 -20.384  1.00  0.00     0.020 A 
ATOM     88  C   UNL     1      18.159   1.003 -19.684  1.00  0.00     0.020 A 
ATOM     89  C   UNL     1      17.507   0.190 -20.614  1.00  0.00     0.054 A 
BRANCH  89  90
ATOM     90  S   UNL     1      18.327  -0.264 -22.167  1.00  0.00     0.124 S 
ATOM     91  O   UNL     1      18.679  -1.661 -21.927  1.00  0.00    -0.237 OA
ATOM     92  O   UNL     1      17.279  -0.042 -23.161  1.00  0.00    -0.237 OA
ATOM     93  O   UNL     1      19.456   0.659 -22.245  1.00  0.00    -0.744 OA
ENDBRANCH  89  90
ENDBRANCH  63  84
ENDBRANCH  37  38
ENDBRANCH  29  32
ENDBRANCH  27  28
ENDBRANCH   1  27
TORSDOF 18
