REMARK SMILES C[C@@H]1[C@H](C)CCC[C@@H]1NC(=O)COc1csc(C(=O)NCCCCNC(=O)c2ccc(-c3c4nc(c(-c5ccc(S(=O)(=O)[O-])cc5)c5ccc([nH]5)c(-c5ccc(S(=O)(=O)[O-])cc5)c5nc(c(-c6ccc(S(=O)(=O)[O-])cc6)c6ccc3[nH]6)C=C5)C=C4)cc2)c1
REMARK SMILES IDX 22 1 21 2 20 3 18 4 19 5 17 7 14 8 15 9 88 10 16 11 13 12
REMARK SMILES IDX 12 13 10 14 9 15 11 17 8 18 1 19 2 20 3 21 4 22 5 23 7 24
REMARK SMILES IDX 6 25 23 26 24 27 25 28 26 29 27 31 28 32 29 33 87 34 30 35
REMARK SMILES IDX 86 36 31 37 32 38 33 39 80 40 34 41 85 42 79 43 81 44 35 45
REMARK SMILES IDX 84 46 78 47 77 48 36 50 66 51 47 52 65 53 48 54 51 55 64 56
REMARK SMILES IDX 82 57 49 58 50 59 63 61 83 62 52 63 37 64 38 65 46 66 39 67
REMARK SMILES IDX 45 68 40 69 41 70 42 71 43 72 44 73 67 74 68 75 76 76 69 77
REMARK SMILES IDX 75 78 70 79 71 80 72 81 73 82 74 83 53 84 54 85 62 86 55 87
REMARK SMILES IDX 61 88 56 89 57 90 58 91 59 92 60 93
REMARK H PARENT 20 6 9 16 25 30 81 49 51 60
REMARK Flexibility Score: inf
ROOT
ATOM      1  C   UNL     1      -1.301   0.032   8.212  1.00  0.00     0.023 C 
ENDROOT
BRANCH   1   2
ATOM      2  C   UNL     1      -1.471   1.521   7.906  1.00  0.00     0.116 C 
BRANCH   2   3
ATOM      3  N   UNL     1      -0.499   2.314   8.632  1.00  0.00    -0.351 N 
ATOM      4  C   UNL     1       0.716   2.840   8.258  1.00  0.00     0.261 C 
ATOM      5  O   UNL     1       1.278   3.526   9.114  1.00  0.00    -0.268 OA
ATOM      6  H   UNL     1      -0.755   2.512   9.561  1.00  0.00     0.163 HD
BRANCH   4   7
ATOM      7  C   UNL     1       1.266   2.611   6.927  1.00  0.00     0.096 A 
ATOM      8  C   UNL     1       1.710   1.871   4.760  1.00  0.00     0.131 A 
ATOM      9  C   UNL     1       2.563   2.943   4.828  1.00  0.00     0.112 A 
ATOM     10  C   UNL     1       1.010   1.649   5.969  1.00  0.00     0.072 A 
ATOM     11  S   UNL     1       2.495   3.689   6.365  1.00  0.00    -0.135 S 
BRANCH   8  12
ATOM     12  O   UNL     1       1.464   1.141   3.652  1.00  0.00    -0.483 OA
BRANCH  12  13
ATOM     13  C   UNL     1       2.612   0.510   3.116  1.00  0.00     0.329 C 
BRANCH  13  14
ATOM     14  C   UNL     1       3.371   1.318   2.071  1.00  0.00     0.258 C 
ATOM     15  N   UNL     1       2.728   1.898   1.020  1.00  0.00    -0.350 N 
ATOM     16  H   UNL     1       3.333   2.252   0.328  1.00  0.00     0.163 HD
ATOM     17  O   UNL     1       4.600   1.417   2.117  1.00  0.00    -0.271 OA
BRANCH  15  18
ATOM     18  C   UNL     1       1.302   2.095   0.721  1.00  0.00     0.085 C 
ATOM     19  C   UNL     1       1.084  -0.289  -0.213  1.00  0.00     0.010 C 
ATOM     20  C   UNL     1       0.449   0.798   0.665  1.00  0.00     0.011 C 
ATOM     21  C   UNL     1      -1.012   1.142   0.266  1.00  0.00    -0.009 C 
ATOM     22  C   UNL     1      -1.929  -0.082   0.258  1.00  0.00     0.008 C 
ATOM     23  C   UNL     1      -1.079   1.883  -1.074  1.00  0.00     0.004 C 
ATOM     24  C   UNL     1       1.200   2.879  -0.604  1.00  0.00     0.025 C 
ATOM     25  C   UNL     1      -0.235   3.150  -1.041  1.00  0.00     0.002 C 
ENDBRANCH  15  18
ENDBRANCH  13  14
ENDBRANCH  12  13
ENDBRANCH   8  12
ENDBRANCH   4   7
ENDBRANCH   2   3
ENDBRANCH   1   2
BRANCH   1  26
ATOM     26  C   UNL     1      -1.881  -0.395   9.565  1.00  0.00     0.023 C 
BRANCH  26  27
ATOM     27  C   UNL     1      -3.374  -0.129   9.739  1.00  0.00     0.116 C 
BRANCH  27  28
ATOM     28  N   UNL     1      -4.186  -0.734   8.696  1.00  0.00    -0.352 N 
ATOM     29  C   UNL     1      -5.464  -1.231   8.780  1.00  0.00     0.251 C 
ATOM     30  H   UNL     1      -3.764  -0.795   7.809  1.00  0.00     0.163 HD
ATOM     31  O   UNL     1      -5.949  -1.826   7.823  1.00  0.00    -0.269 OA
BRANCH  29  32
ATOM     32  C   UNL     1      -6.230  -1.081  10.036  1.00  0.00     0.039 A 
ATOM     33  C   UNL     1      -6.922  -2.187  10.530  1.00  0.00     0.014 A 
ATOM     34  C   UNL     1      -6.260   0.134  10.728  1.00  0.00     0.014 A 
ATOM     35  C   UNL     1      -7.600  -2.088  11.745  1.00  0.00     0.010 A 
ATOM     36  C   UNL     1      -6.869   0.206  11.979  1.00  0.00     0.010 A 
ATOM     37  C   UNL     1      -7.552  -0.902  12.499  1.00  0.00    -0.014 A 
BRANCH  37  38
ATOM     38  C   UNL     1      -8.199  -0.837  13.835  1.00  0.00     0.031 A 
ATOM     39  C   UNL     1      -9.347   0.104  14.091  1.00  0.00     0.074 A 
ATOM     40  C   UNL     1      -7.734  -1.625  14.826  1.00  0.00     0.049 A 
ATOM     41  N   UNL     1     -10.075   0.232  15.171  1.00  0.00    -0.248 NA
ATOM     42  C   UNL     1      -9.713   1.036  13.012  1.00  0.00     0.031 C 
ATOM     43  C   UNL     1      -6.581  -2.526  14.723  1.00  0.00     0.029 A 
ATOM     44  N   UNL     1      -8.177  -1.807  16.112  1.00  0.00    -0.354 N 
ATOM     45  C   UNL     1     -10.972   1.262  14.907  1.00  0.00     0.074 A 
ATOM     46  C   UNL     1     -10.669   1.756  13.583  1.00  0.00     0.031 C 
ATOM     47  C   UNL     1      -6.443  -3.200  15.875  1.00  0.00     0.029 A 
ATOM     48  C   UNL     1      -7.468  -2.756  16.812  1.00  0.00     0.049 A 
ATOM     49  H   UNL     1      -8.932  -1.306  16.497  1.00  0.00     0.167 HD
ATOM     50  C   UNL     1     -11.968   1.739  15.690  1.00  0.00     0.031 A 
ATOM     51  C   UNL     1      -7.630  -3.223  18.066  1.00  0.00     0.031 A 
ATOM     52  C   UNL     1     -12.280   1.227  16.999  1.00  0.00     0.049 A 
ATOM     53  C   UNL     1      -8.764  -2.690  18.899  1.00  0.00     0.074 A 
ATOM     54  C   UNL     1     -13.327   1.582  17.832  1.00  0.00     0.029 A 
ATOM     55  N   UNL     1     -11.546   0.262  17.670  1.00  0.00    -0.354 N 
ATOM     56  N   UNL     1      -9.674  -1.800  18.583  1.00  0.00    -0.248 NA
ATOM     57  C   UNL     1      -8.904  -3.241  20.254  1.00  0.00     0.031 C 
ATOM     58  C   UNL     1     -13.186   0.882  19.034  1.00  0.00     0.029 A 
ATOM     59  C   UNL     1     -12.094   0.038  18.922  1.00  0.00     0.049 A 
ATOM     60  H   UNL     1     -10.752  -0.196  17.310  1.00  0.00     0.167 HD
ATOM     61  C   UNL     1     -10.510  -1.705  19.691  1.00  0.00     0.074 A 
ATOM     62  C   UNL     1     -10.016  -2.654  20.668  1.00  0.00     0.031 C 
ATOM     63  C   UNL     1     -11.586  -0.903  19.887  1.00  0.00     0.031 A 
BRANCH  50  64
ATOM     64  C   UNL     1     -12.804   2.877  15.165  1.00  0.00    -0.014 A 
ATOM     65  C   UNL     1     -13.724   2.688  14.118  1.00  0.00     0.010 A 
ATOM     66  C   UNL     1     -12.737   4.134  15.796  1.00  0.00     0.010 A 
ATOM     67  C   UNL     1     -14.552   3.735  13.705  1.00  0.00     0.020 A 
ATOM     68  C   UNL     1     -13.582   5.176  15.405  1.00  0.00     0.020 A 
ATOM     69  C   UNL     1     -14.481   4.971  14.356  1.00  0.00     0.054 A 
BRANCH  69  70
ATOM     70  S   UNL     1     -15.621   6.288  13.848  1.00  0.00     0.124 S 
ATOM     71  O   UNL     1     -15.095   6.652  12.535  1.00  0.00    -0.237 OA
ATOM     72  O   UNL     1     -16.912   5.605  13.840  1.00  0.00    -0.237 OA
ATOM     73  O   UNL     1     -15.463   7.304  14.885  1.00  0.00    -0.744 OA
ENDBRANCH  69  70
ENDBRANCH  50  64
BRANCH  51  74
ATOM     74  C   UNL     1      -6.704  -4.253  18.616  1.00  0.00    -0.014 A 
ATOM     75  C   UNL     1      -7.166  -5.544  18.933  1.00  0.00     0.010 A 
ATOM     76  C   UNL     1      -5.357  -3.933  18.865  1.00  0.00     0.010 A 
ATOM     77  C   UNL     1      -6.314  -6.474  19.536  1.00  0.00     0.020 A 
ATOM     78  C   UNL     1      -4.492  -4.872  19.433  1.00  0.00     0.020 A 
ATOM     79  C   UNL     1      -4.984  -6.130  19.788  1.00  0.00     0.054 A 
BRANCH  79  80
ATOM     80  S   UNL     1      -3.894  -7.350  20.572  1.00  0.00     0.124 S 
ATOM     81  O   UNL     1      -4.375  -7.343  21.950  1.00  0.00    -0.237 OA
ATOM     82  O   UNL     1      -4.176  -8.562  19.808  1.00  0.00    -0.237 OA
ATOM     83  O   UNL     1      -2.558  -6.793  20.372  1.00  0.00    -0.744 OA
ENDBRANCH  79  80
ENDBRANCH  51  74
BRANCH  63  84
ATOM     84  C   UNL     1     -12.316  -1.044  21.198  1.00  0.00    -0.014 A 
ATOM     85  C   UNL     1     -11.723  -0.653  22.412  1.00  0.00     0.010 A 
ATOM     86  C   UNL     1     -13.619  -1.574  21.213  1.00  0.00     0.010 A 
ATOM     87  C   UNL     1     -12.392  -0.853  23.622  1.00  0.00     0.020 A 
ATOM     88  C   UNL     1     -14.307  -1.739  22.417  1.00  0.00     0.020 A 
ATOM     89  C   UNL     1     -13.678  -1.403  23.616  1.00  0.00     0.054 A 
BRANCH  89  90
ATOM     90  S   UNL     1     -14.523  -1.661  25.199  1.00  0.00     0.124 S 
ATOM     91  O   UNL     1     -13.808  -2.813  25.740  1.00  0.00    -0.237 OA
ATOM     92  O   UNL     1     -14.296  -0.397  25.895  1.00  0.00    -0.237 OA
ATOM     93  O   UNL     1     -15.910  -1.912  24.814  1.00  0.00    -0.744 OA
ENDBRANCH  89  90
ENDBRANCH  63  84
ENDBRANCH  37  38
ENDBRANCH  29  32
ENDBRANCH  27  28
ENDBRANCH  26  27
ENDBRANCH   1  26
TORSDOF 18
