REMARK SMILES O=C(NCCCCNC(=O)c1nn(Cc2ccc(F)cc2)c2c1CN(C(=O)[C@H]1CC1(F)F)CC2)c1ccc(-c2c3nc(c(-c4ccc(S(=O)(=O)[O-])cc4)c4ccc([nH]4)c(-c4ccc(S(=O)(=O)[O-])cc4)c4nc(c(-c5ccc(S(=O)(=O)[O-])cc5)c5ccc2[nH]5)C=C4)C=C3)cc1
REMARK SMILES IDX 5 1 4 2 3 3 1 4 2 5 35 7 36 8 94 9 37 10 93 11 38 12 39 13
REMARK SMILES IDX 40 14 87 15 41 16 92 17 86 18 88 19 42 20 91 21 85 22 84 23
REMARK SMILES IDX 43 25 73 26 54 27 72 28 55 29 58 30 71 31 89 32 56 33 57 34
REMARK SMILES IDX 70 36 90 37 59 38 44 39 45 40 53 41 46 42 52 43 47 44 48 45
REMARK SMILES IDX 49 46 50 47 51 48 74 49 75 50 83 51 76 52 82 53 77 54 78 55
REMARK SMILES IDX 79 56 80 57 81 58 60 59 61 60 69 61 62 62 68 63 63 64 64 65
REMARK SMILES IDX 65 66 66 67 67 68 6 69 7 70 8 71 9 72 10 74 11 75 12 76
REMARK SMILES IDX 23 77 13 78 22 79 24 80 34 81 25 82 33 83 14 84 15 85 16 86
REMARK SMILES IDX 21 87 17 88 20 89 18 90 19 91 26 92 27 93 28 94 29 95 30 96
REMARK SMILES IDX 31 97 32 98
REMARK H PARENT 3 6 88 24 58 35 8 73
REMARK Flexibility Score: inf
ROOT
ATOM      1  C   UNL     1      20.035  -9.029   9.630  1.00  0.00     0.023 C 
ENDROOT
BRANCH   1   2
ATOM      2  C   UNL     1      20.887 -10.139  10.240  1.00  0.00     0.116 C 
BRANCH   2   3
ATOM      3  N   UNL     1      21.424 -11.096   9.294  1.00  0.00    -0.352 N 
ATOM      4  O   UNL     1      22.761 -12.248   7.973  1.00  0.00    -0.269 OA
ATOM      5  C   UNL     1      22.542 -11.157   8.508  1.00  0.00     0.251 C 
ATOM      6  H   UNL     1      20.850 -11.889   9.194  1.00  0.00     0.163 HD
BRANCH   5   7
ATOM      7  C   UNL     1      23.449 -10.017   8.199  1.00  0.00     0.039 A 
ATOM      8  C   UNL     1      23.553  -8.826   8.921  1.00  0.00     0.014 A 
ATOM      9  C   UNL     1      24.259 -10.180   7.057  1.00  0.00     0.014 A 
ATOM     10  C   UNL     1      24.387  -7.799   8.471  1.00  0.00     0.010 A 
ATOM     11  C   UNL     1      25.094  -9.163   6.608  1.00  0.00     0.010 A 
ATOM     12  C   UNL     1      25.135  -7.956   7.300  1.00  0.00    -0.014 A 
BRANCH  12  13
ATOM     13  C   UNL     1      26.052  -6.890   6.893  1.00  0.00     0.031 A 
ATOM     14  C   UNL     1      27.246  -6.700   7.767  1.00  0.00     0.074 A 
ATOM     15  C   UNL     1      25.960  -6.235   5.716  1.00  0.00     0.049 A 
ATOM     16  N   UNL     1      27.593  -5.650   8.437  1.00  0.00    -0.248 NA
ATOM     17  C   UNL     1      28.127  -7.861   7.980  1.00  0.00     0.031 C 
ATOM     18  C   UNL     1      25.053  -6.520   4.601  1.00  0.00     0.029 A 
ATOM     19  N   UNL     1      26.756  -5.244   5.219  1.00  0.00    -0.354 N 
ATOM     20  C   UNL     1      28.825  -5.948   9.020  1.00  0.00     0.074 A 
ATOM     21  C   UNL     1      29.038  -7.359   8.814  1.00  0.00     0.031 C 
ATOM     22  C   UNL     1      25.502  -5.890   3.491  1.00  0.00     0.029 A 
ATOM     23  C   UNL     1      26.640  -5.058   3.846  1.00  0.00     0.049 A 
ATOM     24  H   UNL     1      27.359  -4.708   5.783  1.00  0.00     0.167 HD
ATOM     25  C   UNL     1      29.680  -4.985   9.467  1.00  0.00     0.031 A 
ATOM     26  C   UNL     1      27.463  -4.332   3.046  1.00  0.00     0.031 A 
ATOM     27  C   UNL     1      29.045  -3.701   9.571  1.00  0.00     0.049 A 
ATOM     28  C   UNL     1      28.216  -3.392   3.911  1.00  0.00     0.074 A 
ATOM     29  C   UNL     1      27.993  -3.184  10.299  1.00  0.00     0.029 A 
ATOM     30  N   UNL     1      29.294  -2.795   8.568  1.00  0.00    -0.354 N 
ATOM     31  N   UNL     1      27.667  -2.397   4.547  1.00  0.00    -0.248 NA
ATOM     32  C   UNL     1      29.521  -3.803   4.404  1.00  0.00     0.031 C 
ATOM     33  C   UNL     1      27.359  -2.260   9.419  1.00  0.00     0.029 A 
ATOM     34  C   UNL     1      28.092  -2.230   8.230  1.00  0.00     0.049 A 
ATOM     35  H   UNL     1      30.170  -2.590   8.168  1.00  0.00     0.167 HD
ATOM     36  C   UNL     1      28.335  -2.339   5.761  1.00  0.00     0.074 A 
ATOM     37  C   UNL     1      29.531  -3.158   5.574  1.00  0.00     0.031 C 
ATOM     38  C   UNL     1      27.723  -1.858   6.882  1.00  0.00     0.031 A 
BRANCH  25  39
ATOM     39  C   UNL     1      31.184  -5.117   9.467  1.00  0.00    -0.014 A 
ATOM     40  C   UNL     1      31.961  -4.091  10.046  1.00  0.00     0.010 A 
ATOM     41  C   UNL     1      31.863  -6.060   8.669  1.00  0.00     0.010 A 
ATOM     42  C   UNL     1      33.331  -3.972   9.775  1.00  0.00     0.020 A 
ATOM     43  C   UNL     1      33.237  -5.977   8.430  1.00  0.00     0.020 A 
ATOM     44  C   UNL     1      33.956  -4.909   8.953  1.00  0.00     0.054 A 
BRANCH  44  45
ATOM     45  S   UNL     1      35.695  -4.676   8.507  1.00  0.00     0.124 S 
ATOM     46  O   UNL     1      35.636  -3.468   7.691  1.00  0.00    -0.237 OA
ATOM     47  O   UNL     1      36.333  -4.530   9.812  1.00  0.00    -0.237 OA
ATOM     48  O   UNL     1      36.030  -5.903   7.788  1.00  0.00    -0.744 OA
ENDBRANCH  44  45
ENDBRANCH  25  39
BRANCH  26  49
ATOM     49  C   UNL     1      27.865  -4.615   1.644  1.00  0.00    -0.014 A 
ATOM     50  C   UNL     1      28.526  -3.647   0.863  1.00  0.00     0.010 A 
ATOM     51  C   UNL     1      27.852  -5.941   1.165  1.00  0.00     0.010 A 
ATOM     52  C   UNL     1      29.201  -4.006  -0.319  1.00  0.00     0.020 A 
ATOM     53  C   UNL     1      28.513  -6.305  -0.013  1.00  0.00     0.020 A 
ATOM     54  C   UNL     1      29.207  -5.339  -0.738  1.00  0.00     0.054 A 
BRANCH  54  55
ATOM     55  S   UNL     1      30.232  -5.831  -2.157  1.00  0.00     0.124 S 
ATOM     56  O   UNL     1      29.509  -5.245  -3.281  1.00  0.00    -0.237 OA
ATOM     57  O   UNL     1      31.521  -5.220  -1.846  1.00  0.00    -0.237 OA
ATOM     58  O   UNL     1      30.216  -7.292  -2.103  1.00  0.00    -0.744 OA
ENDBRANCH  54  55
ENDBRANCH  26  49
BRANCH  38  59
ATOM     59  C   UNL     1      26.424  -1.103   6.731  1.00  0.00    -0.014 A 
ATOM     60  C   UNL     1      25.257  -1.660   6.173  1.00  0.00     0.010 A 
ATOM     61  C   UNL     1      26.344   0.171   7.322  1.00  0.00     0.010 A 
ATOM     62  C   UNL     1      24.048  -0.948   6.186  1.00  0.00     0.020 A 
ATOM     63  C   UNL     1      25.140   0.876   7.355  1.00  0.00     0.020 A 
ATOM     64  C   UNL     1      23.998   0.317   6.780  1.00  0.00     0.054 A 
BRANCH  64  65
ATOM     65  S   UNL     1      22.420   1.210   6.844  1.00  0.00     0.124 S 
ATOM     66  O   UNL     1      22.192   1.554   5.444  1.00  0.00    -0.237 OA
ATOM     67  O   UNL     1      21.507   0.216   7.405  1.00  0.00    -0.237 OA
ATOM     68  O   UNL     1      22.698   2.346   7.722  1.00  0.00    -0.744 OA
ENDBRANCH  64  65
ENDBRANCH  38  59
ENDBRANCH  12  13
ENDBRANCH   5   7
ENDBRANCH   2   3
ENDBRANCH   1   2
BRANCH   1  69
ATOM     69  C   UNL     1      18.832  -9.491   8.797  1.00  0.00     0.023 C 
BRANCH  69  70
ATOM     70  C   UNL     1      17.820 -10.403   9.497  1.00  0.00     0.116 C 
BRANCH  70  71
ATOM     71  N   UNL     1      17.104  -9.730  10.570  1.00  0.00    -0.351 N 
ATOM     72  C   UNL     1      15.744  -9.594  10.773  1.00  0.00     0.272 C 
ATOM     73  H   UNL     1      17.673  -9.309  11.254  1.00  0.00     0.163 HD
ATOM     74  O   UNL     1      15.366  -8.842  11.673  1.00  0.00    -0.267 OA
BRANCH  72  75
ATOM     75  C   UNL     1      14.777 -10.300   9.912  1.00  0.00     0.155 A 
ATOM     76  N   UNL     1      15.000 -11.532   9.404  1.00  0.00    -0.167 NA
ATOM     77  C   UNL     1      13.477  -9.847   9.545  1.00  0.00     0.026 A 
ATOM     78  N   UNL     1      13.934 -11.788   8.615  1.00  0.00    -0.264 N 
ATOM     79  C   UNL     1      13.015 -10.786   8.643  1.00  0.00     0.046 A 
ATOM     80  C   UNL     1      12.724  -8.606   9.918  1.00  0.00     0.159 C 
ATOM     81  C   UNL     1      11.744 -10.674   7.883  1.00  0.00     0.078 C 
ATOM     82  N   UNL     1      11.377  -8.665   9.297  1.00  0.00    -0.337 N 
ATOM     83  C   UNL     1      11.310  -9.192   7.920  1.00  0.00     0.126 C 
BRANCH  78  84
ATOM     84  C   UNL     1      13.820 -13.083   7.955  1.00  0.00     0.180 C 
BRANCH  84  85
ATOM     85  C   UNL     1      14.768 -13.224   6.789  1.00  0.00    -0.026 A 
ATOM     86  C   UNL     1      16.133 -13.470   7.018  1.00  0.00     0.008 A 
ATOM     87  C   UNL     1      14.306 -13.122   5.467  1.00  0.00     0.008 A 
ATOM     88  C   UNL     1      17.016 -13.621   5.949  1.00  0.00     0.039 A 
ATOM     89  C   UNL     1      15.192 -13.279   4.399  1.00  0.00     0.039 A 
ATOM     90  C   UNL     1      16.536 -13.530   4.650  1.00  0.00     0.123 A 
ATOM     91  F   UNL     1      17.378 -13.690   3.621  1.00  0.00    -0.207 F 
ENDBRANCH  84  85
ENDBRANCH  78  84
BRANCH  82  92
ATOM     92  C   UNL     1      10.277  -8.237  10.036  1.00  0.00     0.232 C 
ATOM     93  O   UNL     1      10.348  -7.775  11.158  1.00  0.00    -0.274 OA
BRANCH  92  94
ATOM     94  C   UNL     1       8.957  -8.329   9.369  1.00  0.00     0.154 C 
ATOM     95  C   UNL     1       8.264  -9.677   9.231  1.00  0.00     0.097 C 
ATOM     96  C   UNL     1       7.731  -8.637  10.142  1.00  0.00     0.260 C 
ATOM     97  F   UNL     1       7.713  -8.893  11.491  1.00  0.00    -0.206 F 
ATOM     98  F   UNL     1       6.527  -8.045   9.824  1.00  0.00    -0.206 F 
ENDBRANCH  92  94
ENDBRANCH  82  92
ENDBRANCH  72  75
ENDBRANCH  70  71
ENDBRANCH  69  70
ENDBRANCH   1  69
TORSDOF 18
