REMARK SMILES Cc1nc(NC(=O)[C@H]2[C@@H]3CC[C@@H](C3)[C@@H]2C(=O)NCCCCNC(=O)c2ccc(-c3c4nc(c(-c5ccc(S(=O)(=O)[O-])cc5)c5ccc([nH]5)c(-c5ccc(S(=O)(=O)[O-])cc5)c5nc(c(-c6ccc(S(=O)(=O)[O-])cc6)c6ccc3[nH]6)C=C5)C=C4)cc2)sc1-c1ccccc1
REMARK SMILES IDX 19 1 18 2 17 3 15 4 16 5 14 7 8 8 9 9 10 10 13 11 12 12
REMARK SMILES IDX 11 13 6 14 5 15 7 17 4 18 1 19 2 20 3 21 86 22 85 23 87 24
REMARK SMILES IDX 88 25 92 26 89 27 91 28 90 29 20 30 21 31 22 32 23 33 24 35
REMARK SMILES IDX 25 36 26 37 84 38 27 39 83 40 28 41 29 42 30 43 77 44 31 45
REMARK SMILES IDX 82 46 76 47 78 48 32 49 81 50 75 51 74 52 33 54 63 55 44 56
REMARK SMILES IDX 62 57 45 58 48 59 61 60 79 61 46 62 47 63 60 65 80 66 49 67
REMARK SMILES IDX 34 68 35 69 43 70 36 71 42 72 37 73 38 74 39 75 40 76 41 77
REMARK SMILES IDX 64 78 65 79 73 80 66 81 72 82 67 83 68 84 69 85 70 86 71 87
REMARK SMILES IDX 50 88 51 89 59 90 52 91 58 92 53 93 54 94 55 95 56 96 57 97
REMARK H PARENT 17 6 5 16 22 34 78 53 48 64
REMARK Flexibility Score: inf
ROOT
ATOM      1  C   UNL     1      -4.270  -0.684  -1.048  1.00  0.00     0.023 C 
ENDROOT
BRANCH   1   2
ATOM      2  C   UNL     1      -4.467   0.803  -0.778  1.00  0.00     0.116 C 
BRANCH   2   3
ATOM      3  N   UNL     1      -3.775   1.290   0.397  1.00  0.00    -0.356 N 
ATOM      4  C   UNL     1      -2.696   2.104   0.566  1.00  0.00     0.224 C 
ATOM      5  O   UNL     1      -2.485   2.466   1.727  1.00  0.00    -0.275 OA
ATOM      6  H   UNL     1      -4.161   0.967   1.244  1.00  0.00     0.163 HD
BRANCH   4   7
ATOM      7  C   UNL     1      -1.785   2.530  -0.604  1.00  0.00     0.094 C 
ATOM      8  C   UNL     1      -0.748   3.618  -0.140  1.00  0.00     0.094 C 
ATOM      9  C   UNL     1      -1.171   4.827  -1.047  1.00  0.00     0.002 C 
ATOM     10  C   UNL     1      -2.578   5.340  -0.682  1.00  0.00     0.005 C 
ATOM     11  C   UNL     1      -1.428   4.117  -2.372  1.00  0.00     0.009 C 
ATOM     12  C   UNL     1      -2.515   3.228  -1.781  1.00  0.00     0.002 C 
ATOM     13  C   UNL     1      -3.509   4.269  -1.256  1.00  0.00     0.005 C 
BRANCH   8  14
ATOM     14  C   UNL     1       0.777   3.408  -0.347  1.00  0.00     0.230 C 
ATOM     15  N   UNL     1       1.454   2.239  -0.267  1.00  0.00    -0.302 N 
ATOM     16  H   UNL     1       2.391   2.265  -0.568  1.00  0.00     0.172 HD
ATOM     17  O   UNL     1       1.493   4.388  -0.618  1.00  0.00    -0.274 OA
BRANCH  15  18
ATOM     18  C   UNL     1       1.010   1.039   0.173  1.00  0.00     0.190 A 
ATOM     19  C   UNL     1      -1.532  -1.052   1.496  1.00  0.00     0.068 C 
ATOM     20  C   UNL     1      -0.264  -0.565   0.916  1.00  0.00     0.058 A 
ATOM     21  N   UNL     1      -0.061   0.795   0.866  1.00  0.00    -0.225 NA
ATOM     22  C   UNL     1       0.682  -1.328   0.255  1.00  0.00     0.059 A 
ATOM     23  S   UNL     1       1.936  -0.316  -0.314  1.00  0.00    -0.096 S 
BRANCH  22  24
ATOM     24  C   UNL     1       0.595  -2.760   0.005  1.00  0.00    -0.006 A 
ATOM     25  C   UNL     1       0.944  -3.661   1.017  1.00  0.00     0.009 A 
ATOM     26  C   UNL     1      -0.143  -3.213  -1.099  1.00  0.00     0.009 A 
ATOM     27  C   UNL     1       0.507  -4.985   0.955  1.00  0.00     0.001 A 
ATOM     28  C   UNL     1      -0.577  -4.538  -1.159  1.00  0.00     0.001 A 
ATOM     29  C   UNL     1      -0.267  -5.417  -0.122  1.00  0.00     0.000 A 
ENDBRANCH  22  24
ENDBRANCH  15  18
ENDBRANCH   8  14
ENDBRANCH   4   7
ENDBRANCH   2   3
ENDBRANCH   1   2
BRANCH   1  30
ATOM     30  C   UNL     1      -4.785  -1.616   0.053  1.00  0.00     0.023 C 
BRANCH  30  31
ATOM     31  C   UNL     1      -6.237  -1.404   0.443  1.00  0.00     0.116 C 
BRANCH  31  32
ATOM     32  N   UNL     1      -7.132  -1.543  -0.692  1.00  0.00    -0.352 N 
ATOM     33  C   UNL     1      -8.232  -2.355  -0.820  1.00  0.00     0.251 C 
ATOM     34  H   UNL     1      -6.922  -0.981  -1.473  1.00  0.00     0.163 HD
ATOM     35  O   UNL     1      -8.739  -2.537  -1.918  1.00  0.00    -0.269 OA
BRANCH  33  36
ATOM     36  C   UNL     1      -8.778  -3.012   0.386  1.00  0.00     0.039 A 
ATOM     37  C   UNL     1      -9.130  -4.360   0.325  1.00  0.00     0.014 A 
ATOM     38  C   UNL     1      -8.915  -2.294   1.578  1.00  0.00     0.014 A 
ATOM     39  C   UNL     1      -9.574  -5.003   1.480  1.00  0.00     0.010 A 
ATOM     40  C   UNL     1      -9.266  -2.958   2.745  1.00  0.00     0.010 A 
ATOM     41  C   UNL     1      -9.614  -4.315   2.705  1.00  0.00    -0.014 A 
BRANCH  41  42
ATOM     42  C   UNL     1     -10.026  -4.996   3.956  1.00  0.00     0.031 A 
ATOM     43  C   UNL     1     -11.251  -4.528   4.694  1.00  0.00     0.074 A 
ATOM     44  C   UNL     1      -9.262  -5.989   4.452  1.00  0.00     0.049 A 
ATOM     45  N   UNL     1     -11.743  -4.961   5.825  1.00  0.00    -0.248 NA
ATOM     46  C   UNL     1     -12.006  -3.410   4.102  1.00  0.00     0.031 C 
ATOM     47  C   UNL     1      -8.023  -6.489   3.848  1.00  0.00     0.029 A 
ATOM     48  N   UNL     1      -9.409  -6.754   5.580  1.00  0.00    -0.354 N 
ATOM     49  C   UNL     1     -12.849  -4.160   6.087  1.00  0.00     0.074 A 
ATOM     50  C   UNL     1     -12.927  -3.181   5.027  1.00  0.00     0.031 C 
ATOM     51  C   UNL     1      -7.542  -7.495   4.596  1.00  0.00     0.029 A 
ATOM     52  C   UNL     1      -8.409  -7.682   5.754  1.00  0.00     0.049 A 
ATOM     53  H   UNL     1     -10.161  -6.649   6.208  1.00  0.00     0.167 HD
ATOM     54  C   UNL     1     -13.732  -4.247   7.108  1.00  0.00     0.031 A 
ATOM     55  C   UNL     1      -8.207  -8.576   6.741  1.00  0.00     0.031 A 
ATOM     56  C   UNL     1     -13.656  -5.238   8.148  1.00  0.00     0.049 A 
ATOM     57  C   UNL     1      -9.205  -8.650   7.865  1.00  0.00     0.074 A 
ATOM     58  C   UNL     1     -14.539  -5.458   9.190  1.00  0.00     0.029 A 
ATOM     59  N   UNL     1     -12.638  -6.170   8.279  1.00  0.00    -0.354 N 
ATOM     60  N   UNL     1     -10.293  -7.939   8.048  1.00  0.00    -0.248 NA
ATOM     61  C   UNL     1      -8.956  -9.653   8.909  1.00  0.00     0.031 C 
ATOM     62  C   UNL     1     -14.021  -6.482   9.988  1.00  0.00     0.029 A 
ATOM     63  C   UNL     1     -12.854  -6.947   9.404  1.00  0.00     0.049 A 
ATOM     64  H   UNL     1     -11.876  -6.266   7.664  1.00  0.00     0.167 HD
ATOM     65  C   UNL     1     -10.871  -8.428   9.214  1.00  0.00     0.074 A 
ATOM     66  C   UNL     1     -10.025  -9.508   9.679  1.00  0.00     0.031 C 
ATOM     67  C   UNL     1     -11.999  -8.019   9.847  1.00  0.00     0.031 A 
BRANCH  54  68
ATOM     68  C   UNL     1     -14.858  -3.248   7.156  1.00  0.00    -0.014 A 
ATOM     69  C   UNL     1     -15.903  -3.281   6.215  1.00  0.00     0.010 A 
ATOM     70  C   UNL     1     -14.909  -2.305   8.200  1.00  0.00     0.010 A 
ATOM     71  C   UNL     1     -16.965  -2.376   6.303  1.00  0.00     0.020 A 
ATOM     72  C   UNL     1     -15.984  -1.418   8.309  1.00  0.00     0.020 A 
ATOM     73  C   UNL     1     -17.001  -1.454   7.353  1.00  0.00     0.054 A 
BRANCH  73  74
ATOM     74  S   UNL     1     -18.421  -0.333   7.473  1.00  0.00     0.124 S 
ATOM     75  O   UNL     1     -18.198   0.559   6.338  1.00  0.00    -0.237 OA
ATOM     76  O   UNL     1     -19.556  -1.243   7.343  1.00  0.00    -0.237 OA
ATOM     77  O   UNL     1     -18.268   0.284   8.789  1.00  0.00    -0.744 OA
ENDBRANCH  73  74
ENDBRANCH  54  68
BRANCH  55  78
ATOM     78  C   UNL     1      -7.014  -9.468   6.714  1.00  0.00    -0.014 A 
ATOM     79  C   UNL     1      -7.155 -10.855   6.532  1.00  0.00     0.010 A 
ATOM     80  C   UNL     1      -5.724  -8.930   6.878  1.00  0.00     0.010 A 
ATOM     81  C   UNL     1      -6.034 -11.691   6.549  1.00  0.00     0.020 A 
ATOM     82  C   UNL     1      -4.598  -9.758   6.861  1.00  0.00     0.020 A 
ATOM     83  C   UNL     1      -4.762 -11.136   6.713  1.00  0.00     0.054 A 
BRANCH  83  84
ATOM     84  S   UNL     1      -3.318 -12.235   6.704  1.00  0.00     0.124 S 
ATOM     85  O   UNL     1      -3.442 -12.909   7.991  1.00  0.00    -0.237 OA
ATOM     86  O   UNL     1      -3.563 -13.065   5.526  1.00  0.00    -0.237 OA
ATOM     87  O   UNL     1      -2.190 -11.315   6.583  1.00  0.00    -0.744 OA
ENDBRANCH  83  84
ENDBRANCH  55  78
BRANCH  67  88
ATOM     88  C   UNL     1     -12.403  -8.764  11.091  1.00  0.00    -0.014 A 
ATOM     89  C   UNL     1     -11.674  -8.637  12.287  1.00  0.00     0.010 A 
ATOM     90  C   UNL     1     -13.565  -9.557  11.076  1.00  0.00     0.010 A 
ATOM     91  C   UNL     1     -12.081  -9.320  13.436  1.00  0.00     0.020 A 
ATOM     92  C   UNL     1     -13.994 -10.213  12.231  1.00  0.00     0.020 A 
ATOM     93  C   UNL     1     -13.240 -10.102  13.400  1.00  0.00     0.054 A 
BRANCH  93  94
ATOM     94  S   UNL     1     -13.770 -10.941  14.918  1.00  0.00     0.124 S 
ATOM     95  O   UNL     1     -12.772 -12.000  15.043  1.00  0.00    -0.237 OA
ATOM     96  O   UNL     1     -13.688  -9.878  15.916  1.00  0.00    -0.237 OA
ATOM     97  O   UNL     1     -15.124 -11.395  14.608  1.00  0.00    -0.744 OA
ENDBRANCH  93  94
ENDBRANCH  67  88
ENDBRANCH  41  42
ENDBRANCH  33  36
ENDBRANCH  31  32
ENDBRANCH  30  31
ENDBRANCH   1  30
TORSDOF 17
