REMARK SMILES Cn1cc(C(=O)NCCCCNC(=O)c2ccc(-c3c4nc(c(-c5ccc(S(=O)(=O)[O-])cc5)c5ccc([nH]5)c(-c5ccc(S(=O)(=O)[O-])cc5)c5nc(c(-c6ccc(S(=O)(=O)[O-])cc6)c6ccc3[nH]6)C=C5)C=C4)cc2)c(C(F)F)n1
REMARK SMILES IDX 10 1 9 2 8 3 7 4 5 5 6 6 4 8 1 9 2 10 3 11 79 12 75 13 76 14
REMARK SMILES IDX 77 15 78 16 11 17 12 18 13 19 14 21 15 22 16 23 74 24 17 25
REMARK SMILES IDX 73 26 18 27 19 28 20 29 67 30 21 31 72 32 66 33 68 34 22 35
REMARK SMILES IDX 71 36 65 37 64 38 23 40 53 41 34 42 52 43 35 44 38 45 51 46
REMARK SMILES IDX 69 47 36 48 37 49 50 51 70 52 39 53 24 54 25 55 33 56 26 57
REMARK SMILES IDX 32 58 27 59 28 60 29 61 30 62 31 63 54 64 55 65 63 66 56 67
REMARK SMILES IDX 62 68 57 69 58 70 59 71 60 72 61 73 40 74 41 75 49 76 42 77
REMARK SMILES IDX 48 78 43 79 44 80 45 81 46 82 47 83
REMARK H PARENT 7 7 12 20 68 39 38 50
REMARK Flexibility Score: inf
ROOT
ATOM      1  C   UNL     1       2.145  -5.511  -1.515  1.00  0.00     0.023 C 
ENDROOT
BRANCH   1   2
ATOM      2  C   UNL     1       1.109  -4.436  -1.162  1.00  0.00     0.023 C 
BRANCH   2   3
ATOM      3  C   UNL     1       1.375  -3.738   0.170  1.00  0.00     0.116 C 
BRANCH   3   4
ATOM      4  N   UNL     1       2.454  -2.781   0.048  1.00  0.00    -0.352 N 
ATOM      5  C   UNL     1       2.487  -1.420  -0.088  1.00  0.00     0.254 C 
ATOM      6  O   UNL     1       3.604  -0.913  -0.163  1.00  0.00    -0.269 OA
ATOM      7  H   UNL     1       3.347  -3.195   0.066  1.00  0.00     0.163 HD
BRANCH   5   8
ATOM      8  C   UNL     1       1.290  -0.586  -0.114  1.00  0.00     0.086 A 
ATOM      9  C   UNL     1      -2.194   0.382  -0.099  1.00  0.00     0.173 C 
ATOM     10  N   UNL     1      -0.758   0.243  -0.125  1.00  0.00    -0.275 N 
ATOM     11  C   UNL     1      -0.049  -0.916  -0.221  1.00  0.00     0.122 A 
ATOM     12  N   UNL     1       0.009   1.333  -0.060  1.00  0.00    -0.171 NA
ATOM     13  C   UNL     1       1.271   0.856  -0.070  1.00  0.00     0.141 A 
BRANCH  13  14
ATOM     14  C   UNL     1       2.440   1.805  -0.040  1.00  0.00     0.394 C 
ATOM     15  F   UNL     1       2.400   2.667  -1.100  1.00  0.00    -0.203 F 
ATOM     16  F   UNL     1       2.413   2.590   1.078  1.00  0.00    -0.203 F 
ENDBRANCH  13  14
ENDBRANCH   5   8
ENDBRANCH   3   4
ENDBRANCH   2   3
ENDBRANCH   1   2
BRANCH   1  17
ATOM     17  C   UNL     1       2.305  -6.621  -0.479  1.00  0.00     0.116 C 
BRANCH  17  18
ATOM     18  N   UNL     1       1.053  -7.294  -0.164  1.00  0.00    -0.352 N 
ATOM     19  C   UNL     1       0.838  -8.630   0.078  1.00  0.00     0.251 C 
ATOM     20  H   UNL     1       0.256  -6.717  -0.117  1.00  0.00     0.163 HD
ATOM     21  O   UNL     1      -0.303  -9.060   0.204  1.00  0.00    -0.269 OA
BRANCH  19  22
ATOM     22  C   UNL     1       1.998  -9.541   0.145  1.00  0.00     0.039 A 
ATOM     23  C   UNL     1       1.988 -10.709  -0.619  1.00  0.00     0.014 A 
ATOM     24  C   UNL     1       3.113  -9.209   0.920  1.00  0.00     0.014 A 
ATOM     25  C   UNL     1       3.129 -11.511  -0.660  1.00  0.00     0.010 A 
ATOM     26  C   UNL     1       4.274  -9.966   0.814  1.00  0.00     0.010 A 
ATOM     27  C   UNL     1       4.295 -11.125   0.024  1.00  0.00    -0.014 A 
BRANCH  27  28
ATOM     28  C   UNL     1       5.547 -11.916  -0.082  1.00  0.00     0.031 A 
ATOM     29  C   UNL     1       6.142 -12.557   1.142  1.00  0.00     0.074 A 
ATOM     30  C   UNL     1       6.183 -12.002  -1.268  1.00  0.00     0.049 A 
ATOM     31  N   UNL     1       7.251 -13.242   1.257  1.00  0.00    -0.248 NA
ATOM     32  C   UNL     1       5.410 -12.382   2.407  1.00  0.00     0.031 C 
ATOM     33  C   UNL     1       5.732 -11.387  -2.518  1.00  0.00     0.029 A 
ATOM     34  N   UNL     1       7.349 -12.638  -1.614  1.00  0.00    -0.354 N 
ATOM     35  C   UNL     1       7.355 -13.569   2.604  1.00  0.00     0.074 A 
ATOM     36  C   UNL     1       6.231 -12.954   3.275  1.00  0.00     0.031 C 
ATOM     37  C   UNL     1       6.594 -11.700  -3.499  1.00  0.00     0.029 A 
ATOM     38  C   UNL     1       7.681 -12.499  -2.942  1.00  0.00     0.049 A 
ATOM     39  H   UNL     1       7.896 -13.147  -0.973  1.00  0.00     0.167 HD
ATOM     40  C   UNL     1       8.289 -14.330   3.224  1.00  0.00     0.031 A 
ATOM     41  C   UNL     1       8.745 -12.954  -3.633  1.00  0.00     0.031 A 
ATOM     42  C   UNL     1       9.406 -14.936   2.551  1.00  0.00     0.049 A 
ATOM     43  C   UNL     1       9.781 -13.779  -2.921  1.00  0.00     0.074 A 
ATOM     44  C   UNL     1      10.381 -15.765   3.078  1.00  0.00     0.029 A 
ATOM     45  N   UNL     1       9.705 -14.774   1.206  1.00  0.00    -0.354 N 
ATOM     46  N   UNL     1       9.825 -14.137  -1.660  1.00  0.00    -0.248 NA
ATOM     47  C   UNL     1      10.905 -14.274  -3.728  1.00  0.00     0.031 C 
ATOM     48  C   UNL     1      11.303 -16.053   2.067  1.00  0.00     0.029 A 
ATOM     49  C   UNL     1      10.864 -15.464   0.891  1.00  0.00     0.049 A 
ATOM     50  H   UNL     1       9.171 -14.246   0.568  1.00  0.00     0.167 HD
ATOM     51  C   UNL     1      10.965 -14.922  -1.528  1.00  0.00     0.074 A 
ATOM     52  C   UNL     1      11.572 -14.999  -2.841  1.00  0.00     0.031 C 
ATOM     53  C   UNL     1      11.461 -15.527  -0.420  1.00  0.00     0.031 A 
BRANCH  40  54
ATOM     54  C   UNL     1       8.141 -14.535   4.710  1.00  0.00    -0.014 A 
ATOM     55  C   UNL     1       7.071 -15.281   5.240  1.00  0.00     0.010 A 
ATOM     56  C   UNL     1       9.095 -13.993   5.590  1.00  0.00     0.010 A 
ATOM     57  C   UNL     1       6.929 -15.434   6.622  1.00  0.00     0.020 A 
ATOM     58  C   UNL     1       8.976 -14.173   6.971  1.00  0.00     0.020 A 
ATOM     59  C   UNL     1       7.881 -14.874   7.479  1.00  0.00     0.054 A 
BRANCH  59  60
ATOM     60  S   UNL     1       7.672 -15.094   9.267  1.00  0.00     0.124 S 
ATOM     61  O   UNL     1       6.533 -14.223   9.546  1.00  0.00    -0.237 OA
ATOM     62  O   UNL     1       7.411 -16.526   9.385  1.00  0.00    -0.237 OA
ATOM     63  O   UNL     1       8.947 -14.647   9.823  1.00  0.00    -0.744 OA
ENDBRANCH  59  60
ENDBRANCH  40  54
BRANCH  41  64
ATOM     64  C   UNL     1       8.870 -12.646  -5.085  1.00  0.00    -0.014 A 
ATOM     65  C   UNL     1       8.714 -13.659  -6.048  1.00  0.00     0.010 A 
ATOM     66  C   UNL     1       9.117 -11.329  -5.514  1.00  0.00     0.010 A 
ATOM     67  C   UNL     1       8.815 -13.362  -7.411  1.00  0.00     0.020 A 
ATOM     68  C   UNL     1       9.187 -11.023  -6.876  1.00  0.00     0.020 A 
ATOM     69  C   UNL     1       9.044 -12.044  -7.816  1.00  0.00     0.054 A 
BRANCH  69  70
ATOM     70  S   UNL     1       9.103 -11.673  -9.591  1.00  0.00     0.124 S 
ATOM     71  O   UNL     1      10.372 -12.276  -9.986  1.00  0.00    -0.237 OA
ATOM     72  O   UNL     1       7.902 -12.339 -10.091  1.00  0.00    -0.237 OA
ATOM     73  O   UNL     1       9.062 -10.213  -9.637  1.00  0.00    -0.744 OA
ENDBRANCH  69  70
ENDBRANCH  41  64
BRANCH  53  74
ATOM     74  C   UNL     1      12.708 -16.359  -0.581  1.00  0.00    -0.014 A 
ATOM     75  C   UNL     1      13.959 -15.766  -0.827  1.00  0.00     0.010 A 
ATOM     76  C   UNL     1      12.631 -17.756  -0.425  1.00  0.00     0.010 A 
ATOM     77  C   UNL     1      15.105 -16.558  -0.945  1.00  0.00     0.020 A 
ATOM     78  C   UNL     1      13.779 -18.547  -0.510  1.00  0.00     0.020 A 
ATOM     79  C   UNL     1      15.008 -17.943  -0.783  1.00  0.00     0.054 A 
BRANCH  79  80
ATOM     80  S   UNL     1      16.517 -18.942  -0.896  1.00  0.00     0.124 S 
ATOM     81  O   UNL     1      16.814 -18.886  -2.324  1.00  0.00    -0.237 OA
ATOM     82  O   UNL     1      17.445 -18.217  -0.031  1.00  0.00    -0.237 OA
ATOM     83  O   UNL     1      16.104 -20.252  -0.397  1.00  0.00    -0.744 OA
ENDBRANCH  79  80
ENDBRANCH  53  74
ENDBRANCH  27  28
ENDBRANCH  19  22
ENDBRANCH  17  18
ENDBRANCH   1  17
TORSDOF 15
