REMARK SMILES Cc1ccc(Cl)c(Nc2ccccc2C(=O)N[C@@H](C)C(=O)NCCCCNC(=O)c2ccc(-c3c4nc(c(-c5ccc(S(=O)(=O)[O-])cc5)c5ccc([nH]5)c(-c5ccc(S(=O)(=O)[O-])cc5)c5nc(c(-c6ccc(S(=O)(=O)[O-])cc6)c6ccc3[nH]6)C=C5)C=C4)cc2)c1Cl
REMARK SMILES IDX 24 1 23 2 22 3 20 4 21 5 18 7 19 8 17 9 15 10 16 11 14 13
REMARK SMILES IDX 9 14 10 15 11 16 13 17 12 18 8 19 7 21 1 22 2 23 3 24 90 25
REMARK SMILES IDX 4 26 91 27 5 28 6 29 25 30 26 31 27 32 28 33 29 35 30 36
REMARK SMILES IDX 31 37 89 38 32 39 88 40 33 41 34 42 35 43 82 44 36 45 87 46
REMARK SMILES IDX 81 47 83 48 37 49 86 50 80 51 79 52 38 54 68 55 49 56 67 57
REMARK SMILES IDX 50 58 53 59 66 60 84 61 51 62 52 63 65 65 85 66 54 67 39 68
REMARK SMILES IDX 40 69 48 70 41 71 47 72 42 73 43 74 44 75 45 76 46 77 69 78
REMARK SMILES IDX 70 79 78 80 71 81 77 82 72 83 73 84 74 85 75 86 76 87 55 88
REMARK SMILES IDX 56 89 64 90 57 91 63 92 58 93 59 94 60 95 61 96 62 97
REMARK H PARENT 22 6 17 12 8 20 27 34 83 53 53 64
REMARK Flexibility Score: inf
ROOT
ATOM      1  C   UNL     1      -0.302   2.454   3.666  1.00  0.00     0.023 C 
ENDROOT
BRANCH   1   2
ATOM      2  C   UNL     1      -1.546   1.614   3.342  1.00  0.00     0.116 C 
BRANCH   2   3
ATOM      3  N   UNL     1      -1.566   1.132   1.976  1.00  0.00    -0.354 N 
ATOM      4  C   UNL     1      -0.656   0.168   1.653  1.00  0.00     0.242 C 
ATOM      5  O   UNL     1       0.465   0.548   1.319  1.00  0.00    -0.273 OA
ATOM      6  H   UNL     1      -2.205   1.482   1.313  1.00  0.00     0.163 HD
BRANCH   4   7
ATOM      7  C   UNL     1      -1.044  -1.324   1.774  1.00  0.00     0.168 C 
ATOM      8  C   UNL     1      -2.361  -1.623   2.474  1.00  0.00     0.041 C 
BRANCH   7   9
ATOM      9  N   UNL     1       0.096  -1.923   2.446  1.00  0.00    -0.340 N 
ATOM     10  C   UNL     1       1.291  -2.306   1.876  1.00  0.00     0.254 C 
ATOM     11  O   UNL     1       2.300  -2.081   2.553  1.00  0.00    -0.269 OA
ATOM     12  H   UNL     1       0.006  -2.071   3.415  1.00  0.00     0.164 HD
BRANCH  10  13
ATOM     13  C   UNL     1       1.408  -3.219   0.691  1.00  0.00     0.063 A 
ATOM     14  C   UNL     1       0.773  -3.202  -0.570  1.00  0.00     0.051 A 
ATOM     15  C   UNL     1       0.993  -4.301  -1.440  1.00  0.00     0.027 A 
ATOM     16  C   UNL     1       1.868  -5.341  -1.131  1.00  0.00     0.002 A 
ATOM     17  C   UNL     1       2.312  -4.279   0.967  1.00  0.00     0.016 A 
ATOM     18  C   UNL     1       2.552  -5.316   0.069  1.00  0.00     0.001 A 
BRANCH  14  19
ATOM     19  N   UNL     1       0.015  -2.169  -1.155  1.00  0.00    -0.352 N 
ATOM     20  H   UNL     1      -0.874  -2.469  -1.453  1.00  0.00     0.167 HD
BRANCH  19  21
ATOM     21  C   UNL     1       0.247  -0.790  -1.410  1.00  0.00     0.077 A 
ATOM     22  C   UNL     1       2.828   2.005  -0.922  1.00  0.00     0.046 C 
ATOM     23  C   UNL     1       1.561   1.284  -1.302  1.00  0.00    -0.030 A 
ATOM     24  C   UNL     1       0.406   2.041  -1.555  1.00  0.00     0.006 A 
ATOM     25  C   UNL     1       1.489  -0.131  -1.292  1.00  0.00     0.069 A 
ATOM     26  C   UNL     1      -0.812   1.409  -1.774  1.00  0.00     0.023 A 
ATOM     27  Cl  UNL     1       2.979  -1.021  -1.204  1.00  0.00    -0.082 Cl
ATOM     28  C   UNL     1      -0.888   0.019  -1.685  1.00  0.00     0.066 A 
ATOM     29  Cl  UNL     1      -2.462  -0.699  -1.862  1.00  0.00    -0.082 Cl
ENDBRANCH  19  21
ENDBRANCH  14  19
ENDBRANCH  10  13
ENDBRANCH   7   9
ENDBRANCH   4   7
ENDBRANCH   2   3
ENDBRANCH   1   2
BRANCH   1  30
ATOM     30  C   UNL     1      -0.136   3.727   2.832  1.00  0.00     0.023 C 
BRANCH  30  31
ATOM     31  C   UNL     1      -1.385   4.595   2.742  1.00  0.00     0.116 C 
BRANCH  31  32
ATOM     32  N   UNL     1      -2.007   4.806   4.040  1.00  0.00    -0.352 N 
ATOM     33  C   UNL     1      -2.441   5.965   4.630  1.00  0.00     0.251 C 
ATOM     34  H   UNL     1      -2.137   3.992   4.577  1.00  0.00     0.163 HD
ATOM     35  O   UNL     1      -2.810   5.960   5.793  1.00  0.00    -0.269 OA
BRANCH  33  36
ATOM     36  C   UNL     1      -2.430   7.212   3.846  1.00  0.00     0.039 A 
ATOM     37  C   UNL     1      -1.866   8.353   4.418  1.00  0.00     0.014 A 
ATOM     38  C   UNL     1      -2.952   7.239   2.551  1.00  0.00     0.014 A 
ATOM     39  C   UNL     1      -1.778   9.520   3.664  1.00  0.00     0.010 A 
ATOM     40  C   UNL     1      -2.793   8.380   1.776  1.00  0.00     0.010 A 
ATOM     41  C   UNL     1      -2.212   9.532   2.329  1.00  0.00    -0.014 A 
BRANCH  41  42
ATOM     42  C   UNL     1      -2.082  10.744   1.489  1.00  0.00     0.031 A 
ATOM     43  C   UNL     1      -3.317  11.425   0.971  1.00  0.00     0.074 A 
ATOM     44  C   UNL     1      -0.857  11.181   1.139  1.00  0.00     0.049 A 
ATOM     45  N   UNL     1      -3.415  12.438   0.150  1.00  0.00    -0.248 NA
ATOM     46  C   UNL     1      -4.612  10.879   1.411  1.00  0.00     0.031 C 
ATOM     47  C   UNL     1       0.411  10.579   1.560  1.00  0.00     0.029 A 
ATOM     48  N   UNL     1      -0.477  12.230   0.342  1.00  0.00    -0.354 N 
ATOM     49  C   UNL     1      -4.777  12.636  -0.040  1.00  0.00     0.074 A 
ATOM     50  C   UNL     1      -5.466  11.608   0.709  1.00  0.00     0.031 C 
ATOM     51  C   UNL     1       1.427  11.283   1.035  1.00  0.00     0.029 A 
ATOM     52  C   UNL     1       0.885  12.353   0.204  1.00  0.00     0.049 A 
ATOM     53  H   UNL     1      -1.119  12.838  -0.091  1.00  0.00     0.167 HD
ATOM     54  C   UNL     1      -5.398  13.601  -0.759  1.00  0.00     0.031 A 
ATOM     55  C   UNL     1       1.615  13.222  -0.521  1.00  0.00     0.031 A 
ATOM     56  C   UNL     1      -4.702  14.623  -1.492  1.00  0.00     0.049 A 
ATOM     57  C   UNL     1       0.902  14.273  -1.328  1.00  0.00     0.074 A 
ATOM     58  C   UNL     1      -5.234  15.677  -2.214  1.00  0.00     0.029 A 
ATOM     59  N   UNL     1      -3.322  14.721  -1.597  1.00  0.00    -0.354 N 
ATOM     60  N   UNL     1      -0.388  14.480  -1.454  1.00  0.00    -0.248 NA
ATOM     61  C   UNL     1       1.741  15.214  -2.081  1.00  0.00     0.031 C 
ATOM     62  C   UNL     1      -4.177  16.377  -2.803  1.00  0.00     0.029 A 
ATOM     63  C   UNL     1      -2.985  15.803  -2.391  1.00  0.00     0.049 A 
ATOM     64  H   UNL     1      -2.678  14.111  -1.170  1.00  0.00     0.167 HD
ATOM     65  C   UNL     1      -0.513  15.598  -2.271  1.00  0.00     0.074 A 
ATOM     66  C   UNL     1       0.831  16.025  -2.602  1.00  0.00     0.031 C 
ATOM     67  C   UNL     1      -1.639  16.218  -2.702  1.00  0.00     0.031 A 
BRANCH  54  68
ATOM     68  C   UNL     1      -6.904  13.585  -0.795  1.00  0.00    -0.014 A 
ATOM     69  C   UNL     1      -7.664  13.880   0.351  1.00  0.00     0.010 A 
ATOM     70  C   UNL     1      -7.569  13.306  -2.003  1.00  0.00     0.010 A 
ATOM     71  C   UNL     1      -9.060  13.853   0.301  1.00  0.00     0.020 A 
ATOM     72  C   UNL     1      -8.966  13.310  -2.065  1.00  0.00     0.020 A 
ATOM     73  C   UNL     1      -9.702  13.568  -0.907  1.00  0.00     0.054 A 
BRANCH  73  74
ATOM     74  S   UNL     1     -11.515  13.564  -0.947  1.00  0.00     0.124 S 
ATOM     75  O   UNL     1     -11.830  12.347  -0.203  1.00  0.00    -0.237 OA
ATOM     76  O   UNL     1     -11.852  14.816  -0.274  1.00  0.00    -0.237 OA
ATOM     77  O   UNL     1     -11.831  13.521  -2.373  1.00  0.00    -0.744 OA
ENDBRANCH  73  74
ENDBRANCH  54  68
BRANCH  55  78
ATOM     78  C   UNL     1       3.101  13.140  -0.506  1.00  0.00    -0.014 A 
ATOM     79  C   UNL     1       3.866  14.140   0.120  1.00  0.00     0.010 A 
ATOM     80  C   UNL     1       3.761  12.050  -1.104  1.00  0.00     0.010 A 
ATOM     81  C   UNL     1       5.261  14.064   0.128  1.00  0.00     0.020 A 
ATOM     82  C   UNL     1       5.155  11.955  -1.071  1.00  0.00     0.020 A 
ATOM     83  C   UNL     1       5.897  12.970  -0.465  1.00  0.00     0.054 A 
BRANCH  83  84
ATOM     84  S   UNL     1       7.708  12.872  -0.402  1.00  0.00     0.124 S 
ATOM     85  O   UNL     1       8.101  13.914  -1.345  1.00  0.00    -0.237 OA
ATOM     86  O   UNL     1       7.989  13.151   1.004  1.00  0.00    -0.237 OA
ATOM     87  O   UNL     1       7.990  11.503  -0.827  1.00  0.00    -0.744 OA
ENDBRANCH  83  84
ENDBRANCH  55  78
BRANCH  67  88
ATOM     88  C   UNL     1      -1.474  17.458  -3.539  1.00  0.00    -0.014 A 
ATOM     89  C   UNL     1      -1.023  17.393  -4.869  1.00  0.00     0.010 A 
ATOM     90  C   UNL     1      -1.848  18.704  -3.001  1.00  0.00     0.010 A 
ATOM     91  C   UNL     1      -0.926  18.556  -5.638  1.00  0.00     0.020 A 
ATOM     92  C   UNL     1      -1.782  19.863  -3.776  1.00  0.00     0.020 A 
ATOM     93  C   UNL     1      -1.310  19.783  -5.087  1.00  0.00     0.054 A 
BRANCH  93  94
ATOM     94  S   UNL     1      -1.232  21.267  -6.126  1.00  0.00     0.124 S 
ATOM     95  O   UNL     1       0.207  21.499  -6.217  1.00  0.00    -0.237 OA
ATOM     96  O   UNL     1      -1.877  20.828  -7.360  1.00  0.00    -0.237 OA
ATOM     97  O   UNL     1      -1.976  22.266  -5.361  1.00  0.00    -0.744 OA
ENDBRANCH  93  94
ENDBRANCH  67  88
ENDBRANCH  41  42
ENDBRANCH  33  36
ENDBRANCH  31  32
ENDBRANCH  30  31
ENDBRANCH   1  30
TORSDOF 18
