REMARK SMILES CC1(C)C[C@@H]([NH2+]C[C@@H]2CCCC[C@@H]2C(=O)NCCCCNC(=O)c2ccc(-c3c4nc(c(-c5ccc(S(=O)(=O)[O-])cc5)c5ccc([nH]5)c(-c5ccc(S(=O)(=O)[O-])cc5)c5nc(c(-c6ccc(S(=O)(=O)[O-])cc6)c6ccc3[nH]6)C=C5)C=C4)cc2)C(C)(C)O1
REMARK SMILES IDX 18 1 17 2 16 3 14 4 15 5 13 7 8 8 9 9 10 10 12 11 11 12 7 13
REMARK SMILES IDX 6 14 5 17 1 18 2 19 3 20 4 21 87 22 84 23 85 24 86 25 19 26
REMARK SMILES IDX 20 27 21 28 22 29 23 31 24 32 25 33 83 34 26 35 82 36 27 37
REMARK SMILES IDX 28 38 29 39 76 40 30 41 81 42 75 43 77 44 31 45 80 46 74 47
REMARK SMILES IDX 73 48 32 50 62 51 43 52 61 53 44 54 47 55 60 56 78 57 45 58
REMARK SMILES IDX 46 59 59 61 79 62 48 63 33 64 34 65 42 66 35 67 41 68 36 69
REMARK SMILES IDX 37 70 38 71 39 72 40 73 63 74 64 75 72 76 65 77 71 78 66 79
REMARK SMILES IDX 67 80 68 81 69 82 70 83 49 84 50 85 58 86 51 87 57 88 52 89
REMARK SMILES IDX 53 90 54 91 55 92 56 93
REMARK H PARENT 16 6 6 15 6 16 21 30 77 49 47 60
REMARK Flexibility Score: inf
ROOT
ATOM      1  C   UNL     1      -4.433  -5.757   1.610  1.00  0.00     0.023 C 
ENDROOT
BRANCH   1   2
ATOM      2  C   UNL     1      -4.111  -5.018   0.311  1.00  0.00     0.116 C 
BRANCH   2   3
ATOM      3  N   UNL     1      -3.305  -3.847   0.571  1.00  0.00    -0.356 N 
ATOM      4  C   UNL     1      -1.968  -3.647   0.481  1.00  0.00     0.223 C 
ATOM      5  O   UNL     1      -1.562  -2.593   0.965  1.00  0.00    -0.275 OA
ATOM      6  H   UNL     1      -3.816  -3.058   0.864  1.00  0.00     0.163 HD
BRANCH   4   7
ATOM      7  C   UNL     1      -1.080  -4.621  -0.288  1.00  0.00     0.087 C 
ATOM      8  C   UNL     1       0.399  -4.791   0.180  1.00  0.00     0.056 C 
ATOM      9  C   UNL     1       1.526  -4.229  -0.720  1.00  0.00     0.010 C 
ATOM     10  C   UNL     1       1.161  -3.360  -1.924  1.00  0.00     0.001 C 
ATOM     11  C   UNL     1      -1.179  -4.263  -1.779  1.00  0.00     0.014 C 
ATOM     12  C   UNL     1      -0.314  -3.061  -2.121  1.00  0.00     0.001 C 
BRANCH   8  13
ATOM     13  C   UNL     1       0.642  -4.722   1.725  1.00  0.00     0.265 C 
BRANCH  13  14
ATOM     14  N   UNL     1       1.553  -3.739   2.325  1.00  0.00    -0.341 N 
ATOM     15  H   UNL     1       1.779  -4.056   3.267  1.00  0.00     0.346 HD
ATOM     16  H   UNL     1       2.358  -3.689   1.701  1.00  0.00     0.346 HD
BRANCH  14  17
ATOM     17  C   UNL     1       1.036  -2.371   2.421  1.00  0.00     0.217 C 
ATOM     18  C   UNL     1       1.402   0.835   0.569  1.00  0.00     0.042 C 
ATOM     19  C   UNL     1       0.854  -0.155   1.592  1.00  0.00     0.069 C 
ATOM     20  C   UNL     1      -0.630   0.144   1.842  1.00  0.00     0.042 C 
ATOM     21  C   UNL     1       1.129  -1.576   1.135  1.00  0.00     0.103 C 
ATOM     22  O   UNL     1       1.561  -0.043   2.842  1.00  0.00    -0.363 OA
ATOM     23  C   UNL     1       1.774  -1.385   3.381  1.00  0.00     0.115 C 
ATOM     24  C   UNL     1       3.293  -1.590   3.426  1.00  0.00     0.048 C 
ATOM     25  C   UNL     1       1.208  -1.423   4.799  1.00  0.00     0.048 C 
ENDBRANCH  14  17
ENDBRANCH  13  14
ENDBRANCH   8  13
ENDBRANCH   4   7
ENDBRANCH   2   3
ENDBRANCH   1   2
BRANCH   1  26
ATOM     26  C   UNL     1      -5.068  -4.895   2.712  1.00  0.00     0.023 C 
BRANCH  26  27
ATOM     27  C   UNL     1      -6.262  -4.040   2.294  1.00  0.00     0.116 C 
BRANCH  27  28
ATOM     28  N   UNL     1      -7.340  -4.821   1.711  1.00  0.00    -0.352 N 
ATOM     29  C   UNL     1      -8.683  -4.800   1.986  1.00  0.00     0.251 C 
ATOM     30  H   UNL     1      -7.064  -5.460   1.015  1.00  0.00     0.163 HD
ATOM     31  O   UNL     1      -9.417  -5.639   1.462  1.00  0.00    -0.269 OA
BRANCH  29  32
ATOM     32  C   UNL     1      -9.249  -3.806   2.924  1.00  0.00     0.039 A 
ATOM     33  C   UNL     1     -10.175  -4.241   3.877  1.00  0.00     0.014 A 
ATOM     34  C   UNL     1      -8.891  -2.456   2.866  1.00  0.00     0.014 A 
ATOM     35  C   UNL     1     -10.694  -3.337   4.807  1.00  0.00     0.010 A 
ATOM     36  C   UNL     1      -9.361  -1.569   3.835  1.00  0.00     0.010 A 
ATOM     37  C   UNL     1     -10.266  -2.000   4.817  1.00  0.00    -0.014 A 
BRANCH  37  38
ATOM     38  C   UNL     1     -10.744  -1.050   5.856  1.00  0.00     0.031 A 
ATOM     39  C   UNL     1     -11.575   0.146   5.474  1.00  0.00     0.074 A 
ATOM     40  C   UNL     1     -10.387  -1.236   7.144  1.00  0.00     0.049 A 
ATOM     41  N   UNL     1     -12.040   1.104   6.235  1.00  0.00    -0.248 NA
ATOM     42  C   UNL     1     -11.913   0.296   4.049  1.00  0.00     0.031 C 
ATOM     43  C   UNL     1      -9.558  -2.336   7.642  1.00  0.00     0.029 A 
ATOM     44  N   UNL     1     -10.671  -0.501   8.269  1.00  0.00    -0.354 N 
ATOM     45  C   UNL     1     -12.711   1.975   5.384  1.00  0.00     0.074 A 
ATOM     46  C   UNL     1     -12.555   1.456   4.042  1.00  0.00     0.031 C 
ATOM     47  C   UNL     1      -9.421  -2.217   8.973  1.00  0.00     0.029 A 
ATOM     48  C   UNL     1     -10.114  -1.012   9.418  1.00  0.00     0.049 A 
ATOM     49  H   UNL     1     -11.222   0.315   8.254  1.00  0.00     0.167 HD
ATOM     50  C   UNL     1     -13.410   3.094   5.691  1.00  0.00     0.031 A 
ATOM     51  C   UNL     1     -10.148  -0.560  10.687  1.00  0.00     0.031 A 
ATOM     52  C   UNL     1     -13.571   3.606   7.027  1.00  0.00     0.049 A 
ATOM     53  C   UNL     1     -10.911   0.699  10.999  1.00  0.00     0.074 A 
ATOM     54  C   UNL     1     -14.302   4.706   7.444  1.00  0.00     0.029 A 
ATOM     55  N   UNL     1     -12.992   3.059   8.162  1.00  0.00    -0.354 N 
ATOM     56  N   UNL     1     -11.592   1.472  10.187  1.00  0.00    -0.248 NA
ATOM     57  C   UNL     1     -10.919   1.140  12.400  1.00  0.00     0.031 C 
ATOM     58  C   UNL     1     -14.121   4.854   8.823  1.00  0.00     0.029 A 
ATOM     59  C   UNL     1     -13.328   3.812   9.275  1.00  0.00     0.049 A 
ATOM     60  H   UNL     1     -12.425   2.254   8.175  1.00  0.00     0.167 HD
ATOM     61  C   UNL     1     -12.132   2.475  10.984  1.00  0.00     0.074 A 
ATOM     62  C   UNL     1     -11.713   2.201  12.343  1.00  0.00     0.031 C 
ATOM     63  C   UNL     1     -12.906   3.528  10.623  1.00  0.00     0.031 A 
BRANCH  50  64
ATOM     64  C   UNL     1     -14.055   3.849   4.558  1.00  0.00    -0.014 A 
ATOM     65  C   UNL     1     -15.162   3.320   3.870  1.00  0.00     0.010 A 
ATOM     66  C   UNL     1     -13.584   5.129   4.211  1.00  0.00     0.010 A 
ATOM     67  C   UNL     1     -15.761   4.038   2.832  1.00  0.00     0.020 A 
ATOM     68  C   UNL     1     -14.198   5.864   3.192  1.00  0.00     0.020 A 
ATOM     69  C   UNL     1     -15.274   5.306   2.498  1.00  0.00     0.054 A 
BRANCH  69  70
ATOM     70  S   UNL     1     -16.091   6.227   1.166  1.00  0.00     0.124 S 
ATOM     71  O   UNL     1     -15.661   5.487  -0.018  1.00  0.00    -0.237 OA
ATOM     72  O   UNL     1     -17.506   6.096   1.508  1.00  0.00    -0.237 OA
ATOM     73  O   UNL     1     -15.545   7.576   1.290  1.00  0.00    -0.744 OA
ENDBRANCH  69  70
ENDBRANCH  50  64
BRANCH  51  74
ATOM     74  C   UNL     1      -9.439  -1.306  11.764  1.00  0.00    -0.014 A 
ATOM     75  C   UNL     1     -10.164  -1.981  12.762  1.00  0.00     0.010 A 
ATOM     76  C   UNL     1      -8.033  -1.342  11.799  1.00  0.00     0.010 A 
ATOM     77  C   UNL     1      -9.497  -2.658  13.788  1.00  0.00     0.020 A 
ATOM     78  C   UNL     1      -7.362  -2.042  12.806  1.00  0.00     0.020 A 
ATOM     79  C   UNL     1      -8.100  -2.684  13.803  1.00  0.00     0.054 A 
BRANCH  79  80
ATOM     80  S   UNL     1      -7.256  -3.601  15.122  1.00  0.00     0.124 S 
ATOM     81  O   UNL     1      -7.456  -2.728  16.274  1.00  0.00    -0.237 OA
ATOM     82  O   UNL     1      -7.990  -4.863  15.148  1.00  0.00    -0.237 OA
ATOM     83  O   UNL     1      -5.879  -3.700  14.642  1.00  0.00    -0.744 OA
ENDBRANCH  79  80
ENDBRANCH  51  74
BRANCH  63  84
ATOM     84  C   UNL     1     -13.382   4.447  11.717  1.00  0.00    -0.014 A 
ATOM     85  C   UNL     1     -12.501   5.328  12.368  1.00  0.00     0.010 A 
ATOM     86  C   UNL     1     -14.747   4.465  12.062  1.00  0.00     0.010 A 
ATOM     87  C   UNL     1     -12.969   6.188  13.365  1.00  0.00     0.020 A 
ATOM     88  C   UNL     1     -15.224   5.344  13.037  1.00  0.00     0.020 A 
ATOM     89  C   UNL     1     -14.329   6.190  13.694  1.00  0.00     0.054 A 
BRANCH  89  90
ATOM     90  S   UNL     1     -14.919   7.347  14.960  1.00  0.00     0.124 S 
ATOM     91  O   UNL     1     -14.411   6.739  16.187  1.00  0.00    -0.237 OA
ATOM     92  O   UNL     1     -14.283   8.602  14.570  1.00  0.00    -0.237 OA
ATOM     93  O   UNL     1     -16.372   7.317  14.806  1.00  0.00    -0.744 OA
ENDBRANCH  89  90
ENDBRANCH  63  84
ENDBRANCH  37  38
ENDBRANCH  29  32
ENDBRANCH  27  28
ENDBRANCH  26  27
ENDBRANCH   1  26
TORSDOF 17
