REMARK SMILES CCc1cccc(CC)c1NC(=O)C[C@@](C)(C(=O)NCCCCNC(=O)c1ccc(-c2c3nc(c(-c4ccc(S(=O)(=O)[O-])cc4)c4ccc([nH]4)c(-c4ccc(S(=O)(=O)[O-])cc4)c4nc(c(-c5ccc(S(=O)(=O)[O-])cc5)c5ccc2[nH]5)C=C4)C=C3)cc1)c1ccccc1
REMARK SMILES IDX 21 1 20 2 19 3 17 4 18 5 15 7 16 8 14 9 12 10 11 11 13 13
REMARK SMILES IDX 10 14 3 15 4 16 5 17 7 18 6 19 2 20 1 21 8 22 9 23 87 24
REMARK SMILES IDX 88 25 92 26 89 27 91 28 90 29 22 30 23 31 24 32 25 33 26 35
REMARK SMILES IDX 27 36 28 37 86 38 29 39 85 40 30 41 31 42 32 43 79 44 33 45
REMARK SMILES IDX 84 46 78 47 80 48 34 49 83 50 77 51 76 52 35 54 65 55 46 56
REMARK SMILES IDX 64 57 47 58 50 59 63 60 81 61 48 62 49 63 62 65 82 66 51 67
REMARK SMILES IDX 36 68 37 69 45 70 38 71 44 72 39 73 40 74 41 75 42 76 43 77
REMARK SMILES IDX 66 78 67 79 75 80 68 81 74 82 69 83 70 84 71 85 72 86 73 87
REMARK SMILES IDX 52 88 53 89 61 90 54 91 60 92 55 93 56 94 57 95 58 96 59 97
REMARK H PARENT 19 6 11 12 24 34 80 53 50 64
REMARK Flexibility Score: inf
ROOT
ATOM      1  C   UNL     1       2.573  -1.803  -8.681  1.00  0.00     0.023 C 
ENDROOT
BRANCH   1   2
ATOM      2  C   UNL     1       3.171  -2.030  -7.290  1.00  0.00     0.116 C 
BRANCH   2   3
ATOM      3  N   UNL     1       4.448  -1.339  -7.028  1.00  0.00    -0.355 N 
ATOM      4  C   UNL     1       5.085  -1.485  -5.798  1.00  0.00     0.230 C 
ATOM      5  O   UNL     1       5.775  -2.494  -5.636  1.00  0.00    -0.274 OA
ATOM      6  H   UNL     1       4.851  -0.773  -7.726  1.00  0.00     0.163 HD
BRANCH   4   7
ATOM      7  C   UNL     1       4.963  -0.344  -4.702  1.00  0.00     0.080 C 
ATOM      8  C   UNL     1       5.014  -0.933  -3.247  1.00  0.00     0.027 C 
BRANCH   7   9
ATOM      9  C   UNL     1       3.626   0.414  -4.941  1.00  0.00     0.121 C 
BRANCH   9  10
ATOM     10  C   UNL     1       2.897   0.927  -3.732  1.00  0.00     0.225 C 
ATOM     11  N   UNL     1       1.932   0.299  -3.015  1.00  0.00    -0.326 N 
ATOM     12  H   UNL     1       1.650   0.925  -2.309  1.00  0.00     0.169 HD
ATOM     13  O   UNL     1       3.140   2.085  -3.354  1.00  0.00    -0.275 OA
BRANCH  11  14
ATOM     14  C   UNL     1       1.152  -0.888  -2.851  1.00  0.00     0.047 A 
ATOM     15  C   UNL     1       0.047  -0.727  -1.949  1.00  0.00    -0.024 A 
ATOM     16  C   UNL     1      -0.906  -1.751  -1.768  1.00  0.00     0.006 A 
ATOM     17  C   UNL     1      -0.797  -2.947  -2.443  1.00  0.00     0.001 A 
ATOM     18  C   UNL     1       1.330  -2.193  -3.394  1.00  0.00    -0.024 A 
ATOM     19  C   UNL     1       0.315  -3.167  -3.233  1.00  0.00     0.006 A 
BRANCH  15  20
ATOM     20  C   UNL     1      -0.124   0.470  -1.021  1.00  0.00     0.034 C 
ATOM     21  C   UNL     1       0.831   0.363   0.165  1.00  0.00     0.009 C 
ENDBRANCH  15  20
BRANCH  18  22
ATOM     22  C   UNL     1       2.649  -2.736  -3.876  1.00  0.00     0.034 C 
ATOM     23  C   UNL     1       2.817  -4.175  -4.359  1.00  0.00     0.009 C 
ENDBRANCH  18  22
ENDBRANCH  11  14
ENDBRANCH   9  10
ENDBRANCH   7   9
BRANCH   7  24
ATOM     24  C   UNL     1       6.287   0.495  -4.625  1.00  0.00    -0.032 A 
ATOM     25  C   UNL     1       7.505  -0.207  -4.421  1.00  0.00     0.005 A 
ATOM     26  C   UNL     1       6.267   1.858  -4.288  1.00  0.00     0.005 A 
ATOM     27  C   UNL     1       8.575   0.376  -3.739  1.00  0.00     0.000 A 
ATOM     28  C   UNL     1       7.354   2.444  -3.624  1.00  0.00     0.000 A 
ATOM     29  C   UNL     1       8.485   1.693  -3.311  1.00  0.00     0.000 A 
ENDBRANCH   7  24
ENDBRANCH   4   7
ENDBRANCH   2   3
ENDBRANCH   1   2
BRANCH   1  30
ATOM     30  C   UNL     1       2.427  -3.067  -9.537  1.00  0.00     0.023 C 
BRANCH  30  31
ATOM     31  C   UNL     1       1.672  -4.255  -8.930  1.00  0.00     0.116 C 
BRANCH  31  32
ATOM     32  N   UNL     1       0.264  -4.015  -8.646  1.00  0.00    -0.352 N 
ATOM     33  C   UNL     1      -0.849  -4.744  -9.031  1.00  0.00     0.251 C 
ATOM     34  H   UNL     1       0.075  -3.217  -8.101  1.00  0.00     0.163 HD
ATOM     35  O   UNL     1      -1.966  -4.393  -8.694  1.00  0.00    -0.269 OA
BRANCH  33  36
ATOM     36  C   UNL     1      -0.677  -5.924  -9.914  1.00  0.00     0.039 A 
ATOM     37  C   UNL     1      -1.346  -5.942 -11.141  1.00  0.00     0.014 A 
ATOM     38  C   UNL     1       0.199  -6.957  -9.576  1.00  0.00     0.014 A 
ATOM     39  C   UNL     1      -1.023  -6.916 -12.091  1.00  0.00     0.010 A 
ATOM     40  C   UNL     1       0.566  -7.890 -10.546  1.00  0.00     0.010 A 
ATOM     41  C   UNL     1      -0.006  -7.848 -11.828  1.00  0.00    -0.014 A 
BRANCH  41  42
ATOM     42  C   UNL     1       0.567  -8.695 -12.910  1.00  0.00     0.031 A 
ATOM     43  C   UNL     1       0.499 -10.193 -12.839  1.00  0.00     0.074 A 
ATOM     44  C   UNL     1       1.274  -8.105 -13.896  1.00  0.00     0.049 A 
ATOM     45  N   UNL     1       1.051 -11.080 -13.627  1.00  0.00    -0.248 NA
ATOM     46  C   UNL     1      -0.265 -10.769 -11.723  1.00  0.00     0.031 C 
ATOM     47  C   UNL     1       1.476  -6.661 -14.046  1.00  0.00     0.029 A 
ATOM     48  N   UNL     1       1.980  -8.646 -14.944  1.00  0.00    -0.354 N 
ATOM     49  C   UNL     1       0.727 -12.319 -13.089  1.00  0.00     0.074 A 
ATOM     50  C   UNL     1      -0.045 -12.066 -11.890  1.00  0.00     0.031 C 
ATOM     51  C   UNL     1       2.248  -6.432 -15.119  1.00  0.00     0.029 A 
ATOM     52  C   UNL     1       2.633  -7.709 -15.711  1.00  0.00     0.049 A 
ATOM     53  H   UNL     1       2.015  -9.612 -15.127  1.00  0.00     0.167 HD
ATOM     54  C   UNL     1       1.037 -13.554 -13.554  1.00  0.00     0.031 A 
ATOM     55  C   UNL     1       3.469  -7.852 -16.758  1.00  0.00     0.031 A 
ATOM     56  C   UNL     1       1.798 -13.805 -14.749  1.00  0.00     0.049 A 
ATOM     57  C   UNL     1       3.797  -9.228 -17.260  1.00  0.00     0.074 A 
ATOM     58  C   UNL     1       2.079 -15.019 -15.351  1.00  0.00     0.029 A 
ATOM     59  N   UNL     1       2.416 -12.828 -15.515  1.00  0.00    -0.354 N 
ATOM     60  N   UNL     1       3.394 -10.386 -16.797  1.00  0.00    -0.248 NA
ATOM     61  C   UNL     1       4.690  -9.318 -18.424  1.00  0.00     0.031 C 
ATOM     62  C   UNL     1       2.911 -14.780 -16.451  1.00  0.00     0.029 A 
ATOM     63  C   UNL     1       3.110 -13.413 -16.561  1.00  0.00     0.049 A 
ATOM     64  H   UNL     1       2.368 -11.860 -15.341  1.00  0.00     0.167 HD
ATOM     65  C   UNL     1       3.981 -11.345 -17.614  1.00  0.00     0.074 A 
ATOM     66  C   UNL     1       4.749 -10.630 -18.613  1.00  0.00     0.031 C 
ATOM     67  C   UNL     1       3.890 -12.695 -17.539  1.00  0.00     0.031 A 
BRANCH  54  68
ATOM     68  C   UNL     1       0.564 -14.732 -12.744  1.00  0.00    -0.014 A 
ATOM     69  C   UNL     1      -0.800 -15.072 -12.683  1.00  0.00     0.010 A 
ATOM     70  C   UNL     1       1.497 -15.511 -12.037  1.00  0.00     0.010 A 
ATOM     71  C   UNL     1      -1.228 -16.131 -11.879  1.00  0.00     0.020 A 
ATOM     72  C   UNL     1       1.075 -16.588 -11.252  1.00  0.00     0.020 A 
ATOM     73  C   UNL     1      -0.289 -16.874 -11.158  1.00  0.00     0.054 A 
BRANCH  73  74
ATOM     74  S   UNL     1      -0.873 -18.229 -10.102  1.00  0.00     0.124 S 
ATOM     75  O   UNL     1      -1.409 -17.503  -8.954  1.00  0.00    -0.237 OA
ATOM     76  O   UNL     1      -1.865 -18.891 -10.945  1.00  0.00    -0.237 OA
ATOM     77  O   UNL     1       0.335 -19.008  -9.839  1.00  0.00    -0.744 OA
ENDBRANCH  73  74
ENDBRANCH  54  68
BRANCH  55  78
ATOM     78  C   UNL     1       4.059  -6.641 -17.389  1.00  0.00    -0.014 A 
ATOM     79  C   UNL     1       3.577  -6.173 -18.623  1.00  0.00     0.010 A 
ATOM     80  C   UNL     1       5.064  -5.913 -16.725  1.00  0.00     0.010 A 
ATOM     81  C   UNL     1       4.083  -4.995 -19.179  1.00  0.00     0.020 A 
ATOM     82  C   UNL     1       5.557  -4.724 -17.267  1.00  0.00     0.020 A 
ATOM     83  C   UNL     1       5.064  -4.272 -18.493  1.00  0.00     0.054 A 
BRANCH  83  84
ATOM     84  S   UNL     1       5.633  -2.693 -19.182  1.00  0.00     0.124 S 
ATOM     85  O   UNL     1       6.517  -3.131 -20.257  1.00  0.00    -0.237 OA
ATOM     86  O   UNL     1       4.384  -2.063 -19.605  1.00  0.00    -0.237 OA
ATOM     87  O   UNL     1       6.293  -2.046 -18.050  1.00  0.00    -0.744 OA
ENDBRANCH  83  84
ENDBRANCH  55  78
BRANCH  67  88
ATOM     88  C   UNL     1       4.649 -13.499 -18.559  1.00  0.00    -0.014 A 
ATOM     89  C   UNL     1       6.043 -13.652 -18.461  1.00  0.00     0.010 A 
ATOM     90  C   UNL     1       3.954 -14.169 -19.582  1.00  0.00     0.010 A 
ATOM     91  C   UNL     1       6.731 -14.453 -19.376  1.00  0.00     0.020 A 
ATOM     92  C   UNL     1       4.636 -14.988 -20.486  1.00  0.00     0.020 A 
ATOM     93  C   UNL     1       6.023 -15.119 -20.381  1.00  0.00     0.054 A 
BRANCH  93  94
ATOM     94  S   UNL     1       6.929 -16.209 -21.514  1.00  0.00     0.124 S 
ATOM     95  O   UNL     1       7.596 -15.251 -22.390  1.00  0.00    -0.237 OA
ATOM     96  O   UNL     1       7.807 -16.952 -20.612  1.00  0.00    -0.237 OA
ATOM     97  O   UNL     1       5.878 -17.004 -22.144  1.00  0.00    -0.744 OA
ENDBRANCH  93  94
ENDBRANCH  67  88
ENDBRANCH  41  42
ENDBRANCH  33  36
ENDBRANCH  31  32
ENDBRANCH  30  31
ENDBRANCH   1  30
TORSDOF 20
