REMARK SMILES CS(=O)(=O)CC(=O)N1CCO[C@@H](CC(=O)NCCCCNC(=O)c2ccc(-c3c4nc(c(-c5ccc(S(=O)(=O)[O-])cc5)c5ccc([nH]5)c(-c5ccc(S(=O)(=O)[O-])cc5)c5nc(c(-c6ccc(S(=O)(=O)[O-])cc6)c6ccc3[nH]6)C=C5)C=C4)cc2)C1
REMARK SMILES IDX 18 1 17 2 16 3 14 4 15 5 13 7 12 8 8 9 9 10 84 11 10 12
REMARK SMILES IDX 11 13 6 14 7 15 5 16 2 17 1 18 3 19 4 20 19 21 20 22 21 23
REMARK SMILES IDX 22 24 23 26 24 27 25 28 83 29 26 30 82 31 27 32 28 33 29 34
REMARK SMILES IDX 76 35 30 36 81 37 75 38 77 39 31 40 80 41 74 42 73 43 32 45
REMARK SMILES IDX 62 46 43 47 61 48 44 49 47 50 60 51 78 52 45 53 46 54 59 56
REMARK SMILES IDX 79 57 48 58 33 59 34 60 42 61 35 62 41 63 36 64 37 65 38 66
REMARK SMILES IDX 39 67 40 68 63 69 64 70 72 71 65 72 71 73 66 74 67 75 68 76
REMARK SMILES IDX 69 77 70 78 49 79 50 80 58 81 51 82 57 83 52 84 53 85 54 86
REMARK SMILES IDX 55 87 56 88
REMARK H PARENT 16 6 21 25 77 44 47 55
REMARK Flexibility Score: inf
ROOT
ATOM      1  C   UNL     1       0.139   5.540   2.569  1.00  0.00     0.023 C 
ENDROOT
BRANCH   1   2
ATOM      2  C   UNL     1      -1.155   6.299   2.876  1.00  0.00     0.116 C 
BRANCH   2   3
ATOM      3  N   UNL     1      -1.509   7.202   1.791  1.00  0.00    -0.356 N 
ATOM      4  C   UNL     1      -2.462   7.095   0.820  1.00  0.00     0.222 C 
ATOM      5  O   UNL     1      -2.495   7.945  -0.070  1.00  0.00    -0.275 OA
ATOM      6  H   UNL     1      -0.972   8.027   1.750  1.00  0.00     0.163 HD
BRANCH   4   7
ATOM      7  C   UNL     1      -3.442   5.942   0.818  1.00  0.00     0.133 C 
BRANCH   7   8
ATOM      8  C   UNL     1      -3.055   4.827  -0.160  1.00  0.00     0.147 C 
ATOM      9  N   UNL     1      -1.337   3.001  -0.461  1.00  0.00    -0.337 N 
ATOM     10  C   UNL     1      -2.421   2.033  -0.337  1.00  0.00     0.148 C 
ATOM     11  C   UNL     1      -1.665   4.267   0.172  1.00  0.00     0.152 C 
ATOM     12  C   UNL     1      -3.733   2.640  -0.821  1.00  0.00     0.182 C 
ATOM     13  O   UNL     1      -4.064   3.799  -0.040  1.00  0.00    -0.374 OA
BRANCH   9  14
ATOM     14  C   UNL     1      -0.047   2.536  -0.222  1.00  0.00     0.237 C 
ATOM     15  O   UNL     1       0.425   2.461   0.911  1.00  0.00    -0.274 OA
BRANCH  14  16
ATOM     16  C   UNL     1       0.764   2.232  -1.439  1.00  0.00     0.236 C 
BRANCH  16  17
ATOM     17  S   UNL     1       0.840   0.493  -1.745  1.00  0.00     0.156 S 
ATOM     18  C   UNL     1       1.182  -0.275  -0.176  1.00  0.00     0.158 C 
ATOM     19  O   UNL     1       1.988   0.256  -2.601  1.00  0.00    -0.229 OA
ATOM     20  O   UNL     1      -0.473   0.048  -2.176  1.00  0.00    -0.229 OA
ENDBRANCH  16  17
ENDBRANCH  14  16
ENDBRANCH   9  14
ENDBRANCH   7   8
ENDBRANCH   4   7
ENDBRANCH   2   3
ENDBRANCH   1   2
BRANCH   1  21
ATOM     21  C   UNL     1       1.421   6.264   2.940  1.00  0.00     0.023 C 
BRANCH  21  22
ATOM     22  C   UNL     1       1.664   6.363   4.433  1.00  0.00     0.116 C 
BRANCH  22  23
ATOM     23  N   UNL     1       1.782   5.067   5.091  1.00  0.00    -0.352 N 
ATOM     24  C   UNL     1       2.697   4.667   6.041  1.00  0.00     0.251 C 
ATOM     25  H   UNL     1       1.122   4.388   4.821  1.00  0.00     0.163 HD
ATOM     26  O   UNL     1       2.720   3.511   6.438  1.00  0.00    -0.269 OA
BRANCH  24  27
ATOM     27  C   UNL     1       3.681   5.655   6.529  1.00  0.00     0.039 A 
ATOM     28  C   UNL     1       5.035   5.317   6.536  1.00  0.00     0.014 A 
ATOM     29  C   UNL     1       3.267   6.941   6.878  1.00  0.00     0.014 A 
ATOM     30  C   UNL     1       5.984   6.303   6.813  1.00  0.00     0.010 A 
ATOM     31  C   UNL     1       4.213   7.942   7.037  1.00  0.00     0.010 A 
ATOM     32  C   UNL     1       5.582   7.632   7.020  1.00  0.00    -0.014 A 
BRANCH  32  33
ATOM     33  C   UNL     1       6.563   8.720   7.255  1.00  0.00     0.031 A 
ATOM     34  C   UNL     1       6.505   9.498   8.543  1.00  0.00     0.074 A 
ATOM     35  C   UNL     1       7.438   9.064   6.290  1.00  0.00     0.049 A 
ATOM     36  N   UNL     1       7.188  10.553   8.902  1.00  0.00    -0.248 NA
ATOM     37  C   UNL     1       5.514   9.059   9.541  1.00  0.00     0.031 C 
ATOM     38  C   UNL     1       7.554   8.425   4.976  1.00  0.00     0.029 A 
ATOM     39  N   UNL     1       8.397  10.045   6.265  1.00  0.00    -0.354 N 
ATOM     40  C   UNL     1       6.683  10.923  10.143  1.00  0.00     0.074 A 
ATOM     41  C   UNL     1       5.598  10.019  10.447  1.00  0.00     0.031 C 
ATOM     42  C   UNL     1       8.552   9.007   4.290  1.00  0.00     0.029 A 
ATOM     43  C   UNL     1       9.120  10.082   5.096  1.00  0.00     0.049 A 
ATOM     44  H   UNL     1       8.553  10.665   7.014  1.00  0.00     0.167 HD
ATOM     45  C   UNL     1       7.103  11.908  10.971  1.00  0.00     0.031 A 
ATOM     46  C   UNL     1      10.130  10.891   4.719  1.00  0.00     0.031 A 
ATOM     47  C   UNL     1       8.213  12.772  10.685  1.00  0.00     0.049 A 
ATOM     48  C   UNL     1      10.612  11.948   5.674  1.00  0.00     0.074 A 
ATOM     49  C   UNL     1       8.768  13.756  11.484  1.00  0.00     0.029 A 
ATOM     50  N   UNL     1       8.950  12.744   9.511  1.00  0.00    -0.354 N 
ATOM     51  N   UNL     1      10.158  12.246   6.869  1.00  0.00    -0.248 NA
ATOM     52  C   UNL     1      11.751  12.767   5.237  1.00  0.00     0.031 C 
ATOM     53  C   UNL     1       9.822  14.345  10.778  1.00  0.00     0.029 A 
ATOM     54  C   UNL     1       9.951  13.697   9.559  1.00  0.00     0.049 A 
ATOM     55  H   UNL     1       8.785  12.136   8.754  1.00  0.00     0.167 HD
ATOM     56  C   UNL     1      10.975  13.269   7.338  1.00  0.00     0.074 A 
ATOM     57  C   UNL     1      11.955  13.530   6.303  1.00  0.00     0.031 C 
ATOM     58  C   UNL     1      10.919  13.932   8.519  1.00  0.00     0.031 A 
BRANCH  45  59
ATOM     59  C   UNL     1       6.354  12.085  12.265  1.00  0.00    -0.014 A 
ATOM     60  C   UNL     1       6.434  11.121  13.287  1.00  0.00     0.010 A 
ATOM     61  C   UNL     1       5.560  13.229  12.463  1.00  0.00     0.010 A 
ATOM     62  C   UNL     1       5.688  11.269  14.459  1.00  0.00     0.020 A 
ATOM     63  C   UNL     1       4.836  13.395  13.647  1.00  0.00     0.020 A 
ATOM     64  C   UNL     1       4.887  12.402  14.628  1.00  0.00     0.054 A 
BRANCH  64  65
ATOM     65  S   UNL     1       3.929  12.570  16.159  1.00  0.00     0.124 S 
ATOM     66  O   UNL     1       2.832  11.633  15.930  1.00  0.00    -0.237 OA
ATOM     67  O   UNL     1       4.890  12.173  17.185  1.00  0.00    -0.237 OA
ATOM     68  O   UNL     1       3.551  13.981  16.176  1.00  0.00    -0.744 OA
ENDBRANCH  64  65
ENDBRANCH  45  59
BRANCH  46  69
ATOM     69  C   UNL     1      10.778  10.703   3.393  1.00  0.00    -0.014 A 
ATOM     70  C   UNL     1      12.063  10.139   3.307  1.00  0.00     0.010 A 
ATOM     71  C   UNL     1      10.108  11.062   2.209  1.00  0.00     0.010 A 
ATOM     72  C   UNL     1      12.674   9.953   2.063  1.00  0.00     0.020 A 
ATOM     73  C   UNL     1      10.706  10.855   0.963  1.00  0.00     0.020 A 
ATOM     74  C   UNL     1      11.991  10.310   0.898  1.00  0.00     0.054 A 
BRANCH  74  75
ATOM     75  S   UNL     1      12.778  10.004  -0.708  1.00  0.00     0.124 S 
ATOM     76  O   UNL     1      13.769  11.073  -0.769  1.00  0.00    -0.237 OA
ATOM     77  O   UNL     1      13.313   8.654  -0.546  1.00  0.00    -0.237 OA
ATOM     78  O   UNL     1      11.672  10.117  -1.656  1.00  0.00    -0.744 OA
ENDBRANCH  74  75
ENDBRANCH  46  69
BRANCH  58  79
ATOM     79  C   UNL     1      11.970  14.976   8.775  1.00  0.00    -0.014 A 
ATOM     80  C   UNL     1      11.925  16.226   8.134  1.00  0.00     0.010 A 
ATOM     81  C   UNL     1      12.980  14.722   9.722  1.00  0.00     0.010 A 
ATOM     82  C   UNL     1      12.890  17.196   8.416  1.00  0.00     0.020 A 
ATOM     83  C   UNL     1      13.931  15.699  10.024  1.00  0.00     0.020 A 
ATOM     84  C   UNL     1      13.886  16.926   9.360  1.00  0.00     0.054 A 
BRANCH  84  85
ATOM     85  S   UNL     1      15.097  18.219   9.748  1.00  0.00     0.124 S 
ATOM     86  O   UNL     1      15.977  18.169   8.584  1.00  0.00    -0.237 OA
ATOM     87  O   UNL     1      14.266  19.416   9.857  1.00  0.00    -0.237 OA
ATOM     88  O   UNL     1      15.695  17.768  11.002  1.00  0.00    -0.744 OA
ENDBRANCH  84  85
ENDBRANCH  58  79
ENDBRANCH  32  33
ENDBRANCH  24  27
ENDBRANCH  22  23
ENDBRANCH  21  22
ENDBRANCH   1  21
TORSDOF 18
