REMARK SMILES CC1(C)C(n2c(SCC(=O)NCCCCNC(=O)c3ccc(-c4c5nc(c(-c6ccc(S(=O)(=O)[O-])cc6)c6ccc([nH]6)c(-c6ccc(S(=O)(=O)[O-])cc6)c6nc(c(-c7ccc(S(=O)(=O)[O-])cc7)c7ccc4[nH]7)C=C6)C=C5)cc3)nc3cnccc32)C1(C)C
REMARK SMILES IDX 13 1 12 2 11 3 9 4 10 5 8 7 7 8 6 9 5 10 85 11 79 12 80 13
REMARK SMILES IDX 84 14 81 15 83 16 82 17 4 18 1 19 2 20 3 21 86 22 87 23
REMARK SMILES IDX 88 24 14 25 15 26 16 27 17 28 18 30 19 31 20 32 78 33 21 34
REMARK SMILES IDX 77 35 22 36 23 37 24 38 71 39 25 40 76 41 70 42 72 43 26 44
REMARK SMILES IDX 75 45 69 46 68 47 27 49 57 50 38 51 56 52 39 53 42 54 55 55
REMARK SMILES IDX 73 56 40 57 41 58 54 60 74 61 43 62 28 63 29 64 37 65 30 66
REMARK SMILES IDX 36 67 31 68 32 69 33 70 34 71 35 72 58 73 59 74 67 75 60 76
REMARK SMILES IDX 66 77 61 78 62 79 63 80 64 81 65 82 44 83 45 84 53 85 46 86
REMARK SMILES IDX 52 87 47 88 48 89 49 90 50 91 51 92
REMARK H PARENT 11 6 16 29 72 48 42 59
REMARK Flexibility Score: inf
ROOT
ATOM      1  C   UNL     1       5.867  -0.947  -6.148  1.00  0.00     0.023 C 
ENDROOT
BRANCH   1   2
ATOM      2  C   UNL     1       5.189  -2.233  -5.686  1.00  0.00     0.116 C 
BRANCH   2   3
ATOM      3  N   UNL     1       4.825  -2.124  -4.293  1.00  0.00    -0.355 N 
ATOM      4  C   UNL     1       3.615  -1.862  -3.752  1.00  0.00     0.230 C 
ATOM      5  O   UNL     1       3.623  -1.497  -2.577  1.00  0.00    -0.274 OA
ATOM      6  H   UNL     1       5.558  -2.258  -3.650  1.00  0.00     0.163 HD
BRANCH   4   7
ATOM      7  C   UNL     1       2.359  -2.155  -4.529  1.00  0.00     0.178 C 
BRANCH   7   8
ATOM      8  S   UNL     1       1.815  -0.903  -5.655  1.00  0.00    -0.078 SA
BRANCH   8   9
ATOM      9  C   UNL     1       1.317   0.549  -4.864  1.00  0.00     0.169 A 
ATOM     10  N   UNL     1       0.981   0.848  -3.553  1.00  0.00    -0.315 N 
ATOM     11  C   UNL     1       0.867   2.233  -3.482  1.00  0.00     0.072 A 
ATOM     12  N   UNL     1       1.163   1.606  -5.638  1.00  0.00    -0.221 NA
ATOM     13  C   UNL     1       0.942   2.662  -4.804  1.00  0.00     0.108 A 
ATOM     14  C   UNL     1       0.744   3.154  -2.437  1.00  0.00     0.049 A 
ATOM     15  C   UNL     1       0.836   4.025  -5.098  1.00  0.00     0.141 A 
ATOM     16  C   UNL     1       0.647   4.486  -2.823  1.00  0.00     0.113 A 
ATOM     17  N   UNL     1       0.665   4.928  -4.098  1.00  0.00    -0.262 NA
BRANCH  10  18
ATOM     18  C   UNL     1       1.123   0.042  -2.351  1.00  0.00     0.102 C 
ATOM     19  C   UNL     1       0.872   0.234   0.215  1.00  0.00     0.014 C 
ATOM     20  C   UNL     1       0.199   0.077  -1.139  1.00  0.00    -0.007 C 
ATOM     21  C   UNL     1      -1.181   0.692  -1.169  1.00  0.00     0.014 C 
ATOM     22  C   UNL     1       0.399  -1.238  -1.930  1.00  0.00    -0.007 C 
ATOM     23  C   UNL     1       1.159  -2.343  -1.208  1.00  0.00     0.014 C 
ATOM     24  C   UNL     1      -0.733  -1.780  -2.788  1.00  0.00     0.014 C 
ENDBRANCH  10  18
ENDBRANCH   8   9
ENDBRANCH   7   8
ENDBRANCH   4   7
ENDBRANCH   2   3
ENDBRANCH   1   2
BRANCH   1  25
ATOM     25  C   UNL     1       7.055  -0.490  -5.282  1.00  0.00     0.023 C 
BRANCH  25  26
ATOM     26  C   UNL     1       8.004  -1.597  -4.815  1.00  0.00     0.116 C 
BRANCH  26  27
ATOM     27  N   UNL     1       8.433  -2.490  -5.868  1.00  0.00    -0.352 N 
ATOM     28  C   UNL     1       9.386  -2.446  -6.839  1.00  0.00     0.251 C 
ATOM     29  H   UNL     1       7.913  -3.326  -5.887  1.00  0.00     0.163 HD
ATOM     30  O   UNL     1       9.450  -3.440  -7.569  1.00  0.00    -0.269 OA
BRANCH  28  31
ATOM     31  C   UNL     1      10.300  -1.303  -7.084  1.00  0.00     0.039 A 
ATOM     32  C   UNL     1      10.399  -0.160  -6.292  1.00  0.00     0.014 A 
ATOM     33  C   UNL     1      11.111  -1.405  -8.228  1.00  0.00     0.014 A 
ATOM     34  C   UNL     1      11.220   0.891  -6.676  1.00  0.00     0.010 A 
ATOM     35  C   UNL     1      11.955  -0.368  -8.602  1.00  0.00     0.010 A 
ATOM     36  C   UNL     1      11.973   0.798  -7.847  1.00  0.00    -0.014 A 
BRANCH  36  37
ATOM     37  C   UNL     1      12.810   1.938  -8.193  1.00  0.00     0.031 A 
ATOM     38  C   UNL     1      13.823   2.331  -7.171  1.00  0.00     0.074 A 
ATOM     39  C   UNL     1      12.746   2.572  -9.379  1.00  0.00     0.049 A 
ATOM     40  N   UNL     1      13.914   3.448  -6.525  1.00  0.00    -0.248 NA
ATOM     41  C   UNL     1      14.796   1.312  -6.749  1.00  0.00     0.031 C 
ATOM     42  C   UNL     1      12.021   2.179 -10.589  1.00  0.00     0.029 A 
ATOM     43  N   UNL     1      13.430   3.679  -9.773  1.00  0.00    -0.354 N 
ATOM     44  C   UNL     1      15.047   3.343  -5.722  1.00  0.00     0.074 A 
ATOM     45  C   UNL     1      15.485   1.972  -5.817  1.00  0.00     0.031 C 
ATOM     46  C   UNL     1      12.499   2.886 -11.639  1.00  0.00     0.029 A 
ATOM     47  C   UNL     1      13.431   3.884 -11.144  1.00  0.00     0.049 A 
ATOM     48  H   UNL     1      13.883   4.282  -9.141  1.00  0.00     0.167 HD
ATOM     49  C   UNL     1      15.644   4.425  -5.146  1.00  0.00     0.031 A 
ATOM     50  C   UNL     1      14.207   4.764 -11.821  1.00  0.00     0.031 A 
ATOM     51  C   UNL     1      14.783   5.575  -5.130  1.00  0.00     0.049 A 
ATOM     52  C   UNL     1      14.627   5.811 -10.857  1.00  0.00     0.074 A 
ATOM     53  C   UNL     1      13.572   5.867  -4.536  1.00  0.00     0.029 A 
ATOM     54  N   UNL     1      14.968   6.531  -6.099  1.00  0.00    -0.354 N 
ATOM     55  N   UNL     1      13.803   6.656 -10.303  1.00  0.00    -0.248 NA
ATOM     56  C   UNL     1      15.908   5.656 -10.187  1.00  0.00     0.031 C 
ATOM     57  C   UNL     1      12.877   6.659  -5.494  1.00  0.00     0.029 A 
ATOM     58  C   UNL     1      13.726   6.848  -6.588  1.00  0.00     0.049 A 
ATOM     59  H   UNL     1      15.827   6.915  -6.388  1.00  0.00     0.167 HD
ATOM     60  C   UNL     1      14.277   6.818  -9.010  1.00  0.00     0.074 A 
ATOM     61  C   UNL     1      15.626   6.257  -9.029  1.00  0.00     0.031 C 
ATOM     62  C   UNL     1      13.444   7.147  -7.979  1.00  0.00     0.031 A 
BRANCH  49  63
ATOM     63  C   UNL     1      17.117   4.516  -4.846  1.00  0.00    -0.014 A 
ATOM     64  C   UNL     1      18.066   3.655  -5.435  1.00  0.00     0.010 A 
ATOM     65  C   UNL     1      17.618   5.638  -4.152  1.00  0.00     0.010 A 
ATOM     66  C   UNL     1      19.439   3.881  -5.328  1.00  0.00     0.020 A 
ATOM     67  C   UNL     1      18.995   5.899  -4.076  1.00  0.00     0.020 A 
ATOM     68  C   UNL     1      19.896   5.013  -4.663  1.00  0.00     0.054 A 
BRANCH  68  69
ATOM     69  S   UNL     1      21.677   5.338  -4.663  1.00  0.00     0.124 S 
ATOM     70  O   UNL     1      22.177   4.272  -3.799  1.00  0.00    -0.237 OA
ATOM     71  O   UNL     1      22.017   5.215  -6.077  1.00  0.00    -0.237 OA
ATOM     72  O   UNL     1      21.779   6.688  -4.114  1.00  0.00    -0.744 OA
ENDBRANCH  68  69
ENDBRANCH  49  63
BRANCH  50  73
ATOM     73  C   UNL     1      14.977   4.478 -13.058  1.00  0.00    -0.014 A 
ATOM     74  C   UNL     1      15.357   3.154 -13.360  1.00  0.00     0.010 A 
ATOM     75  C   UNL     1      15.611   5.523 -13.755  1.00  0.00     0.010 A 
ATOM     76  C   UNL     1      16.397   2.884 -14.255  1.00  0.00     0.020 A 
ATOM     77  C   UNL     1      16.657   5.259 -14.653  1.00  0.00     0.020 A 
ATOM     78  C   UNL     1      17.069   3.942 -14.865  1.00  0.00     0.054 A 
BRANCH  78  79
ATOM     79  S   UNL     1      18.548   3.563 -15.847  1.00  0.00     0.124 S 
ATOM     80  O   UNL     1      19.471   3.074 -14.828  1.00  0.00    -0.237 OA
ATOM     81  O   UNL     1      18.056   2.558 -16.783  1.00  0.00    -0.237 OA
ATOM     82  O   UNL     1      18.904   4.848 -16.447  1.00  0.00    -0.744 OA
ENDBRANCH  78  79
ENDBRANCH  50  73
BRANCH  62  83
ATOM     83  C   UNL     1      12.026   7.585  -8.284  1.00  0.00    -0.014 A 
ATOM     84  C   UNL     1      11.563   8.763  -7.669  1.00  0.00     0.010 A 
ATOM     85  C   UNL     1      11.094   6.778  -8.968  1.00  0.00     0.010 A 
ATOM     86  C   UNL     1      10.210   9.108  -7.697  1.00  0.00     0.020 A 
ATOM     87  C   UNL     1       9.736   7.133  -9.023  1.00  0.00     0.020 A 
ATOM     88  C   UNL     1       9.300   8.284  -8.362  1.00  0.00     0.054 A 
BRANCH  88  89
ATOM     89  S   UNL     1       7.544   8.734  -8.312  1.00  0.00     0.124 S 
ATOM     90  O   UNL     1       7.197   8.466  -6.918  1.00  0.00    -0.237 OA
ATOM     91  O   UNL     1       7.563  10.147  -8.688  1.00  0.00    -0.237 OA
ATOM     92  O   UNL     1       6.921   7.844  -9.289  1.00  0.00    -0.744 OA
ENDBRANCH  88  89
ENDBRANCH  62  83
ENDBRANCH  36  37
ENDBRANCH  28  31
ENDBRANCH  26  27
ENDBRANCH  25  26
ENDBRANCH   1  25
TORSDOF 17
