REMARK SMILES O=C(NCCCCNC(=O)[C@H]1CS[C@@H](c2cccc(OCc3ccc(Cl)cc3Cl)c2)[NH2+]1)c1ccc(-c2c3nc(c(-c4ccc(S(=O)(=O)[O-])cc4)c4ccc([nH]4)c(-c4ccc(S(=O)(=O)[O-])cc4)c4nc(c(-c5ccc(S(=O)(=O)[O-])cc5)c5ccc2[nH]5)C=C4)C=C3)cc1
REMARK SMILES IDX 6 1 5 2 4 3 3 4 1 5 2 6 32 8 33 9 91 10 34 11 90 12 35 13
REMARK SMILES IDX 36 14 37 15 84 16 38 17 89 18 83 19 85 20 39 21 88 22 82 23
REMARK SMILES IDX 81 24 40 26 70 27 51 28 69 29 52 30 55 31 68 32 86 33 53 34
REMARK SMILES IDX 54 35 67 37 87 38 56 39 41 40 42 41 50 42 43 43 49 44 44 45
REMARK SMILES IDX 45 46 46 47 47 48 48 49 71 50 72 51 80 52 73 53 79 54 74 55
REMARK SMILES IDX 75 56 76 57 77 58 78 59 57 60 58 61 66 62 59 63 65 64 60 65
REMARK SMILES IDX 61 66 62 67 63 68 64 69 7 70 8 71 9 72 10 74 11 75 12 76
REMARK SMILES IDX 31 77 13 78 14 79 15 82 16 83 30 84 17 85 19 86 18 87 20 88
REMARK SMILES IDX 21 89 22 90 23 91 28 92 24 93 27 94 29 95 25 96 26 97
REMARK H PARENT 3 7 85 25 55 36 8 73 31 80 31 81
REMARK Flexibility Score: inf
ROOT
ATOM      1  C   UNL     1       4.376  -0.785   3.743  1.00  0.00     0.023 C 
ENDROOT
BRANCH   1   2
ATOM      2  C   UNL     1       4.847   0.082   2.573  1.00  0.00     0.023 C 
BRANCH   2   3
ATOM      3  C   UNL     1       4.523  -0.467   1.187  1.00  0.00     0.116 C 
BRANCH   3   4
ATOM      4  N   UNL     1       3.095  -0.640   0.976  1.00  0.00    -0.352 N 
ATOM      5  O   UNL     1       1.080  -0.250   0.049  1.00  0.00    -0.269 OA
ATOM      6  C   UNL     1       2.300  -0.137  -0.026  1.00  0.00     0.251 C 
ATOM      7  H   UNL     1       2.632  -1.195   1.645  1.00  0.00     0.163 HD
BRANCH   6   8
ATOM      8  C   UNL     1       2.917   0.556  -1.176  1.00  0.00     0.039 A 
ATOM      9  C   UNL     1       4.017   0.002  -1.839  1.00  0.00     0.014 A 
ATOM     10  C   UNL     1       2.379   1.773  -1.599  1.00  0.00     0.014 A 
ATOM     11  C   UNL     1       4.651   0.722  -2.848  1.00  0.00     0.010 A 
ATOM     12  C   UNL     1       2.976   2.461  -2.657  1.00  0.00     0.010 A 
ATOM     13  C   UNL     1       4.131   1.953  -3.274  1.00  0.00    -0.014 A 
BRANCH  13  14
ATOM     14  C   UNL     1       4.759   2.678  -4.405  1.00  0.00     0.031 A 
ATOM     15  C   UNL     1       5.401   4.020  -4.199  1.00  0.00     0.074 A 
ATOM     16  C   UNL     1       4.712   2.132  -5.635  1.00  0.00     0.049 A 
ATOM     17  N   UNL     1       5.930   4.824  -5.087  1.00  0.00    -0.248 NA
ATOM     18  C   UNL     1       5.448   4.531  -2.821  1.00  0.00     0.031 C 
ATOM     19  C   UNL     1       4.109   0.836  -5.957  1.00  0.00     0.029 A 
ATOM     20  N   UNL     1       5.162   2.600  -6.842  1.00  0.00    -0.354 N 
ATOM     21  C   UNL     1       6.347   5.947  -4.382  1.00  0.00     0.074 A 
ATOM     22  C   UNL     1       5.993   5.727  -2.995  1.00  0.00     0.031 C 
ATOM     23  C   UNL     1       4.231   0.612  -7.273  1.00  0.00     0.029 A 
ATOM     24  C   UNL     1       4.862   1.771  -7.896  1.00  0.00     0.049 A 
ATOM     25  H   UNL     1       5.653   3.448  -6.944  1.00  0.00     0.167 HD
ATOM     26  C   UNL     1       6.965   7.059  -4.851  1.00  0.00     0.031 A 
ATOM     27  C   UNL     1       5.037   1.934  -9.221  1.00  0.00     0.031 A 
ATOM     28  C   UNL     1       7.299   7.272  -6.235  1.00  0.00     0.049 A 
ATOM     29  C   UNL     1       5.690   3.186  -9.725  1.00  0.00     0.074 A 
ATOM     30  C   UNL     1       7.963   8.345  -6.804  1.00  0.00     0.029 A 
ATOM     31  N   UNL     1       6.981   6.404  -7.270  1.00  0.00    -0.354 N 
ATOM     32  N   UNL     1       6.125   4.216  -9.039  1.00  0.00    -0.248 NA
ATOM     33  C   UNL     1       5.884   3.299 -11.176  1.00  0.00     0.031 C 
ATOM     34  C   UNL     1       7.993   8.154  -8.190  1.00  0.00     0.029 A 
ATOM     35  C   UNL     1       7.406   6.932  -8.479  1.00  0.00     0.049 A 
ATOM     36  H   UNL     1       6.520   5.541  -7.162  1.00  0.00     0.167 HD
ATOM     37  C   UNL     1       6.663   5.093  -9.972  1.00  0.00     0.074 A 
ATOM     38  C   UNL     1       6.505   4.469 -11.271  1.00  0.00     0.031 C 
ATOM     39  C   UNL     1       7.242   6.301  -9.766  1.00  0.00     0.031 A 
BRANCH  26  40
ATOM     40  C   UNL     1       7.270   8.152  -3.859  1.00  0.00    -0.014 A 
ATOM     41  C   UNL     1       8.254   7.990  -2.866  1.00  0.00     0.010 A 
ATOM     42  C   UNL     1       6.562   9.366  -3.925  1.00  0.00     0.010 A 
ATOM     43  C   UNL     1       8.477   8.995  -1.920  1.00  0.00     0.020 A 
ATOM     44  C   UNL     1       6.802  10.385  -2.999  1.00  0.00     0.020 A 
ATOM     45  C   UNL     1       7.739  10.181  -1.984  1.00  0.00     0.054 A 
BRANCH  45  46
ATOM     46  S   UNL     1       8.021  11.455  -0.725  1.00  0.00     0.124 S 
ATOM     47  O   UNL     1       7.358  10.875   0.441  1.00  0.00    -0.237 OA
ATOM     48  O   UNL     1       9.479  11.517  -0.650  1.00  0.00    -0.237 OA
ATOM     49  O   UNL     1       7.378  12.643  -1.281  1.00  0.00    -0.744 OA
ENDBRANCH  45  46
ENDBRANCH  26  40
BRANCH  27  50
ATOM     50  C   UNL     1       4.551   0.873 -10.143  1.00  0.00    -0.014 A 
ATOM     51  C   UNL     1       5.455   0.003 -10.773  1.00  0.00     0.010 A 
ATOM     52  C   UNL     1       3.168   0.670 -10.312  1.00  0.00     0.010 A 
ATOM     53  C   UNL     1       4.983  -1.063 -11.546  1.00  0.00     0.020 A 
ATOM     54  C   UNL     1       2.694  -0.408 -11.062  1.00  0.00     0.020 A 
ATOM     55  C   UNL     1       3.606  -1.268 -11.676  1.00  0.00     0.054 A 
BRANCH  55  56
ATOM     56  S   UNL     1       3.020  -2.721 -12.591  1.00  0.00     0.124 S 
ATOM     57  O   UNL     1       3.282  -2.335 -13.974  1.00  0.00    -0.237 OA
ATOM     58  O   UNL     1       3.864  -3.789 -12.061  1.00  0.00    -0.237 OA
ATOM     59  O   UNL     1       1.609  -2.813 -12.221  1.00  0.00    -0.744 OA
ENDBRANCH  55  56
ENDBRANCH  27  50
BRANCH  39  60
ATOM     60  C   UNL     1       7.784   7.030 -10.966  1.00  0.00    -0.014 A 
ATOM     61  C   UNL     1       6.930   7.681 -11.871  1.00  0.00     0.010 A 
ATOM     62  C   UNL     1       9.177   7.147 -11.128  1.00  0.00     0.010 A 
ATOM     63  C   UNL     1       7.460   8.436 -12.921  1.00  0.00     0.020 A 
ATOM     64  C   UNL     1       9.710   7.920 -12.162  1.00  0.00     0.020 A 
ATOM     65  C   UNL     1       8.847   8.557 -13.055  1.00  0.00     0.054 A 
BRANCH  65  66
ATOM     66  S   UNL     1       9.510   9.618 -14.370  1.00  0.00     0.124 S 
ATOM     67  O   UNL     1       9.267   8.812 -15.562  1.00  0.00    -0.237 OA
ATOM     68  O   UNL     1       8.695  10.824 -14.249  1.00  0.00    -0.237 OA
ATOM     69  O   UNL     1      10.915   9.784 -14.006  1.00  0.00    -0.744 OA
ENDBRANCH  65  66
ENDBRANCH  39  60
ENDBRANCH  13  14
ENDBRANCH   6   8
ENDBRANCH   3   4
ENDBRANCH   2   3
ENDBRANCH   1   2
BRANCH   1  70
ATOM     70  C   UNL     1       4.859  -2.231   3.702  1.00  0.00     0.116 C 
BRANCH  70  71
ATOM     71  N   UNL     1       6.302  -2.326   3.811  1.00  0.00    -0.351 N 
ATOM     72  C   UNL     1       7.050  -3.006   4.728  1.00  0.00     0.279 C 
ATOM     73  H   UNL     1       6.813  -1.831   3.130  1.00  0.00     0.163 HD
ATOM     74  O   UNL     1       8.279  -2.986   4.622  1.00  0.00    -0.268 OA
BRANCH  72  75
ATOM     75  C   UNL     1       6.339  -3.819   5.824  1.00  0.00     0.283 C 
ATOM     76  C   UNL     1       5.786  -5.106   5.203  1.00  0.00     0.151 C 
ATOM     77  N   UNL     1       7.297  -4.112   6.915  1.00  0.00    -0.321 N 
ATOM     78  S   UNL     1       6.378  -6.465   6.231  1.00  0.00    -0.088 SA
ATOM     79  C   UNL     1       6.899  -5.364   7.552  1.00  0.00     0.274 C 
ATOM     80  H   UNL     1       7.282  -3.356   7.600  1.00  0.00     0.348 HD
ATOM     81  H   UNL     1       8.242  -4.194   6.540  1.00  0.00     0.348 HD
BRANCH  79  82
ATOM     82  C   UNL     1       7.988  -5.852   8.489  1.00  0.00     0.024 A 
ATOM     83  C   UNL     1       8.774  -6.993   8.276  1.00  0.00     0.011 A 
ATOM     84  C   UNL     1       8.267  -5.054   9.619  1.00  0.00     0.057 A 
ATOM     85  C   UNL     1       9.796  -7.328   9.167  1.00  0.00     0.004 A 
ATOM     86  C   UNL     1       9.326  -5.350  10.478  1.00  0.00     0.120 A 
ATOM     87  C   UNL     1      10.071  -6.507  10.260  1.00  0.00     0.046 A 
BRANCH  86  88
ATOM     88  O   UNL     1       9.781  -4.552  11.492  1.00  0.00    -0.489 OA
BRANCH  88  89
ATOM     89  C   UNL     1       9.139  -3.288  11.717  1.00  0.00     0.267 C 
BRANCH  89  90
ATOM     90  C   UNL     1       9.403  -2.201  10.686  1.00  0.00     0.008 A 
ATOM     91  C   UNL     1      10.322  -2.386   9.637  1.00  0.00     0.010 A 
ATOM     92  C   UNL     1       8.708  -0.978  10.742  1.00  0.00     0.049 A 
ATOM     93  C   UNL     1      10.486  -1.419   8.642  1.00  0.00     0.021 A 
ATOM     94  C   UNL     1       8.887   0.000   9.759  1.00  0.00     0.041 A 
ATOM     95  Cl  UNL     1       7.598  -0.627  12.021  1.00  0.00    -0.084 Cl
ATOM     96  C   UNL     1       9.764  -0.234   8.705  1.00  0.00     0.042 A 
ATOM     97  Cl  UNL     1       9.958   0.953   7.476  1.00  0.00    -0.084 Cl
ENDBRANCH  89  90
ENDBRANCH  88  89
ENDBRANCH  86  88
ENDBRANCH  79  82
ENDBRANCH  72  75
ENDBRANCH  70  71
ENDBRANCH   1  70
TORSDOF 18
