REMARK SMILES O=C(NCCCCNC(=O)c1ccc(-c2c3nc(c(-c4ccc(S(=O)(=O)[O-])cc4)c4ccc([nH]4)c(-c4ccc(S(=O)(=O)[O-])cc4)c4nc(c(-c5ccc(S(=O)(=O)[O-])cc5)c5ccc2[nH]5)C=C4)C=C3)cc1)C1=Cc2cc(Cl)c(Cl)c(Cl)c2O[C@@H]1C(F)(F)F
REMARK SMILES IDX 6 1 5 2 4 3 3 4 1 5 2 6 71 8 72 9 83 10 73 11 82 12 74 13
REMARK SMILES IDX 81 14 75 15 79 16 76 17 77 18 80 19 78 20 84 21 85 22 86 23
REMARK SMILES IDX 87 24 7 25 8 26 9 27 10 29 11 30 12 31 70 32 13 33 69 34
REMARK SMILES IDX 14 35 15 36 16 37 63 38 17 39 68 40 62 41 64 42 18 43 67 44
REMARK SMILES IDX 61 45 60 46 19 48 49 49 30 50 48 51 31 52 34 53 47 54 65 55
REMARK SMILES IDX 32 56 33 57 46 59 66 60 35 61 20 62 21 63 29 64 22 65 28 66
REMARK SMILES IDX 23 67 24 68 25 69 26 70 27 71 50 72 51 73 59 74 52 75 58 76
REMARK SMILES IDX 53 77 54 78 55 79 56 80 57 81 36 82 37 83 45 84 38 85 44 86
REMARK SMILES IDX 39 87 40 88 41 89 42 90 43 91
REMARK H PARENT 3 7 8 28 64 47 34 58
REMARK Flexibility Score: inf
ROOT
ATOM      1  C   UNL     1       4.085  -1.844   3.904  1.00  0.00     0.023 C 
ENDROOT
BRANCH   1   2
ATOM      2  C   UNL     1       4.308  -0.629   3.003  1.00  0.00     0.023 C 
BRANCH   2   3
ATOM      3  C   UNL     1       3.734  -0.774   1.593  1.00  0.00     0.116 C 
BRANCH   3   4
ATOM      4  N   UNL     1       2.588   0.100   1.329  1.00  0.00    -0.352 N 
ATOM      5  O   UNL     1       1.162   1.334   0.061  1.00  0.00    -0.270 OA
ATOM      6  C   UNL     1       2.271   0.837   0.210  1.00  0.00     0.251 C 
ATOM      7  H   UNL     1       1.942   0.172   2.069  1.00  0.00     0.163 HD
BRANCH   6   8
ATOM      8  C   UNL     1       3.280   0.924  -0.864  1.00  0.00     0.067 C 
ATOM      9  C   UNL     1       4.466   1.484  -0.595  1.00  0.00     0.025 C 
ATOM     10  C   UNL     1       3.063   0.078  -2.079  1.00  0.00     0.314 C 
ATOM     11  C   UNL     1       5.592   0.630  -1.015  1.00  0.00     0.020 A 
ATOM     12  O   UNL     1       4.121  -0.895  -2.234  1.00  0.00    -0.474 OA
ATOM     13  C   UNL     1       6.809   0.822  -0.356  1.00  0.00     0.034 A 
ATOM     14  C   UNL     1       5.345  -0.593  -1.674  1.00  0.00     0.148 A 
ATOM     15  C   UNL     1       7.733  -0.224  -0.269  1.00  0.00     0.062 A 
ATOM     16  C   UNL     1       6.292  -1.632  -1.615  1.00  0.00     0.103 A 
ATOM     17  Cl  UNL     1       9.119   0.053   0.729  1.00  0.00    -0.083 Cl
ATOM     18  C   UNL     1       7.478  -1.460  -0.884  1.00  0.00     0.082 A 
ATOM     19  Cl  UNL     1       5.893  -3.165  -2.335  1.00  0.00    -0.079 Cl
ATOM     20  Cl  UNL     1       8.581  -2.782  -0.669  1.00  0.00    -0.081 Cl
BRANCH  10  21
ATOM     21  C   UNL     1       2.919   0.936  -3.349  1.00  0.00     0.429 C 
ATOM     22  F   UNL     1       2.592   0.176  -4.422  1.00  0.00    -0.167 F 
ATOM     23  F   UNL     1       1.951   1.873  -3.222  1.00  0.00    -0.167 F 
ATOM     24  F   UNL     1       4.066   1.588  -3.659  1.00  0.00    -0.167 F 
ENDBRANCH  10  21
ENDBRANCH   6   8
ENDBRANCH   3   4
ENDBRANCH   2   3
ENDBRANCH   1   2
BRANCH   1  25
ATOM     25  C   UNL     1       4.661  -3.170   3.408  1.00  0.00     0.116 C 
BRANCH  25  26
ATOM     26  N   UNL     1       6.105  -3.175   3.230  1.00  0.00    -0.352 N 
ATOM     27  C   UNL     1       6.996  -4.186   3.527  1.00  0.00     0.251 C 
ATOM     28  H   UNL     1       6.496  -2.355   2.849  1.00  0.00     0.163 HD
ATOM     29  O   UNL     1       8.202  -4.008   3.378  1.00  0.00    -0.269 OA
BRANCH  27  30
ATOM     30  C   UNL     1       6.491  -5.460   4.086  1.00  0.00     0.039 A 
ATOM     31  C   UNL     1       7.065  -5.958   5.259  1.00  0.00     0.014 A 
ATOM     32  C   UNL     1       5.410  -6.121   3.498  1.00  0.00     0.014 A 
ATOM     33  C   UNL     1       6.497  -7.067   5.890  1.00  0.00     0.010 A 
ATOM     34  C   UNL     1       4.797  -7.175   4.170  1.00  0.00     0.010 A 
ATOM     35  C   UNL     1       5.330  -7.658   5.375  1.00  0.00    -0.014 A 
BRANCH  35  36
ATOM     36  C   UNL     1       4.664  -8.788   6.075  1.00  0.00     0.031 A 
ATOM     37  C   UNL     1       4.562 -10.131   5.401  1.00  0.00     0.074 A 
ATOM     38  C   UNL     1       4.105  -8.595   7.288  1.00  0.00     0.049 A 
ATOM     39  N   UNL     1       3.964 -11.218   5.815  1.00  0.00    -0.248 NA
ATOM     40  C   UNL     1       5.190 -10.259   4.075  1.00  0.00     0.031 C 
ATOM     41  C   UNL     1       4.088  -7.330   8.027  1.00  0.00     0.029 A 
ATOM     42  N   UNL     1       3.437  -9.466   8.114  1.00  0.00    -0.354 N 
ATOM     43  C   UNL     1       4.135 -12.152   4.799  1.00  0.00     0.074 A 
ATOM     44  C   UNL     1       4.837 -11.487   3.724  1.00  0.00     0.031 C 
ATOM     45  C   UNL     1       3.466  -7.513   9.204  1.00  0.00     0.029 A 
ATOM     46  C   UNL     1       3.013  -8.897   9.294  1.00  0.00     0.049 A 
ATOM     47  H   UNL     1       3.275 -10.409   7.884  1.00  0.00     0.167 HD
ATOM     48  C   UNL     1       3.769 -13.456   4.773  1.00  0.00     0.031 A 
ATOM     49  C   UNL     1       2.339  -9.431  10.331  1.00  0.00     0.031 A 
ATOM     50  C   UNL     1       3.091 -14.125   5.850  1.00  0.00     0.049 A 
ATOM     51  C   UNL     1       1.969 -10.891  10.288  1.00  0.00     0.074 A 
ATOM     52  C   UNL     1       2.693 -15.448   5.929  1.00  0.00     0.029 A 
ATOM     53  N   UNL     1       2.729 -13.525   7.046  1.00  0.00    -0.354 N 
ATOM     54  N   UNL     1       2.172 -11.764   9.330  1.00  0.00    -0.248 NA
ATOM     55  C   UNL     1       1.301 -11.442  11.475  1.00  0.00     0.031 C 
ATOM     56  C   UNL     1       2.070 -15.643   7.166  1.00  0.00     0.029 A 
ATOM     57  C   UNL     1       2.123 -14.454   7.873  1.00  0.00     0.049 A 
ATOM     58  H   UNL     1       2.881 -12.580   7.273  1.00  0.00     0.167 HD
ATOM     59  C   UNL     1       1.693 -12.976   9.817  1.00  0.00     0.074 A 
ATOM     60  C   UNL     1       1.202 -12.725  11.156  1.00  0.00     0.031 C 
ATOM     61  C   UNL     1       1.662 -14.188   9.211  1.00  0.00     0.031 A 
BRANCH  48  62
ATOM     62  C   UNL     1       4.123 -14.250   3.544  1.00  0.00    -0.014 A 
ATOM     63  C   UNL     1       5.460 -14.595   3.273  1.00  0.00     0.010 A 
ATOM     64  C   UNL     1       3.112 -14.694   2.673  1.00  0.00     0.010 A 
ATOM     65  C   UNL     1       5.784 -15.339   2.137  1.00  0.00     0.020 A 
ATOM     66  C   UNL     1       3.429 -15.463   1.549  1.00  0.00     0.020 A 
ATOM     67  C   UNL     1       4.766 -15.768   1.281  1.00  0.00     0.054 A 
BRANCH  67  68
ATOM     68  S   UNL     1       5.213 -16.767  -0.165  1.00  0.00     0.124 S 
ATOM     69  O   UNL     1       5.810 -15.768  -1.048  1.00  0.00    -0.237 OA
ATOM     70  O   UNL     1       6.142 -17.745   0.395  1.00  0.00    -0.237 OA
ATOM     71  O   UNL     1       3.935 -17.313  -0.617  1.00  0.00    -0.744 OA
ENDBRANCH  67  68
ENDBRANCH  48  62
BRANCH  49  72
ATOM     72  C   UNL     1       1.984  -8.597  11.513  1.00  0.00    -0.014 A 
ATOM     73  C   UNL     1       2.611  -8.809  12.755  1.00  0.00     0.010 A 
ATOM     74  C   UNL     1       0.991  -7.606  11.411  1.00  0.00     0.010 A 
ATOM     75  C   UNL     1       2.221  -8.078  13.881  1.00  0.00     0.020 A 
ATOM     76  C   UNL     1       0.620  -6.852  12.529  1.00  0.00     0.020 A 
ATOM     77  C   UNL     1       1.222  -7.108  13.762  1.00  0.00     0.054 A 
BRANCH  77  78
ATOM     78  S   UNL     1       0.736  -6.161  15.232  1.00  0.00     0.124 S 
ATOM     79  O   UNL     1      -0.095  -7.122  15.950  1.00  0.00    -0.237 OA
ATOM     80  O   UNL     1       2.022  -5.848  15.850  1.00  0.00    -0.237 OA
ATOM     81  O   UNL     1       0.026  -5.011  14.675  1.00  0.00    -0.744 OA
ENDBRANCH  77  78
ENDBRANCH  49  72
BRANCH  61  82
ATOM     82  C   UNL     1       1.142 -15.349  10.015  1.00  0.00    -0.014 A 
ATOM     83  C   UNL     1      -0.227 -15.488  10.304  1.00  0.00     0.010 A 
ATOM     84  C   UNL     1       2.042 -16.337  10.455  1.00  0.00     0.010 A 
ATOM     85  C   UNL     1      -0.681 -16.573  11.058  1.00  0.00     0.020 A 
ATOM     86  C   UNL     1       1.588 -17.438  11.185  1.00  0.00     0.020 A 
ATOM     87  C   UNL     1       0.231 -17.538  11.498  1.00  0.00     0.054 A 
BRANCH  87  88
ATOM     88  S   UNL     1      -0.384 -18.952  12.454  1.00  0.00     0.124 S 
ATOM     89  O   UNL     1      -0.605 -18.355  13.768  1.00  0.00    -0.237 OA
ATOM     90  O   UNL     1      -1.591 -19.334  11.725  1.00  0.00    -0.237 OA
ATOM     91  O   UNL     1       0.710 -19.918  12.384  1.00  0.00    -0.744 OA
ENDBRANCH  87  88
ENDBRANCH  61  82
ENDBRANCH  35  36
ENDBRANCH  27  30
ENDBRANCH  25  26
ENDBRANCH   1  25
TORSDOF 15
