REMARK SMILES O=C(CCN1C(=O)/C(=C/c2c3ccccc3cc3ccccc23)SC1=S)NCCCCNC(=O)c1ccc(-c2c3nc(c(-c4ccc(S(=O)(=O)[O-])cc4)c4ccc([nH]4)c(-c4ccc(S(=O)(=O)[O-])cc4)c4nc(c(-c5ccc(S(=O)(=O)[O-])cc5)c5ccc2[nH]5)C=C4)C=C3)cc1
REMARK SMILES IDX 29 1 28 2 27 3 1 4 2 5 3 7 4 8 5 9 6 10 25 11 7 12 8 13
REMARK SMILES IDX 24 14 26 15 9 16 10 17 11 18 23 19 12 20 16 21 18 22 22 23
REMARK SMILES IDX 13 24 15 25 17 26 19 27 21 28 14 29 20 30 30 31 31 32 32 33
REMARK SMILES IDX 33 34 34 36 35 37 36 38 94 39 37 40 93 41 38 42 39 43 40 44
REMARK SMILES IDX 87 45 41 46 92 47 86 48 88 49 42 50 91 51 85 52 84 53 43 55
REMARK SMILES IDX 73 56 54 57 72 58 55 59 58 60 71 61 89 62 56 63 57 64 70 66
REMARK SMILES IDX 90 67 59 68 44 69 45 70 53 71 46 72 52 73 47 74 48 75 49 76
REMARK SMILES IDX 50 77 51 78 74 79 75 80 83 81 76 82 82 83 77 84 78 85 79 86
REMARK SMILES IDX 80 87 81 88 60 89 61 90 69 91 62 92 68 93 63 94 64 95 65 96
REMARK SMILES IDX 66 97 67 98
REMARK H PARENT 27 6 32 35 88 54 58 65
REMARK Flexibility Score: inf
ROOT
ATOM      1  C   UNL     1       2.287  -2.205   2.835  1.00  0.00     0.023 C 
ENDROOT
BRANCH   1   2
ATOM      2  C   UNL     1       1.973  -0.758   2.447  1.00  0.00     0.116 C 
BRANCH   2   3
ATOM      3  N   UNL     1       2.574  -0.398   1.177  1.00  0.00    -0.356 N 
ATOM      4  O   UNL     1       0.782   0.763   0.334  1.00  0.00    -0.275 OA
ATOM      5  C   UNL     1       1.923   0.332   0.209  1.00  0.00     0.221 C 
ATOM      6  H   UNL     1       3.497  -0.691   0.998  1.00  0.00     0.163 HD
BRANCH   5   7
ATOM      7  C   UNL     1       2.701   0.502  -1.080  1.00  0.00     0.122 C 
BRANCH   7   8
ATOM      8  C   UNL     1       3.877   1.479  -1.006  1.00  0.00     0.137 C 
BRANCH   8   9
ATOM      9  N   UNL     1       4.946   1.162  -0.050  1.00  0.00    -0.292 N 
ATOM     10  C   UNL     1       5.416   2.171   0.780  1.00  0.00     0.266 C 
ATOM     11  C   UNL     1       5.661  -0.015   0.010  1.00  0.00     0.148 C 
ATOM     12  O   UNL     1       5.051   3.343   0.776  1.00  0.00    -0.268 OA
ATOM     13  C   UNL     1       6.485   1.648   1.671  1.00  0.00     0.081 C 
ATOM     14  S   UNL     1       6.551  -0.059   1.521  1.00  0.00    -0.054 SA
ATOM     15  S   UNL     1       5.693  -1.279  -1.071  1.00  0.00    -0.052 S 
ATOM     16  C   UNL     1       7.269   2.451   2.403  1.00  0.00     0.030 C 
BRANCH  16  17
ATOM     17  C   UNL     1       8.303   2.037   3.386  1.00  0.00    -0.009 A 
ATOM     18  C   UNL     1       9.440   1.248   3.007  1.00  0.00    -0.010 A 
ATOM     19  C   UNL     1       8.089   2.414   4.753  1.00  0.00    -0.010 A 
ATOM     20  C   UNL     1       9.741   0.828   1.686  1.00  0.00     0.009 A 
ATOM     21  C   UNL     1      10.323   0.816   4.020  1.00  0.00    -0.017 A 
ATOM     22  C   UNL     1       9.063   2.059   5.710  1.00  0.00    -0.017 A 
ATOM     23  C   UNL     1       6.943   3.108   5.230  1.00  0.00     0.009 A 
ATOM     24  C   UNL     1      10.732  -0.118   1.413  1.00  0.00     0.001 A 
ATOM     25  C   UNL     1      11.329  -0.124   3.737  1.00  0.00     0.009 A 
ATOM     26  C   UNL     1      10.171   1.294   5.326  1.00  0.00     0.017 A 
ATOM     27  C   UNL     1       8.893   2.415   7.058  1.00  0.00     0.009 A 
ATOM     28  C   UNL     1       6.769   3.420   6.580  1.00  0.00     0.001 A 
ATOM     29  C   UNL     1      11.505  -0.621   2.448  1.00  0.00     0.001 A 
ATOM     30  C   UNL     1       7.749   3.075   7.496  1.00  0.00     0.001 A 
ENDBRANCH  16  17
ENDBRANCH   8   9
ENDBRANCH   7   8
ENDBRANCH   5   7
ENDBRANCH   2   3
ENDBRANCH   1   2
BRANCH   1  31
ATOM     31  C   UNL     1       3.767  -2.527   3.086  1.00  0.00     0.023 C 
BRANCH  31  32
ATOM     32  C   UNL     1       4.441  -1.758   4.223  1.00  0.00     0.116 C 
BRANCH  32  33
ATOM     33  N   UNL     1       3.888  -2.086   5.527  1.00  0.00    -0.352 N 
ATOM     34  C   UNL     1       4.512  -2.470   6.693  1.00  0.00     0.251 C 
ATOM     35  H   UNL     1       2.908  -2.023   5.586  1.00  0.00     0.163 HD
ATOM     36  O   UNL     1       3.820  -2.844   7.638  1.00  0.00    -0.269 OA
BRANCH  34  37
ATOM     37  C   UNL     1       5.991  -2.461   6.830  1.00  0.00     0.039 A 
ATOM     38  C   UNL     1       6.615  -3.493   7.547  1.00  0.00     0.014 A 
ATOM     39  C   UNL     1       6.770  -1.431   6.310  1.00  0.00     0.014 A 
ATOM     40  C   UNL     1       8.013  -3.526   7.683  1.00  0.00     0.010 A 
ATOM     41  C   UNL     1       8.160  -1.502   6.398  1.00  0.00     0.010 A 
ATOM     42  C   UNL     1       8.805  -2.540   7.082  1.00  0.00    -0.014 A 
BRANCH  42  43
ATOM     43  C   UNL     1      10.295  -2.576   7.096  1.00  0.00     0.031 A 
ATOM     44  C   UNL     1      11.091  -1.523   7.821  1.00  0.00     0.074 A 
ATOM     45  C   UNL     1      10.944  -3.484   6.343  1.00  0.00     0.049 A 
ATOM     46  N   UNL     1      12.376  -1.267   7.763  1.00  0.00    -0.248 NA
ATOM     47  C   UNL     1      10.338  -0.611   8.692  1.00  0.00     0.031 C 
ATOM     48  C   UNL     1      10.306  -4.535   5.550  1.00  0.00     0.029 A 
ATOM     49  N   UNL     1      12.287  -3.658   6.111  1.00  0.00    -0.354 N 
ATOM     50  C   UNL     1      12.576  -0.122   8.529  1.00  0.00     0.074 A 
ATOM     51  C   UNL     1      11.279   0.252   9.054  1.00  0.00     0.031 C 
ATOM     52  C   UNL     1      11.258  -5.261   4.941  1.00  0.00     0.029 A 
ATOM     53  C   UNL     1      12.568  -4.705   5.265  1.00  0.00     0.049 A 
ATOM     54  H   UNL     1      12.982  -3.087   6.512  1.00  0.00     0.167 HD
ATOM     55  C   UNL     1      13.727   0.562   8.754  1.00  0.00     0.031 A 
ATOM     56  C   UNL     1      13.744  -5.169   4.800  1.00  0.00     0.031 A 
ATOM     57  C   UNL     1      15.030   0.128   8.312  1.00  0.00     0.049 A 
ATOM     58  C   UNL     1      15.026  -4.498   5.209  1.00  0.00     0.074 A 
ATOM     59  C   UNL     1      16.264   0.703   8.575  1.00  0.00     0.029 A 
ATOM     60  N   UNL     1      15.278  -1.005   7.553  1.00  0.00    -0.354 N 
ATOM     61  N   UNL     1      15.194  -3.411   5.921  1.00  0.00    -0.248 NA
ATOM     62  C   UNL     1      16.277  -5.129   4.763  1.00  0.00     0.031 C 
ATOM     63  C   UNL     1      17.254  -0.069   7.957  1.00  0.00     0.029 A 
ATOM     64  C   UNL     1      16.642  -1.152   7.351  1.00  0.00     0.049 A 
ATOM     65  H   UNL     1      14.588  -1.615   7.207  1.00  0.00     0.167 HD
ATOM     66  C   UNL     1      16.571  -3.240   6.028  1.00  0.00     0.074 A 
ATOM     67  C   UNL     1      17.188  -4.344   5.324  1.00  0.00     0.031 C 
ATOM     68  C   UNL     1      17.257  -2.253   6.654  1.00  0.00     0.031 A 
BRANCH  55  69
ATOM     69  C   UNL     1      13.643   1.875   9.498  1.00  0.00    -0.014 A 
ATOM     70  C   UNL     1      13.307   1.936  10.861  1.00  0.00     0.010 A 
ATOM     71  C   UNL     1      13.980   3.069   8.829  1.00  0.00     0.010 A 
ATOM     72  C   UNL     1      13.259   3.166  11.527  1.00  0.00     0.020 A 
ATOM     73  C   UNL     1      13.970   4.296   9.499  1.00  0.00     0.020 A 
ATOM     74  C   UNL     1      13.588   4.339  10.841  1.00  0.00     0.054 A 
BRANCH  74  75
ATOM     75  S   UNL     1      13.552   5.917  11.735  1.00  0.00     0.124 S 
ATOM     76  O   UNL     1      12.121   6.212  11.762  1.00  0.00    -0.237 OA
ATOM     77  O   UNL     1      14.145   5.572  13.025  1.00  0.00    -0.237 OA
ATOM     78  O   UNL     1      14.358   6.806  10.902  1.00  0.00    -0.744 OA
ENDBRANCH  74  75
ENDBRANCH  55  69
BRANCH  56  79
ATOM     79  C   UNL     1      13.761  -6.375   3.933  1.00  0.00    -0.014 A 
ATOM     80  C   UNL     1      14.172  -7.612   4.461  1.00  0.00     0.010 A 
ATOM     81  C   UNL     1      13.331  -6.306   2.596  1.00  0.00     0.010 A 
ATOM     82  C   UNL     1      14.165  -8.758   3.664  1.00  0.00     0.020 A 
ATOM     83  C   UNL     1      13.298  -7.456   1.803  1.00  0.00     0.020 A 
ATOM     84  C   UNL     1      13.723  -8.674   2.341  1.00  0.00     0.054 A 
BRANCH  84  85
ATOM     85  S   UNL     1      13.654 -10.190   1.347  1.00  0.00     0.124 S 
ATOM     86  O   UNL     1      15.062 -10.412   1.035  1.00  0.00    -0.237 OA
ATOM     87  O   UNL     1      13.051 -11.146   2.273  1.00  0.00    -0.237 OA
ATOM     88  O   UNL     1      12.810  -9.816   0.214  1.00  0.00    -0.744 OA
ENDBRANCH  84  85
ENDBRANCH  56  79
BRANCH  68  89
ATOM     89  C   UNL     1      18.761  -2.334   6.644  1.00  0.00    -0.014 A 
ATOM     90  C   UNL     1      19.502  -2.070   5.478  1.00  0.00     0.010 A 
ATOM     91  C   UNL     1      19.447  -2.637   7.835  1.00  0.00     0.010 A 
ATOM     92  C   UNL     1      20.898  -2.142   5.496  1.00  0.00     0.020 A 
ATOM     93  C   UNL     1      20.843  -2.688   7.862  1.00  0.00     0.020 A 
ATOM     94  C   UNL     1      21.561  -2.454   6.688  1.00  0.00     0.054 A 
BRANCH  94  95
ATOM     95  S   UNL     1      23.374  -2.509   6.692  1.00  0.00     0.124 S 
ATOM     96  O   UNL     1      23.642  -3.760   5.989  1.00  0.00    -0.237 OA
ATOM     97  O   UNL     1      23.735  -1.292   5.969  1.00  0.00    -0.237 OA
ATOM     98  O   UNL     1      23.718  -2.507   8.112  1.00  0.00    -0.744 OA
ENDBRANCH  94  95
ENDBRANCH  68  89
ENDBRANCH  42  43
ENDBRANCH  34  37
ENDBRANCH  32  33
ENDBRANCH  31  32
ENDBRANCH   1  31
TORSDOF 17
