REMARK SMILES NS(=O)(=O)c1ccc(-n2nc(C(F)F)cc2-c2ccc(C(=O)NCCCCNC(=O)c3ccc(-c4c5nc(c(-c6ccc(S(=O)(=O)[O-])cc6)c6ccc([nH]6)c(-c6ccc(S(=O)(=O)[O-])cc6)c6nc(c(-c7ccc(S(=O)(=O)[O-])cc7)c7ccc4[nH]7)C=C6)C=C5)cc3)cc2)cc1
REMARK SMILES IDX 25 1 24 2 23 3 21 4 22 5 20 7 17 8 18 9 92 10 19 11 91 12
REMARK SMILES IDX 16 13 9 14 10 15 11 16 15 17 8 18 5 19 6 20 94 21 7 22 93 23
REMARK SMILES IDX 2 24 3 25 4 26 1 27 12 30 13 31 14 32 26 33 27 34 28 35
REMARK SMILES IDX 29 36 30 38 31 39 32 40 90 41 33 42 89 43 34 44 35 45 36 46
REMARK SMILES IDX 83 47 37 48 88 49 82 50 84 51 38 52 87 53 81 54 80 55 39 57
REMARK SMILES IDX 69 58 50 59 68 60 51 61 54 62 67 63 85 64 52 65 53 66 66 68
REMARK SMILES IDX 86 69 55 70 40 71 41 72 49 73 42 74 48 75 43 76 44 77 45 78
REMARK SMILES IDX 46 79 47 80 70 81 71 82 79 83 72 84 78 85 73 86 74 87 75 88
REMARK SMILES IDX 76 89 77 90 56 91 57 92 65 93 58 94 64 95 59 96 60 97 61 98
REMARK SMILES IDX 62 99 63 100
REMARK H PARENT 23 6 1 28 1 29 28 37 84 56 54 67
REMARK Flexibility Score: inf
ROOT
ATOM      1  C   UNL     1       0.834  -5.200 -10.302  1.00  0.00     0.023 C 
ENDROOT
BRANCH   1   2
ATOM      2  C   UNL     1      -0.314  -4.266 -10.713  1.00  0.00     0.116 C 
BRANCH   2   3
ATOM      3  N   UNL     1      -1.319  -4.184  -9.671  1.00  0.00    -0.352 N 
ATOM      4  C   UNL     1      -1.503  -3.312  -8.627  1.00  0.00     0.251 C 
ATOM      5  O   UNL     1      -2.455  -3.514  -7.874  1.00  0.00    -0.269 OA
ATOM      6  H   UNL     1      -2.003  -4.891  -9.722  1.00  0.00     0.163 HD
BRANCH   4   7
ATOM      7  C   UNL     1      -0.637  -2.122  -8.390  1.00  0.00     0.039 A 
ATOM      8  C   UNL     1       0.849   0.225  -7.925  1.00  0.00     0.000 A 
ATOM      9  C   UNL     1      -0.469   0.126  -7.466  1.00  0.00     0.011 A 
ATOM     10  C   UNL     1       1.426  -0.854  -8.590  1.00  0.00     0.011 A 
ATOM     11  C   UNL     1      -1.207  -1.039  -7.700  1.00  0.00     0.014 A 
ATOM     12  C   UNL     1       0.699  -2.027  -8.783  1.00  0.00     0.014 A 
BRANCH   8  13
ATOM     13  C   UNL     1       1.661   1.402  -7.660  1.00  0.00     0.075 A 
ATOM     14  N   UNL     1       2.031   1.839  -6.398  1.00  0.00    -0.233 N 
ATOM     15  N   UNL     1       2.655   3.043  -6.440  1.00  0.00    -0.166 NA
ATOM     16  C   UNL     1       2.850   3.280  -7.752  1.00  0.00     0.129 A 
ATOM     17  C   UNL     1       2.201   2.307  -8.547  1.00  0.00     0.060 A 
BRANCH  14  18
ATOM     18  C   UNL     1       1.806   1.171  -5.168  1.00  0.00     0.065 A 
ATOM     19  C   UNL     1       1.052  -0.197  -2.874  1.00  0.00     0.082 A 
ATOM     20  C   UNL     1       1.658  -0.898  -3.917  1.00  0.00     0.024 A 
ATOM     21  C   UNL     1       0.860   1.189  -2.951  1.00  0.00     0.024 A 
ATOM     22  C   UNL     1       2.027  -0.212  -5.071  1.00  0.00     0.030 A 
ATOM     23  C   UNL     1       1.266   1.884  -4.094  1.00  0.00     0.030 A 
BRANCH  19  24
ATOM     24  S   UNL     1       0.532  -1.075  -1.433  1.00  0.00     0.238 S 
ATOM     25  O   UNL     1       1.212  -2.353  -1.377  1.00  0.00    -0.207 OA
ATOM     26  O   UNL     1      -0.894  -0.941  -1.290  1.00  0.00    -0.207 OA
BRANCH  24  27
ATOM     27  N   UNL     1       1.215  -0.175  -0.189  1.00  0.00    -0.225 NA
ATOM     28  H   UNL     1       0.976  -0.598   0.708  1.00  0.00     0.137 HD
ATOM     29  H   UNL     1       0.856   0.779  -0.222  1.00  0.00     0.137 HD
ENDBRANCH  24  27
ENDBRANCH  19  24
ENDBRANCH  14  18
BRANCH  16  30
ATOM     30  C   UNL     1       3.661   4.431  -8.267  1.00  0.00     0.393 C 
ATOM     31  F   UNL     1       3.383   5.600  -7.629  1.00  0.00    -0.203 F 
ATOM     32  F   UNL     1       4.997   4.208  -8.103  1.00  0.00    -0.203 F 
ENDBRANCH  16  30
ENDBRANCH   8  13
ENDBRANCH   4   7
ENDBRANCH   2   3
ENDBRANCH   1   2
BRANCH   1  33
ATOM     33  C   UNL     1       0.521  -6.700 -10.383  1.00  0.00     0.023 C 
BRANCH  33  34
ATOM     34  C   UNL     1       0.361  -7.240 -11.798  1.00  0.00     0.116 C 
BRANCH  34  35
ATOM     35  N   UNL     1       1.577  -7.102 -12.609  1.00  0.00    -0.352 N 
ATOM     36  C   UNL     1       1.700  -7.220 -13.985  1.00  0.00     0.251 C 
ATOM     37  H   UNL     1       2.406  -6.902 -12.116  1.00  0.00     0.163 HD
ATOM     38  O   UNL     1       2.776  -7.476 -14.510  1.00  0.00    -0.269 OA
BRANCH  36  39
ATOM     39  C   UNL     1       0.498  -6.983 -14.799  1.00  0.00     0.039 A 
ATOM     40  C   UNL     1       0.120  -7.792 -15.874  1.00  0.00     0.014 A 
ATOM     41  C   UNL     1      -0.307  -5.935 -14.372  1.00  0.00     0.014 A 
ATOM     42  C   UNL     1      -1.125  -7.570 -16.465  1.00  0.00     0.010 A 
ATOM     43  C   UNL     1      -1.605  -5.888 -14.782  1.00  0.00     0.010 A 
ATOM     44  C   UNL     1      -1.984  -6.616 -15.899  1.00  0.00    -0.014 A 
BRANCH  44  45
ATOM     45  C   UNL     1      -3.327  -6.359 -16.399  1.00  0.00     0.031 A 
ATOM     46  C   UNL     1      -4.246  -7.523 -16.330  1.00  0.00     0.074 A 
ATOM     47  C   UNL     1      -3.765  -5.097 -16.614  1.00  0.00     0.049 A 
ATOM     48  N   UNL     1      -4.691  -8.241 -17.306  1.00  0.00    -0.248 NA
ATOM     49  C   UNL     1      -4.592  -8.055 -15.000  1.00  0.00     0.031 C 
ATOM     50  C   UNL     1      -3.064  -3.831 -16.325  1.00  0.00     0.029 A 
ATOM     51  N   UNL     1      -4.988  -4.662 -17.012  1.00  0.00    -0.354 N 
ATOM     52  C   UNL     1      -5.573  -9.154 -16.732  1.00  0.00     0.074 A 
ATOM     53  C   UNL     1      -5.298  -9.142 -15.319  1.00  0.00     0.031 C 
ATOM     54  C   UNL     1      -3.947  -2.808 -16.313  1.00  0.00     0.029 A 
ATOM     55  C   UNL     1      -5.216  -3.305 -16.805  1.00  0.00     0.049 A 
ATOM     56  H   UNL     1      -5.660  -5.259 -17.414  1.00  0.00     0.167 HD
ATOM     57  C   UNL     1      -6.654  -9.620 -17.420  1.00  0.00     0.031 A 
ATOM     58  C   UNL     1      -6.370  -2.632 -17.031  1.00  0.00     0.031 A 
ATOM     59  C   UNL     1      -6.605  -9.195 -18.795  1.00  0.00     0.049 A 
ATOM     60  C   UNL     1      -7.152  -3.448 -17.987  1.00  0.00     0.074 A 
ATOM     61  C   UNL     1      -5.902  -9.544 -19.925  1.00  0.00     0.029 A 
ATOM     62  N   UNL     1      -7.122  -7.939 -18.999  1.00  0.00    -0.354 N 
ATOM     63  N   UNL     1      -6.735  -3.728 -19.193  1.00  0.00    -0.248 NA
ATOM     64  C   UNL     1      -8.225  -4.296 -17.487  1.00  0.00     0.031 C 
ATOM     65  C   UNL     1      -5.807  -8.352 -20.704  1.00  0.00     0.029 A 
ATOM     66  C   UNL     1      -6.505  -7.330 -20.060  1.00  0.00     0.049 A 
ATOM     67  H   UNL     1      -7.836  -7.532 -18.457  1.00  0.00     0.167 HD
ATOM     68  C   UNL     1      -7.182  -5.016 -19.426  1.00  0.00     0.074 A 
ATOM     69  C   UNL     1      -8.221  -5.245 -18.428  1.00  0.00     0.031 C 
ATOM     70  C   UNL     1      -6.468  -5.885 -20.200  1.00  0.00     0.031 A 
BRANCH  57  71
ATOM     71  C   UNL     1      -7.970 -10.030 -16.794  1.00  0.00    -0.014 A 
ATOM     72  C   UNL     1      -8.986 -10.547 -17.626  1.00  0.00     0.010 A 
ATOM     73  C   UNL     1      -8.346  -9.679 -15.481  1.00  0.00     0.010 A 
ATOM     74  C   UNL     1     -10.312 -10.664 -17.181  1.00  0.00     0.020 A 
ATOM     75  C   UNL     1      -9.656  -9.825 -15.015  1.00  0.00     0.020 A 
ATOM     76  C   UNL     1     -10.638 -10.293 -15.877  1.00  0.00     0.054 A 
BRANCH  76  77
ATOM     77  S   UNL     1     -12.364 -10.370 -15.335  1.00  0.00     0.124 S 
ATOM     78  O   UNL     1     -12.996  -9.368 -16.188  1.00  0.00    -0.237 OA
ATOM     79  O   UNL     1     -12.715 -11.759 -15.619  1.00  0.00    -0.237 OA
ATOM     80  O   UNL     1     -12.292 -10.029 -13.916  1.00  0.00    -0.744 OA
ENDBRANCH  76  77
ENDBRANCH  57  71
BRANCH  58  81
ATOM     81  C   UNL     1      -6.955  -1.519 -16.246  1.00  0.00    -0.014 A 
ATOM     82  C   UNL     1      -7.943  -0.678 -16.790  1.00  0.00     0.010 A 
ATOM     83  C   UNL     1      -6.752  -1.476 -14.850  1.00  0.00     0.010 A 
ATOM     84  C   UNL     1      -8.743   0.129 -15.961  1.00  0.00     0.020 A 
ATOM     85  C   UNL     1      -7.547  -0.676 -14.018  1.00  0.00     0.020 A 
ATOM     86  C   UNL     1      -8.556   0.107 -14.576  1.00  0.00     0.054 A 
BRANCH  86  87
ATOM     87  S   UNL     1      -9.710   1.016 -13.501  1.00  0.00     0.124 S 
ATOM     88  O   UNL     1      -9.374   2.406 -13.792  1.00  0.00    -0.237 OA
ATOM     89  O   UNL     1     -11.012   0.567 -13.984  1.00  0.00    -0.237 OA
ATOM     90  O   UNL     1      -9.358   0.561 -12.157  1.00  0.00    -0.744 OA
ENDBRANCH  86  87
ENDBRANCH  58  81
BRANCH  70  91
ATOM     91  C   UNL     1      -5.470  -5.314 -21.174  1.00  0.00    -0.014 A 
ATOM     92  C   UNL     1      -4.266  -4.680 -20.813  1.00  0.00     0.010 A 
ATOM     93  C   UNL     1      -5.726  -5.545 -22.537  1.00  0.00     0.010 A 
ATOM     94  C   UNL     1      -3.346  -4.283 -21.799  1.00  0.00     0.020 A 
ATOM     95  C   UNL     1      -4.811  -5.168 -23.519  1.00  0.00     0.020 A 
ATOM     96  C   UNL     1      -3.627  -4.532 -23.148  1.00  0.00     0.054 A 
BRANCH  96  97
ATOM     97  S   UNL     1      -2.421  -4.064 -24.422  1.00  0.00     0.124 S 
ATOM     98  O   UNL     1      -2.475  -2.605 -24.390  1.00  0.00    -0.237 OA
ATOM     99  O   UNL     1      -1.180  -4.659 -23.930  1.00  0.00    -0.237 OA
ATOM    100  O   UNL     1      -2.948  -4.675 -25.642  1.00  0.00    -0.744 OA
ENDBRANCH  96  97
ENDBRANCH  70  91
ENDBRANCH  44  45
ENDBRANCH  36  39
ENDBRANCH  34  35
ENDBRANCH  33  34
ENDBRANCH   1  33
TORSDOF 19
