REMARK SMILES Cc1ccc(NC(=O)CN2C(=O)S/C(=C\c3cc(Cl)c(OCC(=O)NCCCCNC(=O)c4ccc(-c5c6nc(c(-c7ccc(S(=O)(=O)[O-])cc7)c7ccc([nH]7)c(-c7ccc(S(=O)(=O)[O-])cc7)c7nc(c(-c8ccc(S(=O)(=O)[O-])cc8)c8ccc5[nH]8)C=C7)C=C6)cc4)c(Cl)c3)C2=O)cc1
REMARK SMILES IDX 26 1 25 2 23 3 24 4 22 6 21 7 20 8 16 9 17 10 95 11 18 12
REMARK SMILES IDX 93 13 19 14 94 15 15 16 10 17 11 18 96 19 12 20 13 21 14 22
REMARK SMILES IDX 97 23 9 24 7 25 6 26 8 28 5 29 1 30 2 31 3 32 99 33 4 34
REMARK SMILES IDX 98 35 27 36 28 37 29 38 30 39 31 40 32 42 33 43 34 44 92 45
REMARK SMILES IDX 35 46 91 47 36 48 37 49 38 50 85 51 39 52 90 53 84 54 86 55
REMARK SMILES IDX 40 56 89 57 83 58 82 59 41 61 71 62 52 63 70 64 53 65 56 66
REMARK SMILES IDX 69 67 87 68 54 69 55 70 68 72 88 73 57 74 42 75 43 76 51 77
REMARK SMILES IDX 44 78 50 79 45 80 46 81 47 82 48 83 49 84 72 85 73 86 81 87
REMARK SMILES IDX 74 88 80 89 75 90 76 91 77 92 78 93 79 94 58 95 59 96 67 97
REMARK SMILES IDX 60 98 66 99 61 100 62 101 63 102 64 103 65 104
REMARK H PARENT 25 5 6 27 30 41 86 60 56 71
REMARK Flexibility Score: inf
ROOT
ATOM      1  C   UNL     1      -6.345  -4.637 -12.622  1.00  0.00     0.116 C 
ENDROOT
BRANCH   1   2
ATOM      2  N   UNL     1      -7.211  -4.423 -11.476  1.00  0.00    -0.353 N 
ATOM      3  C   UNL     1      -7.404  -3.296 -10.736  1.00  0.00     0.257 C 
ATOM      4  O   UNL     1      -8.300  -3.310  -9.891  1.00  0.00    -0.271 OA
ATOM      5  H   UNL     1      -7.735  -5.207 -11.193  1.00  0.00     0.163 HD
BRANCH   3   6
ATOM      6  C   UNL     1      -6.552  -2.042 -11.002  1.00  0.00     0.329 C 
BRANCH   6   7
ATOM      7  O   UNL     1      -5.154  -2.096 -10.784  1.00  0.00    -0.481 OA
BRANCH   7   8
ATOM      8  C   UNL     1      -4.597  -2.284  -9.548  1.00  0.00     0.157 A 
ATOM      9  C   UNL     1      -3.104  -2.770  -7.149  1.00  0.00    -0.021 A 
ATOM     10  C   UNL     1      -2.475  -2.837  -8.385  1.00  0.00     0.032 A 
ATOM     11  C   UNL     1      -4.476  -2.493  -7.135  1.00  0.00     0.032 A 
ATOM     12  C   UNL     1      -3.215  -2.602  -9.563  1.00  0.00     0.085 A 
ATOM     13  C   UNL     1      -5.200  -2.179  -8.294  1.00  0.00     0.085 A 
ATOM     14  Cl  UNL     1      -2.334  -2.681 -11.059  1.00  0.00    -0.080 Cl
ATOM     15  Cl  UNL     1      -6.766  -1.532  -7.962  1.00  0.00    -0.080 Cl
BRANCH   9  16
ATOM     16  C   UNL     1      -2.408  -3.028  -5.869  1.00  0.00     0.029 C 
ATOM     17  N   UNL     1      -3.116  -2.088  -2.504  1.00  0.00    -0.259 N 
ATOM     18  C   UNL     1      -3.935  -1.141  -3.067  1.00  0.00     0.294 C 
ATOM     19  C   UNL     1      -2.301  -2.774  -3.385  1.00  0.00     0.268 C 
ATOM     20  O   UNL     1      -4.955  -0.667  -2.608  1.00  0.00    -0.261 OA
ATOM     21  S   UNL     1      -3.343  -0.736  -4.658  1.00  0.00    -0.022 SA
ATOM     22  C   UNL     1      -2.540  -2.259  -4.772  1.00  0.00     0.083 C 
ATOM     23  O   UNL     1      -1.604  -3.743  -3.122  1.00  0.00    -0.268 OA
BRANCH  17  24
ATOM     24  C   UNL     1      -3.442  -2.625  -1.192  1.00  0.00     0.230 C 
BRANCH  24  25
ATOM     25  C   UNL     1      -3.799  -1.539  -0.170  1.00  0.00     0.244 C 
ATOM     26  N   UNL     1      -2.988  -0.459   0.031  1.00  0.00    -0.325 N 
ATOM     27  H   UNL     1      -3.462   0.366   0.285  1.00  0.00     0.169 HD
ATOM     28  O   UNL     1      -4.846  -1.612   0.480  1.00  0.00    -0.273 OA
BRANCH  26  29
ATOM     29  C   UNL     1      -1.597  -0.321  -0.063  1.00  0.00     0.041 A 
ATOM     30  C   UNL     1       2.673   0.305  -0.030  1.00  0.00     0.044 C 
ATOM     31  C   UNL     1       1.187   0.106  -0.040  1.00  0.00    -0.051 A 
ATOM     32  C   UNL     1       0.662  -1.188   0.028  1.00  0.00     0.005 A 
ATOM     33  C   UNL     1       0.307   1.189  -0.110  1.00  0.00     0.005 A 
ATOM     34  C   UNL     1      -0.719  -1.399   0.019  1.00  0.00     0.026 A 
ATOM     35  C   UNL     1      -1.076   0.976  -0.108  1.00  0.00     0.026 A 
ENDBRANCH  26  29
ENDBRANCH  24  25
ENDBRANCH  17  24
ENDBRANCH   9  16
ENDBRANCH   7   8
ENDBRANCH   6   7
ENDBRANCH   3   6
ENDBRANCH   1   2
BRANCH   1  36
ATOM     36  C   UNL     1      -5.055  -5.387 -12.281  1.00  0.00     0.023 C 
BRANCH  36  37
ATOM     37  C   UNL     1      -5.226  -6.706 -11.533  1.00  0.00     0.023 C 
BRANCH  37  38
ATOM     38  C   UNL     1      -6.035  -7.768 -12.260  1.00  0.00     0.116 C 
BRANCH  38  39
ATOM     39  N   UNL     1      -5.263  -8.694 -13.076  1.00  0.00    -0.352 N 
ATOM     40  C   UNL     1      -5.643  -9.990 -13.416  1.00  0.00     0.251 C 
ATOM     41  H   UNL     1      -4.395  -8.377 -13.417  1.00  0.00     0.163 HD
ATOM     42  O   UNL     1      -4.841 -10.902 -13.574  1.00  0.00    -0.269 OA
BRANCH  40  43
ATOM     43  C   UNL     1      -7.068 -10.181 -13.771  1.00  0.00     0.039 A 
ATOM     44  C   UNL     1      -7.377 -10.470 -15.107  1.00  0.00     0.014 A 
ATOM     45  C   UNL     1      -8.045  -9.737 -12.892  1.00  0.00     0.014 A 
ATOM     46  C   UNL     1      -8.610 -10.083 -15.619  1.00  0.00     0.010 A 
ATOM     47  C   UNL     1      -9.184  -9.200 -13.426  1.00  0.00     0.010 A 
ATOM     48  C   UNL     1      -9.447  -9.349 -14.792  1.00  0.00    -0.014 A 
BRANCH  48  49
ATOM     49  C   UNL     1     -10.698  -8.742 -15.180  1.00  0.00     0.031 A 
ATOM     50  C   UNL     1     -11.932  -9.455 -14.793  1.00  0.00     0.074 A 
ATOM     51  C   UNL     1     -10.688  -7.465 -15.617  1.00  0.00     0.049 A 
ATOM     52  N   UNL     1     -13.102  -9.167 -15.231  1.00  0.00    -0.248 NA
ATOM     53  C   UNL     1     -11.937 -10.603 -13.880  1.00  0.00     0.031 C 
ATOM     54  C   UNL     1     -11.783  -6.501 -15.608  1.00  0.00     0.029 A 
ATOM     55  N   UNL     1      -9.692  -6.776 -16.281  1.00  0.00    -0.354 N 
ATOM     56  C   UNL     1     -14.009  -9.813 -14.418  1.00  0.00     0.074 A 
ATOM     57  C   UNL     1     -13.245 -10.784 -13.681  1.00  0.00     0.031 C 
ATOM     58  C   UNL     1     -11.493  -5.500 -16.462  1.00  0.00     0.029 A 
ATOM     59  C   UNL     1     -10.283  -5.883 -17.173  1.00  0.00     0.049 A 
ATOM     60  H   UNL     1      -8.724  -6.897 -16.147  1.00  0.00     0.167 HD
ATOM     61  C   UNL     1     -15.273  -9.317 -14.347  1.00  0.00     0.031 A 
ATOM     62  C   UNL     1     -10.232  -6.086 -18.529  1.00  0.00     0.031 A 
ATOM     63  C   UNL     1     -15.432  -8.208 -15.284  1.00  0.00     0.049 A 
ATOM     64  C   UNL     1     -11.601  -6.362 -19.129  1.00  0.00     0.074 A 
ATOM     65  C   UNL     1     -15.396  -6.834 -15.118  1.00  0.00     0.029 A 
ATOM     66  N   UNL     1     -15.292  -8.454 -16.641  1.00  0.00    -0.354 N 
ATOM     67  N   UNL     1     -12.612  -6.839 -18.453  1.00  0.00    -0.248 NA
ATOM     68  C   UNL     1     -11.953  -6.081 -20.518  1.00  0.00     0.031 C 
ATOM     69  C   UNL     1     -15.164  -6.254 -16.393  1.00  0.00     0.029 A 
ATOM     70  C   UNL     1     -15.089  -7.274 -17.326  1.00  0.00     0.049 A 
ATOM     71  H   UNL     1     -15.333  -9.345 -17.057  1.00  0.00     0.167 HD
ATOM     72  C   UNL     1     -13.727  -6.888 -19.250  1.00  0.00     0.074 A 
ATOM     73  C   UNL     1     -13.257  -6.415 -20.540  1.00  0.00     0.031 C 
ATOM     74  C   UNL     1     -14.945  -7.291 -18.775  1.00  0.00     0.031 A 
BRANCH  61  75
ATOM     75  C   UNL     1     -16.283  -9.621 -13.269  1.00  0.00    -0.014 A 
ATOM     76  C   UNL     1     -17.369  -8.733 -13.107  1.00  0.00     0.010 A 
ATOM     77  C   UNL     1     -16.223 -10.697 -12.364  1.00  0.00     0.010 A 
ATOM     78  C   UNL     1     -18.305  -8.873 -12.078  1.00  0.00     0.020 A 
ATOM     79  C   UNL     1     -17.152 -10.847 -11.320  1.00  0.00     0.020 A 
ATOM     80  C   UNL     1     -18.185  -9.927 -11.181  1.00  0.00     0.054 A 
BRANCH  80  81
ATOM     81  S   UNL     1     -19.407 -10.079  -9.855  1.00  0.00     0.124 S 
ATOM     82  O   UNL     1     -19.221  -8.833  -9.114  1.00  0.00    -0.237 OA
ATOM     83  O   UNL     1     -20.661 -10.191 -10.595  1.00  0.00    -0.237 OA
ATOM     84  O   UNL     1     -18.998 -11.287  -9.142  1.00  0.00    -0.744 OA
ENDBRANCH  80  81
ENDBRANCH  61  75
BRANCH  62  85
ATOM     85  C   UNL     1      -8.942  -6.700 -18.979  1.00  0.00    -0.014 A 
ATOM     86  C   UNL     1      -7.785  -5.898 -18.855  1.00  0.00     0.010 A 
ATOM     87  C   UNL     1      -8.794  -8.099 -19.009  1.00  0.00     0.010 A 
ATOM     88  C   UNL     1      -6.554  -6.474 -18.529  1.00  0.00     0.020 A 
ATOM     89  C   UNL     1      -7.551  -8.679 -18.703  1.00  0.00     0.020 A 
ATOM     90  C   UNL     1      -6.467  -7.858 -18.379  1.00  0.00     0.054 A 
BRANCH  90  91
ATOM     91  S   UNL     1      -4.992  -8.529 -17.547  1.00  0.00     0.124 S 
ATOM     92  O   UNL     1      -3.908  -8.048 -18.397  1.00  0.00    -0.237 OA
ATOM     93  O   UNL     1      -5.078  -7.905 -16.224  1.00  0.00    -0.237 OA
ATOM     94  O   UNL     1      -5.216  -9.970 -17.574  1.00  0.00    -0.744 OA
ENDBRANCH  90  91
ENDBRANCH  62  85
BRANCH  74  95
ATOM     95  C   UNL     1     -16.167  -7.674 -19.587  1.00  0.00    -0.014 A 
ATOM     96  C   UNL     1     -16.179  -7.849 -20.976  1.00  0.00     0.010 A 
ATOM     97  C   UNL     1     -17.370  -7.998 -18.902  1.00  0.00     0.010 A 
ATOM     98  C   UNL     1     -17.338  -8.264 -21.649  1.00  0.00     0.020 A 
ATOM     99  C   UNL     1     -18.510  -8.471 -19.552  1.00  0.00     0.020 A 
ATOM    100  C   UNL     1     -18.495  -8.572 -20.933  1.00  0.00     0.054 A 
BRANCH 100 101
ATOM    101  S   UNL     1     -19.962  -9.139 -21.823  1.00  0.00     0.124 S 
ATOM    102  O   UNL     1     -20.479  -7.888 -22.372  1.00  0.00    -0.237 OA
ATOM    103  O   UNL     1     -19.402 -10.069 -22.801  1.00  0.00    -0.237 OA
ATOM    104  O   UNL     1     -20.783  -9.755 -20.785  1.00  0.00    -0.744 OA
ENDBRANCH 100 101
ENDBRANCH  74  95
ENDBRANCH  48  49
ENDBRANCH  40  43
ENDBRANCH  38  39
ENDBRANCH  37  38
ENDBRANCH  36  37
ENDBRANCH   1  36
TORSDOF 20
