REMARK SMILES O=C(Cc1csc(N2C(=O)C[C@H](Nc3cccc(F)c3)C2=O)n1)NCCCCNC(=O)c1ccc(-c2c3nc(c(-c4ccc(S(=O)(=O)[O-])cc4)c4ccc([nH]4)c(-c4ccc(S(=O)(=O)[O-])cc4)c4nc(c(-c5ccc(S(=O)(=O)[O-])cc5)c5ccc2[nH]5)C=C4)C=C3)cc1
REMARK SMILES IDX 26 1 25 2 24 3 1 4 2 5 3 7 4 8 5 9 23 10 6 11 7 12 8 13 9 14
REMARK SMILES IDX 21 15 10 16 11 17 12 18 22 19 13 20 14 22 15 23 20 24 16 25
REMARK SMILES IDX 18 26 17 27 19 28 27 29 28 30 29 31 30 32 31 34 32 35 33 36
REMARK SMILES IDX 91 37 34 38 90 39 35 40 36 41 37 42 84 43 38 44 89 45 83 46
REMARK SMILES IDX 85 47 39 48 88 49 82 50 81 51 40 53 70 54 51 55 69 56 52 57
REMARK SMILES IDX 55 58 68 59 86 60 53 61 54 62 67 64 87 65 56 66 41 67 42 68
REMARK SMILES IDX 50 69 43 70 49 71 44 72 45 73 46 74 47 75 48 76 71 77 72 78
REMARK SMILES IDX 80 79 73 80 79 81 74 82 75 83 76 84 77 85 78 86 57 87 58 88
REMARK SMILES IDX 66 89 59 90 65 91 60 92 61 93 62 94 63 95 64 96
REMARK H PARENT 24 6 13 21 29 33 85 52 55 63
REMARK Flexibility Score: inf
ROOT
ATOM      1  C   UNL     1       2.332  -3.345   1.161  1.00  0.00     0.023 C 
ENDROOT
BRANCH   1   2
ATOM      2  C   UNL     1       1.991  -1.909   1.558  1.00  0.00     0.116 C 
BRANCH   2   3
ATOM      3  N   UNL     1       2.688  -0.932   0.744  1.00  0.00    -0.356 N 
ATOM      4  O   UNL     1       0.810   0.236   0.132  1.00  0.00    -0.275 OA
ATOM      5  C   UNL     1       2.030   0.095   0.093  1.00  0.00     0.226 C 
ATOM      6  H   UNL     1       3.665  -1.003   0.650  1.00  0.00     0.163 HD
BRANCH   5   7
ATOM      7  C   UNL     1       2.918   0.975  -0.765  1.00  0.00     0.157 C 
BRANCH   7   8
ATOM      8  C   UNL     1       3.826   1.869   0.016  1.00  0.00     0.063 A 
ATOM      9  C   UNL     1       5.085   1.556   0.493  1.00  0.00     0.093 A 
ATOM     10  N   UNL     1       3.457   3.192   0.224  1.00  0.00    -0.224 NA
ATOM     11  S   UNL     1       5.838   2.953   1.130  1.00  0.00    -0.104 S 
ATOM     12  C   UNL     1       4.448   3.885   0.743  1.00  0.00     0.199 A 
BRANCH  12  13
ATOM     13  N   UNL     1       4.431   5.231   1.038  1.00  0.00    -0.223 N 
ATOM     14  C   UNL     1       3.259   5.891   1.289  1.00  0.00     0.238 C 
ATOM     15  C   UNL     1       5.529   6.054   1.022  1.00  0.00     0.258 C 
ATOM     16  O   UNL     1       2.116   5.466   1.341  1.00  0.00    -0.274 OA
ATOM     17  C   UNL     1       3.571   7.322   1.607  1.00  0.00     0.136 C 
ATOM     18  C   UNL     1       5.063   7.461   1.365  1.00  0.00     0.179 C 
ATOM     19  O   UNL     1       6.687   5.782   0.729  1.00  0.00    -0.272 OA
BRANCH  18  20
ATOM     20  N   UNL     1       5.301   8.419   0.280  1.00  0.00    -0.373 N 
ATOM     21  H   UNL     1       4.799   8.336  -0.563  1.00  0.00     0.161 HD
BRANCH  20  22
ATOM     22  C   UNL     1       6.226   9.440   0.431  1.00  0.00     0.038 A 
ATOM     23  C   UNL     1       7.520   9.211   0.917  1.00  0.00     0.026 A 
ATOM     24  C   UNL     1       5.840  10.760   0.177  1.00  0.00     0.065 A 
ATOM     25  C   UNL     1       8.414  10.268   1.123  1.00  0.00     0.005 A 
ATOM     26  C   UNL     1       6.726  11.810   0.404  1.00  0.00     0.125 A 
ATOM     27  C   UNL     1       8.012  11.576   0.872  1.00  0.00     0.039 A 
ATOM     28  F   UNL     1       6.325  13.069   0.180  1.00  0.00    -0.207 F 
ENDBRANCH  20  22
ENDBRANCH  18  20
ENDBRANCH  12  13
ENDBRANCH   7   8
ENDBRANCH   5   7
ENDBRANCH   2   3
ENDBRANCH   1   2
BRANCH   1  29
ATOM     29  C   UNL     1       3.812  -3.725   1.273  1.00  0.00     0.023 C 
BRANCH  29  30
ATOM     30  C   UNL     1       4.450  -3.514   2.644  1.00  0.00     0.116 C 
BRANCH  30  31
ATOM     31  N   UNL     1       3.852  -4.337   3.681  1.00  0.00    -0.352 N 
ATOM     32  C   UNL     1       4.458  -5.143   4.617  1.00  0.00     0.251 C 
ATOM     33  H   UNL     1       2.869  -4.316   3.719  1.00  0.00     0.163 HD
ATOM     34  O   UNL     1       3.767  -5.869   5.327  1.00  0.00    -0.269 OA
BRANCH  32  35
ATOM     35  C   UNL     1       5.933  -5.166   4.752  1.00  0.00     0.039 A 
ATOM     36  C   UNL     1       6.576  -6.401   4.887  1.00  0.00     0.014 A 
ATOM     37  C   UNL     1       6.685  -3.987   4.761  1.00  0.00     0.014 A 
ATOM     38  C   UNL     1       7.971  -6.458   4.959  1.00  0.00     0.010 A 
ATOM     39  C   UNL     1       8.079  -4.049   4.769  1.00  0.00     0.010 A 
ATOM     40  C   UNL     1       8.737  -5.285   4.862  1.00  0.00    -0.014 A 
BRANCH  40  41
ATOM     41  C   UNL     1      10.224  -5.334   4.839  1.00  0.00     0.031 A 
ATOM     42  C   UNL     1      11.027  -4.707   5.946  1.00  0.00     0.074 A 
ATOM     43  C   UNL     1      10.856  -5.885   3.783  1.00  0.00     0.049 A 
ATOM     44  N   UNL     1      12.326  -4.587   6.056  1.00  0.00    -0.248 NA
ATOM     45  C   UNL     1      10.272  -4.119   7.064  1.00  0.00     0.031 C 
ATOM     46  C   UNL     1      10.199  -6.493   2.624  1.00  0.00     0.029 A 
ATOM     47  N   UNL     1      12.196  -6.011   3.508  1.00  0.00    -0.354 N 
ATOM     48  C   UNL     1      12.544  -3.898   7.244  1.00  0.00     0.074 A 
ATOM     49  C   UNL     1      11.242  -3.589   7.795  1.00  0.00     0.031 C 
ATOM     50  C   UNL     1      11.136  -6.943   1.773  1.00  0.00     0.029 A 
ATOM     51  C   UNL     1      12.457  -6.623   2.304  1.00  0.00     0.049 A 
ATOM     52  H   UNL     1      12.903  -5.694   4.115  1.00  0.00     0.167 HD
ATOM     53  C   UNL     1      13.719  -3.565   7.831  1.00  0.00     0.031 A 
ATOM     54  C   UNL     1      13.626  -6.890   1.689  1.00  0.00     0.031 A 
ATOM     55  C   UNL     1      15.015  -3.879   7.290  1.00  0.00     0.049 A 
ATOM     56  C   UNL     1      14.917  -6.511   2.358  1.00  0.00     0.074 A 
ATOM     57  C   UNL     1      16.261  -3.624   7.837  1.00  0.00     0.029 A 
ATOM     58  N   UNL     1      15.235  -4.518   6.079  1.00  0.00    -0.354 N 
ATOM     59  N   UNL     1      15.101  -5.905   3.507  1.00  0.00    -0.248 NA
ATOM     60  C   UNL     1      16.159  -6.863   1.654  1.00  0.00     0.031 C 
ATOM     61  C   UNL     1      17.235  -4.072   6.937  1.00  0.00     0.029 A 
ATOM     62  C   UNL     1      16.595  -4.650   5.853  1.00  0.00     0.049 A 
ATOM     63  H   UNL     1      14.528  -4.830   5.469  1.00  0.00     0.167 HD
ATOM     64  C   UNL     1      16.480  -5.823   3.673  1.00  0.00     0.074 A 
ATOM     65  C   UNL     1      17.081  -6.453   2.515  1.00  0.00     0.031 C 
ATOM     66  C   UNL     1      17.182  -5.276   4.695  1.00  0.00     0.031 A 
BRANCH  53  67
ATOM     67  C   UNL     1      13.652  -2.812   9.134  1.00  0.00    -0.014 A 
ATOM     68  C   UNL     1      13.223  -3.446  10.315  1.00  0.00     0.010 A 
ATOM     69  C   UNL     1      14.050  -1.464   9.186  1.00  0.00     0.010 A 
ATOM     70  C   UNL     1      13.146  -2.731  11.513  1.00  0.00     0.020 A 
ATOM     71  C   UNL     1      13.999  -0.753  10.389  1.00  0.00     0.020 A 
ATOM     72  C   UNL     1      13.528  -1.387  11.540  1.00  0.00     0.054 A 
BRANCH  72  73
ATOM     73  S   UNL     1      13.423  -0.483  13.110  1.00  0.00     0.124 S 
ATOM     74  O   UNL     1      11.984  -0.260  13.230  1.00  0.00    -0.237 OA
ATOM     75  O   UNL     1      13.993  -1.430  14.065  1.00  0.00    -0.237 OA
ATOM     76  O   UNL     1      14.222   0.716  12.873  1.00  0.00    -0.744 OA
ENDBRANCH  72  73
ENDBRANCH  53  67
BRANCH  54  77
ATOM     77  C   UNL     1      13.624  -7.566   0.363  1.00  0.00    -0.014 A 
ATOM     78  C   UNL     1      14.019  -8.910   0.248  1.00  0.00     0.010 A 
ATOM     79  C   UNL     1      13.204  -6.873  -0.787  1.00  0.00     0.010 A 
ATOM     80  C   UNL     1      14.005  -9.546  -0.997  1.00  0.00     0.020 A 
ATOM     81  C   UNL     1      13.166  -7.513  -2.028  1.00  0.00     0.020 A 
ATOM     82  C   UNL     1      13.576  -8.844  -2.127  1.00  0.00     0.054 A 
BRANCH  82  83
ATOM     83  S   UNL     1      13.504  -9.707  -3.721  1.00  0.00     0.124 S 
ATOM     84  O   UNL     1      14.911  -9.752  -4.106  1.00  0.00    -0.237 OA
ATOM     85  O   UNL     1      12.904 -10.990  -3.360  1.00  0.00    -0.237 OA
ATOM     86  O   UNL     1      12.656  -8.841  -4.538  1.00  0.00    -0.744 OA
ENDBRANCH  82  83
ENDBRANCH  54  77
BRANCH  66  87
ATOM     87  C   UNL     1      18.683  -5.357   4.626  1.00  0.00    -0.014 A 
ATOM     88  C   UNL     1      19.416  -4.545   3.742  1.00  0.00     0.010 A 
ATOM     89  C   UNL     1      19.373  -6.223   5.495  1.00  0.00     0.010 A 
ATOM     90  C   UNL     1      20.811  -4.617   3.710  1.00  0.00     0.020 A 
ATOM     91  C   UNL     1      20.769  -6.280   5.482  1.00  0.00     0.020 A 
ATOM     92  C   UNL     1      21.479  -5.486   4.579  1.00  0.00     0.054 A 
BRANCH  92  93
ATOM     93  S   UNL     1      23.293  -5.529   4.551  1.00  0.00     0.124 S 
ATOM     94  O   UNL     1      23.559  -6.292   3.335  1.00  0.00    -0.237 OA
ATOM     95  O   UNL     1      23.648  -4.113   4.496  1.00  0.00    -0.237 OA
ATOM     96  O   UNL     1      23.642  -6.204   5.800  1.00  0.00    -0.744 OA
ENDBRANCH  92  93
ENDBRANCH  66  87
ENDBRANCH  40  41
ENDBRANCH  32  35
ENDBRANCH  30  31
ENDBRANCH  29  30
ENDBRANCH   1  29
TORSDOF 18
