REMARK SMILES C[C@H](C(=O)NCCCCNC(=O)c1ccc(-c2c3nc(c(-c4ccc(S(=O)(=O)[O-])cc4)c4ccc([nH]4)c(-c4ccc(S(=O)(=O)[O-])cc4)c4nc(c(-c5ccc(S(=O)(=O)[O-])cc5)c5ccc2[nH]5)C=C4)C=C3)cc1)[C@@H](C(=O)c1ccccc1)c1ccc(F)cc1
REMARK SMILES IDX 7 1 6 2 5 3 3 4 4 5 2 7 1 8 73 9 74 10 75 11 76 12 77 13
REMARK SMILES IDX 81 14 78 15 80 16 79 17 82 18 83 19 88 20 84 21 87 22 85 23
REMARK SMILES IDX 86 24 8 25 9 26 10 27 11 28 12 30 13 31 14 32 72 33 15 34
REMARK SMILES IDX 71 35 16 36 17 37 18 38 65 39 19 40 70 41 64 42 66 43 20 44
REMARK SMILES IDX 69 45 63 46 62 47 21 49 51 50 32 51 50 52 33 53 36 54 49 55
REMARK SMILES IDX 67 56 34 57 35 58 48 60 68 61 37 62 22 63 23 64 31 65 24 66
REMARK SMILES IDX 30 67 25 68 26 69 27 70 28 71 29 72 52 73 53 74 61 75 54 76
REMARK SMILES IDX 60 77 55 78 56 79 57 80 58 81 59 82 38 83 39 84 47 85 40 86
REMARK SMILES IDX 46 87 41 88 42 89 43 90 44 91 45 92
REMARK H PARENT 5 6 10 29 66 48 36 59
REMARK Flexibility Score: inf
ROOT
ATOM      1  C   UNL     1      -2.024  -2.985   0.046  1.00  0.00     0.023 C 
ENDROOT
BRANCH   1   2
ATOM      2  C   UNL     1      -1.542  -1.544  -0.097  1.00  0.00     0.116 C 
BRANCH   2   3
ATOM      3  N   UNL     1      -0.113  -1.366   0.040  1.00  0.00    -0.356 N 
ATOM      4  C   UNL     1       0.702  -0.328  -0.278  1.00  0.00     0.223 C 
ATOM      5  O   UNL     1       1.878  -0.425   0.095  1.00  0.00    -0.275 OA
ATOM      6  H   UNL     1       0.353  -2.137   0.436  1.00  0.00     0.163 HD
BRANCH   4   7
ATOM      7  C   UNL     1       0.309   0.876  -1.148  1.00  0.00     0.090 C 
ATOM      8  C   UNL     1       0.622   0.436  -2.591  1.00  0.00     0.019 C 
BRANCH   7   9
ATOM      9  C   UNL     1      -1.077   1.539  -0.936  1.00  0.00     0.103 C 
BRANCH   9  10
ATOM     10  C   UNL     1      -1.237   2.351   0.381  1.00  0.00     0.171 C 
ATOM     11  O   UNL     1      -1.781   3.454   0.449  1.00  0.00    -0.293 OA
BRANCH  10  12
ATOM     12  C   UNL     1      -0.920   1.724   1.679  1.00  0.00     0.018 A 
ATOM     13  C   UNL     1      -1.981   1.378   2.525  1.00  0.00     0.012 A 
ATOM     14  C   UNL     1       0.399   1.557   2.099  1.00  0.00     0.012 A 
ATOM     15  C   UNL     1      -1.716   0.799   3.766  1.00  0.00     0.001 A 
ATOM     16  C   UNL     1       0.658   0.951   3.329  1.00  0.00     0.001 A 
ATOM     17  C   UNL     1      -0.397   0.571   4.159  1.00  0.00     0.000 A 
ENDBRANCH  10  12
ENDBRANCH   9  10
BRANCH   9  18
ATOM     18  C   UNL     1      -1.481   2.394  -2.156  1.00  0.00    -0.036 A 
ATOM     19  C   UNL     1      -0.985   3.697  -2.345  1.00  0.00     0.007 A 
ATOM     20  C   UNL     1      -2.345   1.857  -3.130  1.00  0.00     0.007 A 
ATOM     21  C   UNL     1      -1.380   4.457  -3.447  1.00  0.00     0.039 A 
ATOM     22  C   UNL     1      -2.722   2.613  -4.242  1.00  0.00     0.039 A 
ATOM     23  C   UNL     1      -2.245   3.909  -4.385  1.00  0.00     0.123 A 
ATOM     24  F   UNL     1      -2.625   4.641  -5.441  1.00  0.00    -0.207 F 
ENDBRANCH   9  18
ENDBRANCH   7   9
ENDBRANCH   4   7
ENDBRANCH   2   3
ENDBRANCH   1   2
BRANCH   1  25
ATOM     25  C   UNL     1      -1.724  -3.697   1.367  1.00  0.00     0.023 C 
BRANCH  25  26
ATOM     26  C   UNL     1      -2.135  -2.979   2.650  1.00  0.00     0.116 C 
BRANCH  26  27
ATOM     27  N   UNL     1      -3.550  -2.638   2.709  1.00  0.00    -0.352 N 
ATOM     28  C   UNL     1      -4.499  -2.977   3.650  1.00  0.00     0.251 C 
ATOM     29  H   UNL     1      -3.878  -2.082   1.966  1.00  0.00     0.163 HD
ATOM     30  O   UNL     1      -5.666  -2.642   3.498  1.00  0.00    -0.269 OA
BRANCH  28  31
ATOM     31  C   UNL     1      -4.104  -3.787   4.823  1.00  0.00     0.039 A 
ATOM     32  C   UNL     1      -4.762  -4.997   5.059  1.00  0.00     0.014 A 
ATOM     33  C   UNL     1      -3.048  -3.383   5.642  1.00  0.00     0.014 A 
ATOM     34  C   UNL     1      -4.281  -5.862   6.045  1.00  0.00     0.010 A 
ATOM     35  C   UNL     1      -2.536  -4.270   6.586  1.00  0.00     0.010 A 
ATOM     36  C   UNL     1      -3.126  -5.531   6.773  1.00  0.00    -0.014 A 
BRANCH  36  37
ATOM     37  C   UNL     1      -2.466  -6.514   7.672  1.00  0.00     0.031 A 
ATOM     38  C   UNL     1      -2.361  -6.246   9.146  1.00  0.00     0.074 A 
ATOM     39  C   UNL     1      -1.857  -7.592   7.136  1.00  0.00     0.049 A 
ATOM     40  N   UNL     1      -1.713  -6.922  10.060  1.00  0.00    -0.248 NA
ATOM     41  C   UNL     1      -3.050  -5.050   9.657  1.00  0.00     0.031 C 
ATOM     42  C   UNL     1      -1.840  -7.937   5.711  1.00  0.00     0.029 A 
ATOM     43  N   UNL     1      -1.109  -8.584   7.722  1.00  0.00    -0.354 N 
ATOM     44  C   UNL     1      -1.889  -6.221  11.246  1.00  0.00     0.074 A 
ATOM     45  C   UNL     1      -2.686  -5.053  10.932  1.00  0.00     0.031 C 
ATOM     46  C   UNL     1      -1.122  -9.058   5.536  1.00  0.00     0.029 A 
ATOM     47  C   UNL     1      -0.594  -9.491   6.825  1.00  0.00     0.049 A 
ATOM     48  H   UNL     1      -0.956  -8.640   8.693  1.00  0.00     0.167 HD
ATOM     49  C   UNL     1      -1.437  -6.527  12.485  1.00  0.00     0.031 A 
ATOM     50  C   UNL     1       0.231 -10.541   7.011  1.00  0.00     0.031 A 
ATOM     51  C   UNL     1      -0.669  -7.702  12.799  1.00  0.00     0.049 A 
ATOM     52  C   UNL     1       0.715 -10.860   8.399  1.00  0.00     0.074 A 
ATOM     53  C   UNL     1      -0.252  -8.146  14.042  1.00  0.00     0.029 A 
ATOM     54  N   UNL     1      -0.197  -8.613  11.868  1.00  0.00    -0.354 N 
ATOM     55  N   UNL     1       0.455 -10.237   9.522  1.00  0.00    -0.248 NA
ATOM     56  C   UNL     1       1.602 -12.024   8.544  1.00  0.00     0.031 C 
ATOM     57  C   UNL     1       0.516  -9.300  13.857  1.00  0.00     0.029 A 
ATOM     58  C   UNL     1       0.538  -9.598  12.504  1.00  0.00     0.049 A 
ATOM     59  H   UNL     1      -0.359  -8.566  10.899  1.00  0.00     0.167 HD
ATOM     60  C   UNL     1       1.133 -10.942  10.510  1.00  0.00     0.074 A 
ATOM     61  C   UNL     1       1.801 -12.047   9.855  1.00  0.00     0.031 C 
ATOM     62  C   UNL     1       1.197 -10.693  11.840  1.00  0.00     0.031 A 
BRANCH  49  63
ATOM     63  C   UNL     1      -1.754  -5.571  13.602  1.00  0.00    -0.014 A 
ATOM     64  C   UNL     1      -3.052  -5.482  14.134  1.00  0.00     0.010 A 
ATOM     65  C   UNL     1      -0.724  -4.798  14.168  1.00  0.00     0.010 A 
ATOM     66  C   UNL     1      -3.322  -4.613  15.194  1.00  0.00     0.020 A 
ATOM     67  C   UNL     1      -0.986  -3.943  15.243  1.00  0.00     0.020 A 
ATOM     68  C   UNL     1      -2.287  -3.847  15.740  1.00  0.00     0.054 A 
BRANCH  68  69
ATOM     69  S   UNL     1      -2.659  -2.753  17.138  1.00  0.00     0.124 S 
ATOM     70  O   UNL     1      -3.366  -1.656  16.481  1.00  0.00    -0.237 OA
ATOM     71  O   UNL     1      -3.478  -3.600  18.001  1.00  0.00    -0.237 OA
ATOM     72  O   UNL     1      -1.342  -2.413  17.672  1.00  0.00    -0.744 OA
ENDBRANCH  68  69
ENDBRANCH  49  63
BRANCH  50  73
ATOM     73  C   UNL     1       0.668 -11.362   5.849  1.00  0.00    -0.014 A 
ATOM     74  C   UNL     1       0.174 -12.665   5.670  1.00  0.00     0.010 A 
ATOM     75  C   UNL     1       1.586 -10.842   4.918  1.00  0.00     0.010 A 
ATOM     76  C   UNL     1       0.606 -13.443   4.591  1.00  0.00     0.020 A 
ATOM     77  C   UNL     1       2.001 -11.608   3.825  1.00  0.00     0.020 A 
ATOM     78  C   UNL     1       1.519 -12.910   3.677  1.00  0.00     0.054 A 
BRANCH  78  79
ATOM     79  S   UNL     1       2.036 -13.919   2.259  1.00  0.00     0.124 S 
ATOM     80  O   UNL     1       3.005 -14.823   2.869  1.00  0.00    -0.237 OA
ATOM     81  O   UNL     1       0.781 -14.530   1.830  1.00  0.00    -0.237 OA
ATOM     82  O   UNL     1       2.590 -12.937   1.329  1.00  0.00    -0.744 OA
ENDBRANCH  78  79
ENDBRANCH  50  73
BRANCH  62  83
ATOM     83  C   UNL     1       2.004 -11.638  12.687  1.00  0.00    -0.014 A 
ATOM     84  C   UNL     1       3.409 -11.587  12.685  1.00  0.00     0.010 A 
ATOM     85  C   UNL     1       1.348 -12.532  13.552  1.00  0.00     0.010 A 
ATOM     86  C   UNL     1       4.145 -12.424  13.528  1.00  0.00     0.020 A 
ATOM     87  C   UNL     1       2.080 -13.354  14.412  1.00  0.00     0.020 A 
ATOM     88  C   UNL     1       3.475 -13.300  14.389  1.00  0.00     0.054 A 
BRANCH  88  89
ATOM     89  S   UNL     1       4.450 -14.324  15.525  1.00  0.00     0.124 S 
ATOM     90  O   UNL     1       4.971 -15.356  14.633  1.00  0.00    -0.237 OA
ATOM     91  O   UNL     1       5.441 -13.381  16.040  1.00  0.00    -0.237 OA
ATOM     92  O   UNL     1       3.469 -14.783  16.505  1.00  0.00    -0.744 OA
ENDBRANCH  88  89
ENDBRANCH  62  83
ENDBRANCH  36  37
ENDBRANCH  28  31
ENDBRANCH  26  27
ENDBRANCH  25  26
ENDBRANCH   1  25
TORSDOF 18
