REMARK SMILES Cc1nc(CN(CC(=O)NCCCCNC(=O)c2ccc(-c3c4nc(c(-c5ccc(S(=O)(=O)[O-])cc5)c5ccc([nH]5)c(-c5ccc(S(=O)(=O)[O-])cc5)c5nc(c(-c6ccc(S(=O)(=O)[O-])cc6)c6ccc3[nH]6)C=C5)C=C4)cc2)c2cccc(Cl)c2)sc1C
REMARK SMILES IDX 12 1 11 2 10 3 8 4 9 5 7 7 6 8 5 9 4 10 1 11 2 12 3 13 86 14
REMARK SMILES IDX 85 15 87 16 78 17 79 18 84 19 80 20 82 21 81 22 83 23 13 24
REMARK SMILES IDX 14 25 15 26 16 27 17 29 18 30 19 31 77 32 20 33 76 34 21 35
REMARK SMILES IDX 22 36 23 37 70 38 24 39 75 40 69 41 71 42 25 43 74 44 68 45
REMARK SMILES IDX 67 46 26 48 56 49 37 50 55 51 38 52 41 53 54 54 72 55 39 56
REMARK SMILES IDX 40 57 53 59 73 60 42 61 27 62 28 63 36 64 29 65 35 66 30 67
REMARK SMILES IDX 31 68 32 69 33 70 34 71 57 72 58 73 66 74 59 75 65 76 60 77
REMARK SMILES IDX 61 78 62 79 63 80 64 81 43 82 44 83 52 84 45 85 51 86 46 87
REMARK SMILES IDX 47 88 48 89 49 90 50 91
REMARK H PARENT 10 6 15 28 71 47 41 58
REMARK Flexibility Score: inf
ROOT
ATOM      1  C   UNL     1      -4.959   3.879   0.674  1.00  0.00     0.023 C 
ENDROOT
BRANCH   1   2
ATOM      2  C   UNL     1      -4.051   4.954   0.077  1.00  0.00     0.116 C 
BRANCH   2   3
ATOM      3  N   UNL     1      -3.437   5.789   1.083  1.00  0.00    -0.355 N 
ATOM      4  C   UNL     1      -2.178   5.720   1.612  1.00  0.00     0.239 C 
ATOM      5  O   UNL     1      -1.853   6.601   2.414  1.00  0.00    -0.273 OA
ATOM      6  H   UNL     1      -4.005   6.510   1.438  1.00  0.00     0.163 HD
BRANCH   4   7
ATOM      7  C   UNL     1      -1.186   4.623   1.192  1.00  0.00     0.217 C 
BRANCH   7   8
ATOM      8  N   UNL     1      -1.636   3.232   1.423  1.00  0.00    -0.355 N 
BRANCH   8   9
ATOM      9  C   UNL     1      -1.782   2.361   0.230  1.00  0.00     0.184 C 
BRANCH   9  10
ATOM     10  C   UNL     1      -0.765   1.282  -0.047  1.00  0.00     0.112 A 
ATOM     11  C   UNL     1       2.658   0.200  -0.060  1.00  0.00     0.068 C 
ATOM     12  C   UNL     1       1.175   0.215  -0.132  1.00  0.00     0.051 A 
ATOM     13  N   UNL     1       0.541   1.448  -0.086  1.00  0.00    -0.244 NA
ATOM     14  C   UNL     1       0.322  -0.876  -0.187  1.00  0.00     0.025 A 
ATOM     15  S   UNL     1      -1.301  -0.339  -0.277  1.00  0.00    -0.122 S 
ATOM     16  C   UNL     1       0.634  -2.329  -0.153  1.00  0.00     0.058 C 
ENDBRANCH   9  10
ENDBRANCH   8   9
BRANCH   8  17
ATOM     17  C   UNL     1      -1.665   2.729   2.721  1.00  0.00     0.039 A 
ATOM     18  C   UNL     1      -2.265   3.437   3.776  1.00  0.00     0.026 A 
ATOM     19  C   UNL     1      -1.091   1.498   3.071  1.00  0.00     0.046 A 
ATOM     20  C   UNL     1      -2.301   2.947   5.090  1.00  0.00     0.004 A 
ATOM     21  C   UNL     1      -1.126   0.997   4.377  1.00  0.00     0.043 A 
ATOM     22  C   UNL     1      -1.732   1.718   5.393  1.00  0.00     0.020 A 
ATOM     23  Cl  UNL     1      -0.394  -0.525   4.723  1.00  0.00    -0.084 Cl
ENDBRANCH   8  17
ENDBRANCH   7   8
ENDBRANCH   4   7
ENDBRANCH   2   3
ENDBRANCH   1   2
BRANCH   1  24
ATOM     24  C   UNL     1      -6.247   4.402   1.313  1.00  0.00     0.023 C 
BRANCH  24  25
ATOM     25  C   UNL     1      -7.122   5.268   0.413  1.00  0.00     0.116 C 
BRANCH  25  26
ATOM     26  N   UNL     1      -7.501   4.608  -0.826  1.00  0.00    -0.352 N 
ATOM     27  C   UNL     1      -8.706   4.631  -1.487  1.00  0.00     0.251 C 
ATOM     28  H   UNL     1      -6.795   4.070  -1.252  1.00  0.00     0.163 HD
ATOM     29  O   UNL     1      -8.874   3.911  -2.468  1.00  0.00    -0.269 OA
BRANCH  27  30
ATOM     30  C   UNL     1      -9.805   5.489  -0.994  1.00  0.00     0.039 A 
ATOM     31  C   UNL     1     -11.090   4.947  -0.906  1.00  0.00     0.014 A 
ATOM     32  C   UNL     1      -9.574   6.811  -0.604  1.00  0.00     0.014 A 
ATOM     33  C   UNL     1     -12.126   5.710  -0.362  1.00  0.00     0.010 A 
ATOM     34  C   UNL     1     -10.591   7.543   0.007  1.00  0.00     0.010 A 
ATOM     35  C   UNL     1     -11.877   7.000   0.137  1.00  0.00    -0.014 A 
BRANCH  35  36
ATOM     36  C   UNL     1     -12.947   7.772   0.821  1.00  0.00     0.031 A 
ATOM     37  C   UNL     1     -13.444   9.071   0.244  1.00  0.00     0.074 A 
ATOM     38  C   UNL     1     -13.439   7.323   1.993  1.00  0.00     0.049 A 
ATOM     39  N   UNL     1     -14.368   9.875   0.704  1.00  0.00    -0.248 NA
ATOM     40  C   UNL     1     -12.807   9.539  -0.998  1.00  0.00     0.031 C 
ATOM     41  C   UNL     1     -13.008   6.103   2.682  1.00  0.00     0.029 A 
ATOM     42  N   UNL     1     -14.413   7.837   2.813  1.00  0.00    -0.354 N 
ATOM     43  C   UNL     1     -14.416  10.946  -0.180  1.00  0.00     0.074 A 
ATOM     44  C   UNL     1     -13.394  10.714  -1.177  1.00  0.00     0.031 C 
ATOM     45  C   UNL     1     -13.742   5.942   3.794  1.00  0.00     0.029 A 
ATOM     46  C   UNL     1     -14.664   7.065   3.924  1.00  0.00     0.049 A 
ATOM     47  H   UNL     1     -14.887   8.678   2.624  1.00  0.00     0.167 HD
ATOM     48  C   UNL     1     -15.246  12.017  -0.174  1.00  0.00     0.031 A 
ATOM     49  C   UNL     1     -15.538   7.239   4.935  1.00  0.00     0.031 A 
ATOM     50  C   UNL     1     -16.268  12.240   0.816  1.00  0.00     0.049 A 
ATOM     51  C   UNL     1     -16.440   8.443   4.924  1.00  0.00     0.074 A 
ATOM     52  C   UNL     1     -17.203  13.259   0.870  1.00  0.00     0.029 A 
ATOM     53  N   UNL     1     -16.484  11.441   1.928  1.00  0.00    -0.354 N 
ATOM     54  N   UNL     1     -16.526   9.401   4.031  1.00  0.00    -0.248 NA
ATOM     55  C   UNL     1     -17.370   8.583   6.052  1.00  0.00     0.031 C 
ATOM     56  C   UNL     1     -17.943  13.111   2.048  1.00  0.00     0.029 A 
ATOM     57  C   UNL     1     -17.515  11.963   2.693  1.00  0.00     0.049 A 
ATOM     58  H   UNL     1     -15.979  10.623   2.143  1.00  0.00     0.167 HD
ATOM     59  C   UNL     1     -17.540  10.242   4.477  1.00  0.00     0.074 A 
ATOM     60  C   UNL     1     -18.049   9.668   5.706  1.00  0.00     0.031 C 
ATOM     61  C   UNL     1     -18.007  11.386   3.919  1.00  0.00     0.031 A 
BRANCH  48  62
ATOM     62  C   UNL     1     -15.080  13.040  -1.268  1.00  0.00    -0.014 A 
ATOM     63  C   UNL     1     -15.421  12.745  -2.601  1.00  0.00     0.010 A 
ATOM     64  C   UNL     1     -14.629  14.335  -0.949  1.00  0.00     0.010 A 
ATOM     65  C   UNL     1     -15.278  13.713  -3.599  1.00  0.00     0.020 A 
ATOM     66  C   UNL     1     -14.514  15.315  -1.940  1.00  0.00     0.020 A 
ATOM     67  C   UNL     1     -14.825  14.992  -3.262  1.00  0.00     0.054 A 
BRANCH  67  68
ATOM     68  S   UNL     1     -14.682  16.236  -4.574  1.00  0.00     0.124 S 
ATOM     69  O   UNL     1     -13.526  15.751  -5.324  1.00  0.00    -0.237 OA
ATOM     70  O   UNL     1     -15.966  16.127  -5.261  1.00  0.00    -0.237 OA
ATOM     71  O   UNL     1     -14.471  17.486  -3.847  1.00  0.00    -0.744 OA
ENDBRANCH  67  68
ENDBRANCH  48  62
BRANCH  49  72
ATOM     72  C   UNL     1     -15.618   6.238   6.035  1.00  0.00    -0.014 A 
ATOM     73  C   UNL     1     -16.756   5.423   6.177  1.00  0.00     0.010 A 
ATOM     74  C   UNL     1     -14.559   6.097   6.950  1.00  0.00     0.010 A 
ATOM     75  C   UNL     1     -16.844   4.504   7.227  1.00  0.00     0.020 A 
ATOM     76  C   UNL     1     -14.630   5.157   7.983  1.00  0.00     0.020 A 
ATOM     77  C   UNL     1     -15.779   4.376   8.123  1.00  0.00     0.054 A 
BRANCH  77  78
ATOM     78  S   UNL     1     -15.899   3.150   9.454  1.00  0.00     0.124 S 
ATOM     79  O   UNL     1     -16.869   3.769  10.351  1.00  0.00    -0.237 OA
ATOM     80  O   UNL     1     -16.361   1.959   8.745  1.00  0.00    -0.237 OA
ATOM     81  O   UNL     1     -14.533   3.069   9.968  1.00  0.00    -0.744 OA
ENDBRANCH  77  78
ENDBRANCH  49  72
BRANCH  61  82
ATOM     82  C   UNL     1     -19.147  12.080   4.619  1.00  0.00    -0.014 A 
ATOM     83  C   UNL     1     -18.962  12.729   5.852  1.00  0.00     0.010 A 
ATOM     84  C   UNL     1     -20.417  12.111   4.013  1.00  0.00     0.010 A 
ATOM     85  C   UNL     1     -20.035  13.359   6.488  1.00  0.00     0.020 A 
ATOM     86  C   UNL     1     -21.485  12.767   4.630  1.00  0.00     0.020 A 
ATOM     87  C   UNL     1     -21.291  13.371   5.873  1.00  0.00     0.054 A 
BRANCH  87  88
ATOM     88  S   UNL     1     -22.662  14.217   6.707  1.00  0.00     0.124 S 
ATOM     89  O   UNL     1     -22.966  13.298   7.800  1.00  0.00    -0.237 OA
ATOM     90  O   UNL     1     -22.061  15.488   7.103  1.00  0.00    -0.237 OA
ATOM     91  O   UNL     1     -23.689  14.316   5.672  1.00  0.00    -0.744 OA
ENDBRANCH  87  88
ENDBRANCH  61  82
ENDBRANCH  35  36
ENDBRANCH  27  30
ENDBRANCH  25  26
ENDBRANCH  24  25
ENDBRANCH   1  24
TORSDOF 18
