REMARK SMILES O=C(CCC(=O)Nc1ccc(Br)c([N+](=O)[O-])c1)NCCCCNC(=O)c1ccc(-c2c3nc(c(-c4ccc(S(=O)(=O)[O-])cc4)c4ccc([nH]4)c(-c4ccc(S(=O)(=O)[O-])cc4)c4nc(c(-c5ccc(S(=O)(=O)[O-])cc5)c5ccc2[nH]5)C=C4)C=C3)cc1
REMARK SMILES IDX 20 1 19 2 18 3 1 4 2 5 3 7 4 8 5 9 6 10 7 11 8 13 9 14 17 15
REMARK SMILES IDX 10 16 13 17 11 18 12 19 14 20 15 21 16 22 21 23 22 24 23 25
REMARK SMILES IDX 24 26 25 28 26 29 27 30 85 31 28 32 84 33 29 34 30 35 31 36
REMARK SMILES IDX 78 37 32 38 83 39 77 40 79 41 33 42 82 43 76 44 75 45 34 47
REMARK SMILES IDX 64 48 45 49 63 50 46 51 49 52 62 53 80 54 47 55 48 56 61 58
REMARK SMILES IDX 81 59 50 60 35 61 36 62 44 63 37 64 43 65 38 66 39 67 40 68
REMARK SMILES IDX 41 69 42 70 65 71 66 72 74 73 67 74 73 75 68 76 69 77 70 78
REMARK SMILES IDX 71 79 72 80 51 81 52 82 60 83 53 84 59 85 54 86 55 87 56 88
REMARK SMILES IDX 57 89 58 90
REMARK H PARENT 18 6 7 12 23 27 79 46 49 57
REMARK Flexibility Score: inf
ROOT
ATOM      1  C   UNL     1       2.999  -3.393   1.917  1.00  0.00     0.023 C 
ENDROOT
BRANCH   1   2
ATOM      2  C   UNL     1       2.467  -2.086   1.342  1.00  0.00     0.116 C 
BRANCH   2   3
ATOM      3  N   UNL     1       3.320  -1.477   0.338  1.00  0.00    -0.356 N 
ATOM      4  O   UNL     1       1.631  -0.950  -1.133  1.00  0.00    -0.275 OA
ATOM      5  C   UNL     1       2.803  -0.861  -0.781  1.00  0.00     0.220 C 
ATOM      6  H   UNL     1       4.297  -1.505   0.460  1.00  0.00     0.163 HD
BRANCH   5   7
ATOM      7  C   UNL     1       3.776   0.049  -1.499  1.00  0.00     0.110 C 
BRANCH   7   8
ATOM      8  C   UNL     1       3.885   1.428  -0.850  1.00  0.00     0.110 C 
BRANCH   8   9
ATOM      9  C   UNL     1       4.434   1.376   0.554  1.00  0.00     0.224 C 
ATOM     10  O   UNL     1       5.639   1.149   0.716  1.00  0.00    -0.275 OA
ATOM     11  N   UNL     1       3.688   1.523   1.683  1.00  0.00    -0.326 N 
ATOM     12  H   UNL     1       4.242   1.717   2.474  1.00  0.00     0.169 HD
BRANCH  11  13
ATOM     13  C   UNL     1       2.316   1.465   1.991  1.00  0.00     0.048 A 
ATOM     14  C   UNL     1       1.283   1.281   1.080  1.00  0.00     0.028 A 
ATOM     15  C   UNL     1       1.990   1.452   3.356  1.00  0.00     0.113 A 
ATOM     16  C   UNL     1      -0.010   0.947   1.507  1.00  0.00     0.025 A 
ATOM     17  C   UNL     1       0.681   1.145   3.791  1.00  0.00     0.285 A 
ATOM     18  C   UNL     1      -0.317   0.842   2.864  1.00  0.00     0.095 A 
ATOM     19  Br  UNL     1      -2.050   0.182   3.271  1.00  0.00    -0.043 Br
BRANCH  17  20
ATOM     20  N   UNL     1       0.444   1.127   5.234  1.00  0.00     0.064 N 
ATOM     21  O   UNL     1       1.403   0.823   5.956  1.00  0.00    -0.258 OA
ATOM     22  O   UNL     1      -0.669   1.464   5.652  1.00  0.00    -0.258 OA
ENDBRANCH  17  20
ENDBRANCH  11  13
ENDBRANCH   8   9
ENDBRANCH   7   8
ENDBRANCH   5   7
ENDBRANCH   2   3
ENDBRANCH   1   2
BRANCH   1  23
ATOM     23  C   UNL     1       4.408  -3.327   2.510  1.00  0.00     0.023 C 
BRANCH  23  24
ATOM     24  C   UNL     1       4.607  -2.304   3.627  1.00  0.00     0.116 C 
BRANCH  24  25
ATOM     25  N   UNL     1       3.974  -2.697   4.877  1.00  0.00    -0.352 N 
ATOM     26  C   UNL     1       4.540  -3.121   6.058  1.00  0.00     0.251 C 
ATOM     27  H   UNL     1       2.990  -2.652   4.878  1.00  0.00     0.163 HD
ATOM     28  O   UNL     1       3.819  -3.578   6.945  1.00  0.00    -0.269 OA
BRANCH  26  29
ATOM     29  C   UNL     1       6.006  -3.069   6.257  1.00  0.00     0.039 A 
ATOM     30  C   UNL     1       6.655  -4.178   6.806  1.00  0.00     0.014 A 
ATOM     31  C   UNL     1       6.746  -1.937   5.907  1.00  0.00     0.014 A 
ATOM     32  C   UNL     1       8.050  -4.187   6.915  1.00  0.00     0.010 A 
ATOM     33  C   UNL     1       8.140  -1.979   5.938  1.00  0.00     0.010 A 
ATOM     34  C   UNL     1       8.810  -3.107   6.435  1.00  0.00    -0.014 A 
BRANCH  34  35
ATOM     35  C   UNL     1      10.299  -3.152   6.423  1.00  0.00     0.031 A 
ATOM     36  C   UNL     1      11.102  -2.149   7.208  1.00  0.00     0.074 A 
ATOM     37  C   UNL     1      10.934  -4.057   5.650  1.00  0.00     0.049 A 
ATOM     38  N   UNL     1      12.401  -1.997   7.268  1.00  0.00    -0.248 NA
ATOM     39  C   UNL     1      10.348  -1.175   8.014  1.00  0.00     0.031 C 
ATOM     40  C   UNL     1      10.278  -5.060   4.806  1.00  0.00     0.029 A 
ATOM     41  N   UNL     1      12.274  -4.277   5.439  1.00  0.00    -0.354 N 
ATOM     42  C   UNL     1      12.619  -0.908   8.104  1.00  0.00     0.074 A 
ATOM     43  C   UNL     1      11.317  -0.403   8.483  1.00  0.00     0.031 C 
ATOM     44  C   UNL     1      11.214  -5.801   4.193  1.00  0.00     0.029 A 
ATOM     45  C   UNL     1      12.536  -5.301   4.558  1.00  0.00     0.049 A 
ATOM     46  H   UNL     1      12.980  -3.751   5.879  1.00  0.00     0.167 HD
ATOM     47  C   UNL     1      13.793  -0.386   8.535  1.00  0.00     0.031 A 
ATOM     48  C   UNL     1      13.703  -5.779   4.084  1.00  0.00     0.031 A 
ATOM     49  C   UNL     1      15.089  -0.889   8.157  1.00  0.00     0.049 A 
ATOM     50  C   UNL     1      14.995  -5.168   4.557  1.00  0.00     0.074 A 
ATOM     51  C   UNL     1      16.335  -0.456   8.579  1.00  0.00     0.029 A 
ATOM     52  N   UNL     1      15.309  -1.929   7.268  1.00  0.00    -0.354 N 
ATOM     53  N   UNL     1      15.178  -4.179   5.399  1.00  0.00    -0.248 NA
ATOM     54  C   UNL     1      16.237  -5.746   4.026  1.00  0.00     0.031 C 
ATOM     55  C   UNL     1      17.308  -1.194   7.898  1.00  0.00     0.029 A 
ATOM     56  C   UNL     1      16.669  -2.135   7.106  1.00  0.00     0.049 A 
ATOM     57  H   UNL     1      14.602  -2.446   6.817  1.00  0.00     0.167 HD
ATOM     58  C   UNL     1      16.557  -4.036   5.520  1.00  0.00     0.074 A 
ATOM     59  C   UNL     1      17.158  -5.050   4.678  1.00  0.00     0.031 C 
ATOM     60  C   UNL     1      17.259  -3.146   6.263  1.00  0.00     0.031 A 
BRANCH  47  61
ATOM     61  C   UNL     1      13.730   0.800   9.465  1.00  0.00    -0.014 A 
ATOM     62  C   UNL     1      13.240   0.670  10.778  1.00  0.00     0.010 A 
ATOM     63  C   UNL     1      14.203   2.053   9.036  1.00  0.00     0.010 A 
ATOM     64  C   UNL     1      13.180   1.778  11.626  1.00  0.00     0.020 A 
ATOM     65  C   UNL     1      14.176   3.158   9.893  1.00  0.00     0.020 A 
ATOM     66  C   UNL     1      13.647   3.017  11.177  1.00  0.00     0.054 A 
BRANCH  66  67
ATOM     67  S   UNL     1      13.573   4.434  12.307  1.00  0.00     0.124 S 
ATOM     68  O   UNL     1      12.137   4.702  12.359  1.00  0.00    -0.237 OA
ATOM     69  O   UNL     1      14.156   3.896  13.533  1.00  0.00    -0.237 OA
ATOM     70  O   UNL     1      14.372   5.456  11.636  1.00  0.00    -0.744 OA
ENDBRANCH  66  67
ENDBRANCH  47  61
BRANCH  48  71
ATOM     71  C   UNL     1      13.703  -6.904   3.106  1.00  0.00    -0.014 A 
ATOM     72  C   UNL     1      14.175  -8.176   3.475  1.00  0.00     0.010 A 
ATOM     73  C   UNL     1      13.218  -6.709   1.800  1.00  0.00     0.010 A 
ATOM     74  C   UNL     1      14.177  -9.227   2.552  1.00  0.00     0.020 A 
ATOM     75  C   UNL     1      13.188  -7.764   0.884  1.00  0.00     0.020 A 
ATOM     76  C   UNL     1      13.679  -9.014   1.263  1.00  0.00     0.054 A 
BRANCH  76  77
ATOM     77  S   UNL     1      13.640 -10.407   0.100  1.00  0.00     0.124 S 
ATOM     78  O   UNL     1      15.054 -10.577  -0.218  1.00  0.00    -0.237 OA
ATOM     79  O   UNL     1      13.038 -11.469   0.901  1.00  0.00    -0.237 OA
ATOM     80  O   UNL     1      12.807  -9.914  -0.996  1.00  0.00    -0.744 OA
ENDBRANCH  76  77
ENDBRANCH  48  71
BRANCH  60  81
ATOM     81  C   UNL     1      18.763  -3.246   6.234  1.00  0.00    -0.014 A 
ATOM     82  C   UNL     1      19.501  -2.885   5.093  1.00  0.00     0.010 A 
ATOM     83  C   UNL     1      19.451  -3.657   7.391  1.00  0.00     0.010 A 
ATOM     84  C   UNL     1      20.897  -2.964   5.099  1.00  0.00     0.020 A 
ATOM     85  C   UNL     1      20.848  -3.707   7.412  1.00  0.00     0.020 A 
ATOM     86  C   UNL     1      21.561  -3.373   6.260  1.00  0.00     0.054 A 
BRANCH  86  87
ATOM     87  S   UNL     1      23.374  -3.423   6.255  1.00  0.00     0.124 S 
ATOM     88  O   UNL     1      23.645  -4.579   5.405  1.00  0.00    -0.237 OA
ATOM     89  O   UNL     1      23.728  -2.126   5.684  1.00  0.00    -0.237 OA
ATOM     90  O   UNL     1      23.721  -3.592   7.665  1.00  0.00    -0.744 OA
ENDBRANCH  86  87
ENDBRANCH  60  81
ENDBRANCH  34  35
ENDBRANCH  26  29
ENDBRANCH  24  25
ENDBRANCH  23  24
ENDBRANCH   1  23
TORSDOF 18
