REMARK SMILES O=C(NCCCCNC(=O)c1ccc(-c2c3nc(c(-c4ccc(S(=O)(=O)[O-])cc4)c4ccc([nH]4)c(-c4ccc(S(=O)(=O)[O-])cc4)c4nc(c(-c5ccc(S(=O)(=O)[O-])cc5)c5ccc2[nH]5)C=C4)C=C3)cc1)C1=Cc2cc(C(F)(F)F)ccc2O[C@@H]1C(F)(F)F
REMARK SMILES IDX 6 1 5 2 4 3 3 4 1 5 2 6 71 8 72 9 84 10 73 11 83 12 74 13
REMARK SMILES IDX 82 14 75 15 81 16 80 17 85 18 86 19 87 20 88 21 76 22 77 23
REMARK SMILES IDX 78 24 79 25 7 26 8 27 9 28 10 30 11 31 12 32 70 33 13 34
REMARK SMILES IDX 69 35 14 36 15 37 16 38 63 39 17 40 68 41 62 42 64 43 18 44
REMARK SMILES IDX 67 45 61 46 60 47 19 49 49 50 30 51 48 52 31 53 34 54 47 55
REMARK SMILES IDX 65 56 32 57 33 58 46 60 66 61 35 62 20 63 21 64 29 65 22 66
REMARK SMILES IDX 28 67 23 68 24 69 25 70 26 71 27 72 50 73 51 74 59 75 52 76
REMARK SMILES IDX 58 77 53 78 54 79 55 80 56 81 57 82 36 83 37 84 45 85 38 86
REMARK SMILES IDX 44 87 39 88 40 89 41 90 42 91 43 92
REMARK H PARENT 3 7 8 29 64 48 34 59
REMARK Flexibility Score: inf
ROOT
ATOM      1  C   UNL     1       4.085  -2.341   3.647  1.00  0.00     0.023 C 
ENDROOT
BRANCH   1   2
ATOM      2  C   UNL     1       4.311  -0.984   2.981  1.00  0.00     0.023 C 
BRANCH   2   3
ATOM      3  C   UNL     1       3.792  -0.878   1.545  1.00  0.00     0.116 C 
BRANCH   3   4
ATOM      4  N   UNL     1       2.644   0.017   1.388  1.00  0.00    -0.352 N 
ATOM      5  O   UNL     1       1.218   1.379   0.265  1.00  0.00    -0.270 OA
ATOM      6  C   UNL     1       2.334   0.884   0.363  1.00  0.00     0.251 C 
ATOM      7  H   UNL     1       1.994  -0.004   2.127  1.00  0.00     0.163 HD
BRANCH   6   8
ATOM      8  C   UNL     1       3.348   1.109  -0.688  1.00  0.00     0.067 C 
ATOM      9  C   UNL     1       4.522   1.681  -0.385  1.00  0.00     0.025 C 
ATOM     10  C   UNL     1       3.147   0.404  -1.996  1.00  0.00     0.314 C 
ATOM     11  C   UNL     1       5.648   0.837  -0.827  1.00  0.00     0.018 A 
ATOM     12  O   UNL     1       4.213  -0.536  -2.271  1.00  0.00    -0.475 OA
ATOM     13  C   UNL     1       6.830   0.891  -0.073  1.00  0.00     0.025 A 
ATOM     14  C   UNL     1       5.412  -0.283  -1.650  1.00  0.00     0.128 A 
ATOM     15  C   UNL     1       7.732  -0.188  -0.078  1.00  0.00     0.056 A 
ATOM     16  C   UNL     1       6.342  -1.320  -1.718  1.00  0.00     0.048 A 
ATOM     17  C   UNL     1       7.487  -1.282  -0.921  1.00  0.00     0.017 A 
BRANCH  10  18
ATOM     18  C   UNL     1       3.005   1.413  -3.151  1.00  0.00     0.429 C 
ATOM     19  F   UNL     1       2.699   0.788  -4.314  1.00  0.00    -0.167 F 
ATOM     20  F   UNL     1       2.018   2.312  -2.920  1.00  0.00    -0.167 F 
ATOM     21  F   UNL     1       4.141   2.119  -3.368  1.00  0.00    -0.167 F 
ENDBRANCH  10  18
BRANCH  15  22
ATOM     22  C   UNL     1       8.912  -0.189   0.867  1.00  0.00     0.416 C 
ATOM     23  F   UNL     1       9.937   0.580   0.415  1.00  0.00    -0.166 F 
ATOM     24  F   UNL     1       8.586   0.302   2.097  1.00  0.00    -0.166 F 
ATOM     25  F   UNL     1       9.428  -1.426   1.087  1.00  0.00    -0.166 F 
ENDBRANCH  15  22
ENDBRANCH   6   8
ENDBRANCH   3   4
ENDBRANCH   2   3
ENDBRANCH   1   2
BRANCH   1  26
ATOM     26  C   UNL     1       4.664  -3.560   2.931  1.00  0.00     0.116 C 
BRANCH  26  27
ATOM     27  N   UNL     1       6.107  -3.527   2.738  1.00  0.00    -0.352 N 
ATOM     28  C   UNL     1       7.008  -4.561   2.875  1.00  0.00     0.251 C 
ATOM     29  H   UNL     1       6.487  -2.657   2.477  1.00  0.00     0.163 HD
ATOM     30  O   UNL     1       8.209  -4.367   2.702  1.00  0.00    -0.269 OA
BRANCH  28  31
ATOM     31  C   UNL     1       6.521  -5.897   3.282  1.00  0.00     0.039 A 
ATOM     32  C   UNL     1       7.091  -6.518   4.396  1.00  0.00     0.014 A 
ATOM     33  C   UNL     1       5.449  -6.495   2.614  1.00  0.00     0.014 A 
ATOM     34  C   UNL     1       6.523  -7.692   4.899  1.00  0.00     0.010 A 
ATOM     35  C   UNL     1       4.838  -7.619   3.163  1.00  0.00     0.010 A 
ATOM     36  C   UNL     1       5.362  -8.225   4.315  1.00  0.00    -0.014 A 
BRANCH  36  37
ATOM     37  C   UNL     1       4.682  -9.418   4.886  1.00  0.00     0.031 A 
ATOM     38  C   UNL     1       4.573 -10.678   4.070  1.00  0.00     0.074 A 
ATOM     39  C   UNL     1       4.104  -9.350   6.103  1.00  0.00     0.049 A 
ATOM     40  N   UNL     1       3.937 -11.788   4.345  1.00  0.00    -0.248 NA
ATOM     41  C   UNL     1       5.241 -10.680   2.757  1.00  0.00     0.031 C 
ATOM     42  C   UNL     1       4.094  -8.173   6.978  1.00  0.00     0.029 A 
ATOM     43  N   UNL     1       3.402 -10.292   6.814  1.00  0.00    -0.354 N 
ATOM     44  C   UNL     1       4.113 -12.609   3.238  1.00  0.00     0.074 A 
ATOM     45  C   UNL     1       4.868 -11.851   2.264  1.00  0.00     0.031 C 
ATOM     46  C   UNL     1       3.440  -8.472   8.113  1.00  0.00     0.029 A 
ATOM     47  C   UNL     1       2.955  -9.847   8.037  1.00  0.00     0.049 A 
ATOM     48  H   UNL     1       3.233 -11.203   6.480  1.00  0.00     0.167 HD
ATOM     49  C   UNL     1       3.710 -13.889   3.055  1.00  0.00     0.031 A 
ATOM     50  C   UNL     1       2.236 -10.473   8.989  1.00  0.00     0.031 A 
ATOM     51  C   UNL     1       2.984 -14.653   4.033  1.00  0.00     0.049 A 
ATOM     52  C   UNL     1       1.823 -11.905   8.773  1.00  0.00     0.074 A 
ATOM     53  C   UNL     1       2.552 -15.966   3.953  1.00  0.00     0.029 A 
ATOM     54  N   UNL     1       2.602 -14.181   5.278  1.00  0.00    -0.354 N 
ATOM     55  N   UNL     1       2.032 -12.674   7.730  1.00  0.00    -0.248 NA
ATOM     56  C   UNL     1       1.097 -12.561   9.869  1.00  0.00     0.031 C 
ATOM     57  C   UNL     1       1.889 -16.281   5.143  1.00  0.00     0.029 A 
ATOM     58  C   UNL     1       1.948 -15.178   5.980  1.00  0.00     0.049 A 
ATOM     59  H   UNL     1       2.771 -13.271   5.614  1.00  0.00     0.167 HD
ATOM     60  C   UNL     1       1.496 -13.914   8.062  1.00  0.00     0.074 A 
ATOM     61  C   UNL     1       0.964 -13.795   9.404  1.00  0.00     0.031 C 
ATOM     62  C   UNL     1       1.448 -15.049   7.323  1.00  0.00     0.031 A 
BRANCH  49  63
ATOM     63  C   UNL     1       4.069 -14.549   1.752  1.00  0.00    -0.014 A 
ATOM     64  C   UNL     1       5.399 -14.915   1.476  1.00  0.00     0.010 A 
ATOM     65  C   UNL     1       3.067 -14.849   0.812  1.00  0.00     0.010 A 
ATOM     66  C   UNL     1       5.727 -15.535   0.269  1.00  0.00     0.020 A 
ATOM     67  C   UNL     1       3.387 -15.494  -0.386  1.00  0.00     0.020 A 
ATOM     68  C   UNL     1       4.718 -15.819  -0.656  1.00  0.00     0.054 A 
BRANCH  68  69
ATOM     69  S   UNL     1       5.168 -16.658  -2.200  1.00  0.00     0.124 S 
ATOM     70  O   UNL     1       5.813 -15.582  -2.948  1.00  0.00    -0.237 OA
ATOM     71  O   UNL     1       6.056 -17.723  -1.740  1.00  0.00    -0.237 OA
ATOM     72  O   UNL     1       3.886 -17.108  -2.736  1.00  0.00    -0.744 OA
ENDBRANCH  68  69
ENDBRANCH  49  63
BRANCH  50  73
ATOM     73  C   UNL     1       1.869  -9.767  10.248  1.00  0.00    -0.014 A 
ATOM     74  C   UNL     1       2.463 -10.129  11.470  1.00  0.00     0.010 A 
ATOM     75  C   UNL     1       0.899  -8.749  10.236  1.00  0.00     0.010 A 
ATOM     76  C   UNL     1       2.064  -9.518  12.663  1.00  0.00     0.020 A 
ATOM     77  C   UNL     1       0.517  -8.116  11.423  1.00  0.00     0.020 A 
ATOM     78  C   UNL     1       1.088  -8.519  12.632  1.00  0.00     0.054 A 
BRANCH  78  79
ATOM     79  S   UNL     1       0.590  -7.728  14.188  1.00  0.00     0.124 S 
ATOM     80  O   UNL     1      -0.285  -8.739  14.774  1.00  0.00    -0.237 OA
ATOM     81  O   UNL     1       1.867  -7.526  14.866  1.00  0.00    -0.237 OA
ATOM     82  O   UNL     1      -0.073  -6.503  13.747  1.00  0.00    -0.744 OA
ENDBRANCH  78  79
ENDBRANCH  50  73
BRANCH  62  83
ATOM     83  C   UNL     1       0.860 -16.273   7.970  1.00  0.00    -0.014 A 
ATOM     84  C   UNL     1      -0.525 -16.400   8.174  1.00  0.00     0.010 A 
ATOM     85  C   UNL     1       1.710 -17.334   8.334  1.00  0.00     0.010 A 
ATOM     86  C   UNL     1      -1.046 -17.555   8.763  1.00  0.00     0.020 A 
ATOM     87  C   UNL     1       1.190 -18.499   8.900  1.00  0.00     0.020 A 
ATOM     88  C   UNL     1      -0.185 -18.596   9.125  1.00  0.00     0.054 A 
BRANCH  88  89
ATOM     89  S   UNL     1      -0.887 -20.101   9.853  1.00  0.00     0.124 S 
ATOM     90  O   UNL     1      -1.169 -19.674  11.220  1.00  0.00    -0.237 OA
ATOM     91  O   UNL     1      -2.060 -20.347   9.017  1.00  0.00    -0.237 OA
ATOM     92  O   UNL     1       0.185 -21.085   9.715  1.00  0.00    -0.744 OA
ENDBRANCH  88  89
ENDBRANCH  62  83
ENDBRANCH  36  37
ENDBRANCH  28  31
ENDBRANCH  26  27
ENDBRANCH   1  26
TORSDOF 16
