REMARK SMILES CSc1nc2nnc(C(=O)NCCCCNC(=O)c3ccc(-c4c5nc(c(-c6ccc(S(=O)(=O)[O-])cc6)c6ccc([nH]6)c(-c6ccc(S(=O)(=O)[O-])cc6)c6nc(c(-c7ccc(S(=O)(=O)[O-])cc7)c7ccc4[nH]7)C=C6)C=C5)cc3)c(O)n2n1
REMARK SMILES IDX 14 1 13 2 12 3 11 4 9 5 10 6 8 8 3 9 4 10 82 11 5 12 81 13
REMARK SMILES IDX 6 14 79 15 7 16 2 17 1 18 80 19 15 21 16 22 17 23 18 25
REMARK SMILES IDX 19 26 20 27 78 28 21 29 77 30 22 31 23 32 24 33 71 34 25 35
REMARK SMILES IDX 76 36 70 37 72 38 26 39 75 40 69 41 68 42 27 44 57 45 38 46
REMARK SMILES IDX 56 47 39 48 42 49 55 50 73 51 40 52 41 53 54 55 74 56 43 57
REMARK SMILES IDX 28 58 29 59 37 60 30 61 36 62 31 63 32 64 33 65 34 66 35 67
REMARK SMILES IDX 58 68 59 69 67 70 60 71 66 72 61 73 62 74 63 75 64 76 65 77
REMARK SMILES IDX 44 78 45 79 53 80 46 81 52 82 47 83 48 84 49 85 50 86 51 87
REMARK H PARENT 11 7 80 20 16 24 72 43 42 54
REMARK Flexibility Score: inf
ROOT
ATOM      1  C   UNL     1       4.867   6.172  -9.540  1.00  0.00     0.023 C 
ENDROOT
BRANCH   1   2
ATOM      2  C   UNL     1       3.979   5.989  -8.297  1.00  0.00     0.023 C 
BRANCH   2   3
ATOM      3  C   UNL     1       2.739   5.106  -8.475  1.00  0.00     0.116 C 
BRANCH   3   4
ATOM      4  N   UNL     1       3.086   3.723  -8.768  1.00  0.00    -0.350 N 
ATOM      5  C   UNL     1       3.000   2.562  -8.066  1.00  0.00     0.277 C 
ATOM      6  O   UNL     1       3.409   1.542  -8.634  1.00  0.00    -0.267 OA
ATOM      7  H   UNL     1       3.465   3.603  -9.668  1.00  0.00     0.163 HD
BRANCH   5   8
ATOM      8  C   UNL     1       2.436   2.450  -6.672  1.00  0.00     0.212 A 
ATOM      9  C   UNL     1       0.849   0.632  -3.043  1.00  0.00     0.210 A 
ATOM     10  N   UNL     1       0.772   1.993  -3.063  1.00  0.00    -0.182 NA
ATOM     11  N   UNL     1       1.481   0.074  -4.072  1.00  0.00    -0.134 NA
ATOM     12  C   UNL     1       1.325   2.304  -4.218  1.00  0.00     0.275 A 
ATOM     13  N   UNL     1       1.754   1.146  -4.856  1.00  0.00    -0.159 N 
ATOM     14  N   UNL     1       1.503   3.510  -4.832  1.00  0.00    -0.108 NA
ATOM     15  C   UNL     1       2.339   1.214  -6.123  1.00  0.00     0.249 A 
ATOM     16  N   UNL     1       2.020   3.575  -5.983  1.00  0.00    -0.136 NA
BRANCH   9  17
ATOM     17  S   UNL     1       0.113  -0.356  -1.812  1.00  0.00    -0.088 SA
ATOM     18  C   UNL     1       1.001   0.225  -0.360  1.00  0.00     0.094 C 
ENDBRANCH   9  17
BRANCH  15  19
ATOM     19  O   UNL     1       2.751   0.028  -6.717  1.00  0.00    -0.491 OA
ATOM     20  H   UNL     1       3.147   0.043  -7.566  1.00  0.00     0.295 HD
ENDBRANCH  15  19
ENDBRANCH   5   8
ENDBRANCH   3   4
ENDBRANCH   2   3
ENDBRANCH   1   2
BRANCH   1  21
ATOM     21  C   UNL     1       4.166   6.758 -10.761  1.00  0.00     0.116 C 
BRANCH  21  22
ATOM     22  N   UNL     1       3.650   8.106 -10.544  1.00  0.00    -0.352 N 
ATOM     23  C   UNL     1       2.943   8.896 -11.438  1.00  0.00     0.251 C 
ATOM     24  H   UNL     1       3.823   8.501  -9.659  1.00  0.00     0.163 HD
ATOM     25  O   UNL     1       2.912  10.109 -11.299  1.00  0.00    -0.269 OA
BRANCH  23  26
ATOM     26  C   UNL     1       2.246   8.244 -12.567  1.00  0.00     0.039 A 
ATOM     27  C   UNL     1       2.264   8.800 -13.847  1.00  0.00     0.014 A 
ATOM     28  C   UNL     1       1.595   7.035 -12.335  1.00  0.00     0.014 A 
ATOM     29  C   UNL     1       1.715   8.073 -14.903  1.00  0.00     0.010 A 
ATOM     30  C   UNL     1       1.183   6.257 -13.395  1.00  0.00     0.010 A 
ATOM     31  C   UNL     1       1.209   6.776 -14.683  1.00  0.00    -0.014 A 
BRANCH  31  32
ATOM     32  C   UNL     1       0.827   5.926 -15.814  1.00  0.00     0.031 A 
ATOM     33  C   UNL     1       1.806   5.916 -16.934  1.00  0.00     0.074 A 
ATOM     34  C   UNL     1      -0.242   5.099 -15.849  1.00  0.00     0.049 A 
ATOM     35  N   UNL     1       1.713   6.575 -18.040  1.00  0.00    -0.248 NA
ATOM     36  C   UNL     1       3.100   5.242 -16.750  1.00  0.00     0.031 C 
ATOM     37  C   UNL     1      -1.194   4.778 -14.777  1.00  0.00     0.029 A 
ATOM     38  N   UNL     1      -0.671   4.302 -16.870  1.00  0.00    -0.354 N 
ATOM     39  C   UNL     1       2.817   6.213 -18.801  1.00  0.00     0.074 A 
ATOM     40  C   UNL     1       3.719   5.544 -17.896  1.00  0.00     0.031 C 
ATOM     41  C   UNL     1      -1.945   3.709 -15.130  1.00  0.00     0.029 A 
ATOM     42  C   UNL     1      -1.671   3.401 -16.520  1.00  0.00     0.049 A 
ATOM     43  H   UNL     1      -0.302   4.361 -17.781  1.00  0.00     0.167 HD
ATOM     44  C   UNL     1       2.775   6.269 -20.162  1.00  0.00     0.031 A 
ATOM     45  C   UNL     1      -2.288   2.509 -17.332  1.00  0.00     0.031 A 
ATOM     46  C   UNL     1       1.603   6.979 -20.616  1.00  0.00     0.049 A 
ATOM     47  C   UNL     1      -2.188   3.052 -18.702  1.00  0.00     0.074 A 
ATOM     48  C   UNL     1       1.135   8.273 -20.549  1.00  0.00     0.029 A 
ATOM     49  N   UNL     1       0.526   6.179 -20.914  1.00  0.00    -0.354 N 
ATOM     50  N   UNL     1      -2.776   4.154 -19.074  1.00  0.00    -0.248 NA
ATOM     51  C   UNL     1      -1.140   2.572 -19.587  1.00  0.00     0.031 C 
ATOM     52  C   UNL     1      -0.285   8.157 -20.453  1.00  0.00     0.029 A 
ATOM     53  C   UNL     1      -0.628   6.805 -20.523  1.00  0.00     0.049 A 
ATOM     54  H   UNL     1       0.576   5.293 -21.341  1.00  0.00     0.167 HD
ATOM     55  C   UNL     1      -1.898   4.730 -19.975  1.00  0.00     0.074 A 
ATOM     56  C   UNL     1      -1.002   3.647 -20.367  1.00  0.00     0.031 C 
ATOM     57  C   UNL     1      -1.814   6.087 -20.098  1.00  0.00     0.031 A 
BRANCH  44  58
ATOM     58  C   UNL     1       3.488   5.295 -21.078  1.00  0.00    -0.014 A 
ATOM     59  C   UNL     1       3.300   5.428 -22.472  1.00  0.00     0.010 A 
ATOM     60  C   UNL     1       4.067   4.093 -20.627  1.00  0.00     0.010 A 
ATOM     61  C   UNL     1       3.582   4.375 -23.352  1.00  0.00     0.020 A 
ATOM     62  C   UNL     1       4.388   3.050 -21.502  1.00  0.00     0.020 A 
ATOM     63  C   UNL     1       4.107   3.184 -22.855  1.00  0.00     0.054 A 
BRANCH  63  64
ATOM     64  S   UNL     1       4.343   1.785 -23.977  1.00  0.00     0.124 S 
ATOM     65  O   UNL     1       2.971   1.487 -24.377  1.00  0.00    -0.237 OA
ATOM     66  O   UNL     1       5.196   2.362 -25.013  1.00  0.00    -0.237 OA
ATOM     67  O   UNL     1       4.985   0.777 -23.136  1.00  0.00    -0.744 OA
ENDBRANCH  63  64
ENDBRANCH  44  58
BRANCH  45  68
ATOM     68  C   UNL     1      -2.745   1.125 -17.061  1.00  0.00    -0.014 A 
ATOM     69  C   UNL     1      -3.584   0.457 -17.974  1.00  0.00     0.010 A 
ATOM     70  C   UNL     1      -2.084   0.351 -16.086  1.00  0.00     0.010 A 
ATOM     71  C   UNL     1      -3.683  -0.944 -17.975  1.00  0.00     0.020 A 
ATOM     72  C   UNL     1      -2.182  -1.047 -16.079  1.00  0.00     0.020 A 
ATOM     73  C   UNL     1      -2.956  -1.690 -17.045  1.00  0.00     0.054 A 
BRANCH  73  74
ATOM     74  S   UNL     1      -2.927  -3.503 -17.191  1.00  0.00     0.124 S 
ATOM     75  O   UNL     1      -4.299  -3.866 -16.847  1.00  0.00    -0.237 OA
ATOM     76  O   UNL     1      -2.553  -3.703 -18.588  1.00  0.00    -0.237 OA
ATOM     77  O   UNL     1      -1.915  -3.911 -16.217  1.00  0.00    -0.744 OA
ENDBRANCH  73  74
ENDBRANCH  45  68
BRANCH  57  78
ATOM     78  C   UNL     1      -2.966   6.915 -19.579  1.00  0.00    -0.014 A 
ATOM     79  C   UNL     1      -3.346   6.990 -18.225  1.00  0.00     0.010 A 
ATOM     80  C   UNL     1      -3.626   7.739 -20.507  1.00  0.00     0.010 A 
ATOM     81  C   UNL     1      -4.373   7.857 -17.818  1.00  0.00     0.020 A 
ATOM     82  C   UNL     1      -4.635   8.617 -20.106  1.00  0.00     0.020 A 
ATOM     83  C   UNL     1      -5.010   8.667 -18.764  1.00  0.00     0.054 A 
BRANCH  83  84
ATOM     84  S   UNL     1      -6.306   9.820 -18.230  1.00  0.00     0.124 S 
ATOM     85  O   UNL     1      -7.378   8.922 -17.808  1.00  0.00    -0.237 OA
ATOM     86  O   UNL     1      -5.653  10.567 -17.157  1.00  0.00    -0.237 OA
ATOM     87  O   UNL     1      -6.594  10.603 -19.431  1.00  0.00    -0.744 OA
ENDBRANCH  83  84
ENDBRANCH  57  78
ENDBRANCH  31  32
ENDBRANCH  23  26
ENDBRANCH  21  22
ENDBRANCH   1  21
TORSDOF 16
