REMARK SMILES CC1=C2C(=O)CC(C)(C)CC2=N[C@@H]1C(=O)NCCCCNC(=O)c1ccc(-c2c3nc(c(-c4ccc(S(=O)(=O)[O-])cc4)c4ccc([nH]4)c(-c4ccc(S(=O)(=O)[O-])cc4)c4nc(c(-c5ccc(S(=O)(=O)[O-])cc5)c5ccc2[nH]5)C=C4)C=C3)cc1
REMARK SMILES IDX 20 1 19 2 18 3 17 4 16 5 14 6 15 7 13 9 1 10 2 11 3 12 4 13
REMARK SMILES IDX 11 14 12 15 5 16 6 17 10 18 7 19 8 20 9 21 21 22 22 23 23 25
REMARK SMILES IDX 24 26 25 27 83 28 26 29 82 30 27 31 28 32 29 33 76 34 30 35
REMARK SMILES IDX 81 36 75 37 77 38 31 39 80 40 74 41 73 42 32 44 62 45 43 46
REMARK SMILES IDX 61 47 44 48 47 49 60 50 78 51 45 52 46 53 59 55 79 56 48 57
REMARK SMILES IDX 33 58 34 59 42 60 35 61 41 62 36 63 37 64 38 65 39 66 40 67
REMARK SMILES IDX 63 68 64 69 72 70 65 71 71 72 66 73 67 74 68 75 69 76 70 77
REMARK SMILES IDX 49 78 50 79 58 80 51 81 57 82 52 83 53 84 54 85 55 86 56 87
REMARK H PARENT 16 8 21 24 77 43 47 54
REMARK Flexibility Score: inf
ROOT
ATOM      1  C   UNL     1       1.110   6.008   0.174  1.00  0.00     0.116 C 
ENDROOT
BRANCH   1   2
ATOM      2  C   UNL     1       1.451   4.611   0.646  1.00  0.00     0.023 C 
BRANCH   2   3
ATOM      3  C   UNL     1       0.305   3.603   0.468  1.00  0.00     0.023 C 
BRANCH   3   4
ATOM      4  C   UNL     1      -0.154   3.328  -0.976  1.00  0.00     0.116 C 
BRANCH   4   5
ATOM      5  N   UNL     1       0.943   2.832  -1.771  1.00  0.00    -0.354 N 
ATOM      6  C   UNL     1       1.264   1.543  -2.067  1.00  0.00     0.249 C 
ATOM      7  O   UNL     1       2.462   1.308  -2.260  1.00  0.00    -0.272 OA
ATOM      8  H   UNL     1       1.539   3.518  -2.151  1.00  0.00     0.163 HD
BRANCH   6   9
ATOM      9  C   UNL     1       0.156   0.444  -2.185  1.00  0.00     0.221 C 
ATOM     10  C   UNL     1      -0.249   0.169   0.421  1.00  0.00     0.043 C 
ATOM     11  C   UNL     1      -0.094  -0.388  -0.945  1.00  0.00    -0.027 C 
ATOM     12  C   UNL     1       0.119  -1.683  -1.190  1.00  0.00     0.040 C 
ATOM     13  C   UNL     1       0.175  -2.858  -0.314  1.00  0.00     0.165 C 
ATOM     14  C   UNL     1       0.984  -1.541  -2.345  1.00  0.00     0.048 C 
ATOM     15  N   UNL     1       0.759  -0.546  -3.148  1.00  0.00    -0.271 NA
ATOM     16  O   UNL     1      -0.825  -3.258   0.276  1.00  0.00    -0.294 OA
ATOM     17  C   UNL     1       1.511  -3.573  -0.233  1.00  0.00     0.088 C 
ATOM     18  C   UNL     1       2.224  -2.383  -2.385  1.00  0.00     0.063 C 
ATOM     19  C   UNL     1       2.657  -2.799  -0.936  1.00  0.00    -0.023 C 
ATOM     20  C   UNL     1       3.070  -1.603  -0.034  1.00  0.00     0.012 C 
ATOM     21  C   UNL     1       3.899  -3.695  -1.057  1.00  0.00     0.012 C 
ENDBRANCH   6   9
ENDBRANCH   4   5
ENDBRANCH   3   4
ENDBRANCH   2   3
ENDBRANCH   1   2
BRANCH   1  22
ATOM     22  N   UNL     1      -0.005   6.599   0.923  1.00  0.00    -0.352 N 
ATOM     23  C   UNL     1      -0.607   7.828   0.721  1.00  0.00     0.251 C 
ATOM     24  H   UNL     1      -0.368   6.055   1.659  1.00  0.00     0.163 HD
ATOM     25  O   UNL     1      -1.258   8.367   1.616  1.00  0.00    -0.269 OA
BRANCH  23  26
ATOM     26  C   UNL     1      -0.460   8.462  -0.597  1.00  0.00     0.039 A 
ATOM     27  C   UNL     1      -0.252   9.831  -0.775  1.00  0.00     0.014 A 
ATOM     28  C   UNL     1      -0.468   7.598  -1.685  1.00  0.00     0.014 A 
ATOM     29  C   UNL     1       0.013  10.296  -2.063  1.00  0.00     0.010 A 
ATOM     30  C   UNL     1       0.066   8.007  -2.867  1.00  0.00     0.010 A 
ATOM     31  C   UNL     1       0.180   9.365  -3.100  1.00  0.00    -0.014 A 
BRANCH  31  32
ATOM     32  C   UNL     1       0.520   9.739  -4.461  1.00  0.00     0.031 A 
ATOM     33  C   UNL     1       1.794  10.478  -4.595  1.00  0.00     0.074 A 
ATOM     34  C   UNL     1      -0.136   9.235  -5.530  1.00  0.00     0.049 A 
ATOM     35  N   UNL     1       1.936  11.746  -4.781  1.00  0.00    -0.248 NA
ATOM     36  C   UNL     1       3.054   9.771  -4.318  1.00  0.00     0.031 C 
ATOM     37  C   UNL     1      -1.201   8.219  -5.577  1.00  0.00     0.029 A 
ATOM     38  N   UNL     1       0.104   9.456  -6.845  1.00  0.00    -0.354 N 
ATOM     39  C   UNL     1       3.303  11.963  -4.897  1.00  0.00     0.074 A 
ATOM     40  C   UNL     1       3.936  10.772  -4.387  1.00  0.00     0.031 C 
ATOM     41  C   UNL     1      -1.335   7.754  -6.840  1.00  0.00     0.029 A 
ATOM     42  C   UNL     1      -0.511   8.565  -7.716  1.00  0.00     0.049 A 
ATOM     43  H   UNL     1       0.674  10.194  -7.160  1.00  0.00     0.167 HD
ATOM     44  C   UNL     1       3.792  12.993  -5.643  1.00  0.00     0.031 A 
ATOM     45  C   UNL     1      -0.339   8.503  -9.061  1.00  0.00     0.031 A 
ATOM     46  C   UNL     1       2.735  13.882  -6.061  1.00  0.00     0.049 A 
ATOM     47  C   UNL     1       0.190   9.829  -9.475  1.00  0.00     0.074 A 
ATOM     48  C   UNL     1       1.804  14.660  -5.402  1.00  0.00     0.029 A 
ATOM     49  N   UNL     1       2.247  13.700  -7.338  1.00  0.00    -0.354 N 
ATOM     50  N   UNL     1      -0.499  10.934  -9.366  1.00  0.00    -0.248 NA
ATOM     51  C   UNL     1       1.634  10.000  -9.533  1.00  0.00     0.031 C 
ATOM     52  C   UNL     1       0.599  14.490  -6.145  1.00  0.00     0.029 A 
ATOM     53  C   UNL     1       0.878  13.699  -7.262  1.00  0.00     0.049 A 
ATOM     54  H   UNL     1       2.785  13.591  -8.155  1.00  0.00     0.167 HD
ATOM     55  C   UNL     1       0.410  11.877  -8.906  1.00  0.00     0.074 A 
ATOM     56  C   UNL     1       1.725  11.268  -9.117  1.00  0.00     0.031 C 
ATOM     57  C   UNL     1       0.011  12.933  -8.136  1.00  0.00     0.031 A 
BRANCH  44  58
ATOM     58  C   UNL     1       5.128  12.989  -6.340  1.00  0.00    -0.014 A 
ATOM     59  C   UNL     1       5.523  14.150  -7.035  1.00  0.00     0.010 A 
ATOM     60  C   UNL     1       5.881  11.819  -6.566  1.00  0.00     0.010 A 
ATOM     61  C   UNL     1       6.563  14.120  -7.971  1.00  0.00     0.020 A 
ATOM     62  C   UNL     1       6.949  11.789  -7.465  1.00  0.00     0.020 A 
ATOM     63  C   UNL     1       7.259  12.931  -8.190  1.00  0.00     0.054 A 
BRANCH  63  64
ATOM     64  S   UNL     1       8.524  12.875  -9.480  1.00  0.00     0.124 S 
ATOM     65  O   UNL     1       7.729  13.075 -10.688  1.00  0.00    -0.237 OA
ATOM     66  O   UNL     1       9.398  13.982  -9.104  1.00  0.00    -0.237 OA
ATOM     67  O   UNL     1       9.109  11.545  -9.327  1.00  0.00    -0.744 OA
ENDBRANCH  63  64
ENDBRANCH  44  58
BRANCH  45  68
ATOM     68  C   UNL     1      -0.306   7.308  -9.942  1.00  0.00    -0.014 A 
ATOM     69  C   UNL     1      -0.384   7.431 -11.342  1.00  0.00     0.010 A 
ATOM     70  C   UNL     1       0.103   6.063  -9.420  1.00  0.00     0.010 A 
ATOM     71  C   UNL     1      -0.002   6.373 -12.189  1.00  0.00     0.020 A 
ATOM     72  C   UNL     1       0.484   5.004 -10.256  1.00  0.00     0.020 A 
ATOM     73  C   UNL     1       0.454   5.173 -11.639  1.00  0.00     0.054 A 
BRANCH  73  74
ATOM     74  S   UNL     1       1.130   3.884 -12.733  1.00  0.00     0.124 S 
ATOM     75  O   UNL     1      -0.066   3.392 -13.411  1.00  0.00    -0.237 OA
ATOM     76  O   UNL     1       2.065   4.633 -13.568  1.00  0.00    -0.237 OA
ATOM     77  O   UNL     1       1.752   2.938 -11.809  1.00  0.00    -0.744 OA
ENDBRANCH  73  74
ENDBRANCH  45  68
BRANCH  57  78
ATOM     78  C   UNL     1      -1.470  13.212  -7.997  1.00  0.00    -0.014 A 
ATOM     79  C   UNL     1      -2.380  12.342  -7.363  1.00  0.00     0.010 A 
ATOM     80  C   UNL     1      -1.911  14.500  -8.346  1.00  0.00     0.010 A 
ATOM     81  C   UNL     1      -3.696  12.754  -7.092  1.00  0.00     0.020 A 
ATOM     82  C   UNL     1      -3.211  14.922  -8.064  1.00  0.00     0.020 A 
ATOM     83  C   UNL     1      -4.101  14.046  -7.441  1.00  0.00     0.054 A 
BRANCH  83  84
ATOM     84  S   UNL     1      -5.777  14.608  -7.025  1.00  0.00     0.124 S 
ATOM     85  O   UNL     1      -6.609  13.824  -7.932  1.00  0.00    -0.237 OA
ATOM     86  O   UNL     1      -5.893  14.266  -5.609  1.00  0.00    -0.237 OA
ATOM     87  O   UNL     1      -5.742  16.044  -7.304  1.00  0.00    -0.744 OA
ENDBRANCH  83  84
ENDBRANCH  57  78
ENDBRANCH  31  32
ENDBRANCH  23  26
ENDBRANCH   1  22
TORSDOF 14
