REMARK SMILES CC(=O)n1cc2c3c(cccc31)C(=O)C[C@@H]2C(=O)NCCCCNC(=O)c1ccc(-c2c3nc(c(-c4ccc(S(=O)(=O)[O-])cc4)c4ccc([nH]4)c(-c4ccc(S(=O)(=O)[O-])cc4)c4nc(c(-c5ccc(S(=O)(=O)[O-])cc5)c5ccc2[nH]5)C=C4)C=C3)cc1
REMARK SMILES IDX 22 1 21 2 20 3 19 4 17 5 18 6 16 8 4 9 5 10 12 11 6 12 7 13
REMARK SMILES IDX 11 14 8 15 10 16 15 17 9 18 13 19 14 20 2 21 1 22 3 23 23 24
REMARK SMILES IDX 24 25 25 26 26 28 27 29 28 30 86 31 29 32 85 33 30 34 31 35
REMARK SMILES IDX 32 36 79 37 33 38 84 39 78 40 80 41 34 42 83 43 77 44 76 45
REMARK SMILES IDX 35 47 65 48 46 49 64 50 47 51 50 52 63 53 81 54 48 55 49 56
REMARK SMILES IDX 62 58 82 59 51 60 36 61 37 62 45 63 38 64 44 65 39 66 40 67
REMARK SMILES IDX 41 68 42 69 43 70 66 71 67 72 75 73 68 74 74 75 69 76 70 77
REMARK SMILES IDX 71 78 72 79 73 80 52 81 53 82 61 83 54 84 60 85 55 86 56 87
REMARK SMILES IDX 57 88 58 89 59 90
REMARK H PARENT 19 7 24 27 80 46 50 57
REMARK Flexibility Score: inf
ROOT
ATOM      1  C   UNL     1       4.367  -8.142  -0.647  1.00  0.00     0.023 C 
ENDROOT
BRANCH   1   2
ATOM      2  C   UNL     1       3.166  -7.476  -1.332  1.00  0.00     0.023 C 
BRANCH   2   3
ATOM      3  C   UNL     1       3.031  -5.966  -1.118  1.00  0.00     0.116 C 
BRANCH   3   4
ATOM      4  N   UNL     1       4.118  -5.224  -1.735  1.00  0.00    -0.356 N 
ATOM      5  C   UNL     1       4.117  -4.321  -2.759  1.00  0.00     0.228 C 
ATOM      6  O   UNL     1       5.208  -3.853  -3.100  1.00  0.00    -0.274 OA
ATOM      7  H   UNL     1       5.006  -5.404  -1.350  1.00  0.00     0.163 HD
BRANCH   5   8
ATOM      8  C   UNL     1       2.841  -3.914  -3.499  1.00  0.00     0.118 C 
ATOM      9  N   UNL     1       0.628  -2.171  -1.026  1.00  0.00    -0.287 N 
ATOM     10  C   UNL     1       1.891  -2.333  -1.605  1.00  0.00     0.100 A 
ATOM     11  C   UNL     1      -0.251  -3.039  -1.685  1.00  0.00     0.057 A 
ATOM     12  C   UNL     1       1.823  -3.298  -2.587  1.00  0.00    -0.008 A 
ATOM     13  C   UNL     1       0.478  -3.678  -2.676  1.00  0.00     0.015 A 
ATOM     14  C   UNL     1      -1.627  -3.293  -1.552  1.00  0.00     0.027 A 
ATOM     15  C   UNL     1      -0.126  -4.564  -3.566  1.00  0.00     0.027 A 
ATOM     16  C   UNL     1      -2.231  -4.179  -2.463  1.00  0.00     0.003 A 
ATOM     17  C   UNL     1       2.289  -5.106  -4.324  1.00  0.00     0.099 C 
ATOM     18  C   UNL     1      -1.494  -4.804  -3.472  1.00  0.00     0.012 A 
ATOM     19  C   UNL     1       0.775  -5.183  -4.562  1.00  0.00     0.164 C 
ATOM     20  O   UNL     1       0.299  -5.812  -5.504  1.00  0.00    -0.294 OA
BRANCH   9  21
ATOM     21  C   UNL     1       0.273  -1.281   0.009  1.00  0.00     0.227 C 
ATOM     22  C   UNL     1       1.162  -0.087   0.163  1.00  0.00     0.115 C 
ATOM     23  O   UNL     1      -0.761  -1.466   0.645  1.00  0.00    -0.274 OA
ENDBRANCH   9  21
ENDBRANCH   5   8
ENDBRANCH   3   4
ENDBRANCH   2   3
ENDBRANCH   1   2
BRANCH   1  24
ATOM     24  C   UNL     1       4.346  -8.052   0.872  1.00  0.00     0.116 C 
BRANCH  24  25
ATOM     25  N   UNL     1       3.204  -8.750   1.453  1.00  0.00    -0.352 N 
ATOM     26  C   UNL     1       2.900  -8.909   2.788  1.00  0.00     0.251 C 
ATOM     27  H   UNL     1       2.575  -9.157   0.814  1.00  0.00     0.163 HD
ATOM     28  O   UNL     1       2.155  -9.813   3.150  1.00  0.00    -0.269 OA
BRANCH  26  29
ATOM     29  C   UNL     1       3.473  -7.972   3.770  1.00  0.00     0.039 A 
ATOM     30  C   UNL     1       3.927  -8.427   5.012  1.00  0.00     0.014 A 
ATOM     31  C   UNL     1       3.526  -6.617   3.443  1.00  0.00     0.014 A 
ATOM     32  C   UNL     1       4.490  -7.515   5.901  1.00  0.00     0.010 A 
ATOM     33  C   UNL     1       4.172  -5.734   4.275  1.00  0.00     0.010 A 
ATOM     34  C   UNL     1       4.613  -6.172   5.521  1.00  0.00    -0.014 A 
BRANCH  34  35
ATOM     35  C   UNL     1       5.298  -5.214   6.380  1.00  0.00     0.031 A 
ATOM     36  C   UNL     1       6.746  -5.490   6.597  1.00  0.00     0.074 A 
ATOM     37  C   UNL     1       4.737  -4.038   6.733  1.00  0.00     0.049 A 
ATOM     38  N   UNL     1       7.344  -5.785   7.703  1.00  0.00    -0.248 NA
ATOM     39  C   UNL     1       7.621  -5.555   5.412  1.00  0.00     0.031 C 
ATOM     40  C   UNL     1       3.444  -3.486   6.311  1.00  0.00     0.029 A 
ATOM     41  N   UNL     1       5.275  -3.018   7.451  1.00  0.00    -0.354 N 
ATOM     42  C   UNL     1       8.698  -5.880   7.396  1.00  0.00     0.074 A 
ATOM     43  C   UNL     1       8.789  -5.897   5.957  1.00  0.00     0.031 C 
ATOM     44  C   UNL     1       3.410  -2.161   6.579  1.00  0.00     0.029 A 
ATOM     45  C   UNL     1       4.599  -1.808   7.333  1.00  0.00     0.049 A 
ATOM     46  H   UNL     1       6.078  -3.127   8.011  1.00  0.00     0.167 HD
ATOM     47  C   UNL     1       9.671  -5.706   8.334  1.00  0.00     0.031 A 
ATOM     48  C   UNL     1       5.017  -0.600   7.792  1.00  0.00     0.031 A 
ATOM     49  C   UNL     1       9.145  -5.732   9.671  1.00  0.00     0.049 A 
ATOM     50  C   UNL     1       6.037  -0.875   8.836  1.00  0.00     0.074 A 
ATOM     51  C   UNL     1       8.476  -6.671  10.431  1.00  0.00     0.029 A 
ATOM     52  N   UNL     1       8.911  -4.518  10.273  1.00  0.00    -0.354 N 
ATOM     53  N   UNL     1       5.769  -1.479   9.961  1.00  0.00    -0.248 NA
ATOM     54  C   UNL     1       7.435  -0.890   8.437  1.00  0.00     0.031 C 
ATOM     55  C   UNL     1       7.489  -5.927  11.142  1.00  0.00     0.029 A 
ATOM     56  C   UNL     1       7.659  -4.575  10.831  1.00  0.00     0.049 A 
ATOM     57  H   UNL     1       9.528  -3.751  10.300  1.00  0.00     0.167 HD
ATOM     58  C   UNL     1       6.864  -2.298  10.195  1.00  0.00     0.074 A 
ATOM     59  C   UNL     1       7.895  -1.825   9.273  1.00  0.00     0.031 C 
ATOM     60  C   UNL     1       6.745  -3.454  10.913  1.00  0.00     0.031 A 
BRANCH  47  61
ATOM     61  C   UNL     1      11.029  -5.134   8.023  1.00  0.00    -0.014 A 
ATOM     62  C   UNL     1      12.044  -5.177   8.999  1.00  0.00     0.010 A 
ATOM     63  C   UNL     1      11.253  -4.315   6.896  1.00  0.00     0.010 A 
ATOM     64  C   UNL     1      13.209  -4.407   8.866  1.00  0.00     0.020 A 
ATOM     65  C   UNL     1      12.427  -3.579   6.734  1.00  0.00     0.020 A 
ATOM     66  C   UNL     1      13.389  -3.609   7.735  1.00  0.00     0.054 A 
BRANCH  66  67
ATOM     67  S   UNL     1      14.841  -2.534   7.626  1.00  0.00     0.124 S 
ATOM     68  O   UNL     1      14.715  -1.726   8.835  1.00  0.00    -0.237 OA
ATOM     69  O   UNL     1      15.936  -3.500   7.618  1.00  0.00    -0.237 OA
ATOM     70  O   UNL     1      14.641  -1.813   6.370  1.00  0.00    -0.744 OA
ENDBRANCH  66  67
ENDBRANCH  47  61
BRANCH  48  71
ATOM     71  C   UNL     1       4.823   0.749   7.195  1.00  0.00    -0.014 A 
ATOM     72  C   UNL     1       5.163   1.912   7.914  1.00  0.00     0.010 A 
ATOM     73  C   UNL     1       4.574   0.889   5.814  1.00  0.00     0.010 A 
ATOM     74  C   UNL     1       5.319   3.151   7.265  1.00  0.00     0.020 A 
ATOM     75  C   UNL     1       4.721   2.121   5.161  1.00  0.00     0.020 A 
ATOM     76  C   UNL     1       5.125   3.240   5.885  1.00  0.00     0.054 A 
BRANCH  76  77
ATOM     77  S   UNL     1       5.491   4.803   5.029  1.00  0.00     0.124 S 
ATOM     78  O   UNL     1       4.610   5.750   5.707  1.00  0.00    -0.237 OA
ATOM     79  O   UNL     1       6.918   4.970   5.285  1.00  0.00    -0.237 OA
ATOM     80  O   UNL     1       5.141   4.522   3.637  1.00  0.00    -0.744 OA
ENDBRANCH  76  77
ENDBRANCH  48  71
BRANCH  60  81
ATOM     81  C   UNL     1       5.463  -3.707  11.673  1.00  0.00    -0.014 A 
ATOM     82  C   UNL     1       4.224  -3.963  11.052  1.00  0.00     0.010 A 
ATOM     83  C   UNL     1       5.570  -3.894  13.062  1.00  0.00     0.010 A 
ATOM     84  C   UNL     1       3.123  -4.403  11.806  1.00  0.00     0.020 A 
ATOM     85  C   UNL     1       4.483  -4.345  13.814  1.00  0.00     0.020 A 
ATOM     86  C   UNL     1       3.266  -4.604  13.183  1.00  0.00     0.054 A 
BRANCH  86  87
ATOM     87  S   UNL     1       1.867  -5.248  14.146  1.00  0.00     0.124 S 
ATOM     88  O   UNL     1       0.827  -4.250  13.911  1.00  0.00    -0.237 OA
ATOM     89  O   UNL     1       1.634  -6.555  13.535  1.00  0.00    -0.237 OA
ATOM     90  O   UNL     1       2.376  -5.294  15.516  1.00  0.00    -0.744 OA
ENDBRANCH  86  87
ENDBRANCH  60  81
ENDBRANCH  34  35
ENDBRANCH  26  29
ENDBRANCH  24  25
ENDBRANCH   1  24
TORSDOF 15
