REMARK SMILES CCN(Cc1ccccn1)C(=O)[C@H]1CC[C@@H](C(=O)NCCCCNC(=O)c2ccc(-c3c4nc(c(-c5ccc(S(=O)(=O)[O-])cc5)c5ccc([nH]5)c(-c5ccc(S(=O)(=O)[O-])cc5)c5nc(c(-c6ccc(S(=O)(=O)[O-])cc6)c6ccc3[nH]6)C=C5)C=C4)cc2)CC1
REMARK SMILES IDX 21 1 20 2 19 3 17 4 18 5 16 7 13 8 88 9 14 10 87 11 15 12
REMARK SMILES IDX 11 13 12 14 3 15 2 16 1 17 4 18 5 19 6 20 10 21 7 22 9 23
REMARK SMILES IDX 8 24 22 25 23 26 24 27 25 28 26 30 27 31 28 32 86 33 29 34
REMARK SMILES IDX 85 35 30 36 31 37 32 38 79 39 33 40 84 41 78 42 80 43 34 44
REMARK SMILES IDX 83 45 77 46 76 47 35 49 65 50 46 51 64 52 47 53 50 54 63 55
REMARK SMILES IDX 81 56 48 57 49 58 62 60 82 61 51 62 36 63 37 64 45 65 38 66
REMARK SMILES IDX 44 67 39 68 40 69 41 70 42 71 43 72 66 73 67 74 75 75 68 76
REMARK SMILES IDX 74 77 69 78 70 79 71 80 72 81 73 82 52 83 53 84 61 85 54 86
REMARK SMILES IDX 60 87 55 88 56 89 57 90 58 91 59 92
REMARK H PARENT 19 6 24 29 80 48 50 59
REMARK Flexibility Score: inf
ROOT
ATOM      1  C   UNL     1       2.300  -3.444   0.381  1.00  0.00     0.023 C 
ENDROOT
BRANCH   1   2
ATOM      2  C   UNL     1       3.711  -3.551  -0.191  1.00  0.00     0.116 C 
BRANCH   2   3
ATOM      3  N   UNL     1       4.167  -4.910  -0.340  1.00  0.00    -0.356 N 
ATOM      4  C   UNL     1       4.504  -5.623  -1.442  1.00  0.00     0.223 C 
ATOM      5  O   UNL     1       5.013  -6.733  -1.234  1.00  0.00    -0.275 OA
ATOM      6  H   UNL     1       4.247  -5.407   0.506  1.00  0.00     0.163 HD
BRANCH   4   7
ATOM      7  C   UNL     1       4.242  -5.184  -2.893  1.00  0.00     0.078 C 
ATOM      8  C   UNL     1       2.581  -2.683  -3.503  1.00  0.00     0.079 C 
ATOM      9  C   UNL     1       4.138  -2.635  -3.484  1.00  0.00     0.014 C 
ATOM     10  C   UNL     1       1.975  -4.019  -3.055  1.00  0.00     0.014 C 
ATOM     11  C   UNL     1       4.931  -3.942  -3.439  1.00  0.00     0.014 C 
ATOM     12  C   UNL     1       2.790  -5.269  -3.317  1.00  0.00     0.014 C 
BRANCH   8  13
ATOM     13  C   UNL     1       2.011  -1.464  -2.697  1.00  0.00     0.226 C 
ATOM     14  O   UNL     1       2.783  -0.764  -2.028  1.00  0.00    -0.275 OA
BRANCH  13  15
ATOM     15  N   UNL     1       0.662  -1.124  -2.734  1.00  0.00    -0.337 N 
BRANCH  15  16
ATOM     16  C   UNL     1       0.250   0.153  -2.132  1.00  0.00     0.116 C 
ATOM     17  C   UNL     1       0.194   0.116  -0.617  1.00  0.00     0.027 C 
ENDBRANCH  15  16
BRANCH  15  18
ATOM     18  C   UNL     1      -0.409  -1.912  -3.353  1.00  0.00     0.175 C 
BRANCH  18  19
ATOM     19  C   UNL     1      -0.298  -1.966  -4.858  1.00  0.00     0.060 A 
ATOM     20  C   UNL     1      -0.018  -0.811  -5.587  1.00  0.00     0.026 A 
ATOM     21  N   UNL     1      -0.375  -3.190  -5.439  1.00  0.00    -0.259 NA
ATOM     22  C   UNL     1       0.263  -0.926  -6.943  1.00  0.00     0.004 A 
ATOM     23  C   UNL     1      -0.101  -3.271  -6.757  1.00  0.00     0.111 A 
ATOM     24  C   UNL     1       0.234  -2.180  -7.539  1.00  0.00     0.020 A 
ENDBRANCH  18  19
ENDBRANCH  15  18
ENDBRANCH  13  15
ENDBRANCH   8  13
ENDBRANCH   4   7
ENDBRANCH   2   3
ENDBRANCH   1   2
BRANCH   1  25
ATOM     25  C   UNL     1       2.219  -3.161   1.871  1.00  0.00     0.023 C 
BRANCH  25  26
ATOM     26  C   UNL     1       3.062  -1.992   2.360  1.00  0.00     0.116 C 
BRANCH  26  27
ATOM     27  N   UNL     1       2.885  -0.752   1.613  1.00  0.00    -0.352 N 
ATOM     28  C   UNL     1       2.787   0.529   2.126  1.00  0.00     0.251 C 
ATOM     29  H   UNL     1       2.829  -0.836   0.634  1.00  0.00     0.163 HD
ATOM     30  O   UNL     1       2.566   1.503   1.432  1.00  0.00    -0.269 OA
BRANCH  28  31
ATOM     31  C   UNL     1       2.940   0.678   3.582  1.00  0.00     0.039 A 
ATOM     32  C   UNL     1       1.893   1.216   4.333  1.00  0.00     0.014 A 
ATOM     33  C   UNL     1       4.080   0.152   4.191  1.00  0.00     0.014 A 
ATOM     34  C   UNL     1       1.964   1.161   5.723  1.00  0.00     0.010 A 
ATOM     35  C   UNL     1       4.100   0.010   5.567  1.00  0.00     0.010 A 
ATOM     36  C   UNL     1       3.050   0.525   6.345  1.00  0.00    -0.014 A 
BRANCH  36  37
ATOM     37  C   UNL     1       3.163   0.417   7.816  1.00  0.00     0.031 A 
ATOM     38  C   UNL     1       4.330   1.079   8.495  1.00  0.00     0.074 A 
ATOM     39  C   UNL     1       2.301  -0.352   8.507  1.00  0.00     0.049 A 
ATOM     40  N   UNL     1       4.737   0.971   9.731  1.00  0.00    -0.248 NA
ATOM     41  C   UNL     1       5.183   1.937   7.652  1.00  0.00     0.031 C 
ATOM     42  C   UNL     1       1.159  -1.075   7.941  1.00  0.00     0.029 A 
ATOM     43  N   UNL     1       2.264  -0.668   9.841  1.00  0.00    -0.354 N 
ATOM     44  C   UNL     1       5.915   1.706   9.800  1.00  0.00     0.074 A 
ATOM     45  C   UNL     1       6.184   2.210   8.473  1.00  0.00     0.031 C 
ATOM     46  C   UNL     1       0.522  -1.732   8.925  1.00  0.00     0.029 A 
ATOM     47  C   UNL     1       1.233  -1.512  10.180  1.00  0.00     0.049 A 
ATOM     48  H   UNL     1       2.914  -0.323  10.494  1.00  0.00     0.167 HD
ATOM     49  C   UNL     1       6.690   1.957  10.880  1.00  0.00     0.031 A 
ATOM     50  C   UNL     1       0.908  -2.051  11.370  1.00  0.00     0.031 A 
ATOM     51  C   UNL     1       6.382   1.484  12.201  1.00  0.00     0.049 A 
ATOM     52  C   UNL     1       1.759  -1.722  12.566  1.00  0.00     0.074 A 
ATOM     53  C   UNL     1       7.055   1.731  13.383  1.00  0.00     0.029 A 
ATOM     54  N   UNL     1       5.296   0.679  12.514  1.00  0.00    -0.354 N 
ATOM     55  N   UNL     1       2.846  -0.989  12.626  1.00  0.00    -0.248 NA
ATOM     56  C   UNL     1       1.335  -2.281  13.856  1.00  0.00     0.031 C 
ATOM     57  C   UNL     1       6.393   1.047  14.408  1.00  0.00     0.029 A 
ATOM     58  C   UNL     1       5.282   0.414  13.871  1.00  0.00     0.049 A 
ATOM     59  H   UNL     1       4.635   0.346  11.866  1.00  0.00     0.167 HD
ATOM     60  C   UNL     1       3.222  -0.977  13.964  1.00  0.00     0.074 A 
ATOM     61  C   UNL     1       2.237  -1.764  14.680  1.00  0.00     0.031 C 
ATOM     62  C   UNL     1       4.283  -0.370  14.552  1.00  0.00     0.031 A 
BRANCH  49  63
ATOM     63  C   UNL     1       7.932   2.779  10.664  1.00  0.00    -0.014 A 
ATOM     64  C   UNL     1       7.852   4.144  10.332  1.00  0.00     0.010 A 
ATOM     65  C   UNL     1       9.199   2.183  10.800  1.00  0.00     0.010 A 
ATOM     66  C   UNL     1       9.012   4.884  10.089  1.00  0.00     0.020 A 
ATOM     67  C   UNL     1      10.363   2.928  10.589  1.00  0.00     0.020 A 
ATOM     68  C   UNL     1      10.261   4.269  10.215  1.00  0.00     0.054 A 
BRANCH  68  69
ATOM     69  S   UNL     1      11.751   5.258   9.912  1.00  0.00     0.124 S 
ATOM     70  O   UNL     1      11.748   5.367   8.456  1.00  0.00    -0.237 OA
ATOM     71  O   UNL     1      11.467   6.496  10.634  1.00  0.00    -0.237 OA
ATOM     72  O   UNL     1      12.826   4.446  10.475  1.00  0.00    -0.744 OA
ENDBRANCH  68  69
ENDBRANCH  49  63
BRANCH  50  73
ATOM     73  C   UNL     1      -0.289  -2.927  11.492  1.00  0.00    -0.014 A 
ATOM     74  C   UNL     1      -1.445  -2.459  12.143  1.00  0.00     0.010 A 
ATOM     75  C   UNL     1      -0.294  -4.220  10.939  1.00  0.00     0.010 A 
ATOM     76  C   UNL     1      -2.576  -3.273  12.254  1.00  0.00     0.020 A 
ATOM     77  C   UNL     1      -1.433  -5.028  11.026  1.00  0.00     0.020 A 
ATOM     78  C   UNL     1      -2.564  -4.553  11.693  1.00  0.00     0.054 A 
BRANCH  78  79
ATOM     79  S   UNL     1      -4.064  -5.569  11.797  1.00  0.00     0.124 S 
ATOM     80  O   UNL     1      -4.048  -5.991  13.194  1.00  0.00    -0.237 OA
ATOM     81  O   UNL     1      -5.114  -4.620  11.434  1.00  0.00    -0.237 OA
ATOM     82  O   UNL     1      -3.828  -6.628  10.819  1.00  0.00    -0.744 OA
ENDBRANCH  78  79
ENDBRANCH  50  73
BRANCH  62  83
ATOM     83  C   UNL     1       4.410  -0.504  16.043  1.00  0.00    -0.014 A 
ATOM     84  C   UNL     1       4.829  -1.710  16.631  1.00  0.00     0.010 A 
ATOM     85  C   UNL     1       4.164   0.614  16.860  1.00  0.00     0.010 A 
ATOM     86  C   UNL     1       4.969  -1.803  18.018  1.00  0.00     0.020 A 
ATOM     87  C   UNL     1       4.328   0.531  18.244  1.00  0.00     0.020 A 
ATOM     88  C   UNL     1       4.716  -0.682  18.815  1.00  0.00     0.054 A 
BRANCH  88  89
ATOM     89  S   UNL     1       4.947  -0.816  20.608  1.00  0.00     0.124 S 
ATOM     90  O   UNL     1       3.762  -1.569  21.011  1.00  0.00    -0.237 OA
ATOM     91  O   UNL     1       6.215  -1.533  20.717  1.00  0.00    -0.237 OA
ATOM     92  O   UNL     1       4.984   0.575  21.056  1.00  0.00    -0.744 OA
ENDBRANCH  88  89
ENDBRANCH  62  83
ENDBRANCH  36  37
ENDBRANCH  28  31
ENDBRANCH  26  27
ENDBRANCH  25  26
ENDBRANCH   1  25
TORSDOF 19
