REMARK SMILES C[N@H+]1C[C@@H](Oc2cccc3cccnc23)C[C@H]1C(=O)NCCCCNC(=O)c1ccc(-c2c3nc(c(-c4ccc(S(=O)(=O)[O-])cc4)c4ccc([nH]4)c(-c4ccc(S(=O)(=O)[O-])cc4)c4nc(c(-c5ccc(S(=O)(=O)[O-])cc5)c5ccc2[nH]5)C=C4)C=C3)cc1
REMARK SMILES IDX 23 1 22 2 21 3 20 4 18 5 19 6 17 8 1 9 2 10 3 11 4 13 16 14
REMARK SMILES IDX 5 15 6 16 7 17 15 18 8 19 10 20 14 21 9 22 11 23 13 24 12 25
REMARK SMILES IDX 24 26 25 27 26 28 27 30 28 31 29 32 87 33 30 34 86 35 31 36
REMARK SMILES IDX 32 37 33 38 80 39 34 40 85 41 79 42 81 43 35 44 84 45 78 46
REMARK SMILES IDX 77 47 36 49 66 50 47 51 65 52 48 53 51 54 64 55 82 56 49 57
REMARK SMILES IDX 50 58 63 60 83 61 52 62 37 63 38 64 46 65 39 66 45 67 40 68
REMARK SMILES IDX 41 69 42 70 43 71 44 72 67 73 68 74 76 75 69 76 75 77 70 78
REMARK SMILES IDX 71 79 72 80 73 81 74 82 53 83 54 84 62 85 55 86 61 87 56 88
REMARK SMILES IDX 57 89 58 90 59 91 60 92
REMARK H PARENT 20 7 2 12 25 29 81 48 51 59
REMARK Flexibility Score: inf
ROOT
ATOM      1  C   UNL     1      -1.784   2.295   4.335  1.00  0.00     0.023 C 
ENDROOT
BRANCH   1   2
ATOM      2  C   UNL     1      -1.373   1.908   2.913  1.00  0.00     0.023 C 
BRANCH   2   3
ATOM      3  C   UNL     1      -0.347   0.781   2.814  1.00  0.00     0.116 C 
BRANCH   3   4
ATOM      4  N   UNL     1      -0.869  -0.545   2.559  1.00  0.00    -0.351 N 
ATOM      5  C   UNL     1      -0.541  -1.438   1.580  1.00  0.00     0.278 C 
ATOM      6  O   UNL     1      -0.548  -2.629   1.931  1.00  0.00    -0.268 OA
ATOM      7  H   UNL     1      -1.566  -0.848   3.185  1.00  0.00     0.163 HD
BRANCH   5   8
ATOM      8  C   UNL     1      -0.217  -1.124   0.099  1.00  0.00     0.278 C 
ATOM      9  C   UNL     1      -2.046   0.487  -0.390  1.00  0.00     0.333 C 
ATOM     10  N   UNL     1      -0.658   0.135  -0.481  1.00  0.00    -0.324 N 
ATOM     11  C   UNL     1       0.404   1.128  -0.443  1.00  0.00     0.308 C 
ATOM     12  H   UNL     1      -0.794   0.007  -1.484  1.00  0.00     0.348 HD
ATOM     13  C   UNL     1       1.712   0.297  -0.322  1.00  0.00     0.234 C 
ATOM     14  C   UNL     1       1.245  -1.158  -0.321  1.00  0.00     0.126 C 
BRANCH  13  15
ATOM     15  O   UNL     1       2.669   0.792   0.621  1.00  0.00    -0.482 OA
BRANCH  15  16
ATOM     16  C   UNL     1       2.798   0.456   1.943  1.00  0.00     0.146 A 
ATOM     17  C   UNL     1       2.809  -0.859   2.415  1.00  0.00     0.049 A 
ATOM     18  C   UNL     1       3.053   1.520   2.840  1.00  0.00     0.112 A 
ATOM     19  C   UNL     1       2.949  -1.143   3.771  1.00  0.00     0.005 A 
ATOM     20  C   UNL     1       3.266   1.204   4.207  1.00  0.00     0.004 A 
ATOM     21  N   UNL     1       3.079   2.810   2.427  1.00  0.00    -0.252 NA
ATOM     22  C   UNL     1       3.177  -0.113   4.668  1.00  0.00     0.010 A 
ATOM     23  C   UNL     1       3.571   2.232   5.105  1.00  0.00     0.012 A 
ATOM     24  C   UNL     1       3.362   3.780   3.328  1.00  0.00     0.112 A 
ATOM     25  C   UNL     1       3.628   3.542   4.660  1.00  0.00     0.021 A 
ENDBRANCH  15  16
ENDBRANCH  13  15
ENDBRANCH   5   8
ENDBRANCH   3   4
ENDBRANCH   2   3
ENDBRANCH   1   2
BRANCH   1  26
ATOM     26  C   UNL     1      -0.663   2.820   5.230  1.00  0.00     0.116 C 
BRANCH  26  27
ATOM     27  N   UNL     1      -0.052   4.058   4.775  1.00  0.00    -0.352 N 
ATOM     28  C   UNL     1       0.621   5.009   5.514  1.00  0.00     0.251 C 
ATOM     29  H   UNL     1      -0.129   4.243   3.811  1.00  0.00     0.163 HD
ATOM     30  O   UNL     1       1.037   6.026   4.970  1.00  0.00    -0.269 OA
BRANCH  28  31
ATOM     31  C   UNL     1       0.828   4.821   6.973  1.00  0.00     0.039 A 
ATOM     32  C   UNL     1       0.637   5.912   7.826  1.00  0.00     0.014 A 
ATOM     33  C   UNL     1       1.199   3.584   7.508  1.00  0.00     0.014 A 
ATOM     34  C   UNL     1       0.713   5.732   9.211  1.00  0.00     0.010 A 
ATOM     35  C   UNL     1       1.224   3.390   8.885  1.00  0.00     0.010 A 
ATOM     36  C   UNL     1       0.950   4.455   9.748  1.00  0.00    -0.014 A 
BRANCH  36  37
ATOM     37  C   UNL     1       0.756   4.186  11.193  1.00  0.00     0.031 A 
ATOM     38  C   UNL     1       1.901   3.790  12.079  1.00  0.00     0.074 A 
ATOM     39  C   UNL     1      -0.504   4.200  11.669  1.00  0.00     0.049 A 
ATOM     40  N   UNL     1       1.895   3.548  13.364  1.00  0.00    -0.248 NA
ATOM     41  C   UNL     1       3.214   3.613  11.439  1.00  0.00     0.031 C 
ATOM     42  C   UNL     1      -1.704   4.464  10.867  1.00  0.00     0.029 A 
ATOM     43  N   UNL     1      -0.993   3.983  12.931  1.00  0.00    -0.354 N 
ATOM     44  C   UNL     1       3.199   3.193  13.691  1.00  0.00     0.074 A 
ATOM     45  C   UNL     1       3.957   3.200  12.458  1.00  0.00     0.031 C 
ATOM     46  C   UNL     1      -2.783   4.431  11.663  1.00  0.00     0.029 A 
ATOM     47  C   UNL     1      -2.358   4.122  13.022  1.00  0.00     0.049 A 
ATOM     48  H   UNL     1      -0.421   3.751  13.698  1.00  0.00     0.167 HD
ATOM     49  C   UNL     1       3.714   2.906  14.911  1.00  0.00     0.031 A 
ATOM     50  C   UNL     1      -3.177   4.027  14.086  1.00  0.00     0.031 A 
ATOM     51  C   UNL     1       2.937   2.891  16.125  1.00  0.00     0.049 A 
ATOM     52  C   UNL     1      -2.576   3.757  15.435  1.00  0.00     0.074 A 
ATOM     53  C   UNL     1       3.369   2.686  17.424  1.00  0.00     0.029 A 
ATOM     54  N   UNL     1       1.563   3.080  16.188  1.00  0.00    -0.354 N 
ATOM     55  N   UNL     1      -1.319   3.542  15.745  1.00  0.00    -0.248 NA
ATOM     56  C   UNL     1      -3.495   3.744  16.579  1.00  0.00     0.031 C 
ATOM     57  C   UNL     1       2.251   2.703  18.265  1.00  0.00     0.029 A 
ATOM     58  C   UNL     1       1.129   2.976  17.499  1.00  0.00     0.049 A 
ATOM     59  H   UNL     1       0.983   3.262  15.414  1.00  0.00     0.167 HD
ATOM     60  C   UNL     1      -1.293   3.389  17.125  1.00  0.00     0.074 A 
ATOM     61  C   UNL     1      -2.656   3.558  17.589  1.00  0.00     0.031 C 
ATOM     62  C   UNL     1      -0.236   3.134  17.936  1.00  0.00     0.031 A 
BRANCH  49  63
ATOM     63  C   UNL     1       5.187   2.593  14.996  1.00  0.00    -0.014 A 
ATOM     64  C   UNL     1       6.154   3.589  14.759  1.00  0.00     0.010 A 
ATOM     65  C   UNL     1       5.616   1.305  15.366  1.00  0.00     0.010 A 
ATOM     66  C   UNL     1       7.517   3.293  14.849  1.00  0.00     0.020 A 
ATOM     67  C   UNL     1       6.979   1.012  15.484  1.00  0.00     0.020 A 
ATOM     68  C   UNL     1       7.921   2.004  15.208  1.00  0.00     0.054 A 
BRANCH  68  69
ATOM     69  S   UNL     1       9.697   1.655  15.335  1.00  0.00     0.124 S 
ATOM     70  O   UNL     1      10.101   1.637  13.931  1.00  0.00    -0.237 OA
ATOM     71  O   UNL     1      10.191   2.788  16.115  1.00  0.00    -0.237 OA
ATOM     72  O   UNL     1       9.750   0.364  16.015  1.00  0.00    -0.744 OA
ENDBRANCH  68  69
ENDBRANCH  49  63
BRANCH  50  73
ATOM     73  C   UNL     1      -4.637   4.253  13.914  1.00  0.00    -0.014 A 
ATOM     74  C   UNL     1      -5.234   5.435  14.386  1.00  0.00     0.010 A 
ATOM     75  C   UNL     1      -5.430   3.310  13.233  1.00  0.00     0.010 A 
ATOM     76  C   UNL     1      -6.599   5.665  14.194  1.00  0.00     0.020 A 
ATOM     77  C   UNL     1      -6.790   3.549  13.016  1.00  0.00     0.020 A 
ATOM     78  C   UNL     1      -7.368   4.721  13.507  1.00  0.00     0.054 A 
BRANCH  78  79
ATOM     79  S   UNL     1      -9.124   5.071  13.213  1.00  0.00     0.124 S 
ATOM     80  O   UNL     1      -9.701   4.855  14.536  1.00  0.00    -0.237 OA
ATOM     81  O   UNL     1      -9.098   6.457  12.752  1.00  0.00    -0.237 OA
ATOM     82  O   UNL     1      -9.502   4.091  12.197  1.00  0.00    -0.744 OA
ENDBRANCH  78  79
ENDBRANCH  50  73
BRANCH  62  83
ATOM     83  C   UNL     1      -0.517   3.041  19.412  1.00  0.00    -0.014 A 
ATOM     84  C   UNL     1      -1.202   1.940  19.954  1.00  0.00     0.010 A 
ATOM     85  C   UNL     1      -0.059   4.057  20.270  1.00  0.00     0.010 A 
ATOM     86  C   UNL     1      -1.460   1.876  21.325  1.00  0.00     0.020 A 
ATOM     87  C   UNL     1      -0.290   3.982  21.645  1.00  0.00     0.020 A 
ATOM     88  C   UNL     1      -1.005   2.900  22.162  1.00  0.00     0.054 A 
BRANCH  88  89
ATOM     89  S   UNL     1      -1.326   2.780  23.942  1.00  0.00     0.124 S 
ATOM     90  O   UNL     1      -2.748   3.106  24.016  1.00  0.00    -0.237 OA
ATOM     91  O   UNL     1      -0.983   1.391  24.238  1.00  0.00    -0.237 OA
ATOM     92  O   UNL     1      -0.427   3.774  24.524  1.00  0.00    -0.744 OA
ENDBRANCH  88  89
ENDBRANCH  62  83
ENDBRANCH  36  37
ENDBRANCH  28  31
ENDBRANCH  26  27
ENDBRANCH   1  26
TORSDOF 16
