REMARK SMILES CCCCCCNC(=O)Oc1cccc(-c2ccc(CC(=O)NCCCCNC(=O)c3ccc(-c4c5nc(c(-c6ccc(S(=O)(=O)[O-])cc6)c6ccc([nH]6)c(-c6ccc(S(=O)(=O)[O-])cc6)c6nc(c(-c7ccc(S(=O)(=O)[O-])cc7)c7ccc4[nH]7)C=C6)C=C5)cc3)cc2F)c1
REMARK SMILES IDX 21 1 22 2 23 3 20 5 19 6 16 7 17 8 92 9 18 10 91 11 93 12
REMARK SMILES IDX 15 13 11 14 12 15 94 16 13 17 14 18 10 19 8 20 7 21 9 23
REMARK SMILES IDX 6 24 5 25 4 26 3 27 2 28 1 29 24 30 25 31 26 32 27 33 28 34
REMARK SMILES IDX 29 35 30 37 31 38 32 39 90 40 33 41 89 42 34 43 35 44 36 45
REMARK SMILES IDX 83 46 37 47 88 48 82 49 84 50 38 51 87 52 81 53 80 54 39 56
REMARK SMILES IDX 69 57 50 58 68 59 51 60 54 61 67 62 85 63 52 64 53 65 66 67
REMARK SMILES IDX 86 68 55 69 40 70 41 71 49 72 42 73 48 74 43 75 44 76 45 77
REMARK SMILES IDX 46 78 47 79 70 80 71 81 79 82 72 83 78 84 73 85 74 86 75 87
REMARK SMILES IDX 76 88 77 89 56 90 57 91 65 92 58 93 64 94 59 95 60 96 61 97
REMARK SMILES IDX 62 98 63 99
REMARK H PARENT 23 4 7 22 28 36 84 55 54 66
REMARK Flexibility Score: inf
ROOT
ATOM      1  C   UNL     1      -5.431   2.588 -14.402  1.00  0.00     0.224 C 
ATOM      2  O   UNL     1      -5.278   3.395 -15.320  1.00  0.00    -0.275 OA
ATOM      3  N   UNL     1      -6.655   2.005 -14.238  1.00  0.00    -0.356 N 
ATOM      4  H   UNL     1      -7.332   2.242 -14.913  1.00  0.00     0.163 HD
ENDROOT
BRANCH   1   5
ATOM      5  C   UNL     1      -4.277   2.206 -13.490  1.00  0.00     0.135 C 
BRANCH   5   6
ATOM      6  C   UNL     1      -4.441   2.671 -12.064  1.00  0.00    -0.036 A 
ATOM      7  C   UNL     1      -4.858   3.508  -9.387  1.00  0.00     0.018 A 
ATOM      8  C   UNL     1      -4.858   4.434 -10.442  1.00  0.00     0.012 A 
ATOM      9  C   UNL     1      -4.623   2.163  -9.705  1.00  0.00     0.131 A 
ATOM     10  C   UNL     1      -4.648   4.023 -11.764  1.00  0.00     0.005 A 
ATOM     11  C   UNL     1      -4.403   1.747 -11.014  1.00  0.00     0.044 A 
ATOM     12  F   UNL     1      -4.619   1.227  -8.742  1.00  0.00    -0.206 F 
BRANCH   7  13
ATOM     13  C   UNL     1      -5.064   3.938  -7.998  1.00  0.00    -0.012 A 
ATOM     14  C   UNL     1      -4.304   4.020  -5.693  1.00  0.00     0.133 A 
ATOM     15  C   UNL     1      -5.430   4.748  -5.319  1.00  0.00     0.047 A 
ATOM     16  C   UNL     1      -4.129   3.597  -7.009  1.00  0.00     0.056 A 
ATOM     17  C   UNL     1      -6.373   5.088  -6.287  1.00  0.00     0.004 A 
ATOM     18  C   UNL     1      -6.188   4.692  -7.616  1.00  0.00     0.009 A 
BRANCH  14  19
ATOM     19  O   UNL     1      -3.411   3.639  -4.680  1.00  0.00    -0.410 OA
BRANCH  19  20
ATOM     20  C   UNL     1      -2.061   3.866  -4.897  1.00  0.00     0.412 C 
ATOM     21  N   UNL     1      -1.260   3.351  -3.918  1.00  0.00    -0.321 N 
ATOM     22  H   UNL     1      -0.291   3.491  -4.023  1.00  0.00     0.167 HD
ATOM     23  O   UNL     1      -1.566   4.470  -5.846  1.00  0.00    -0.224 OA
BRANCH  21  24
ATOM     24  C   UNL     1      -1.684   2.619  -2.743  1.00  0.00     0.119 C 
BRANCH  24  25
ATOM     25  C   UNL     1      -1.062   1.224  -2.683  1.00  0.00     0.021 C 
BRANCH  25  26
ATOM     26  C   UNL     1       0.469   1.202  -2.584  1.00  0.00     0.002 C 
BRANCH  26  27
ATOM     27  C   UNL     1       1.064   1.943  -1.382  1.00  0.00    -0.000 C 
BRANCH  27  28
ATOM     28  C   UNL     1       0.593   1.454  -0.011  1.00  0.00    -0.003 C 
ATOM     29  C   UNL     1       0.975   0.011   0.278  1.00  0.00     0.004 C 
ENDBRANCH  27  28
ENDBRANCH  26  27
ENDBRANCH  25  26
ENDBRANCH  24  25
ENDBRANCH  21  24
ENDBRANCH  19  20
ENDBRANCH  14  19
ENDBRANCH   7  13
ENDBRANCH   5   6
ENDBRANCH   1   5
BRANCH   3  30
ATOM     30  C   UNL     1      -7.098   1.085 -13.207  1.00  0.00     0.116 C 
BRANCH  30  31
ATOM     31  C   UNL     1      -7.941   1.786 -12.140  1.00  0.00     0.023 C 
BRANCH  31  32
ATOM     32  C   UNL     1      -9.311   2.265 -12.624  1.00  0.00     0.023 C 
BRANCH  32  33
ATOM     33  C   UNL     1     -10.214   1.181 -13.205  1.00  0.00     0.116 C 
BRANCH  33  34
ATOM     34  N   UNL     1     -10.502   0.111 -12.263  1.00  0.00    -0.352 N 
ATOM     35  C   UNL     1     -11.689  -0.553 -12.054  1.00  0.00     0.251 C 
ATOM     36  H   UNL     1      -9.748  -0.177 -11.700  1.00  0.00     0.163 HD
ATOM     37  O   UNL     1     -11.791  -1.357 -11.133  1.00  0.00    -0.269 OA
BRANCH  35  38
ATOM     38  C   UNL     1     -12.851  -0.259 -12.920  1.00  0.00     0.039 A 
ATOM     39  C   UNL     1     -14.084   0.015 -12.325  1.00  0.00     0.014 A 
ATOM     40  C   UNL     1     -12.715  -0.217 -14.311  1.00  0.00     0.014 A 
ATOM     41  C   UNL     1     -15.164   0.408 -13.120  1.00  0.00     0.010 A 
ATOM     42  C   UNL     1     -13.772   0.240 -15.094  1.00  0.00     0.010 A 
ATOM     43  C   UNL     1     -15.004   0.566 -14.507  1.00  0.00    -0.014 A 
BRANCH  43  44
ATOM     44  C   UNL     1     -16.102   1.097 -15.355  1.00  0.00     0.031 A 
ATOM     45  C   UNL     1     -16.709   0.244 -16.435  1.00  0.00     0.074 A 
ATOM     46  C   UNL     1     -16.500   2.377 -15.203  1.00  0.00     0.049 A 
ATOM     47  N   UNL     1     -17.625   0.558 -17.316  1.00  0.00    -0.248 NA
ATOM     48  C   UNL     1     -16.206  -1.135 -16.558  1.00  0.00     0.031 C 
ATOM     49  C   UNL     1     -15.964   3.320 -14.217  1.00  0.00     0.029 A 
ATOM     50  N   UNL     1     -17.442   3.110 -15.881  1.00  0.00    -0.354 N 
ATOM     51  C   UNL     1     -17.792  -0.572 -18.108  1.00  0.00     0.074 A 
ATOM     52  C   UNL     1     -16.855  -1.565 -17.630  1.00  0.00     0.031 C 
ATOM     53  C   UNL     1     -16.605   4.494 -14.337  1.00  0.00     0.029 A 
ATOM     54  C   UNL     1     -17.563   4.405 -15.434  1.00  0.00     0.049 A 
ATOM     55  H   UNL     1     -17.981   2.743 -16.618  1.00  0.00     0.167 HD
ATOM     56  C   UNL     1     -18.656  -0.768 -19.132  1.00  0.00     0.031 A 
ATOM     57  C   UNL     1     -18.348   5.413 -15.864  1.00  0.00     0.031 A 
ATOM     58  C   UNL     1     -19.598   0.217 -19.595  1.00  0.00     0.049 A 
ATOM     59  C   UNL     1     -19.286   5.173 -17.015  1.00  0.00     0.074 A 
ATOM     60  C   UNL     1     -20.565   0.085 -20.576  1.00  0.00     0.029 A 
ATOM     61  N   UNL     1     -19.688   1.515 -19.116  1.00  0.00    -0.354 N 
ATOM     62  N   UNL     1     -19.484   4.072 -17.700  1.00  0.00    -0.248 NA
ATOM     63  C   UNL     1     -20.111   6.310 -17.448  1.00  0.00     0.031 C 
ATOM     64  C   UNL     1     -21.200   1.321 -20.732  1.00  0.00     0.029 A 
ATOM     65  C   UNL     1     -20.671   2.205 -19.805  1.00  0.00     0.049 A 
ATOM     66  H   UNL     1     -19.135   1.890 -18.393  1.00  0.00     0.167 HD
ATOM     67  C   UNL     1     -20.476   4.376 -18.626  1.00  0.00     0.074 A 
ATOM     68  C   UNL     1     -20.846   5.759 -18.404  1.00  0.00     0.031 C 
ATOM     69  C   UNL     1     -21.031   3.581 -19.574  1.00  0.00     0.031 A 
BRANCH  56  70
ATOM     70  C   UNL     1     -18.619  -2.100 -19.836  1.00  0.00    -0.014 A 
ATOM     71  C   UNL     1     -19.078  -3.270 -19.206  1.00  0.00     0.010 A 
ATOM     72  C   UNL     1     -18.170  -2.171 -21.168  1.00  0.00     0.010 A 
ATOM     73  C   UNL     1     -19.056  -4.493 -19.882  1.00  0.00     0.020 A 
ATOM     74  C   UNL     1     -18.172  -3.387 -21.857  1.00  0.00     0.020 A 
ATOM     75  C   UNL     1     -18.601  -4.543 -21.204  1.00  0.00     0.054 A 
BRANCH  75  76
ATOM     76  S   UNL     1     -18.613  -6.139 -22.067  1.00  0.00     0.124 S 
ATOM     77  O   UNL     1     -17.509  -6.841 -21.416  1.00  0.00    -0.237 OA
ATOM     78  O   UNL     1     -19.947  -6.654 -21.768  1.00  0.00    -0.237 OA
ATOM     79  O   UNL     1     -18.385  -5.780 -23.464  1.00  0.00    -0.744 OA
ENDBRANCH  75  76
ENDBRANCH  56  70
BRANCH  57  80
ATOM     80  C   UNL     1     -18.291   6.742 -15.196  1.00  0.00    -0.014 A 
ATOM     81  C   UNL     1     -19.374   7.195 -14.420  1.00  0.00     0.010 A 
ATOM     82  C   UNL     1     -17.158   7.564 -15.332  1.00  0.00     0.010 A 
ATOM     83  C   UNL     1     -19.333   8.453 -13.812  1.00  0.00     0.020 A 
ATOM     84  C   UNL     1     -17.102   8.811 -14.701  1.00  0.00     0.020 A 
ATOM     85  C   UNL     1     -18.196   9.253 -13.956  1.00  0.00     0.054 A 
BRANCH  85  86
ATOM     86  S   UNL     1     -18.150  10.864 -13.123  1.00  0.00     0.124 S 
ATOM     87  O   UNL     1     -19.060  11.656 -13.944  1.00  0.00    -0.237 OA
ATOM     88  O   UNL     1     -18.627  10.540 -11.781  1.00  0.00    -0.237 OA
ATOM     89  O   UNL     1     -16.741  11.247 -13.199  1.00  0.00    -0.744 OA
ENDBRANCH  85  86
ENDBRANCH  57  80
BRANCH  69  90
ATOM     90  C   UNL     1     -22.122   4.172 -20.426  1.00  0.00    -0.014 A 
ATOM     91  C   UNL     1     -21.835   5.123 -21.422  1.00  0.00     0.010 A 
ATOM     92  C   UNL     1     -23.445   3.721 -20.270  1.00  0.00     0.010 A 
ATOM     93  C   UNL     1     -22.857   5.630 -22.229  1.00  0.00     0.020 A 
ATOM     94  C   UNL     1     -24.465   4.204 -21.093  1.00  0.00     0.020 A 
ATOM     95  C   UNL     1     -24.166   5.166 -22.060  1.00  0.00     0.054 A 
BRANCH  95  96
ATOM     96  S   UNL     1     -25.464   5.799 -23.157  1.00  0.00     0.124 S 
ATOM     97  O   UNL     1     -25.660   7.153 -22.646  1.00  0.00    -0.237 OA
ATOM     98  O   UNL     1     -24.843   5.709 -24.476  1.00  0.00    -0.237 OA
ATOM     99  O   UNL     1     -26.581   4.883 -22.938  1.00  0.00    -0.744 OA
ENDBRANCH  95  96
ENDBRANCH  69  90
ENDBRANCH  43  44
ENDBRANCH  35  38
ENDBRANCH  33  34
ENDBRANCH  32  33
ENDBRANCH  31  32
ENDBRANCH  30  31
ENDBRANCH   3  30
TORSDOF 23
