REMARK SMILES CC[NH2+][C@]1(C(=O)NCCCCNC(=O)c2ccc(-c3c4nc(c(-c5ccc(S(=O)(=O)[O-])cc5)c5ccc([nH]5)c(-c5ccc(S(=O)(=O)[O-])cc5)c5nc(c(-c6ccc(S(=O)(=O)[O-])cc6)c6ccc3[nH]6)C=C5)C=C4)cc2)CC[C@H]([N@H+](C)CC[NH+]2CCCC2)C1
REMARK SMILES IDX 9 1 8 2 7 3 5 4 6 5 4 7 75 8 87 9 76 10 77 11 3 12 2 15 1 16
REMARK SMILES IDX 78 17 79 18 80 20 81 21 82 22 83 23 86 24 84 26 85 27 10 28
REMARK SMILES IDX 11 29 12 30 13 31 14 33 15 34 16 35 74 36 17 37 73 38 18 39
REMARK SMILES IDX 19 40 20 41 67 42 21 43 72 44 66 45 68 46 22 47 71 48 65 49
REMARK SMILES IDX 64 50 23 52 53 53 34 54 52 55 35 56 38 57 51 58 69 59 36 60
REMARK SMILES IDX 37 61 50 63 70 64 39 65 24 66 25 67 33 68 26 69 32 70 27 71
REMARK SMILES IDX 28 72 29 73 30 74 31 75 54 76 55 77 63 78 56 79 62 80 57 81
REMARK SMILES IDX 58 82 59 83 60 84 61 85 40 86 41 87 49 88 42 89 48 90 43 91
REMARK SMILES IDX 44 92 45 93 46 94 47 95
REMARK H PARENT 7 6 3 13 3 14 78 19 82 25 12 32 68 51 38 62
REMARK Flexibility Score: inf
ROOT
ATOM      1  C   UNL     1       3.950   4.000   0.210  1.00  0.00     0.023 C 
ENDROOT
BRANCH   1   2
ATOM      2  C   UNL     1       2.551   4.278  -0.328  1.00  0.00     0.116 C 
BRANCH   2   3
ATOM      3  N   UNL     1       1.692   3.112  -0.365  1.00  0.00    -0.351 N 
ATOM      4  C   UNL     1       0.677   2.694   0.445  1.00  0.00     0.281 C 
ATOM      5  O   UNL     1       0.018   1.730   0.031  1.00  0.00    -0.268 OA
ATOM      6  H   UNL     1       1.876   2.506  -1.118  1.00  0.00     0.163 HD
BRANCH   4   7
ATOM      7  C   UNL     1       0.408   3.277   1.870  1.00  0.00     0.181 C 
ATOM      8  C   UNL     1       0.550   4.801   1.982  1.00  0.00     0.085 C 
ATOM      9  C   UNL     1      -1.105   3.133   2.223  1.00  0.00     0.144 C 
ATOM     10  C   UNL     1      -0.302   5.237   3.158  1.00  0.00     0.072 C 
ATOM     11  C   UNL     1      -1.489   4.271   3.193  1.00  0.00     0.191 C 
BRANCH   7  12
ATOM     12  N   UNL     1       1.332   2.624   2.836  1.00  0.00    -0.334 N 
ATOM     13  H   UNL     1       2.289   2.834   2.553  1.00  0.00     0.347 HD
ATOM     14  H   UNL     1       1.099   2.995   3.757  1.00  0.00     0.347 HD
BRANCH  12  15
ATOM     15  C   UNL     1       1.190   1.167   2.925  1.00  0.00     0.257 C 
ATOM     16  C   UNL     1       1.803   0.638   4.217  1.00  0.00     0.071 C 
ENDBRANCH  12  15
ENDBRANCH   7  12
BRANCH  11  17
ATOM     17  N   UNL     1      -1.807   3.997   4.602  1.00  0.00    -0.330 N 
ATOM     18  C   UNL     1      -1.120   2.860   5.197  1.00  0.00     0.333 C 
ATOM     19  H   UNL     1      -1.403   4.805   5.076  1.00  0.00     0.348 HD
BRANCH  17  20
ATOM     20  C   UNL     1      -3.242   4.022   4.911  1.00  0.00     0.324 C 
BRANCH  20  21
ATOM     21  C   UNL     1      -3.590   4.207   6.421  1.00  0.00     0.324 C 
BRANCH  21  22
ATOM     22  N   UNL     1      -3.251   5.443   7.148  1.00  0.00    -0.330 N 
ATOM     23  C   UNL     1      -4.061   6.601   6.777  1.00  0.00     0.262 C 
ATOM     24  C   UNL     1      -1.855   5.879   7.071  1.00  0.00     0.262 C 
ATOM     25  H   UNL     1      -3.453   5.143   8.102  1.00  0.00     0.348 HD
ATOM     26  C   UNL     1      -3.243   7.377   5.766  1.00  0.00     0.067 C 
ATOM     27  C   UNL     1      -1.805   7.104   6.163  1.00  0.00     0.067 C 
ENDBRANCH  21  22
ENDBRANCH  20  21
ENDBRANCH  17  20
ENDBRANCH  11  17
ENDBRANCH   4   7
ENDBRANCH   2   3
ENDBRANCH   1   2
BRANCH   1  28
ATOM     28  C   UNL     1       4.905   3.353  -0.796  1.00  0.00     0.023 C 
BRANCH  28  29
ATOM     29  C   UNL     1       4.934   3.990  -2.184  1.00  0.00     0.116 C 
BRANCH  29  30
ATOM     30  N   UNL     1       5.098   5.436  -2.169  1.00  0.00    -0.352 N 
ATOM     31  C   UNL     1       5.643   6.247  -3.141  1.00  0.00     0.251 C 
ATOM     32  H   UNL     1       4.778   5.895  -1.359  1.00  0.00     0.163 HD
ATOM     33  O   UNL     1       5.759   7.445  -2.953  1.00  0.00    -0.269 OA
BRANCH  31  34
ATOM     34  C   UNL     1       6.133   5.627  -4.392  1.00  0.00     0.039 A 
ATOM     35  C   UNL     1       7.435   5.910  -4.809  1.00  0.00     0.014 A 
ATOM     36  C   UNL     1       5.335   4.735  -5.112  1.00  0.00     0.014 A 
ATOM     37  C   UNL     1       7.962   5.240  -5.913  1.00  0.00     0.010 A 
ATOM     38  C   UNL     1       5.887   4.014  -6.166  1.00  0.00     0.010 A 
ATOM     39  C   UNL     1       7.205   4.259  -6.577  1.00  0.00    -0.014 A 
BRANCH  39  40
ATOM     40  C   UNL     1       7.790   3.478  -7.695  1.00  0.00     0.031 A 
ATOM     41  C   UNL     1       7.225   3.601  -9.083  1.00  0.00     0.074 A 
ATOM     42  C   UNL     1       8.806   2.626  -7.448  1.00  0.00     0.049 A 
ATOM     43  N   UNL     1       7.611   3.009 -10.184  1.00  0.00    -0.248 NA
ATOM     44  C   UNL     1       6.060   4.484  -9.254  1.00  0.00     0.031 C 
ATOM     45  C   UNL     1       9.400   2.375  -6.132  1.00  0.00     0.029 A 
ATOM     46  N   UNL     1       9.521   1.817  -8.294  1.00  0.00    -0.354 N 
ATOM     47  C   UNL     1       6.733   3.438 -11.172  1.00  0.00     0.074 A 
ATOM     48  C   UNL     1       5.760   4.294 -10.530  1.00  0.00     0.031 C 
ATOM     49  C   UNL     1      10.414   1.504  -6.267  1.00  0.00     0.029 A 
ATOM     50  C   UNL     1      10.522   1.112  -7.668  1.00  0.00     0.049 A 
ATOM     51  H   UNL     1       9.334   1.747  -9.258  1.00  0.00     0.167 HD
ATOM     52  C   UNL     1       6.749   3.165 -12.498  1.00  0.00     0.031 A 
ATOM     53  C   UNL     1      11.431   0.253  -8.168  1.00  0.00     0.031 A 
ATOM     54  C   UNL     1       7.725   2.320 -13.134  1.00  0.00     0.049 A 
ATOM     55  C   UNL     1      11.439  -0.022  -9.646  1.00  0.00     0.074 A 
ATOM     56  C   UNL     1       7.862   2.023 -14.479  1.00  0.00     0.029 A 
ATOM     57  N   UNL     1       8.731   1.635 -12.468  1.00  0.00    -0.354 N 
ATOM     58  N   UNL     1      10.645   0.453 -10.577  1.00  0.00    -0.248 NA
ATOM     59  C   UNL     1      12.477  -0.935 -10.143  1.00  0.00     0.031 C 
ATOM     60  C   UNL     1       8.924   1.123 -14.621  1.00  0.00     0.029 A 
ATOM     61  C   UNL     1       9.482   0.902 -13.371  1.00  0.00     0.049 A 
ATOM     62  H   UNL     1       8.888   1.666 -11.497  1.00  0.00     0.167 HD
ATOM     63  C   UNL     1      11.105  -0.084 -11.774  1.00  0.00     0.074 A 
ATOM     64  C   UNL     1      12.256  -0.902 -11.450  1.00  0.00     0.031 C 
ATOM     65  C   UNL     1      10.619   0.086 -13.030  1.00  0.00     0.031 A 
BRANCH  52  66
ATOM     66  C   UNL     1       5.675   3.792 -13.348  1.00  0.00    -0.014 A 
ATOM     67  C   UNL     1       5.660   5.178 -13.590  1.00  0.00     0.010 A 
ATOM     68  C   UNL     1       4.684   2.985 -13.934  1.00  0.00     0.010 A 
ATOM     69  C   UNL     1       4.648   5.751 -14.365  1.00  0.00     0.020 A 
ATOM     70  C   UNL     1       3.686   3.551 -14.735  1.00  0.00     0.020 A 
ATOM     71  C   UNL     1       3.665   4.933 -14.930  1.00  0.00     0.054 A 
BRANCH  71  72
ATOM     72  S   UNL     1       2.375   5.702 -15.947  1.00  0.00     0.124 S 
ATOM     73  O   UNL     1       1.546   6.356 -14.937  1.00  0.00    -0.237 OA
ATOM     74  O   UNL     1       3.138   6.599 -16.809  1.00  0.00    -0.237 OA
ATOM     75  O   UNL     1       1.750   4.570 -16.627  1.00  0.00    -0.744 OA
ENDBRANCH  71  72
ENDBRANCH  52  66
BRANCH  53  76
ATOM     76  C   UNL     1      12.431  -0.380  -7.265  1.00  0.00    -0.014 A 
ATOM     77  C   UNL     1      13.784   0.001  -7.320  1.00  0.00     0.010 A 
ATOM     78  C   UNL     1      12.034  -1.358  -6.335  1.00  0.00     0.010 A 
ATOM     79  C   UNL     1      14.724  -0.598  -6.477  1.00  0.00     0.020 A 
ATOM     80  C   UNL     1      12.967  -1.940  -5.471  1.00  0.00     0.020 A 
ATOM     81  C   UNL     1      14.309  -1.564  -5.556  1.00  0.00     0.054 A 
BRANCH  81  82
ATOM     82  S   UNL     1      15.537  -2.291  -4.435  1.00  0.00     0.124 S 
ATOM     83  O   UNL     1      16.265  -3.190  -5.324  1.00  0.00    -0.237 OA
ATOM     84  O   UNL     1      16.277  -1.119  -3.974  1.00  0.00    -0.237 OA
ATOM     85  O   UNL     1      14.721  -2.944  -3.413  1.00  0.00    -0.744 OA
ENDBRANCH  81  82
ENDBRANCH  53  76
BRANCH  65  86
ATOM     86  C   UNL     1      11.352  -0.606 -14.148  1.00  0.00    -0.014 A 
ATOM     87  C   UNL     1      11.290  -2.002 -14.307  1.00  0.00     0.010 A 
ATOM     88  C   UNL     1      12.090   0.158 -15.070  1.00  0.00     0.010 A 
ATOM     89  C   UNL     1      11.992  -2.626 -15.341  1.00  0.00     0.020 A 
ATOM     90  C   UNL     1      12.770  -0.460 -16.122  1.00  0.00     0.020 A 
ATOM     91  C   UNL     1      12.732  -1.850 -16.239  1.00  0.00     0.054 A 
BRANCH  91  92
ATOM     92  S   UNL     1      13.621  -2.680 -17.585  1.00  0.00     0.124 S 
ATOM     93  O   UNL     1      14.764  -3.258 -16.882  1.00  0.00    -0.237 OA
ATOM     94  O   UNL     1      12.636  -3.639 -18.078  1.00  0.00    -0.237 OA
ATOM     95  O   UNL     1      13.942  -1.595 -18.509  1.00  0.00    -0.744 OA
ENDBRANCH  91  92
ENDBRANCH  65  86
ENDBRANCH  39  40
ENDBRANCH  31  34
ENDBRANCH  29  30
ENDBRANCH  28  29
ENDBRANCH   1  28
TORSDOF 20
