REMARK SMILES CS(=O)(=O)c1ccc(N2N=C(C(=O)NCCCCNC(=O)c3ccc(-c4c5nc(c(-c6ccc(S(=O)(=O)[O-])cc6)c6ccc([nH]6)c(-c6ccc(S(=O)(=O)[O-])cc6)c6nc(c(-c7ccc(S(=O)(=O)[O-])cc7)c7ccc4[nH]7)C=C6)C=C5)cc3)C[C@H]2c2ccco2)cc1
REMARK SMILES IDX 17 1 16 2 15 3 14 4 12 5 13 6 11 8 9 9 10 10 83 11 82 12
REMARK SMILES IDX 8 13 5 14 6 15 90 16 7 17 89 18 2 19 1 20 3 21 4 22 84 23
REMARK SMILES IDX 85 24 88 25 86 26 87 27 18 28 19 29 20 30 21 32 22 33 23 34
REMARK SMILES IDX 81 35 24 36 80 37 25 38 26 39 27 40 74 41 28 42 79 43 73 44
REMARK SMILES IDX 75 45 29 46 78 47 72 48 71 49 30 51 60 52 41 53 59 54 42 55
REMARK SMILES IDX 45 56 58 57 76 58 43 59 44 60 57 62 77 63 46 64 31 65 32 66
REMARK SMILES IDX 40 67 33 68 39 69 34 70 35 71 36 72 37 73 38 74 61 75 62 76
REMARK SMILES IDX 70 77 63 78 69 79 64 80 65 81 66 82 67 83 68 84 47 85 48 86
REMARK SMILES IDX 56 87 49 88 55 89 50 90 51 91 52 92 53 93 54 94
REMARK H PARENT 14 7 19 31 75 50 45 61
REMARK Flexibility Score: inf
ROOT
ATOM      1  C   UNL     1       1.709 -12.297   5.795  1.00  0.00     0.023 C 
ENDROOT
BRANCH   1   2
ATOM      2  C   UNL     1       1.248 -10.859   6.038  1.00  0.00     0.023 C 
BRANCH   2   3
ATOM      3  C   UNL     1       2.382  -9.848   6.184  1.00  0.00     0.116 C 
BRANCH   3   4
ATOM      4  N   UNL     1       2.972  -9.523   4.899  1.00  0.00    -0.351 N 
ATOM      5  C   UNL     1       3.021  -8.396   4.117  1.00  0.00     0.267 C 
ATOM      6  O   UNL     1       3.562  -8.490   3.017  1.00  0.00    -0.268 OA
ATOM      7  H   UNL     1       3.445 -10.286   4.494  1.00  0.00     0.163 HD
BRANCH   5   8
ATOM      8  C   UNL     1       2.479  -7.036   4.536  1.00  0.00     0.128 C 
ATOM      9  N   UNL     1       2.169  -4.913   4.483  1.00  0.00    -0.254 N 
ATOM     10  N   UNL     1       2.645  -5.987   3.786  1.00  0.00    -0.171 NA
ATOM     11  C   UNL     1       1.438  -5.303   5.698  1.00  0.00     0.180 C 
ATOM     12  C   UNL     1       1.751  -6.797   5.810  1.00  0.00     0.099 C 
BRANCH   9  13
ATOM     13  C   UNL     1       1.768  -3.773   3.781  1.00  0.00     0.060 A 
ATOM     14  C   UNL     1       0.888  -1.461   2.455  1.00  0.00     0.067 A 
ATOM     15  C   UNL     1       0.580  -2.717   1.930  1.00  0.00     0.022 A 
ATOM     16  C   UNL     1       1.640  -1.343   3.623  1.00  0.00     0.022 A 
ATOM     17  C   UNL     1       1.037  -3.865   2.587  1.00  0.00     0.029 A 
ATOM     18  C   UNL     1       2.076  -2.498   4.274  1.00  0.00     0.029 A 
BRANCH  14  19
ATOM     19  S   UNL     1       0.294  -0.003   1.636  1.00  0.00     0.175 S 
ATOM     20  C   UNL     1       1.110  -0.026   0.063  1.00  0.00     0.163 C 
ATOM     21  O   UNL     1       0.789   1.151   2.366  1.00  0.00    -0.224 OA
ATOM     22  O   UNL     1      -1.128  -0.186   1.419  1.00  0.00    -0.224 OA
ENDBRANCH  14  19
ENDBRANCH   9  13
BRANCH  11  23
ATOM     23  C   UNL     1       1.739  -4.553   6.965  1.00  0.00     0.128 A 
ATOM     24  C   UNL     1       1.261  -3.367   7.490  1.00  0.00     0.048 A 
ATOM     25  O   UNL     1       2.634  -5.104   7.840  1.00  0.00    -0.467 OA
ATOM     26  C   UNL     1       1.904  -3.186   8.739  1.00  0.00     0.042 A 
ATOM     27  C   UNL     1       2.720  -4.277   8.911  1.00  0.00     0.195 A 
ENDBRANCH  11  23
ENDBRANCH   5   8
ENDBRANCH   3   4
ENDBRANCH   2   3
ENDBRANCH   1   2
BRANCH   1  28
ATOM     28  C   UNL     1       2.651 -12.873   6.851  1.00  0.00     0.116 C 
BRANCH  28  29
ATOM     29  N   UNL     1       2.135 -12.767   8.208  1.00  0.00    -0.352 N 
ATOM     30  C   UNL     1       2.181 -13.692   9.224  1.00  0.00     0.251 C 
ATOM     31  H   UNL     1       1.693 -11.915   8.429  1.00  0.00     0.163 HD
ATOM     32  O   UNL     1       1.604 -13.471  10.284  1.00  0.00    -0.269 OA
BRANCH  30  33
ATOM     33  C   UNL     1       2.892 -14.969   9.011  1.00  0.00     0.039 A 
ATOM     34  C   UNL     1       2.227 -16.165   9.291  1.00  0.00     0.014 A 
ATOM     35  C   UNL     1       4.188 -14.985   8.487  1.00  0.00     0.014 A 
ATOM     36  C   UNL     1       2.828 -17.380   8.961  1.00  0.00     0.010 A 
ATOM     37  C   UNL     1       4.758 -16.194   8.100  1.00  0.00     0.010 A 
ATOM     38  C   UNL     1       4.077 -17.401   8.318  1.00  0.00    -0.014 A 
BRANCH  38  39
ATOM     39  C   UNL     1       4.663 -18.671   7.819  1.00  0.00     0.031 A 
ATOM     40  C   UNL     1       5.951 -19.192   8.389  1.00  0.00     0.074 A 
ATOM     41  C   UNL     1       4.070 -19.311   6.791  1.00  0.00     0.049 A 
ATOM     42  N   UNL     1       6.643 -20.243   8.033  1.00  0.00    -0.248 NA
ATOM     43  C   UNL     1       6.554 -18.418   9.487  1.00  0.00     0.031 C 
ATOM     44  C   UNL     1       2.842 -18.879   6.117  1.00  0.00     0.029 A 
ATOM     45  N   UNL     1       4.427 -20.456   6.124  1.00  0.00    -0.354 N 
ATOM     46  C   UNL     1       7.767 -20.251   8.848  1.00  0.00     0.074 A 
ATOM     47  C   UNL     1       7.687 -19.076   9.689  1.00  0.00     0.031 C 
ATOM     48  C   UNL     1       2.537 -19.760   5.150  1.00  0.00     0.029 A 
ATOM     49  C   UNL     1       3.565 -20.795   5.108  1.00  0.00     0.049 A 
ATOM     50  H   UNL     1       5.225 -20.986   6.352  1.00  0.00     0.167 HD
ATOM     51  C   UNL     1       8.768 -21.162   8.904  1.00  0.00     0.031 A 
ATOM     52  C   UNL     1       3.600 -21.818   4.232  1.00  0.00     0.031 A 
ATOM     53  C   UNL     1       8.841 -22.335   8.074  1.00  0.00     0.049 A 
ATOM     54  C   UNL     1       4.725 -22.811   4.308  1.00  0.00     0.074 A 
ATOM     55  C   UNL     1       9.779 -23.352   8.102  1.00  0.00     0.029 A 
ATOM     56  N   UNL     1       7.946 -22.645   7.061  1.00  0.00    -0.354 N 
ATOM     57  N   UNL     1       5.741 -22.841   5.137  1.00  0.00    -0.248 NA
ATOM     58  C   UNL     1       4.707 -23.910   3.333  1.00  0.00     0.031 C 
ATOM     59  C   UNL     1       9.478 -24.253   7.075  1.00  0.00     0.029 A 
ATOM     60  C   UNL     1       8.325 -23.822   6.438  1.00  0.00     0.049 A 
ATOM     61  H   UNL     1       7.157 -22.107   6.820  1.00  0.00     0.167 HD
ATOM     62  C   UNL     1       6.476 -23.969   4.792  1.00  0.00     0.074 A 
ATOM     63  C   UNL     1       5.778 -24.605   3.693  1.00  0.00     0.031 C 
ATOM     64  C   UNL     1       7.627 -24.434   5.336  1.00  0.00     0.031 A 
BRANCH  51  65
ATOM     65  C   UNL     1       9.870 -20.920   9.900  1.00  0.00    -0.014 A 
ATOM     66  C   UNL     1       9.643 -21.068  11.281  1.00  0.00     0.010 A 
ATOM     67  C   UNL     1      11.157 -20.574   9.451  1.00  0.00     0.010 A 
ATOM     68  C   UNL     1      10.672 -20.830  12.196  1.00  0.00     0.020 A 
ATOM     69  C   UNL     1      12.196 -20.361  10.362  1.00  0.00     0.020 A 
ATOM     70  C   UNL     1      11.941 -20.472  11.730  1.00  0.00     0.054 A 
BRANCH  70  71
ATOM     71  S   UNL     1      13.261 -20.184  12.940  1.00  0.00     0.124 S 
ATOM     72  O   UNL     1      12.890 -18.880  13.484  1.00  0.00    -0.237 OA
ATOM     73  O   UNL     1      13.111 -21.312  13.856  1.00  0.00    -0.237 OA
ATOM     74  O   UNL     1      14.479 -20.198  12.133  1.00  0.00    -0.744 OA
ENDBRANCH  70  71
ENDBRANCH  51  65
BRANCH  52  75
ATOM     75  C   UNL     1       2.526 -21.957   3.213  1.00  0.00    -0.014 A 
ATOM     76  C   UNL     1       1.559 -22.971   3.333  1.00  0.00     0.010 A 
ATOM     77  C   UNL     1       2.451 -21.063   2.129  1.00  0.00     0.010 A 
ATOM     78  C   UNL     1       0.542 -23.095   2.381  1.00  0.00     0.020 A 
ATOM     79  C   UNL     1       1.422 -21.170   1.189  1.00  0.00     0.020 A 
ATOM     80  C   UNL     1       0.479 -22.192   1.316  1.00  0.00     0.054 A 
BRANCH  80  81
ATOM     81  S   UNL     1      -0.885 -22.331   0.128  1.00  0.00     0.124 S 
ATOM     82  O   UNL     1      -0.471 -23.477  -0.675  1.00  0.00    -0.237 OA
ATOM     83  O   UNL     1      -2.040 -22.550   0.996  1.00  0.00    -0.237 OA
ATOM     84  O   UNL     1      -0.870 -21.043  -0.561  1.00  0.00    -0.744 OA
ENDBRANCH  80  81
ENDBRANCH  52  75
BRANCH  64  85
ATOM     85  C   UNL     1       8.202 -25.697   4.755  1.00  0.00    -0.014 A 
ATOM     86  C   UNL     1       8.840 -25.690   3.502  1.00  0.00     0.010 A 
ATOM     87  C   UNL     1       8.148 -26.893   5.492  1.00  0.00     0.010 A 
ATOM     88  C   UNL     1       9.392 -26.864   2.985  1.00  0.00     0.020 A 
ATOM     89  C   UNL     1       8.721 -28.064   4.989  1.00  0.00     0.020 A 
ATOM     90  C   UNL     1       9.328 -28.045   3.732  1.00  0.00     0.054 A 
BRANCH  90  91
ATOM     91  S   UNL     1      10.093 -29.546   3.060  1.00  0.00     0.124 S 
ATOM     92  O   UNL     1       9.129 -29.948   2.040  1.00  0.00    -0.237 OA
ATOM     93  O   UNL     1      11.374 -29.057   2.556  1.00  0.00    -0.237 OA
ATOM     94  O   UNL     1      10.185 -30.434   4.217  1.00  0.00    -0.744 OA
ENDBRANCH  90  91
ENDBRANCH  64  85
ENDBRANCH  38  39
ENDBRANCH  30  33
ENDBRANCH  28  29
ENDBRANCH   1  28
TORSDOF 17
