REMARK SMILES Cc1cc(NC(=O)[C@H]2[C@@H](C(=O)NCCCCNC(=O)c3ccc(-c4c5nc(c(-c6ccc(S(=O)(=O)[O-])cc6)c6ccc([nH]6)c(-c6ccc(S(=O)(=O)[O-])cc6)c6nc(c(-c7ccc(S(=O)(=O)[O-])cc7)c7ccc4[nH]7)C=C6)C=C5)cc3)C2(C)C)n(-c2ccc(F)cc2)n1
REMARK SMILES IDX 14 1 13 2 12 3 10 4 11 5 9 7 8 8 80 9 81 10 82 11 6 12 5 13
REMARK SMILES IDX 7 15 4 16 1 17 2 18 3 19 91 20 83 21 84 22 85 23 90 24 86 25
REMARK SMILES IDX 89 26 87 27 88 28 15 29 16 30 17 31 18 32 19 34 20 35 21 36
REMARK SMILES IDX 79 37 22 38 78 39 23 40 24 41 25 42 72 43 26 44 77 45 71 46
REMARK SMILES IDX 73 47 27 48 76 49 70 50 69 51 28 53 58 54 39 55 57 56 40 57
REMARK SMILES IDX 43 58 56 59 74 60 41 61 42 62 55 64 75 65 44 66 29 67 30 68
REMARK SMILES IDX 38 69 31 70 37 71 32 72 33 73 34 74 35 75 36 76 59 77 60 78
REMARK SMILES IDX 68 79 61 80 67 81 62 82 63 83 64 84 65 85 66 86 45 87 46 88
REMARK SMILES IDX 54 89 47 90 53 91 48 92 49 93 50 94 51 95 52 96
REMARK H PARENT 12 6 5 14 17 33 73 52 43 63
REMARK Flexibility Score: inf
ROOT
ATOM      1  C   UNL     1       1.567   2.100   3.385  1.00  0.00     0.023 C 
ENDROOT
BRANCH   1   2
ATOM      2  C   UNL     1       0.794   3.361   3.820  1.00  0.00     0.116 C 
BRANCH   2   3
ATOM      3  N   UNL     1       1.490   4.597   4.151  1.00  0.00    -0.356 N 
ATOM      4  C   UNL     1       1.561   5.875   3.594  1.00  0.00     0.224 C 
ATOM      5  O   UNL     1       2.285   6.670   4.190  1.00  0.00    -0.275 OA
ATOM      6  H   UNL     1       2.043   4.510   4.962  1.00  0.00     0.163 HD
BRANCH   4   7
ATOM      7  C   UNL     1       0.911   6.406   2.281  1.00  0.00     0.098 C 
ATOM      8  C   UNL     1      -0.339   5.885   1.810  1.00  0.00     0.098 C 
ATOM      9  C   UNL     1       1.091   5.692   0.682  1.00  0.00    -0.011 C 
ATOM     10  C   UNL     1       2.498   4.789   1.315  1.00  0.00     0.013 C 
ATOM     11  C   UNL     1       0.942   6.225  -1.417  1.00  0.00     0.013 C 
BRANCH   8  12
ATOM     12  C   UNL     1      -1.288   4.897   2.346  1.00  0.00     0.230 C 
ATOM     13  N   UNL     1      -1.743   3.689   1.724  1.00  0.00    -0.310 N 
ATOM     14  H   UNL     1      -2.627   3.374   2.021  1.00  0.00     0.171 HD
ATOM     15  O   UNL     1      -1.882   5.140   3.385  1.00  0.00    -0.274 OA
BRANCH  13  16
ATOM     16  C   UNL     1      -1.126   2.897   0.767  1.00  0.00     0.136 A 
ATOM     17  C   UNL     1       0.558  -0.281   0.097  1.00  0.00     0.069 C 
ATOM     18  C   UNL     1      -0.084   1.059   0.100  1.00  0.00     0.062 A 
ATOM     19  C   UNL     1      -1.153   1.520   0.900  1.00  0.00     0.072 A 
ATOM     20  N   UNL     1       0.437   2.045  -0.633  1.00  0.00    -0.171 NA
ATOM     21  N   UNL     1      -0.249   3.154  -0.272  1.00  0.00    -0.217 N 
BRANCH  21  22
ATOM     22  C   UNL     1       0.188   4.406  -0.725  1.00  0.00     0.067 A 
ATOM     23  C   UNL     1       1.966   4.529  -0.929  1.00  0.00     0.031 A 
ATOM     24  C   UNL     1      -0.808   5.873  -0.405  1.00  0.00     0.031 A 
ATOM     25  C   UNL     1       2.801   6.130  -0.596  1.00  0.00     0.041 A 
ATOM     26  C   UNL     1       0.024   7.458  -0.091  1.00  0.00     0.041 A 
ATOM     27  C   UNL     1       1.829   7.552  -0.107  1.00  0.00     0.123 A 
ATOM     28  F   UNL     1       2.425   8.736   0.075  1.00  0.00    -0.207 F 
ENDBRANCH  21  22
ENDBRANCH  13  16
ENDBRANCH   8  12
ENDBRANCH   4   7
ENDBRANCH   2   3
ENDBRANCH   1   2
BRANCH   1  29
ATOM     29  C   UNL     1       2.265   1.241   4.421  1.00  0.00     0.023 C 
BRANCH  29  30
ATOM     30  C   UNL     1       1.347   0.739   5.516  1.00  0.00     0.116 C 
BRANCH  30  31
ATOM     31  N   UNL     1       0.244  -0.100   5.022  1.00  0.00    -0.352 N 
ATOM     32  C   UNL     1      -0.770  -0.667   5.784  1.00  0.00     0.251 C 
ATOM     33  H   UNL     1       0.222  -0.277   4.054  1.00  0.00     0.163 HD
ATOM     34  O   UNL     1      -1.429  -1.610   5.368  1.00  0.00    -0.269 OA
BRANCH  32  35
ATOM     35  C   UNL     1      -1.058  -0.042   7.085  1.00  0.00     0.039 A 
ATOM     36  C   UNL     1      -1.171  -0.754   8.284  1.00  0.00     0.014 A 
ATOM     37  C   UNL     1      -1.079   1.347   7.065  1.00  0.00     0.014 A 
ATOM     38  C   UNL     1      -1.232  -0.035   9.478  1.00  0.00     0.010 A 
ATOM     39  C   UNL     1      -0.891   2.023   8.231  1.00  0.00     0.010 A 
ATOM     40  C   UNL     1      -1.075   1.358   9.437  1.00  0.00    -0.014 A 
BRANCH  40  41
ATOM     41  C   UNL     1      -0.917   2.192  10.622  1.00  0.00     0.031 A 
ATOM     42  C   UNL     1       0.300   1.855  11.412  1.00  0.00     0.074 A 
ATOM     43  C   UNL     1      -1.630   3.342  10.735  1.00  0.00     0.049 A 
ATOM     44  N   UNL     1       0.343   1.380  12.612  1.00  0.00    -0.248 NA
ATOM     45  C   UNL     1       1.615   1.844  10.734  1.00  0.00     0.031 C 
ATOM     46  C   UNL     1      -2.651   3.863   9.810  1.00  0.00     0.029 A 
ATOM     47  N   UNL     1      -1.503   4.375  11.607  1.00  0.00    -0.354 N 
ATOM     48  C   UNL     1       1.695   1.297  12.932  1.00  0.00     0.074 A 
ATOM     49  C   UNL     1       2.404   1.332  11.682  1.00  0.00     0.031 C 
ATOM     50  C   UNL     1      -2.831   5.186  10.020  1.00  0.00     0.029 A 
ATOM     51  C   UNL     1      -2.051   5.587  11.176  1.00  0.00     0.049 A 
ATOM     52  H   UNL     1      -1.057   4.277  12.479  1.00  0.00     0.167 HD
ATOM     53  C   UNL     1       2.131   1.550  14.199  1.00  0.00     0.031 A 
ATOM     54  C   UNL     1      -1.844   6.829  11.701  1.00  0.00     0.031 A 
ATOM     55  C   UNL     1       1.028   1.584  15.127  1.00  0.00     0.049 A 
ATOM     56  C   UNL     1      -1.301   6.622  13.069  1.00  0.00     0.074 A 
ATOM     57  C   UNL     1       0.040   0.688  15.485  1.00  0.00     0.029 A 
ATOM     58  N   UNL     1       0.571   2.831  15.491  1.00  0.00    -0.354 N 
ATOM     59  N   UNL     1      -2.000   6.069  14.022  1.00  0.00    -0.248 NA
ATOM     60  C   UNL     1       0.144   6.509  13.209  1.00  0.00     0.031 C 
ATOM     61  C   UNL     1      -1.143   1.476  15.585  1.00  0.00     0.029 A 
ATOM     62  C   UNL     1      -0.798   2.819  15.414  1.00  0.00     0.049 A 
ATOM     63  H   UNL     1       1.129   3.596  15.760  1.00  0.00     0.167 HD
ATOM     64  C   UNL     1      -1.134   5.154  14.604  1.00  0.00     0.074 A 
ATOM     65  C   UNL     1       0.197   5.523  14.111  1.00  0.00     0.031 C 
ATOM     66  C   UNL     1      -1.602   3.994  15.155  1.00  0.00     0.031 A 
BRANCH  53  67
ATOM     67  C   UNL     1       3.451   2.210  14.523  1.00  0.00    -0.014 A 
ATOM     68  C   UNL     1       3.794   2.392  15.878  1.00  0.00     0.010 A 
ATOM     69  C   UNL     1       4.226   2.904  13.571  1.00  0.00     0.010 A 
ATOM     70  C   UNL     1       4.808   3.278  16.261  1.00  0.00     0.020 A 
ATOM     71  C   UNL     1       5.267   3.758  13.939  1.00  0.00     0.020 A 
ATOM     72  C   UNL     1       5.531   3.964  15.286  1.00  0.00     0.054 A 
BRANCH  72  73
ATOM     73  S   UNL     1       6.782   5.167  15.793  1.00  0.00     0.124 S 
ATOM     74  O   UNL     1       5.971   6.181  16.457  1.00  0.00    -0.237 OA
ATOM     75  O   UNL     1       7.639   4.366  16.663  1.00  0.00    -0.237 OA
ATOM     76  O   UNL     1       7.392   5.576  14.530  1.00  0.00    -0.744 OA
ENDBRANCH  72  73
ENDBRANCH  53  67
BRANCH  54  77
ATOM     77  C   UNL     1      -1.737   8.135  10.978  1.00  0.00    -0.014 A 
ATOM     78  C   UNL     1      -1.613   9.365  11.662  1.00  0.00     0.010 A 
ATOM     79  C   UNL     1      -1.464   8.147   9.595  1.00  0.00     0.010 A 
ATOM     80  C   UNL     1      -1.155  10.529  11.004  1.00  0.00     0.020 A 
ATOM     81  C   UNL     1      -1.014   9.298   8.934  1.00  0.00     0.020 A 
ATOM     82  C   UNL     1      -0.829  10.478   9.646  1.00  0.00     0.054 A 
BRANCH  82  83
ATOM     83  S   UNL     1      -0.023  11.899   8.839  1.00  0.00     0.124 S 
ATOM     84  O   UNL     1      -1.109  12.870   8.755  1.00  0.00    -0.237 OA
ATOM     85  O   UNL     1       1.053  12.226   9.769  1.00  0.00    -0.237 OA
ATOM     86  O   UNL     1       0.418  11.355   7.554  1.00  0.00    -0.744 OA
ENDBRANCH  82  83
ENDBRANCH  54  77
BRANCH  66  87
ATOM     87  C   UNL     1      -3.096   3.824  15.334  1.00  0.00    -0.014 A 
ATOM     88  C   UNL     1      -4.031   3.797  14.277  1.00  0.00     0.010 A 
ATOM     89  C   UNL     1      -3.542   3.503  16.626  1.00  0.00     0.010 A 
ATOM     90  C   UNL     1      -5.381   3.488  14.521  1.00  0.00     0.020 A 
ATOM     91  C   UNL     1      -4.876   3.176  16.872  1.00  0.00     0.020 A 
ATOM     92  C   UNL     1      -5.793   3.184  15.822  1.00  0.00     0.054 A 
BRANCH  92  93
ATOM     93  S   UNL     1      -7.531   2.773  16.142  1.00  0.00     0.124 S 
ATOM     94  O   UNL     1      -8.207   4.043  15.894  1.00  0.00    -0.237 OA
ATOM     95  O   UNL     1      -7.800   1.717  15.168  1.00  0.00    -0.237 OA
ATOM     96  O   UNL     1      -7.534   2.333  17.537  1.00  0.00    -0.744 OA
ENDBRANCH  92  93
ENDBRANCH  66  87
ENDBRANCH  40  41
ENDBRANCH  32  35
ENDBRANCH  30  31
ENDBRANCH  29  30
ENDBRANCH   1  29
TORSDOF 17
