REMARK SMILES Cc1ccc(S(=O)(=O)n2cc(C(=O)C(=O)NCC(=O)N[C@H](Cc3c[nH]c4ccccc34)C(=O)NCCCCNC(=O)c3ccc(-c4c5nc(c(-c6ccc(S(=O)(=O)[O-])cc6)c6ccc([nH]6)c(-c6ccc(S(=O)(=O)[O-])cc6)c6nc(c(-c7ccc(S(=O)(=O)[O-])cc7)c7ccc4[nH]7)C=C6)C=C5)cc3)c3ccccc32)cc1
REMARK SMILES IDX 32 1 33 2 34 3 21 5 20 6 18 7 19 8 17 10 16 11 14 12 15 13
REMARK SMILES IDX 12 15 13 16 11 17 9 18 10 19 107 20 102 21 106 22 103 23
REMARK SMILES IDX 105 24 104 25 6 26 7 27 8 28 5 29 1 30 2 31 3 32 109 33 4 34
REMARK SMILES IDX 108 35 22 36 23 37 24 38 31 39 25 40 26 41 30 42 27 44 29 45
REMARK SMILES IDX 28 46 35 47 36 48 37 49 38 50 39 51 40 52 41 54 42 55 43 56
REMARK SMILES IDX 101 57 44 58 100 59 45 60 46 61 47 62 94 63 48 64 99 65
REMARK SMILES IDX 93 66 95 67 49 68 98 69 92 70 91 71 50 73 80 74 61 75 79 76
REMARK SMILES IDX 62 77 65 78 78 79 96 80 63 81 64 82 77 84 97 85 66 86 51 87
REMARK SMILES IDX 52 88 60 89 53 90 59 91 54 92 55 93 56 94 57 95 58 96 81 97
REMARK SMILES IDX 82 98 90 99 83 100 89 101 84 102 85 103 86 104 87 105 88 106
REMARK SMILES IDX 67 107 68 108 76 109 69 110 75 111 70 112 71 113 72 114
REMARK SMILES IDX 73 115 74 116
REMARK H PARENT 34 4 20 9 16 14 25 43 39 53 95 72 65 83
REMARK Flexibility Score: inf
ROOT
ATOM      1  C   UNL     1      -9.371   0.451   3.974  1.00  0.00     0.242 C 
ATOM      2  O   UNL     1      -8.719  -0.589   3.807  1.00  0.00    -0.273 OA
ATOM      3  N   UNL     1      -9.608   0.792   5.263  1.00  0.00    -0.354 N 
ATOM      4  H   UNL     1      -9.231   0.148   5.905  1.00  0.00     0.163 HD
ENDROOT
BRANCH   1   5
ATOM      5  C   UNL     1      -9.855   1.236   2.740  1.00  0.00     0.175 C 
BRANCH   5   6
ATOM      6  N   UNL     1      -9.384   2.620   2.875  1.00  0.00    -0.342 N 
ATOM      7  C   UNL     1      -8.136   3.137   2.693  1.00  0.00     0.240 C 
ATOM      8  O   UNL     1      -7.998   4.341   2.936  1.00  0.00    -0.273 OA
ATOM      9  H   UNL     1     -10.073   3.273   3.137  1.00  0.00     0.164 HD
BRANCH   7  10
ATOM     10  C   UNL     1      -7.005   2.348   1.996  1.00  0.00     0.216 C 
BRANCH  10  11
ATOM     11  N   UNL     1      -6.811   0.939   2.328  1.00  0.00    -0.340 N 
ATOM     12  C   UNL     1      -6.485  -0.110   1.483  1.00  0.00     0.292 C 
ATOM     13  O   UNL     1      -6.268  -1.245   1.889  1.00  0.00    -0.265 OA
ATOM     14  H   UNL     1      -6.927   0.704   3.276  1.00  0.00     0.164 HD
BRANCH  12  15
ATOM     15  C   UNL     1      -6.392   0.152  -0.017  1.00  0.00     0.252 C 
ATOM     16  O   UNL     1      -5.563   0.986  -0.383  1.00  0.00    -0.283 OA
BRANCH  15  17
ATOM     17  C   UNL     1      -7.371  -0.428  -0.945  1.00  0.00     0.054 A 
ATOM     18  N   UNL     1      -8.757  -1.767  -2.128  1.00  0.00    -0.240 N 
ATOM     19  C   UNL     1      -7.790  -1.752  -1.125  1.00  0.00     0.117 A 
ATOM     20  C   UNL     1      -9.103  -0.431  -2.400  1.00  0.00     0.065 A 
ATOM     21  C   UNL     1      -8.037   0.339  -1.946  1.00  0.00     0.012 A 
ATOM     22  C   UNL     1     -10.094   0.110  -3.243  1.00  0.00     0.028 A 
ATOM     23  C   UNL     1      -7.854   1.628  -2.489  1.00  0.00     0.011 A 
ATOM     24  C   UNL     1      -9.851   1.355  -3.822  1.00  0.00     0.002 A 
ATOM     25  C   UNL     1      -8.724   2.089  -3.481  1.00  0.00     0.001 A 
BRANCH  18  26
ATOM     26  S   UNL     1      -8.695  -2.711  -3.595  1.00  0.00     0.268 S 
ATOM     27  O   UNL     1      -7.528  -2.179  -4.282  1.00  0.00    -0.201 OA
ATOM     28  O   UNL     1     -10.033  -2.525  -4.146  1.00  0.00    -0.201 OA
BRANCH  26  29
ATOM     29  C   UNL     1      -8.528  -4.455  -3.705  1.00  0.00     0.088 A 
ATOM     30  C   UNL     1      -8.687  -8.603  -4.905  1.00  0.00     0.044 C 
ATOM     31  C   UNL     1      -8.574  -7.173  -4.460  1.00  0.00    -0.051 A 
ATOM     32  C   UNL     1      -8.709  -6.192  -5.432  1.00  0.00     0.005 A 
ATOM     33  C   UNL     1      -8.397  -6.780  -3.114  1.00  0.00     0.005 A 
ATOM     34  C   UNL     1      -8.672  -4.863  -5.056  1.00  0.00     0.022 A 
ATOM     35  C   UNL     1      -8.377  -5.415  -2.721  1.00  0.00     0.022 A 
ENDBRANCH  26  29
ENDBRANCH  18  26
ENDBRANCH  15  17
ENDBRANCH  12  15
ENDBRANCH  10  11
ENDBRANCH   7  10
ENDBRANCH   5   6
BRANCH   5  36
ATOM     36  C   UNL     1     -11.351   1.166   2.360  1.00  0.00     0.072 C 
BRANCH  36  37
ATOM     37  C   UNL     1     -12.197  -0.010   2.780  1.00  0.00    -0.020 A 
ATOM     38  C   UNL     1     -11.835  -1.160   3.454  1.00  0.00     0.087 A 
ATOM     39  C   UNL     1     -13.624  -0.120   2.584  1.00  0.00     0.003 A 
ATOM     40  N   UNL     1     -12.970  -1.773   3.914  1.00  0.00    -0.361 N 
ATOM     41  C   UNL     1     -14.077  -1.170   3.383  1.00  0.00     0.046 A 
ATOM     42  C   UNL     1     -14.584   0.608   1.849  1.00  0.00     0.010 A 
ATOM     43  H   UNL     1     -12.987  -2.536   4.537  1.00  0.00     0.166 HD
ATOM     44  C   UNL     1     -15.430  -1.470   3.567  1.00  0.00     0.026 A 
ATOM     45  C   UNL     1     -15.941   0.270   1.958  1.00  0.00     0.001 A 
ATOM     46  C   UNL     1     -16.358  -0.734   2.829  1.00  0.00     0.002 A 
ENDBRANCH  36  37
ENDBRANCH   5  36
ENDBRANCH   1   5
BRANCH   3  47
ATOM     47  C   UNL     1     -10.296   1.897   5.909  1.00  0.00     0.116 C 
BRANCH  47  48
ATOM     48  C   UNL     1     -11.809   1.717   6.018  1.00  0.00     0.023 C 
BRANCH  48  49
ATOM     49  C   UNL     1     -12.285   0.375   6.579  1.00  0.00     0.023 C 
BRANCH  49  50
ATOM     50  C   UNL     1     -12.044   0.191   8.070  1.00  0.00     0.116 C 
BRANCH  50  51
ATOM     51  N   UNL     1     -13.250  -0.246   8.777  1.00  0.00    -0.352 N 
ATOM     52  C   UNL     1     -13.348  -0.784  10.055  1.00  0.00     0.251 C 
ATOM     53  H   UNL     1     -14.097  -0.147   8.286  1.00  0.00     0.163 HD
ATOM     54  O   UNL     1     -14.374  -1.218  10.524  1.00  0.00    -0.269 OA
BRANCH  52  55
ATOM     55  C   UNL     1     -12.110  -0.726  10.857  1.00  0.00     0.039 A 
ATOM     56  C   UNL     1     -11.982   0.362  11.728  1.00  0.00     0.014 A 
ATOM     57  C   UNL     1     -11.009  -1.438  10.396  1.00  0.00     0.014 A 
ATOM     58  C   UNL     1     -10.718   0.887  11.965  1.00  0.00     0.010 A 
ATOM     59  C   UNL     1      -9.770  -0.850  10.547  1.00  0.00     0.010 A 
ATOM     60  C   UNL     1      -9.636   0.344  11.277  1.00  0.00    -0.014 A 
BRANCH  60  61
ATOM     61  C   UNL     1      -8.327   0.981  11.198  1.00  0.00     0.031 A 
ATOM     62  C   UNL     1      -7.194   0.355  11.916  1.00  0.00     0.074 A 
ATOM     63  C   UNL     1      -8.128   2.062  10.407  1.00  0.00     0.049 A 
ATOM     64  N   UNL     1      -6.081   0.945  12.192  1.00  0.00    -0.248 NA
ATOM     65  C   UNL     1      -7.266  -1.002  12.453  1.00  0.00     0.031 C 
ATOM     66  C   UNL     1      -6.839   2.598   9.974  1.00  0.00     0.029 A 
ATOM     67  N   UNL     1      -9.045   3.036   9.999  1.00  0.00    -0.354 N 
ATOM     68  C   UNL     1      -5.207  -0.011  12.660  1.00  0.00     0.074 A 
ATOM     69  C   UNL     1      -6.016  -1.183  12.883  1.00  0.00     0.031 C 
ATOM     70  C   UNL     1      -6.994   3.893   9.660  1.00  0.00     0.029 A 
ATOM     71  C   UNL     1      -8.352   4.261  10.018  1.00  0.00     0.049 A 
ATOM     72  H   UNL     1      -9.986   2.893   9.748  1.00  0.00     0.167 HD
ATOM     73  C   UNL     1      -3.872   0.261  12.682  1.00  0.00     0.031 A 
ATOM     74  C   UNL     1      -8.692   5.325  10.805  1.00  0.00     0.031 A 
ATOM     75  C   UNL     1      -3.618   1.670  12.388  1.00  0.00     0.049 A 
ATOM     76  C   UNL     1      -7.585   5.731  11.758  1.00  0.00     0.074 A 
ATOM     77  C   UNL     1      -3.230   2.349  11.246  1.00  0.00     0.029 A 
ATOM     78  N   UNL     1      -4.076   2.629  13.283  1.00  0.00    -0.354 N 
ATOM     79  N   UNL     1      -6.539   4.992  12.009  1.00  0.00    -0.248 NA
ATOM     80  C   UNL     1      -7.584   6.968  12.537  1.00  0.00     0.031 C 
ATOM     81  C   UNL     1      -3.567   3.719  11.421  1.00  0.00     0.029 A 
ATOM     82  C   UNL     1      -4.117   3.872  12.682  1.00  0.00     0.049 A 
ATOM     83  H   UNL     1      -4.335   2.448  14.216  1.00  0.00     0.167 HD
ATOM     84  C   UNL     1      -5.755   5.600  12.953  1.00  0.00     0.074 A 
ATOM     85  C   UNL     1      -6.446   6.843  13.245  1.00  0.00     0.031 C 
ATOM     86  C   UNL     1      -4.612   5.023  13.427  1.00  0.00     0.031 A 
BRANCH  73  87
ATOM     87  C   UNL     1      -2.791  -0.798  12.713  1.00  0.00    -0.014 A 
ATOM     88  C   UNL     1      -1.504  -0.487  12.225  1.00  0.00     0.010 A 
ATOM     89  C   UNL     1      -2.984  -2.130  13.125  1.00  0.00     0.010 A 
ATOM     90  C   UNL     1      -0.503  -1.463  12.081  1.00  0.00     0.020 A 
ATOM     91  C   UNL     1      -2.005  -3.122  12.965  1.00  0.00     0.020 A 
ATOM     92  C   UNL     1      -0.769  -2.784  12.431  1.00  0.00     0.054 A 
BRANCH  92  93
ATOM     93  S   UNL     1       0.501  -4.049  12.179  1.00  0.00     0.124 S 
ATOM     94  O   UNL     1       0.749  -3.964  10.742  1.00  0.00    -0.237 OA
ATOM     95  O   UNL     1       1.586  -3.579  13.036  1.00  0.00    -0.237 OA
ATOM     96  O   UNL     1      -0.146  -5.284  12.620  1.00  0.00    -0.744 OA
ENDBRANCH  92  93
ENDBRANCH  73  87
BRANCH  74  97
ATOM     97  C   UNL     1     -10.151   5.446  11.074  1.00  0.00    -0.014 A 
ATOM     98  C   UNL     1     -10.968   5.832   9.990  1.00  0.00     0.010 A 
ATOM     99  C   UNL     1     -10.732   4.759  12.155  1.00  0.00     0.010 A 
ATOM    100  C   UNL     1     -12.279   5.364   9.890  1.00  0.00     0.020 A 
ATOM    101  C   UNL     1     -12.051   4.291  12.057  1.00  0.00     0.020 A 
ATOM    102  C   UNL     1     -12.784   4.534  10.890  1.00  0.00     0.054 A 
BRANCH 102 103
ATOM    103  S   UNL     1     -14.300   3.596  10.527  1.00  0.00     0.124 S 
ATOM    104  O   UNL     1     -15.276   4.655  10.299  1.00  0.00    -0.237 OA
ATOM    105  O   UNL     1     -13.902   2.837   9.341  1.00  0.00    -0.237 OA
ATOM    106  O   UNL     1     -14.498   2.802  11.735  1.00  0.00    -0.744 OA
ENDBRANCH 102 103
ENDBRANCH  74  97
BRANCH  86 107
ATOM    107  C   UNL     1      -3.804   5.505  14.606  1.00  0.00    -0.014 A 
ATOM    108  C   UNL     1      -4.336   6.242  15.675  1.00  0.00     0.010 A 
ATOM    109  C   UNL     1      -2.460   5.072  14.729  1.00  0.00     0.010 A 
ATOM    110  C   UNL     1      -3.550   6.579  16.787  1.00  0.00     0.020 A 
ATOM    111  C   UNL     1      -1.683   5.363  15.851  1.00  0.00     0.020 A 
ATOM    112  C   UNL     1      -2.227   6.140  16.866  1.00  0.00     0.054 A 
BRANCH 112 113
ATOM    113  S   UNL     1      -1.237   6.524  18.333  1.00  0.00     0.124 S 
ATOM    114  O   UNL     1      -0.667   7.821  17.978  1.00  0.00    -0.237 OA
ATOM    115  O   UNL     1      -2.232   6.550  19.404  1.00  0.00    -0.237 OA
ATOM    116  O   UNL     1      -0.286   5.418  18.404  1.00  0.00    -0.744 OA
ENDBRANCH 112 113
ENDBRANCH  86 107
ENDBRANCH  60  61
ENDBRANCH  52  55
ENDBRANCH  50  51
ENDBRANCH  49  50
ENDBRANCH  48  49
ENDBRANCH  47  48
ENDBRANCH   3  47
TORSDOF 23
