REMARK SMILES C[C@H](Cc1cccs1)N(C)C(=O)N1CC[C@@H](CC(=O)NCCCCNC(=O)c2ccc(-c3c4nc(c(-c5ccc(S(=O)(=O)[O-])cc5)c5ccc([nH]5)c(-c5ccc(S(=O)(=O)[O-])cc5)c5nc(c(-c6ccc(S(=O)(=O)[O-])cc6)c6ccc3[nH]6)C=C5)C=C4)cc2)C1
REMARK SMILES IDX 21 1 20 2 18 3 19 4 17 6 16 7 13 8 14 9 88 10 15 11 11 12
REMARK SMILES IDX 12 13 9 14 10 15 2 16 1 17 3 18 4 19 5 20 8 21 6 22 7 23
REMARK SMILES IDX 22 24 23 25 24 26 25 27 26 28 27 30 28 31 29 32 87 33 30 34
REMARK SMILES IDX 86 35 31 36 32 37 33 38 80 39 34 40 85 41 79 42 81 43 35 44
REMARK SMILES IDX 84 45 78 46 77 47 36 49 66 50 47 51 65 52 48 53 51 54 64 55
REMARK SMILES IDX 82 56 49 57 50 58 63 60 83 61 52 62 37 63 38 64 46 65 39 66
REMARK SMILES IDX 45 67 40 68 41 69 42 70 43 71 44 72 67 73 68 74 76 75 69 76
REMARK SMILES IDX 75 77 70 78 71 79 72 80 73 81 74 82 53 83 54 84 62 85 55 86
REMARK SMILES IDX 61 87 56 88 57 89 58 90 59 91 60 92
REMARK H PARENT 20 5 25 29 81 48 51 59
REMARK Flexibility Score: inf
ROOT
ATOM      1  C   UNL     1      -5.027   3.780   2.497  1.00  0.00     0.116 C 
ENDROOT
BRANCH   1   2
ATOM      2  N   UNL     1      -5.471   4.120   1.154  1.00  0.00    -0.356 N 
ATOM      3  C   UNL     1      -5.911   3.284   0.167  1.00  0.00     0.220 C 
ATOM      4  O   UNL     1      -5.995   3.700  -0.988  1.00  0.00    -0.275 OA
ATOM      5  H   UNL     1      -5.451   5.078   0.926  1.00  0.00     0.163 HD
BRANCH   3   6
ATOM      6  C   UNL     1      -6.342   1.874   0.523  1.00  0.00     0.105 C 
BRANCH   6   7
ATOM      7  C   UNL     1      -5.474   0.709   0.016  1.00  0.00     0.020 C 
ATOM      8  N   UNL     1      -3.227   0.317   0.778  1.00  0.00    -0.324 N 
ATOM      9  C   UNL     1      -4.117  -0.209   1.793  1.00  0.00     0.122 C 
ATOM     10  C   UNL     1      -3.994   0.974  -0.279  1.00  0.00     0.125 C 
ATOM     11  C   UNL     1      -5.424  -0.433   1.048  1.00  0.00     0.027 C 
BRANCH   8  12
ATOM     12  C   UNL     1      -1.908   0.670   0.953  1.00  0.00     0.320 C 
ATOM     13  O   UNL     1      -1.549   1.811   0.667  1.00  0.00    -0.248 OA
BRANCH  12  14
ATOM     14  N   UNL     1      -1.003  -0.289   1.373  1.00  0.00    -0.325 N 
ATOM     15  C   UNL     1      -1.352  -1.667   1.674  1.00  0.00     0.149 C 
BRANCH  14  16
ATOM     16  C   UNL     1       0.451   0.019   1.331  1.00  0.00     0.088 C 
ATOM     17  C   UNL     1       0.873   1.264   2.121  1.00  0.00     0.031 C 
BRANCH  16  18
ATOM     18  C   UNL     1       1.088  -0.069  -0.086  1.00  0.00     0.071 C 
BRANCH  18  19
ATOM     19  C   UNL     1       0.479   0.764  -1.184  1.00  0.00     0.007 A 
ATOM     20  C   UNL     1       0.454   2.139  -1.328  1.00  0.00     0.015 A 
ATOM     21  S   UNL     1      -0.300  -0.004  -2.511  1.00  0.00    -0.149 S 
ATOM     22  C   UNL     1      -0.291   2.560  -2.469  1.00  0.00     0.012 A 
ATOM     23  C   UNL     1      -0.741   1.492  -3.210  1.00  0.00     0.065 A 
ENDBRANCH  18  19
ENDBRANCH  16  18
ENDBRANCH  14  16
ENDBRANCH  12  14
ENDBRANCH   8  12
ENDBRANCH   6   7
ENDBRANCH   3   6
ENDBRANCH   1   2
BRANCH   1  24
ATOM     24  C   UNL     1      -3.557   3.389   2.471  1.00  0.00     0.023 C 
BRANCH  24  25
ATOM     25  C   UNL     1      -2.573   4.546   2.570  1.00  0.00     0.023 C 
BRANCH  25  26
ATOM     26  C   UNL     1      -2.478   5.137   3.965  1.00  0.00     0.116 C 
BRANCH  26  27
ATOM     27  N   UNL     1      -2.005   4.189   4.965  1.00  0.00    -0.352 N 
ATOM     28  C   UNL     1      -1.226   4.428   6.076  1.00  0.00     0.251 C 
ATOM     29  H   UNL     1      -2.278   3.253   4.829  1.00  0.00     0.163 HD
ATOM     30  O   UNL     1      -0.848   3.507   6.780  1.00  0.00    -0.269 OA
BRANCH  28  31
ATOM     31  C   UNL     1      -0.808   5.819   6.360  1.00  0.00     0.039 A 
ATOM     32  C   UNL     1       0.539   6.075   6.618  1.00  0.00     0.014 A 
ATOM     33  C   UNL     1      -1.726   6.868   6.283  1.00  0.00     0.014 A 
ATOM     34  C   UNL     1       0.980   7.396   6.718  1.00  0.00     0.010 A 
ATOM     35  C   UNL     1      -1.271   8.179   6.284  1.00  0.00     0.010 A 
ATOM     36  C   UNL     1       0.086   8.458   6.505  1.00  0.00    -0.014 A 
BRANCH  36  37
ATOM     37  C   UNL     1       0.537   9.872   6.526  1.00  0.00     0.031 A 
ATOM     38  C   UNL     1      -0.041  10.819   7.543  1.00  0.00     0.074 A 
ATOM     39  C   UNL     1       1.397  10.319   5.590  1.00  0.00     0.049 A 
ATOM     40  N   UNL     1       0.129  12.110   7.657  1.00  0.00    -0.248 NA
ATOM     41  C   UNL     1      -0.959  10.243   8.541  1.00  0.00     0.031 C 
ATOM     42  C   UNL     1       1.986   9.514   4.516  1.00  0.00     0.029 A 
ATOM     43  N   UNL     1       1.920  11.572   5.385  1.00  0.00    -0.354 N 
ATOM     44  C   UNL     1      -0.675  12.502   8.721  1.00  0.00     0.074 A 
ATOM     45  C   UNL     1      -1.378  11.325   9.179  1.00  0.00     0.031 C 
ATOM     46  C   UNL     1       2.806  10.286   3.784  1.00  0.00     0.029 A 
ATOM     47  C   UNL     1       2.774  11.646   4.309  1.00  0.00     0.049 A 
ATOM     48  H   UNL     1       1.704  12.345   5.955  1.00  0.00     0.167 HD
ATOM     49  C   UNL     1      -0.797  13.726   9.288  1.00  0.00     0.031 A 
ATOM     50  C   UNL     1       3.450  12.694   3.802  1.00  0.00     0.031 A 
ATOM     51  C   UNL     1      -0.075  14.888   8.851  1.00  0.00     0.049 A 
ATOM     52  C   UNL     1       3.319  14.039   4.465  1.00  0.00     0.074 A 
ATOM     53  C   UNL     1      -0.100  16.167   9.378  1.00  0.00     0.029 A 
ATOM     54  N   UNL     1       0.818  14.908   7.790  1.00  0.00    -0.354 N 
ATOM     55  N   UNL     1       2.582  14.380   5.496  1.00  0.00    -0.248 NA
ATOM     56  C   UNL     1       4.121  15.136   3.907  1.00  0.00     0.031 C 
ATOM     57  C   UNL     1       0.762  16.967   8.620  1.00  0.00     0.029 A 
ATOM     58  C   UNL     1       1.354  16.175   7.649  1.00  0.00     0.049 A 
ATOM     59  H   UNL     1       1.039  14.134   7.223  1.00  0.00     0.167 HD
ATOM     60  C   UNL     1       2.854  15.724   5.725  1.00  0.00     0.074 A 
ATOM     61  C   UNL     1       3.833  16.129   4.737  1.00  0.00     0.031 C 
ATOM     62  C   UNL     1       2.338  16.551   6.668  1.00  0.00     0.031 A 
BRANCH  49  63
ATOM     63  C   UNL     1      -1.732  13.853  10.459  1.00  0.00    -0.014 A 
ATOM     64  C   UNL     1      -1.409  13.275  11.701  1.00  0.00     0.010 A 
ATOM     65  C   UNL     1      -2.933  14.572  10.329  1.00  0.00     0.010 A 
ATOM     66  C   UNL     1      -2.289  13.377  12.780  1.00  0.00     0.020 A 
ATOM     67  C   UNL     1      -3.805  14.700  11.415  1.00  0.00     0.020 A 
ATOM     68  C   UNL     1      -3.485  14.085  12.629  1.00  0.00     0.054 A 
BRANCH  68  69
ATOM     69  S   UNL     1      -4.600  14.219  14.052  1.00  0.00     0.124 S 
ATOM     70  O   UNL     1      -5.193  12.885  14.095  1.00  0.00    -0.237 OA
ATOM     71  O   UNL     1      -3.687  14.535  15.148  1.00  0.00    -0.237 OA
ATOM     72  O   UNL     1      -5.513  15.296  13.677  1.00  0.00    -0.744 OA
ENDBRANCH  68  69
ENDBRANCH  49  63
BRANCH  50  73
ATOM     73  C   UNL     1       4.327  12.518   2.612  1.00  0.00    -0.014 A 
ATOM     74  C   UNL     1       5.726  12.571   2.743  1.00  0.00     0.010 A 
ATOM     75  C   UNL     1       3.767  12.309   1.339  1.00  0.00     0.010 A 
ATOM     76  C   UNL     1       6.548  12.454   1.619  1.00  0.00     0.020 A 
ATOM     77  C   UNL     1       4.587  12.165   0.215  1.00  0.00     0.020 A 
ATOM     78  C   UNL     1       5.973  12.257   0.360  1.00  0.00     0.054 A 
BRANCH  78  79
ATOM     79  S   UNL     1       7.057  12.085  -1.085  1.00  0.00     0.124 S 
ATOM     80  O   UNL     1       7.443  13.470  -1.339  1.00  0.00    -0.237 OA
ATOM     81  O   UNL     1       8.118  11.214  -0.585  1.00  0.00    -0.237 OA
ATOM     82  O   UNL     1       6.188  11.481  -2.091  1.00  0.00    -0.744 OA
ENDBRANCH  78  79
ENDBRANCH  50  73
BRANCH  62  83
ATOM     83  C   UNL     1       2.855  17.962   6.705  1.00  0.00    -0.014 A 
ATOM     84  C   UNL     1       2.465  18.905   5.739  1.00  0.00     0.010 A 
ATOM     85  C   UNL     1       3.700  18.361   7.757  1.00  0.00     0.010 A 
ATOM     86  C   UNL     1       2.934  20.219   5.809  1.00  0.00     0.020 A 
ATOM     87  C   UNL     1       4.152  19.679   7.843  1.00  0.00     0.020 A 
ATOM     88  C   UNL     1       3.777  20.597   6.860  1.00  0.00     0.054 A 
BRANCH  88  89
ATOM     89  S   UNL     1       4.336  22.320   6.957  1.00  0.00     0.124 S 
ATOM     90  O   UNL     1       5.370  22.361   5.928  1.00  0.00    -0.237 OA
ATOM     91  O   UNL     1       3.119  23.071   6.657  1.00  0.00    -0.237 OA
ATOM     92  O   UNL     1       4.816  22.450   8.331  1.00  0.00    -0.744 OA
ENDBRANCH  88  89
ENDBRANCH  62  83
ENDBRANCH  36  37
ENDBRANCH  28  31
ENDBRANCH  26  27
ENDBRANCH  25  26
ENDBRANCH  24  25
ENDBRANCH   1  24
TORSDOF 20
