REMARK SMILES O=C(NCCCCNC(=O)c1cc(SCC(=O)N2CCOCC2)ccn1)c1ccc(-c2c3nc(c(-c4ccc(S(=O)(=O)[O-])cc4)c4ccc([nH]4)c(-c4ccc(S(=O)(=O)[O-])cc4)c4nc(c(-c5ccc(S(=O)(=O)[O-])cc5)c5ccc2[nH]5)C=C4)C=C3)cc1
REMARK SMILES IDX 5 1 4 2 3 3 1 4 2 5 27 7 28 8 86 9 29 10 85 11 30 12 31 13
REMARK SMILES IDX 32 14 79 15 33 16 84 17 78 18 80 19 34 20 83 21 77 22 76 23
REMARK SMILES IDX 35 25 65 26 46 27 64 28 47 29 50 30 63 31 81 32 48 33 49 34
REMARK SMILES IDX 62 36 82 37 51 38 36 39 37 40 45 41 38 42 44 43 39 44 40 45
REMARK SMILES IDX 41 46 42 47 43 48 66 49 67 50 75 51 68 52 74 53 69 54 70 55
REMARK SMILES IDX 71 56 72 57 73 58 52 59 53 60 61 61 54 62 60 63 55 64 56 65
REMARK SMILES IDX 57 66 58 67 59 68 6 69 7 70 8 71 9 72 10 74 11 75 12 76
REMARK SMILES IDX 26 77 13 78 25 79 24 80 14 81 15 82 16 83 17 84 18 85 19 86
REMARK SMILES IDX 23 87 20 88 22 89 21 90
REMARK H PARENT 3 6 80 24 50 35 8 73
REMARK Flexibility Score: inf
ROOT
ATOM      1  C   UNL     1       5.089  -0.934   2.332  1.00  0.00     0.023 C 
ENDROOT
BRANCH   1   2
ATOM      2  C   UNL     1       4.764  -0.958   0.841  1.00  0.00     0.116 C 
BRANCH   2   3
ATOM      3  N   UNL     1       3.338  -1.065   0.575  1.00  0.00    -0.352 N 
ATOM      4  O   UNL     1       1.284  -0.375  -0.048  1.00  0.00    -0.269 OA
ATOM      5  C   UNL     1       2.498  -0.187  -0.068  1.00  0.00     0.251 C 
ATOM      6  H   UNL     1       2.910  -1.889   0.905  1.00  0.00     0.163 HD
BRANCH   5   7
ATOM      7  C   UNL     1       3.061   0.990  -0.769  1.00  0.00     0.039 A 
ATOM      8  C   UNL     1       4.160   0.853  -1.622  1.00  0.00     0.014 A 
ATOM      9  C   UNL     1       2.479   2.245  -0.575  1.00  0.00     0.014 A 
ATOM     10  C   UNL     1       4.763   1.984  -2.167  1.00  0.00     0.010 A 
ATOM     11  C   UNL     1       3.043   3.372  -1.181  1.00  0.00     0.010 A 
ATOM     12  C   UNL     1       4.210   3.256  -1.954  1.00  0.00    -0.014 A 
BRANCH  12  13
ATOM     13  C   UNL     1       4.839   4.455  -2.565  1.00  0.00     0.031 A 
ATOM     14  C   UNL     1       5.453   5.526  -1.706  1.00  0.00     0.074 A 
ATOM     15  C   UNL     1       4.848   4.583  -3.906  1.00  0.00     0.049 A 
ATOM     16  N   UNL     1       5.990   6.664  -2.066  1.00  0.00    -0.248 NA
ATOM     17  C   UNL     1       5.458   5.292  -0.253  1.00  0.00     0.031 C 
ATOM     18  C   UNL     1       4.295   3.610  -4.850  1.00  0.00     0.029 A 
ATOM     19  N   UNL     1       5.335   5.585  -4.707  1.00  0.00    -0.354 N 
ATOM     20  C   UNL     1       6.373   7.295  -0.887  1.00  0.00     0.074 A 
ATOM     21  C   UNL     1       5.989   6.419   0.200  1.00  0.00     0.031 C 
ATOM     22  C   UNL     1       4.487   4.054  -6.101  1.00  0.00     0.029 A 
ATOM     23  C   UNL     1       5.122   5.367  -6.047  1.00  0.00     0.049 A 
ATOM     24  H   UNL     1       5.792   6.383  -4.356  1.00  0.00     0.167 HD
ATOM     25  C   UNL     1       6.985   8.493  -0.726  1.00  0.00     0.031 A 
ATOM     26  C   UNL     1       5.380   6.143  -7.116  1.00  0.00     0.031 A 
ATOM     27  C   UNL     1       7.361   9.363  -1.810  1.00  0.00     0.049 A 
ATOM     28  C   UNL     1       6.028   7.482  -6.915  1.00  0.00     0.074 A 
ATOM     29  C   UNL     1       8.007  10.586  -1.749  1.00  0.00     0.029 A 
ATOM     30  N   UNL     1       7.119   9.107  -3.152  1.00  0.00    -0.354 N 
ATOM     31  N   UNL     1       6.400   8.052  -5.794  1.00  0.00    -0.248 NA
ATOM     32  C   UNL     1       6.294   8.280  -8.119  1.00  0.00     0.031 C 
ATOM     33  C   UNL     1       8.114  11.090  -3.050  1.00  0.00     0.029 A 
ATOM     34  C   UNL     1       7.583  10.157  -3.926  1.00  0.00     0.049 A 
ATOM     35  H   UNL     1       6.681   8.298  -3.502  1.00  0.00     0.167 HD
ATOM     36  C   UNL     1       6.967   9.268  -6.159  1.00  0.00     0.074 A 
ATOM     37  C   UNL     1       6.892   9.347  -7.604  1.00  0.00     0.031 C 
ATOM     38  C   UNL     1       7.505  10.225  -5.365  1.00  0.00     0.031 A 
BRANCH  25  39
ATOM     39  C   UNL     1       7.246   8.952   0.685  1.00  0.00    -0.014 A 
ATOM     40  C   UNL     1       8.232   8.346   1.483  1.00  0.00     0.010 A 
ATOM     41  C   UNL     1       6.497  10.018   1.217  1.00  0.00     0.010 A 
ATOM     42  C   UNL     1       8.425   8.757   2.805  1.00  0.00     0.020 A 
ATOM     43  C   UNL     1       6.703  10.450   2.531  1.00  0.00     0.020 A 
ATOM     44  C   UNL     1       7.649   9.799   3.325  1.00  0.00     0.054 A 
BRANCH  44  45
ATOM     45  S   UNL     1       7.900  10.300   5.050  1.00  0.00     0.124 S 
ATOM     46  O   UNL     1       7.230   9.223   5.775  1.00  0.00    -0.237 OA
ATOM     47  O   UNL     1       9.356  10.327   5.171  1.00  0.00    -0.237 OA
ATOM     48  O   UNL     1       7.248  11.605   5.130  1.00  0.00    -0.744 OA
ENDBRANCH  44  45
ENDBRANCH  25  39
BRANCH  26  49
ATOM     49  C   UNL     1       5.003   5.656  -8.470  1.00  0.00    -0.014 A 
ATOM     50  C   UNL     1       5.986   5.201  -9.364  1.00  0.00     0.010 A 
ATOM     51  C   UNL     1       3.647   5.572  -8.836  1.00  0.00     0.010 A 
ATOM     52  C   UNL     1       5.617   4.661 -10.600  1.00  0.00     0.020 A 
ATOM     53  C   UNL     1       3.275   5.011 -10.060  1.00  0.00     0.020 A 
ATOM     54  C   UNL     1       4.264   4.561 -10.936  1.00  0.00     0.054 A 
BRANCH  54  55
ATOM     55  S   UNL     1       3.805   3.764 -12.500  1.00  0.00     0.124 S 
ATOM     56  O   UNL     1       4.130   4.800 -13.475  1.00  0.00    -0.237 OA
ATOM     57  O   UNL     1       4.667   2.584 -12.519  1.00  0.00    -0.237 OA
ATOM     58  O   UNL     1       2.381   3.481 -12.335  1.00  0.00    -0.744 OA
ENDBRANCH  54  55
ENDBRANCH  26  49
BRANCH  38  59
ATOM     59  C   UNL     1       8.097  11.434  -6.037  1.00  0.00    -0.014 A 
ATOM     60  C   UNL     1       7.279  12.447  -6.569  1.00  0.00     0.010 A 
ATOM     61  C   UNL     1       9.494  11.593  -6.064  1.00  0.00     0.010 A 
ATOM     62  C   UNL     1       7.852  13.592  -7.129  1.00  0.00     0.020 A 
ATOM     63  C   UNL     1      10.069  12.747  -6.603  1.00  0.00     0.020 A 
ATOM     64  C   UNL     1       9.243  13.737  -7.139  1.00  0.00     0.054 A 
BRANCH  64  65
ATOM     65  S   UNL     1       9.961  15.264  -7.806  1.00  0.00     0.124 S 
ATOM     66  O   UNL     1       9.810  15.068  -9.245  1.00  0.00    -0.237 OA
ATOM     67  O   UNL     1       9.113  16.300  -7.221  1.00  0.00    -0.237 OA
ATOM     68  O   UNL     1      11.337  15.243  -7.315  1.00  0.00    -0.744 OA
ENDBRANCH  64  65
ENDBRANCH  38  59
ENDBRANCH  12  13
ENDBRANCH   5   7
ENDBRANCH   2   3
ENDBRANCH   1   2
BRANCH   1  69
ATOM     69  C   UNL     1       4.642  -2.162   3.121  1.00  0.00     0.023 C 
BRANCH  69  70
ATOM     70  C   UNL     1       5.094  -3.498   2.548  1.00  0.00     0.116 C 
BRANCH  70  71
ATOM     71  N   UNL     1       6.535  -3.669   2.527  1.00  0.00    -0.351 N 
ATOM     72  C   UNL     1       7.263  -4.790   2.866  1.00  0.00     0.269 C 
ATOM     73  H   UNL     1       7.058  -2.888   2.233  1.00  0.00     0.163 HD
ATOM     74  O   UNL     1       8.486  -4.792   2.753  1.00  0.00    -0.268 OA
BRANCH  72  75
ATOM     75  C   UNL     1       6.548  -5.989   3.380  1.00  0.00     0.129 A 
ATOM     76  C   UNL     1       5.603  -6.632   2.586  1.00  0.00     0.049 A 
ATOM     77  N   UNL     1       6.832  -6.334   4.662  1.00  0.00    -0.251 NA
ATOM     78  C   UNL     1       4.849  -7.642   3.168  1.00  0.00     0.012 A 
ATOM     79  C   UNL     1       6.132  -7.355   5.178  1.00  0.00     0.113 A 
ATOM     80  C   UNL     1       5.138  -8.021   4.484  1.00  0.00     0.035 A 
BRANCH  78  81
ATOM     81  S   UNL     1       3.524  -8.531   2.382  1.00  0.00    -0.116 SA
BRANCH  81  82
ATOM     82  C   UNL     1       2.951  -7.493   1.016  1.00  0.00     0.175 C 
BRANCH  82  83
ATOM     83  C   UNL     1       2.622  -6.027   1.256  1.00  0.00     0.233 C 
ATOM     84  O   UNL     1       3.214  -5.184   0.571  1.00  0.00    -0.274 OA
ATOM     85  N   UNL     1       1.558  -5.649   2.047  1.00  0.00    -0.337 N 
ATOM     86  C   UNL     1       1.014  -6.344   3.212  1.00  0.00     0.148 C 
ATOM     87  C   UNL     1       0.853  -4.391   1.757  1.00  0.00     0.148 C 
ATOM     88  C   UNL     1      -0.491  -6.560   3.055  1.00  0.00     0.181 C 
ATOM     89  C   UNL     1      -0.653  -4.673   1.627  1.00  0.00     0.181 C 
ATOM     90  O   UNL     1      -1.166  -5.319   2.807  1.00  0.00    -0.378 OA
ENDBRANCH  82  83
ENDBRANCH  81  82
ENDBRANCH  78  81
ENDBRANCH  72  75
ENDBRANCH  70  71
ENDBRANCH  69  70
ENDBRANCH   1  69
TORSDOF 17
