REMARK SMILES Cc1ccc(C(=O)NCCCCNC(=O)c2ccc(-c3c4nc(c(-c5ccc(S(=O)(=O)[O-])cc5)c5ccc([nH]5)c(-c5ccc(S(=O)(=O)[O-])cc5)c5nc(c(-c6ccc(S(=O)(=O)[O-])cc6)c6ccc3[nH]6)C=C5)C=C4)cc2)c2c1N[C@H](c1ccccc1F)[C@H]1CC=C[C@@H]21
REMARK SMILES IDX 11 1 10 2 9 3 8 4 6 5 7 6 5 8 1 9 2 10 3 11 77 12 4 13 76 14
REMARK SMILES IDX 78 15 91 16 79 17 87 19 90 20 88 21 89 22 80 23 81 24 85 25
REMARK SMILES IDX 82 26 84 27 86 28 83 29 12 30 13 31 14 32 15 34 16 35 17 36
REMARK SMILES IDX 75 37 18 38 74 39 19 40 20 41 21 42 68 43 22 44 73 45 67 46
REMARK SMILES IDX 69 47 23 48 72 49 66 50 65 51 24 53 54 54 35 55 53 56 36 57
REMARK SMILES IDX 39 58 52 59 70 60 37 61 38 62 51 64 71 65 40 66 25 67 26 68
REMARK SMILES IDX 34 69 27 70 33 71 28 72 29 73 30 74 31 75 32 76 55 77 56 78
REMARK SMILES IDX 64 79 57 80 63 81 58 82 59 83 60 84 61 85 62 86 41 87 42 88
REMARK SMILES IDX 50 89 43 90 49 91 44 92 45 93 46 94 47 95 48 96
REMARK H PARENT 8 7 78 18 13 33 69 52 39 63
REMARK Flexibility Score: inf
ROOT
ATOM      1  C   UNL     1       2.216  -6.075   5.402  1.00  0.00     0.023 C 
ENDROOT
BRANCH   1   2
ATOM      2  C   UNL     1       1.909  -5.345   4.092  1.00  0.00     0.023 C 
BRANCH   2   3
ATOM      3  C   UNL     1       0.415  -5.146   3.810  1.00  0.00     0.116 C 
BRANCH   3   4
ATOM      4  N   UNL     1      -0.145  -4.179   4.731  1.00  0.00    -0.352 N 
ATOM      5  C   UNL     1      -0.272  -2.813   4.719  1.00  0.00     0.251 C 
ATOM      6  O   UNL     1      -0.650  -2.330   5.786  1.00  0.00    -0.269 OA
ATOM      7  H   UNL     1      -0.516  -4.593   5.543  1.00  0.00     0.163 HD
BRANCH   5   8
ATOM      8  C   UNL     1       0.003  -1.935   3.522  1.00  0.00     0.045 A 
ATOM      9  C   UNL     1       0.881   0.414  -0.022  1.00  0.00     0.046 C 
ATOM     10  C   UNL     1       0.576  -0.317   1.259  1.00  0.00    -0.028 A 
ATOM     11  C   UNL     1       1.212  -1.543   1.442  1.00  0.00     0.006 A 
ATOM     12  C   UNL     1      -0.305   0.159   2.251  1.00  0.00     0.042 A 
ATOM     13  C   UNL     1       0.951  -2.316   2.567  1.00  0.00     0.014 A 
ATOM     14  C   UNL     1      -0.628  -0.663   3.367  1.00  0.00    -0.005 A 
ATOM     15  N   UNL     1      -0.878   1.410   2.104  1.00  0.00    -0.377 N 
ATOM     16  C   UNL     1      -1.575  -0.113   4.419  1.00  0.00     0.050 C 
ATOM     17  C   UNL     1      -2.074   1.800   2.828  1.00  0.00     0.117 C 
ATOM     18  H   UNL     1      -0.462   2.056   1.488  1.00  0.00     0.161 HD
ATOM     19  C   UNL     1      -1.940   1.383   4.298  1.00  0.00     0.031 C 
ATOM     20  C   UNL     1      -2.939  -0.753   4.470  1.00  0.00    -0.023 C 
ATOM     21  C   UNL     1      -3.286   1.488   5.040  1.00  0.00     0.034 C 
ATOM     22  C   UNL     1      -3.878   0.130   4.834  1.00  0.00    -0.030 C 
BRANCH  17  23
ATOM     23  C   UNL     1      -2.331   3.274   2.532  1.00  0.00     0.010 A 
ATOM     24  C   UNL     1      -2.762   3.626   1.236  1.00  0.00     0.009 A 
ATOM     25  C   UNL     1      -2.138   4.314   3.449  1.00  0.00     0.128 A 
ATOM     26  C   UNL     1      -2.996   4.958   0.885  1.00  0.00     0.001 A 
ATOM     27  C   UNL     1      -2.374   5.645   3.105  1.00  0.00     0.039 A 
ATOM     28  F   UNL     1      -1.725   4.075   4.699  1.00  0.00    -0.207 F 
ATOM     29  C   UNL     1      -2.804   5.970   1.822  1.00  0.00     0.003 A 
ENDBRANCH  17  23
ENDBRANCH   5   8
ENDBRANCH   3   4
ENDBRANCH   2   3
ENDBRANCH   1   2
BRANCH   1  30
ATOM     30  C   UNL     1       1.682  -7.497   5.480  1.00  0.00     0.116 C 
BRANCH  30  31
ATOM     31  N   UNL     1       2.172  -8.343   4.403  1.00  0.00    -0.352 N 
ATOM     32  C   UNL     1       2.417  -9.694   4.449  1.00  0.00     0.251 C 
ATOM     33  H   UNL     1       2.349  -7.897   3.543  1.00  0.00     0.163 HD
ATOM     34  O   UNL     1       2.912 -10.281   3.498  1.00  0.00    -0.269 OA
BRANCH  32  35
ATOM     35  C   UNL     1       2.100 -10.404   5.699  1.00  0.00     0.039 A 
ATOM     36  C   UNL     1       3.140 -11.000   6.413  1.00  0.00     0.014 A 
ATOM     37  C   UNL     1       0.793 -10.386   6.199  1.00  0.00     0.014 A 
ATOM     38  C   UNL     1       2.876 -11.543   7.668  1.00  0.00     0.010 A 
ATOM     39  C   UNL     1       0.541 -10.893   7.468  1.00  0.00     0.010 A 
ATOM     40  C   UNL     1       1.581 -11.474   8.209  1.00  0.00    -0.014 A 
BRANCH  40  41
ATOM     41  C   UNL     1       1.301 -12.037   9.547  1.00  0.00     0.031 A 
ATOM     42  C   UNL     1       0.536 -13.321   9.662  1.00  0.00     0.074 A 
ATOM     43  C   UNL     1       1.732 -11.393  10.647  1.00  0.00     0.049 A 
ATOM     44  N   UNL     1       0.222 -13.994  10.737  1.00  0.00    -0.248 NA
ATOM     45  C   UNL     1       0.055 -13.922   8.407  1.00  0.00     0.031 C 
ATOM     46  C   UNL     1       2.469 -10.127  10.653  1.00  0.00     0.029 A 
ATOM     47  N   UNL     1       1.625 -11.724  11.973  1.00  0.00    -0.354 N 
ATOM     48  C   UNL     1      -0.484 -15.102  10.289  1.00  0.00     0.074 A 
ATOM     49  C   UNL     1      -0.599 -14.985   8.852  1.00  0.00     0.031 C 
ATOM     50  C   UNL     1       2.783  -9.810  11.920  1.00  0.00     0.029 A 
ATOM     51  C   UNL     1       2.256 -10.839  12.813  1.00  0.00     0.049 A 
ATOM     52  H   UNL     1       1.142 -12.520  12.293  1.00  0.00     0.167 HD
ATOM     53  C   UNL     1      -0.969 -16.140  11.008  1.00  0.00     0.031 A 
ATOM     54  C   UNL     1       2.411 -10.865  14.151  1.00  0.00     0.031 A 
ATOM     55  C   UNL     1      -0.855 -16.254  12.434  1.00  0.00     0.049 A 
ATOM     56  C   UNL     1       1.843 -12.014  14.935  1.00  0.00     0.074 A 
ATOM     57  C   UNL     1      -1.309 -17.270  13.255  1.00  0.00     0.029 A 
ATOM     58  N   UNL     1      -0.234 -15.321  13.250  1.00  0.00    -0.354 N 
ATOM     59  N   UNL     1       1.191 -13.062  14.494  1.00  0.00    -0.248 NA
ATOM     60  C   UNL     1       2.037 -11.989  16.392  1.00  0.00     0.031 C 
ATOM     61  C   UNL     1      -0.979 -16.941  14.573  1.00  0.00     0.029 A 
ATOM     62  C   UNL     1      -0.294 -15.735  14.567  1.00  0.00     0.049 A 
ATOM     63  H   UNL     1       0.187 -14.488  12.937  1.00  0.00     0.167 HD
ATOM     64  C   UNL     1       0.912 -13.833  15.615  1.00  0.00     0.074 A 
ATOM     65  C   UNL     1       1.462 -13.130  16.757  1.00  0.00     0.031 C 
ATOM     66  C   UNL     1       0.262 -15.020  15.688  1.00  0.00     0.031 A 
BRANCH  53  67
ATOM     67  C   UNL     1      -1.651 -17.236  10.242  1.00  0.00    -0.014 A 
ATOM     68  C   UNL     1      -0.895 -18.155   9.493  1.00  0.00     0.010 A 
ATOM     69  C   UNL     1      -3.052 -17.349  10.265  1.00  0.00     0.010 A 
ATOM     70  C   UNL     1      -1.532 -19.145   8.743  1.00  0.00     0.020 A 
ATOM     71  C   UNL     1      -3.691 -18.351   9.530  1.00  0.00     0.020 A 
ATOM     72  C   UNL     1      -2.927 -19.233   8.762  1.00  0.00     0.054 A 
BRANCH  72  73
ATOM     73  S   UNL     1      -3.722 -20.518   7.760  1.00  0.00     0.124 S 
ATOM     74  O   UNL     1      -3.399 -20.086   6.402  1.00  0.00    -0.237 OA
ATOM     75  O   UNL     1      -3.048 -21.733   8.210  1.00  0.00    -0.237 OA
ATOM     76  O   UNL     1      -5.134 -20.419   8.123  1.00  0.00    -0.744 OA
ENDBRANCH  72  73
ENDBRANCH  53  67
BRANCH  54  77
ATOM     77  C   UNL     1       3.195  -9.790  14.810  1.00  0.00    -0.014 A 
ATOM     78  C   UNL     1       4.541 -10.013  15.148  1.00  0.00     0.010 A 
ATOM     79  C   UNL     1       2.632  -8.521  15.026  1.00  0.00     0.010 A 
ATOM     80  C   UNL     1       5.317  -8.978  15.677  1.00  0.00     0.020 A 
ATOM     81  C   UNL     1       3.408  -7.480  15.544  1.00  0.00     0.020 A 
ATOM     82  C   UNL     1       4.748  -7.714  15.860  1.00  0.00     0.054 A 
BRANCH  82  83
ATOM     83  S   UNL     1       5.806  -6.371  16.470  1.00  0.00     0.124 S 
ATOM     84  O   UNL     1       6.187  -6.855  17.793  1.00  0.00    -0.237 OA
ATOM     85  O   UNL     1       6.873  -6.345  15.473  1.00  0.00    -0.237 OA
ATOM     86  O   UNL     1       4.923  -5.206  16.461  1.00  0.00    -0.744 OA
ENDBRANCH  82  83
ENDBRANCH  54  77
BRANCH  66  87
ATOM     87  C   UNL     1       0.111 -15.660  17.037  1.00  0.00    -0.014 A 
ATOM     88  C   UNL     1      -0.937 -15.281  17.892  1.00  0.00     0.010 A 
ATOM     89  C   UNL     1       0.929 -16.751  17.382  1.00  0.00     0.010 A 
ATOM     90  C   UNL     1      -1.177 -15.998  19.066  1.00  0.00     0.020 A 
ATOM     91  C   UNL     1       0.684 -17.477  18.550  1.00  0.00     0.020 A 
ATOM     92  C   UNL     1      -0.374 -17.100  19.380  1.00  0.00     0.054 A 
BRANCH  92  93
ATOM     93  S   UNL     1      -0.780 -18.073  20.856  1.00  0.00     0.124 S 
ATOM     94  O   UNL     1      -0.539 -17.116  21.932  1.00  0.00    -0.237 OA
ATOM     95  O   UNL     1      -2.180 -18.423  20.627  1.00  0.00    -0.237 OA
ATOM     96  O   UNL     1       0.154 -19.195  20.802  1.00  0.00    -0.744 OA
ENDBRANCH  92  93
ENDBRANCH  66  87
ENDBRANCH  40  41
ENDBRANCH  32  35
ENDBRANCH  30  31
ENDBRANCH   1  30
TORSDOF 15
