REMARK SMILES CO[C@H]1C[C@@H](C(=O)NCCCCNC(=O)c2ccc(-c3c4nc(c(-c5ccc(S(=O)(=O)[O-])cc5)c5ccc([nH]5)c(-c5ccc(S(=O)(=O)[O-])cc5)c5nc(c(-c6ccc(S(=O)(=O)[O-])cc6)c6ccc3[nH]6)C=C5)C=C4)cc2)N(C(=O)CSc2cccs2)C1
REMARK SMILES IDX 10 1 9 2 8 3 6 4 7 5 5 7 3 8 4 9 86 10 76 11 2 12 1 13 77 14
REMARK SMILES IDX 78 15 79 16 80 17 81 18 82 19 85 20 83 21 84 22 11 23 12 24
REMARK SMILES IDX 13 25 14 26 15 28 16 29 17 30 75 31 18 32 74 33 19 34 20 35
REMARK SMILES IDX 21 36 68 37 22 38 73 39 67 40 69 41 23 42 72 43 66 44 65 45
REMARK SMILES IDX 24 47 54 48 35 49 53 50 36 51 39 52 52 53 70 54 37 55 38 56
REMARK SMILES IDX 51 58 71 59 40 60 25 61 26 62 34 63 27 64 33 65 28 66 29 67
REMARK SMILES IDX 30 68 31 69 32 70 55 71 56 72 64 73 57 74 63 75 58 76 59 77
REMARK SMILES IDX 60 78 61 79 62 80 41 81 42 82 50 83 43 84 49 85 44 86 45 87
REMARK SMILES IDX 46 88 47 89 48 90
REMARK H PARENT 8 6 13 27 69 46 39 57
REMARK Flexibility Score: inf
ROOT
ATOM      1  C   UNL     1       1.577   7.758   1.907  1.00  0.00     0.023 C 
ENDROOT
BRANCH   1   2
ATOM      2  C   UNL     1       0.979   6.388   1.584  1.00  0.00     0.116 C 
BRANCH   2   3
ATOM      3  N   UNL     1      -0.014   6.459   0.531  1.00  0.00    -0.354 N 
ATOM      4  C   UNL     1      -0.338   5.577  -0.448  1.00  0.00     0.242 C 
ATOM      5  O   UNL     1      -1.411   5.767  -1.031  1.00  0.00    -0.273 OA
ATOM      6  H   UNL     1      -0.544   7.289   0.525  1.00  0.00     0.163 HD
BRANCH   4   7
ATOM      7  C   UNL     1       0.458   4.292  -0.720  1.00  0.00     0.177 C 
ATOM      8  C   UNL     1       1.093   2.172   0.240  1.00  0.00     0.139 C 
ATOM      9  C   UNL     1       0.018   3.248   0.315  1.00  0.00     0.069 C 
ATOM     10  C   UNL     1       2.357   2.965  -0.090  1.00  0.00     0.152 C 
ATOM     11  N   UNL     1       1.924   4.237  -0.656  1.00  0.00    -0.327 N 
BRANCH   8  12
ATOM     12  O   UNL     1       1.248   1.516   1.495  1.00  0.00    -0.380 OA
ATOM     13  C   UNL     1       0.440   0.355   1.618  1.00  0.00     0.195 C 
ENDBRANCH   8  12
BRANCH  11  14
ATOM     14  C   UNL     1       2.848   4.974  -1.376  1.00  0.00     0.233 C 
ATOM     15  O   UNL     1       4.020   4.588  -1.468  1.00  0.00    -0.274 OA
BRANCH  14  16
ATOM     16  C   UNL     1       2.478   6.337  -1.932  1.00  0.00     0.175 C 
BRANCH  16  17
ATOM     17  S   UNL     1       1.337   6.293  -3.328  1.00  0.00    -0.105 SA
BRANCH  17  18
ATOM     18  C   UNL     1       2.241   5.373  -4.505  1.00  0.00     0.060 A 
ATOM     19  C   UNL     1       3.116   5.887  -5.437  1.00  0.00     0.027 A 
ATOM     20  S   UNL     1       2.050   3.683  -4.670  1.00  0.00    -0.137 S 
ATOM     21  C   UNL     1       3.633   4.877  -6.301  1.00  0.00     0.013 A 
ATOM     22  C   UNL     1       3.137   3.630  -5.989  1.00  0.00     0.066 A 
ENDBRANCH  17  18
ENDBRANCH  16  17
ENDBRANCH  14  16
ENDBRANCH  11  14
ENDBRANCH   4   7
ENDBRANCH   2   3
ENDBRANCH   1   2
BRANCH   1  23
ATOM     23  C   UNL     1       0.567   8.851   2.272  1.00  0.00     0.023 C 
BRANCH  23  24
ATOM     24  C   UNL     1      -0.381   8.509   3.416  1.00  0.00     0.116 C 
BRANCH  24  25
ATOM     25  N   UNL     1       0.308   8.375   4.689  1.00  0.00    -0.352 N 
ATOM     26  C   UNL     1       0.046   9.003   5.885  1.00  0.00     0.251 C 
ATOM     27  H   UNL     1       1.068   7.748   4.697  1.00  0.00     0.163 HD
ATOM     28  O   UNL     1       0.835   8.895   6.820  1.00  0.00    -0.269 OA
BRANCH  26  29
ATOM     29  C   UNL     1      -1.171   9.832   6.030  1.00  0.00     0.039 A 
ATOM     30  C   UNL     1      -1.062  11.106   6.595  1.00  0.00     0.014 A 
ATOM     31  C   UNL     1      -2.413   9.364   5.593  1.00  0.00     0.014 A 
ATOM     32  C   UNL     1      -2.183  11.939   6.650  1.00  0.00     0.010 A 
ATOM     33  C   UNL     1      -3.512  10.220   5.584  1.00  0.00     0.010 A 
ATOM     34  C   UNL     1      -3.408  11.519   6.106  1.00  0.00    -0.014 A 
BRANCH  34  35
ATOM     35  C   UNL     1      -4.590  12.421   6.056  1.00  0.00     0.031 A 
ATOM     36  C   UNL     1      -5.847  12.065   6.802  1.00  0.00     0.074 A 
ATOM     37  C   UNL     1      -4.561  13.519   5.272  1.00  0.00     0.049 A 
ATOM     38  N   UNL     1      -7.009  12.667   6.796  1.00  0.00    -0.248 NA
ATOM     39  C   UNL     1      -5.799  10.860   7.646  1.00  0.00     0.031 C 
ATOM     40  C   UNL     1      -3.417  13.961   4.472  1.00  0.00     0.029 A 
ATOM     41  N   UNL     1      -5.530  14.456   5.007  1.00  0.00    -0.354 N 
ATOM     42  C   UNL     1      -7.835  11.905   7.615  1.00  0.00     0.074 A 
ATOM     43  C   UNL     1      -7.053  10.774   8.065  1.00  0.00     0.031 C 
ATOM     44  C   UNL     1      -3.743  15.090   3.822  1.00  0.00     0.029 A 
ATOM     45  C   UNL     1      -5.132  15.428   4.119  1.00  0.00     0.049 A 
ATOM     46  H   UNL     1      -6.426  14.433   5.414  1.00  0.00     0.167 HD
ATOM     47  C   UNL     1      -9.121  12.134   7.973  1.00  0.00     0.031 A 
ATOM     48  C   UNL     1      -5.809  16.466   3.589  1.00  0.00     0.031 A 
ATOM     49  C   UNL     1      -9.893  13.265   7.531  1.00  0.00     0.049 A 
ATOM     50  C   UNL     1      -7.244  16.687   3.984  1.00  0.00     0.074 A 
ATOM     51  C   UNL     1     -11.187  13.612   7.881  1.00  0.00     0.029 A 
ATOM     52  N   UNL     1      -9.448  14.231   6.642  1.00  0.00    -0.354 N 
ATOM     53  N   UNL     1      -7.989  15.988   4.806  1.00  0.00    -0.248 NA
ATOM     54  C   UNL     1      -7.928  17.843   3.385  1.00  0.00     0.031 C 
ATOM     55  C   UNL     1     -11.542  14.757   7.163  1.00  0.00     0.029 A 
ATOM     56  C   UNL     1     -10.449  15.160   6.413  1.00  0.00     0.049 A 
ATOM     57  H   UNL     1      -8.552  14.254   6.234  1.00  0.00     0.167 HD
ATOM     58  C   UNL     1      -9.218  16.636   4.847  1.00  0.00     0.074 A 
ATOM     59  C   UNL     1      -9.114  17.788   3.976  1.00  0.00     0.031 C 
ATOM     60  C   UNL     1     -10.332  16.307   5.547  1.00  0.00     0.031 A 
BRANCH  47  61
ATOM     61  C   UNL     1      -9.780  11.131   8.883  1.00  0.00    -0.014 A 
ATOM     62  C   UNL     1      -9.394  11.007  10.230  1.00  0.00     0.010 A 
ATOM     63  C   UNL     1     -10.830  10.330   8.398  1.00  0.00     0.010 A 
ATOM     64  C   UNL     1     -10.013  10.070  11.062  1.00  0.00     0.020 A 
ATOM     65  C   UNL     1     -11.473   9.413   9.234  1.00  0.00     0.020 A 
ATOM     66  C   UNL     1     -11.047   9.277  10.557  1.00  0.00     0.054 A 
BRANCH  66  67
ATOM     67  S   UNL     1     -11.845   8.083  11.665  1.00  0.00     0.124 S 
ATOM     68  O   UNL     1     -10.812   7.058  11.797  1.00  0.00    -0.237 OA
ATOM     69  O   UNL     1     -12.098   8.877  12.864  1.00  0.00    -0.237 OA
ATOM     70  O   UNL     1     -13.040   7.671  10.931  1.00  0.00    -0.744 OA
ENDBRANCH  66  67
ENDBRANCH  47  61
BRANCH  48  71
ATOM     71  C   UNL     1      -5.133  17.382   2.629  1.00  0.00    -0.014 A 
ATOM     72  C   UNL     1      -4.818  18.701   3.002  1.00  0.00     0.010 A 
ATOM     73  C   UNL     1      -4.790  16.937   1.338  1.00  0.00     0.010 A 
ATOM     74  C   UNL     1      -4.190  19.563   2.098  1.00  0.00     0.020 A 
ATOM     75  C   UNL     1      -4.136  17.787   0.442  1.00  0.00     0.020 A 
ATOM     76  C   UNL     1      -3.851  19.099   0.824  1.00  0.00     0.054 A 
BRANCH  76  77
ATOM     77  S   UNL     1      -2.989  20.220  -0.314  1.00  0.00     0.124 S 
ATOM     78  O   UNL     1      -4.056  21.137  -0.702  1.00  0.00    -0.237 OA
ATOM     79  O   UNL     1      -1.944  20.788   0.534  1.00  0.00    -0.237 OA
ATOM     80  O   UNL     1      -2.510  19.332  -1.371  1.00  0.00    -0.744 OA
ENDBRANCH  76  77
ENDBRANCH  48  71
BRANCH  60  81
ATOM     81  C   UNL     1     -11.522  17.223   5.439  1.00  0.00    -0.014 A 
ATOM     82  C   UNL     1     -12.306  17.269   4.273  1.00  0.00     0.010 A 
ATOM     83  C   UNL     1     -11.902  17.997   6.551  1.00  0.00     0.010 A 
ATOM     84  C   UNL     1     -13.438  18.088   4.215  1.00  0.00     0.020 A 
ATOM     85  C   UNL     1     -13.047  18.795   6.507  1.00  0.00     0.020 A 
ATOM     86  C   UNL     1     -13.803  18.844   5.335  1.00  0.00     0.054 A 
BRANCH  86  87
ATOM     87  S   UNL     1     -15.309  19.851   5.255  1.00  0.00     0.124 S 
ATOM     88  O   UNL     1     -14.897  20.948   4.385  1.00  0.00    -0.237 OA
ATOM     89  O   UNL     1     -16.283  18.925   4.681  1.00  0.00    -0.237 OA
ATOM     90  O   UNL     1     -15.555  20.219   6.648  1.00  0.00    -0.744 OA
ENDBRANCH  86  87
ENDBRANCH  60  81
ENDBRANCH  34  35
ENDBRANCH  26  29
ENDBRANCH  24  25
ENDBRANCH  23  24
ENDBRANCH   1  23
TORSDOF 19
