REMARK SMILES O=C(Nc1cccc(C(=O)NCCCCNC(=O)c2ccc(-c3c4nc(c(-c5ccc(S(=O)(=O)[O-])cc5)c5ccc([nH]5)c(-c5ccc(S(=O)(=O)[O-])cc5)c5nc(c(-c6ccc(S(=O)(=O)[O-])cc6)c6ccc3[nH]6)C=C5)C=C4)cc2)c1)Nc1cc(Cl)c(Cl)cc1Cl
REMARK SMILES IDX 14 1 13 2 12 3 11 4 9 5 10 6 8 8 4 9 5 10 79 11 6 12 7 13
REMARK SMILES IDX 3 14 1 15 2 16 80 17 81 20 82 21 88 22 83 23 87 24 89 25
REMARK SMILES IDX 84 26 85 27 86 28 15 29 16 30 17 31 18 33 19 34 20 35 78 36
REMARK SMILES IDX 21 37 77 38 22 39 23 40 24 41 71 42 25 43 76 44 70 45 72 46
REMARK SMILES IDX 26 47 75 48 69 49 68 50 27 52 57 53 38 54 56 55 39 56 42 57
REMARK SMILES IDX 55 58 73 59 40 60 41 61 54 63 74 64 43 65 28 66 29 67 37 68
REMARK SMILES IDX 30 69 36 70 31 71 32 72 33 73 34 74 35 75 58 76 59 77 67 78
REMARK SMILES IDX 60 79 66 80 61 81 62 82 63 83 64 84 65 85 44 86 45 87 53 88
REMARK SMILES IDX 46 89 52 90 47 91 48 92 49 93 50 94 51 95
REMARK H PARENT 11 7 3 18 80 19 16 32 72 51 42 62
REMARK Flexibility Score: inf
ROOT
ATOM      1  C   UNL     1       4.573  -4.067  -3.616  1.00  0.00     0.023 C 
ENDROOT
BRANCH   1   2
ATOM      2  C   UNL     1       4.409  -2.900  -2.638  1.00  0.00     0.023 C 
BRANCH   2   3
ATOM      3  C   UNL     1       5.345  -2.953  -1.429  1.00  0.00     0.116 C 
BRANCH   3   4
ATOM      4  N   UNL     1       6.625  -2.342  -1.730  1.00  0.00    -0.352 N 
ATOM      5  C   UNL     1       7.111  -1.064  -1.624  1.00  0.00     0.251 C 
ATOM      6  O   UNL     1       8.286  -0.893  -1.957  1.00  0.00    -0.269 OA
ATOM      7  H   UNL     1       7.284  -2.980  -2.086  1.00  0.00     0.163 HD
BRANCH   5   8
ATOM      8  C   UNL     1       6.341   0.111  -1.108  1.00  0.00     0.041 A 
ATOM      9  C   UNL     1       4.331   1.294  -0.387  1.00  0.00     0.043 A 
ATOM     10  C   UNL     1       5.077   2.448  -0.152  1.00  0.00     0.026 A 
ATOM     11  C   UNL     1       4.958   0.160  -0.922  1.00  0.00     0.040 A 
ATOM     12  C   UNL     1       6.454   2.433  -0.357  1.00  0.00     0.003 A 
ATOM     13  C   UNL     1       7.080   1.270  -0.813  1.00  0.00     0.014 A 
BRANCH   9  14
ATOM     14  N   UNL     1       2.955   1.322  -0.096  1.00  0.00    -0.308 N 
ATOM     15  O   UNL     1       0.897   0.485   0.252  1.00  0.00    -0.248 OA
ATOM     16  C   UNL     1       2.109   0.291   0.244  1.00  0.00     0.323 C 
ATOM     17  N   UNL     1       2.729  -0.834   0.732  1.00  0.00    -0.306 N 
ATOM     18  H   UNL     1       2.535   2.211  -0.142  1.00  0.00     0.171 HD
ATOM     19  H   UNL     1       3.700  -0.772   0.883  1.00  0.00     0.171 HD
BRANCH  17  20
ATOM     20  C   UNL     1       2.119  -2.070   1.040  1.00  0.00     0.063 A 
ATOM     21  C   UNL     1       2.640  -2.739   2.158  1.00  0.00     0.049 A 
ATOM     22  C   UNL     1       1.094  -2.686   0.300  1.00  0.00     0.066 A 
ATOM     23  C   UNL     1       2.098  -3.956   2.585  1.00  0.00     0.061 A 
ATOM     24  C   UNL     1       0.561  -3.911   0.724  1.00  0.00     0.044 A 
ATOM     25  Cl  UNL     1       0.562  -2.111  -1.241  1.00  0.00    -0.082 Cl
ATOM     26  Cl  UNL     1       2.776  -4.676   4.002  1.00  0.00    -0.083 Cl
ATOM     27  C   UNL     1       1.048  -4.537   1.873  1.00  0.00     0.061 A 
ATOM     28  Cl  UNL     1       0.326  -6.031   2.352  1.00  0.00    -0.083 Cl
ENDBRANCH  17  20
ENDBRANCH   9  14
ENDBRANCH   5   8
ENDBRANCH   3   4
ENDBRANCH   2   3
ENDBRANCH   1   2
BRANCH   1  29
ATOM     29  C   UNL     1       4.224  -5.442  -3.048  1.00  0.00     0.116 C 
BRANCH  29  30
ATOM     30  N   UNL     1       2.878  -5.527  -2.511  1.00  0.00    -0.352 N 
ATOM     31  C   UNL     1       2.091  -6.652  -2.356  1.00  0.00     0.251 C 
ATOM     32  H   UNL     1       2.476  -4.676  -2.220  1.00  0.00     0.163 HD
ATOM     33  O   UNL     1       0.949  -6.553  -1.939  1.00  0.00    -0.269 OA
BRANCH  31  34
ATOM     34  C   UNL     1       2.644  -7.963  -2.762  1.00  0.00     0.039 A 
ATOM     35  C   UNL     1       1.949  -8.717  -3.710  1.00  0.00     0.014 A 
ATOM     36  C   UNL     1       3.872  -8.407  -2.265  1.00  0.00     0.014 A 
ATOM     37  C   UNL     1       2.527  -9.880  -4.225  1.00  0.00     0.010 A 
ATOM     38  C   UNL     1       4.470  -9.538  -2.817  1.00  0.00     0.010 A 
ATOM     39  C   UNL     1       3.812 -10.274  -3.815  1.00  0.00    -0.014 A 
BRANCH  39  40
ATOM     40  C   UNL     1       4.507 -11.419  -4.455  1.00  0.00     0.031 A 
ATOM     41  C   UNL     1       4.826 -12.657  -3.666  1.00  0.00     0.074 A 
ATOM     42  C   UNL     1       4.928 -11.307  -5.731  1.00  0.00     0.049 A 
ATOM     43  N   UNL     1       5.493 -13.720  -4.037  1.00  0.00    -0.248 NA
ATOM     44  C   UNL     1       4.355 -12.694  -2.274  1.00  0.00     0.031 C 
ATOM     45  C   UNL     1       4.726 -10.138  -6.590  1.00  0.00     0.029 A 
ATOM     46  N   UNL     1       5.629 -12.182  -6.522  1.00  0.00    -0.354 N 
ATOM     47  C   UNL     1       5.532 -14.549  -2.923  1.00  0.00     0.074 A 
ATOM     48  C   UNL     1       4.859 -13.845  -1.851  1.00  0.00     0.031 C 
ATOM     49  C   UNL     1       5.279 -10.373  -7.791  1.00  0.00     0.029 A 
ATOM     50  C   UNL     1       5.904 -11.693  -7.777  1.00  0.00     0.049 A 
ATOM     51  H   UNL     1       5.909 -13.077  -6.220  1.00  0.00     0.167 HD
ATOM     52  C   UNL     1       6.066 -15.788  -2.805  1.00  0.00     0.031 A 
ATOM     53  C   UNL     1       6.591 -12.236  -8.801  1.00  0.00     0.031 A 
ATOM     54  C   UNL     1       6.735 -16.488  -3.870  1.00  0.00     0.049 A 
ATOM     55  C   UNL     1       7.182 -13.608  -8.646  1.00  0.00     0.074 A 
ATOM     56  C   UNL     1       7.257 -17.770  -3.863  1.00  0.00     0.029 A 
ATOM     57  N   UNL     1       6.981 -15.963  -5.129  1.00  0.00    -0.354 N 
ATOM     58  N   UNL     1       7.150 -14.404  -7.605  1.00  0.00    -0.248 NA
ATOM     59  C   UNL     1       7.898 -14.157  -9.806  1.00  0.00     0.031 C 
ATOM     60  C   UNL     1       7.856 -18.004  -5.107  1.00  0.00     0.029 A 
ATOM     61  C   UNL     1       7.670 -16.884  -5.901  1.00  0.00     0.049 A 
ATOM     62  H   UNL     1       6.707 -15.067  -5.431  1.00  0.00     0.167 HD
ATOM     63  C   UNL     1       7.835 -15.551  -7.985  1.00  0.00     0.074 A 
ATOM     64  C   UNL     1       8.252 -15.354  -9.359  1.00  0.00     0.031 C 
ATOM     65  C   UNL     1       8.096 -16.667  -7.260  1.00  0.00     0.031 A 
BRANCH  52  66
ATOM     66  C   UNL     1       5.948 -16.460  -1.464  1.00  0.00    -0.014 A 
ATOM     67  C   UNL     1       4.708 -16.937  -1.002  1.00  0.00     0.010 A 
ATOM     68  C   UNL     1       7.089 -16.625  -0.658  1.00  0.00     0.010 A 
ATOM     69  C   UNL     1       4.600 -17.517   0.264  1.00  0.00     0.020 A 
ATOM     70  C   UNL     1       6.989 -17.228   0.600  1.00  0.00     0.020 A 
ATOM     71  C   UNL     1       5.740 -17.649   1.062  1.00  0.00     0.054 A 
BRANCH  71  72
ATOM     72  S   UNL     1       5.574 -18.399   2.705  1.00  0.00     0.124 S 
ATOM     73  O   UNL     1       4.993 -17.303   3.476  1.00  0.00    -0.237 OA
ATOM     74  O   UNL     1       4.685 -19.531   2.455  1.00  0.00    -0.237 OA
ATOM     75  O   UNL     1       6.945 -18.755   3.062  1.00  0.00    -0.744 OA
ENDBRANCH  71  72
ENDBRANCH  52  66
BRANCH  53  76
ATOM     76  C   UNL     1       6.749 -11.471 -10.066  1.00  0.00    -0.014 A 
ATOM     77  C   UNL     1       5.999 -11.815 -11.203  1.00  0.00     0.010 A 
ATOM     78  C   UNL     1       7.619 -10.368 -10.124  1.00  0.00     0.010 A 
ATOM     79  C   UNL     1       6.118 -11.070 -12.380  1.00  0.00     0.020 A 
ATOM     80  C   UNL     1       7.725  -9.608 -11.293  1.00  0.00     0.020 A 
ATOM     81  C   UNL     1       6.978  -9.968 -12.416  1.00  0.00     0.054 A 
BRANCH  81  82
ATOM     82  S   UNL     1       7.056  -8.964 -13.926  1.00  0.00     0.124 S 
ATOM     83  O   UNL     1       7.894  -9.786 -14.793  1.00  0.00    -0.237 OA
ATOM     84  O   UNL     1       5.652  -8.862 -14.313  1.00  0.00    -0.237 OA
ATOM     85  O   UNL     1       7.659  -7.713 -13.470  1.00  0.00    -0.744 OA
ENDBRANCH  81  82
ENDBRANCH  53  76
BRANCH  65  86
ATOM     86  C   UNL     1       8.872 -17.762  -7.938  1.00  0.00    -0.014 A 
ATOM     87  C   UNL     1      10.258 -17.641  -8.142  1.00  0.00     0.010 A 
ATOM     88  C   UNL     1       8.219 -18.945  -8.329  1.00  0.00     0.010 A 
ATOM     89  C   UNL     1      10.975 -18.677  -8.746  1.00  0.00     0.020 A 
ATOM     90  C   UNL     1       8.937 -19.991  -8.914  1.00  0.00     0.020 A 
ATOM     91  C   UNL     1      10.309 -19.846  -9.130  1.00  0.00     0.054 A 
BRANCH  91  92
ATOM     92  S   UNL     1      11.269 -21.198  -9.867  1.00  0.00     0.124 S 
ATOM     93  O   UNL     1      11.481 -20.712 -11.228  1.00  0.00    -0.237 OA
ATOM     94  O   UNL     1      12.461 -21.245  -9.024  1.00  0.00    -0.237 OA
ATOM     95  O   UNL     1      10.383 -22.354  -9.748  1.00  0.00    -0.744 OA
ENDBRANCH  91  92
ENDBRANCH  65  86
ENDBRANCH  39  40
ENDBRANCH  31  34
ENDBRANCH  29  30
ENDBRANCH   1  29
TORSDOF 16
