REMARK SMILES Cc1nc(C(=O)NCCCCNC(=O)c2ccc(-c3c4nc(c(-c5ccc(S(=O)(=O)[O-])cc5)c5ccc([nH]5)c(-c5ccc(S(=O)(=O)[O-])cc5)c5nc(c(-c6ccc(S(=O)(=O)[O-])cc6)c6ccc3[nH]6)C=C5)C=C4)cc2)c(-c2ccccc2F)s1
REMARK SMILES IDX 10 1 9 2 8 3 7 4 5 5 6 6 4 8 1 9 2 10 3 11 83 12 75 13 76 14
REMARK SMILES IDX 77 15 81 16 78 17 80 18 82 19 79 20 11 21 12 22 13 23 14 25
REMARK SMILES IDX 15 26 16 27 74 28 17 29 73 30 18 31 19 32 20 33 67 34 21 35
REMARK SMILES IDX 72 36 66 37 68 38 22 39 71 40 65 41 64 42 23 44 53 45 34 46
REMARK SMILES IDX 52 47 35 48 38 49 51 50 69 51 36 52 37 53 50 55 70 56 39 57
REMARK SMILES IDX 24 58 25 59 33 60 26 61 32 62 27 63 28 64 29 65 30 66 31 67
REMARK SMILES IDX 54 68 55 69 63 70 56 71 62 72 57 73 58 74 59 75 60 76 61 77
REMARK SMILES IDX 40 78 41 79 49 80 42 81 48 82 43 83 44 84 45 85 46 86 47 87
REMARK H PARENT 7 7 12 24 68 43 38 54
REMARK Flexibility Score: inf
ROOT
ATOM      1  C   UNL     1       0.255  -6.060  -1.504  1.00  0.00     0.023 C 
ENDROOT
BRANCH   1   2
ATOM      2  C   UNL     1      -0.401  -4.693  -1.296  1.00  0.00     0.023 C 
BRANCH   2   3
ATOM      3  C   UNL     1      -0.086  -4.043   0.048  1.00  0.00     0.116 C 
BRANCH   3   4
ATOM      4  N   UNL     1       1.303  -3.631   0.141  1.00  0.00    -0.351 N 
ATOM      5  C   UNL     1       1.893  -2.389   0.151  1.00  0.00     0.271 C 
ATOM      6  O   UNL     1       3.121  -2.374   0.286  1.00  0.00    -0.267 OA
ATOM      7  H   UNL     1       1.939  -4.380   0.208  1.00  0.00     0.163 HD
BRANCH   5   8
ATOM      8  C   UNL     1       1.096  -1.153   0.038  1.00  0.00     0.147 A 
ATOM      9  C   UNL     1      -2.246   0.352  -0.029  1.00  0.00     0.079 C 
ATOM     10  C   UNL     1      -0.790   0.052  -0.026  1.00  0.00     0.091 A 
ATOM     11  N   UNL     1      -0.300  -1.161   0.030  1.00  0.00    -0.236 NA
ATOM     12  S   UNL     1       0.370   1.303  -0.085  1.00  0.00    -0.118 S 
ATOM     13  C   UNL     1       1.635   0.131  -0.030  1.00  0.00     0.070 A 
BRANCH  13  14
ATOM     14  C   UNL     1       3.023   0.591  -0.077  1.00  0.00     0.030 A 
ATOM     15  C   UNL     1       3.561   1.365   0.962  1.00  0.00     0.013 A 
ATOM     16  C   UNL     1       3.851   0.253  -1.154  1.00  0.00     0.131 A 
ATOM     17  C   UNL     1       4.896   1.781   0.919  1.00  0.00     0.001 A 
ATOM     18  C   UNL     1       5.183   0.658  -1.197  1.00  0.00     0.040 A 
ATOM     19  F   UNL     1       3.367  -0.466  -2.179  1.00  0.00    -0.206 F 
ATOM     20  C   UNL     1       5.707   1.423  -0.157  1.00  0.00     0.003 A 
ENDBRANCH  13  14
ENDBRANCH   5   8
ENDBRANCH   3   4
ENDBRANCH   2   3
ENDBRANCH   1   2
BRANCH   1  21
ATOM     21  C   UNL     1       0.001  -7.079  -0.397  1.00  0.00     0.116 C 
BRANCH  21  22
ATOM     22  N   UNL     1      -1.414  -7.322  -0.155  1.00  0.00    -0.352 N 
ATOM     23  C   UNL     1      -2.060  -8.519   0.041  1.00  0.00     0.251 C 
ATOM     24  H   UNL     1      -1.985  -6.521  -0.129  1.00  0.00     0.163 HD
ATOM     25  O   UNL     1      -3.285  -8.558   0.103  1.00  0.00    -0.269 OA
BRANCH  23  26
ATOM     26  C   UNL     1      -1.266  -9.762   0.142  1.00  0.00     0.039 A 
ATOM     27  C   UNL     1      -1.641 -10.868  -0.624  1.00  0.00     0.014 A 
ATOM     28  C   UNL     1      -0.133  -9.818   0.957  1.00  0.00     0.014 A 
ATOM     29  C   UNL     1      -0.835 -12.008  -0.626  1.00  0.00     0.010 A 
ATOM     30  C   UNL     1       0.710 -10.922   0.890  1.00  0.00     0.010 A 
ATOM     31  C   UNL     1       0.369 -12.030   0.099  1.00  0.00    -0.014 A 
BRANCH  31  32
ATOM     32  C   UNL     1       1.287 -13.196   0.034  1.00  0.00     0.031 A 
ATOM     33  C   UNL     1       1.593 -13.989   1.276  1.00  0.00     0.074 A 
ATOM     34  C   UNL     1       1.898 -13.500  -1.129  1.00  0.00     0.049 A 
ATOM     35  N   UNL     1       2.404 -15.005   1.426  1.00  0.00    -0.248 NA
ATOM     36  C   UNL     1       0.920 -13.570   2.516  1.00  0.00     0.031 C 
ATOM     37  C   UNL     1       1.720 -12.781  -2.393  1.00  0.00     0.029 A 
ATOM     38  N   UNL     1       2.798 -14.490  -1.436  1.00  0.00    -0.354 N 
ATOM     39  C   UNL     1       2.351 -15.335   2.775  1.00  0.00     0.074 A 
ATOM     40  C   UNL     1       1.473 -14.376   3.409  1.00  0.00     0.031 C 
ATOM     41  C   UNL     1       2.461 -13.372  -3.343  1.00  0.00     0.029 A 
ATOM     42  C   UNL     1       3.202 -14.481  -2.750  1.00  0.00     0.049 A 
ATOM     43  H   UNL     1       3.122 -15.146  -0.777  1.00  0.00     0.167 HD
ATOM     44  C   UNL     1       2.961 -16.355   3.425  1.00  0.00     0.031 A 
ATOM     45  C   UNL     1       4.077 -15.269  -3.406  1.00  0.00     0.031 A 
ATOM     46  C   UNL     1       3.835 -17.305   2.788  1.00  0.00     0.049 A 
ATOM     47  C   UNL     1       4.759 -16.384  -2.661  1.00  0.00     0.074 A 
ATOM     48  C   UNL     1       4.460 -18.407   3.347  1.00  0.00     0.029 A 
ATOM     49  N   UNL     1       4.217 -17.263   1.455  1.00  0.00    -0.354 N 
ATOM     50  N   UNL     1       4.640 -16.726  -1.400  1.00  0.00    -0.248 NA
ATOM     51  C   UNL     1       5.683 -17.228  -3.430  1.00  0.00     0.031 C 
ATOM     52  C   UNL     1       5.269 -18.992   2.368  1.00  0.00     0.029 A 
ATOM     53  C   UNL     1       5.092 -18.301   1.180  1.00  0.00     0.049 A 
ATOM     54  H   UNL     1       3.910 -16.594   0.801  1.00  0.00     0.167 HD
ATOM     55  C   UNL     1       5.452 -17.842  -1.232  1.00  0.00     0.074 A 
ATOM     56  C   UNL     1       6.044 -18.125  -2.523  1.00  0.00     0.031 C 
ATOM     57  C   UNL     1       5.681 -18.569  -0.110  1.00  0.00     0.031 A 
BRANCH  44  58
ATOM     58  C   UNL     1       2.713 -16.482   4.907  1.00  0.00    -0.014 A 
ATOM     59  C   UNL     1       1.444 -16.826   5.409  1.00  0.00     0.010 A 
ATOM     60  C   UNL     1       3.770 -16.275   5.812  1.00  0.00     0.010 A 
ATOM     61  C   UNL     1       1.224 -16.906   6.786  1.00  0.00     0.020 A 
ATOM     62  C   UNL     1       3.563 -16.388   7.190  1.00  0.00     0.020 A 
ATOM     63  C   UNL     1       2.285 -16.682   7.669  1.00  0.00     0.054 A 
BRANCH  63  64
ATOM     64  S   UNL     1       1.970 -16.797   9.451  1.00  0.00     0.124 S 
ATOM     65  O   UNL     1       1.179 -15.593   9.695  1.00  0.00    -0.237 OA
ATOM     66  O   UNL     1       1.244 -18.059   9.566  1.00  0.00    -0.237 OA
ATOM     67  O   UNL     1       3.306 -16.794  10.041  1.00  0.00    -0.744 OA
ENDBRANCH  63  64
ENDBRANCH  44  58
BRANCH  45  68
ATOM     68  C   UNL     1       4.342 -15.036  -4.853  1.00  0.00    -0.014 A 
ATOM     69  C   UNL     1       3.884 -15.948  -5.820  1.00  0.00     0.010 A 
ATOM     70  C   UNL     1       5.026 -13.880  -5.274  1.00  0.00     0.010 A 
ATOM     71  C   UNL     1       4.114 -15.715  -7.179  1.00  0.00     0.020 A 
ATOM     72  C   UNL     1       5.231 -13.629  -6.634  1.00  0.00     0.020 A 
ATOM     73  C   UNL     1       4.781 -14.553  -7.578  1.00  0.00     0.054 A 
BRANCH  73  74
ATOM     74  S   UNL     1       5.006 -14.239  -9.351  1.00  0.00     0.124 S 
ATOM     75  O   UNL     1       6.010 -15.236  -9.711  1.00  0.00    -0.237 OA
ATOM     76  O   UNL     1       3.665 -14.470  -9.883  1.00  0.00    -0.237 OA
ATOM     77  O   UNL     1       5.456 -12.850  -9.399  1.00  0.00    -0.744 OA
ENDBRANCH  73  74
ENDBRANCH  45  68
BRANCH  57  78
ATOM     78  C   UNL     1       6.586 -19.768  -0.230  1.00  0.00    -0.014 A 
ATOM     79  C   UNL     1       7.971 -19.626  -0.426  1.00  0.00     0.010 A 
ATOM     80  C   UNL     1       6.044 -21.059  -0.082  1.00  0.00     0.010 A 
ATOM     81  C   UNL     1       8.792 -20.755  -0.505  1.00  0.00     0.020 A 
ATOM     82  C   UNL     1       6.866 -22.188  -0.128  1.00  0.00     0.020 A 
ATOM     83  C   UNL     1       8.235 -22.028  -0.353  1.00  0.00     0.054 A 
BRANCH  83  84
ATOM     84  S   UNL     1       9.330 -23.473  -0.412  1.00  0.00     0.124 S 
ATOM     85  O   UNL     1       9.680 -23.532  -1.829  1.00  0.00    -0.237 OA
ATOM     86  O   UNL     1      10.414 -23.089   0.488  1.00  0.00    -0.237 OA
ATOM     87  O   UNL     1       8.488 -24.567   0.067  1.00  0.00    -0.744 OA
ENDBRANCH  83  84
ENDBRANCH  57  78
ENDBRANCH  31  32
ENDBRANCH  23  26
ENDBRANCH  21  22
ENDBRANCH   1  21
TORSDOF 15
