REMARK SMILES [NH3+][C@H]1COC[C@@H]1C(=O)NC1(CC(=O)NCCCCNC(=O)c2ccc(-c3c4nc(c(-c5ccc(S(=O)(=O)[O-])cc5)c5ccc([nH]5)c(-c5ccc(S(=O)(=O)[O-])cc5)c5nc(c(-c6ccc(S(=O)(=O)[O-])cc6)c6ccc3[nH]6)C=C5)C=C4)cc2)CCC1
REMARK SMILES IDX 16 1 15 2 14 3 12 4 13 5 11 7 10 8 82 9 84 10 83 11 9 12
REMARK SMILES IDX 7 13 8 14 6 16 2 17 3 18 4 19 5 20 1 21 17 25 18 26 19 27
REMARK SMILES IDX 20 28 21 30 22 31 23 32 81 33 24 34 80 35 25 36 26 37 27 38
REMARK SMILES IDX 74 39 28 40 79 41 73 42 75 43 29 44 78 45 72 46 71 47 30 49
REMARK SMILES IDX 60 50 41 51 59 52 42 53 45 54 58 55 76 56 43 57 44 58 57 60
REMARK SMILES IDX 77 61 46 62 31 63 32 64 40 65 33 66 39 67 34 68 35 69 36 70
REMARK SMILES IDX 37 71 38 72 61 73 62 74 70 75 63 76 69 77 64 78 65 79 66 80
REMARK SMILES IDX 67 81 68 82 47 83 48 84 56 85 49 86 55 87 50 88 51 89 52 90
REMARK SMILES IDX 53 91 54 92
REMARK H PARENT 14 6 9 15 1 22 1 23 1 24 19 29 75 48 45 59
REMARK Flexibility Score: inf
ROOT
ATOM      1  C   UNL     1       2.924  -5.524   2.575  1.00  0.00     0.023 C 
ENDROOT
BRANCH   1   2
ATOM      2  C   UNL     1       4.212  -4.996   3.212  1.00  0.00     0.116 C 
BRANCH   2   3
ATOM      3  N   UNL     1       5.105  -4.474   2.199  1.00  0.00    -0.356 N 
ATOM      4  C   UNL     1       5.148  -3.229   1.655  1.00  0.00     0.222 C 
ATOM      5  O   UNL     1       5.849  -3.043   0.659  1.00  0.00    -0.275 OA
ATOM      6  H   UNL     1       5.774  -5.109   1.856  1.00  0.00     0.163 HD
BRANCH   4   7
ATOM      7  C   UNL     1       4.358  -2.078   2.247  1.00  0.00     0.128 C 
BRANCH   7   8
ATOM      8  C   UNL     1       2.922  -1.861   1.697  1.00  0.00     0.049 C 
ATOM      9  C   UNL     1       2.376  -0.444   2.051  1.00  0.00     0.029 C 
ATOM     10  C   UNL     1       1.851  -2.430   2.649  1.00  0.00     0.029 C 
ATOM     11  C   UNL     1       1.728  -1.044   3.305  1.00  0.00     0.005 C 
BRANCH   8  12
ATOM     12  N   UNL     1       2.898  -2.119   0.239  1.00  0.00    -0.350 N 
ATOM     13  C   UNL     1       2.049  -2.296  -0.797  1.00  0.00     0.232 C 
ATOM     14  O   UNL     1       2.634  -2.338  -1.895  1.00  0.00    -0.274 OA
ATOM     15  H   UNL     1       3.824  -2.183  -0.090  1.00  0.00     0.164 HD
BRANCH  13  16
ATOM     16  C   UNL     1       0.534  -2.458  -0.836  1.00  0.00     0.164 C 
ATOM     17  C   UNL     1      -0.336  -1.269  -0.467  1.00  0.00     0.221 C 
ATOM     18  C   UNL     1      -1.016  -1.720   0.824  1.00  0.00     0.225 C 
ATOM     19  O   UNL     1      -1.007  -3.151   0.852  1.00  0.00    -0.374 OA
ATOM     20  C   UNL     1      -0.028  -3.636  -0.078  1.00  0.00     0.180 C 
BRANCH  17  21
ATOM     21  N   UNL     1      -1.374  -0.964  -1.481  1.00  0.00    -0.352 N 
ATOM     22  H   UNL     1      -1.921  -0.160  -1.176  1.00  0.00     0.344 HD
ATOM     23  H   UNL     1      -1.988  -1.771  -1.592  1.00  0.00     0.344 HD
ATOM     24  H   UNL     1      -0.926  -0.752  -2.373  1.00  0.00     0.344 HD
ENDBRANCH  17  21
ENDBRANCH  13  16
ENDBRANCH   8  12
ENDBRANCH   7   8
ENDBRANCH   4   7
ENDBRANCH   2   3
ENDBRANCH   1   2
BRANCH   1  25
ATOM     25  C   UNL     1       2.991  -6.974   2.104  1.00  0.00     0.023 C 
BRANCH  25  26
ATOM     26  C   UNL     1       3.073  -7.990   3.236  1.00  0.00     0.116 C 
BRANCH  26  27
ATOM     27  N   UNL     1       1.928  -7.959   4.136  1.00  0.00    -0.352 N 
ATOM     28  C   UNL     1       1.422  -8.995   4.892  1.00  0.00     0.251 C 
ATOM     29  H   UNL     1       1.459  -7.097   4.213  1.00  0.00     0.163 HD
ATOM     30  O   UNL     1       0.405  -8.850   5.553  1.00  0.00    -0.269 OA
BRANCH  28  31
ATOM     31  C   UNL     1       2.109 -10.301   4.834  1.00  0.00     0.039 A 
ATOM     32  C   UNL     1       1.375 -11.430   4.465  1.00  0.00     0.014 A 
ATOM     33  C   UNL     1       3.488 -10.381   5.037  1.00  0.00     0.014 A 
ATOM     34  C   UNL     1       2.045 -12.629   4.214  1.00  0.00     0.010 A 
ATOM     35  C   UNL     1       4.160 -11.552   4.711  1.00  0.00     0.010 A 
ATOM     36  C   UNL     1       3.447 -12.684   4.288  1.00  0.00    -0.014 A 
BRANCH  36  37
ATOM     37  C   UNL     1       4.193 -13.910   3.911  1.00  0.00     0.031 A 
ATOM     38  C   UNL     1       5.017 -14.633   4.939  1.00  0.00     0.074 A 
ATOM     39  C   UNL     1       4.195 -14.321   2.627  1.00  0.00     0.049 A 
ATOM     40  N   UNL     1       5.801 -15.668   4.787  1.00  0.00    -0.248 NA
ATOM     41  C   UNL     1       4.978 -14.103   6.313  1.00  0.00     0.031 C 
ATOM     42  C   UNL     1       3.478 -13.674   1.525  1.00  0.00     0.029 A 
ATOM     43  N   UNL     1       4.831 -15.380   2.029  1.00  0.00    -0.354 N 
ATOM     44  C   UNL     1       6.365 -15.899   6.036  1.00  0.00     0.074 A 
ATOM     45  C   UNL     1       5.872 -14.868   6.922  1.00  0.00     0.031 C 
ATOM     46  C   UNL     1       3.693 -14.365   0.393  1.00  0.00     0.029 A 
ATOM     47  C   UNL     1       4.590 -15.479   0.679  1.00  0.00     0.049 A 
ATOM     48  H   UNL     1       5.407 -16.009   2.521  1.00  0.00     0.167 HD
ATOM     49  C   UNL     1       7.202 -16.893   6.417  1.00  0.00     0.031 A 
ATOM     50  C   UNL     1       5.043 -16.366  -0.228  1.00  0.00     0.031 A 
ATOM     51  C   UNL     1       7.674 -17.929   5.539  1.00  0.00     0.049 A 
ATOM     52  C   UNL     1       5.961 -17.468   0.221  1.00  0.00     0.074 A 
ATOM     53  C   UNL     1       8.473 -19.017   5.843  1.00  0.00     0.029 A 
ATOM     54  N   UNL     1       7.387 -18.008   4.185  1.00  0.00    -0.354 N 
ATOM     55  N   UNL     1       6.432 -17.709   1.422  1.00  0.00    -0.248 NA
ATOM     56  C   UNL     1       6.402 -18.424  -0.804  1.00  0.00     0.031 C 
ATOM     57  C   UNL     1       8.703 -19.732   4.663  1.00  0.00     0.029 A 
ATOM     58  C   UNL     1       8.008 -19.116   3.634  1.00  0.00     0.049 A 
ATOM     59  H   UNL     1       6.825 -17.370   3.688  1.00  0.00     0.167 HD
ATOM     60  C   UNL     1       7.208 -18.855   1.300  1.00  0.00     0.074 A 
ATOM     61  C   UNL     1       7.131 -19.268  -0.087  1.00  0.00     0.031 C 
ATOM     62  C   UNL     1       7.921 -19.508   2.251  1.00  0.00     0.031 A 
BRANCH  49  63
ATOM     63  C   UNL     1       7.657 -16.899   7.851  1.00  0.00    -0.014 A 
ATOM     64  C   UNL     1       6.765 -17.215   8.892  1.00  0.00     0.010 A 
ATOM     65  C   UNL     1       8.996 -16.602   8.163  1.00  0.00     0.010 A 
ATOM     66  C   UNL     1       7.191 -17.186  10.222  1.00  0.00     0.020 A 
ATOM     67  C   UNL     1       9.433 -16.598   9.491  1.00  0.00     0.020 A 
ATOM     68  C   UNL     1       8.521 -16.871  10.514  1.00  0.00     0.054 A 
BRANCH  68  69
ATOM     69  S   UNL     1       9.050 -16.848  12.248  1.00  0.00     0.124 S 
ATOM     70  O   UNL     1       8.469 -15.594  12.722  1.00  0.00    -0.237 OA
ATOM     71  O   UNL     1       8.444 -18.063  12.786  1.00  0.00    -0.237 OA
ATOM     72  O   UNL     1      10.508 -16.867  12.166  1.00  0.00    -0.744 OA
ENDBRANCH  68  69
ENDBRANCH  49  63
BRANCH  50  73
ATOM     73  C   UNL     1       4.614 -16.261  -1.649  1.00  0.00    -0.014 A 
ATOM     74  C   UNL     1       3.701 -17.187  -2.185  1.00  0.00     0.010 A 
ATOM     75  C   UNL     1       5.101 -15.228  -2.469  1.00  0.00     0.010 A 
ATOM     76  C   UNL     1       3.295 -17.091  -3.519  1.00  0.00     0.020 A 
ATOM     77  C   UNL     1       4.679 -15.114  -3.797  1.00  0.00     0.020 A 
ATOM     78  C   UNL     1       3.787 -16.054  -4.316  1.00  0.00     0.054 A 
BRANCH  78  79
ATOM     79  S   UNL     1       3.203 -15.915  -6.029  1.00  0.00     0.124 S 
ATOM     80  O   UNL     1       3.948 -16.980  -6.691  1.00  0.00    -0.237 OA
ATOM     81  O   UNL     1       1.766 -16.136  -5.893  1.00  0.00    -0.237 OA
ATOM     82  O   UNL     1       3.582 -14.555  -6.408  1.00  0.00    -0.744 OA
ENDBRANCH  78  79
ENDBRANCH  50  73
BRANCH  62  83
ATOM     83  C   UNL     1       8.657 -20.750   1.830  1.00  0.00    -0.014 A 
ATOM     84  C   UNL     1       9.833 -20.672   1.064  1.00  0.00     0.010 A 
ATOM     85  C   UNL     1       8.193 -22.009   2.254  1.00  0.00     0.010 A 
ATOM     86  C   UNL     1      10.520 -21.835   0.707  1.00  0.00     0.020 A 
ATOM     87  C   UNL     1       8.890 -23.172   1.919  1.00  0.00     0.020 A 
ATOM     88  C   UNL     1      10.043 -23.078   1.136  1.00  0.00     0.054 A 
BRANCH  88  89
ATOM     89  S   UNL     1      10.977 -24.571   0.700  1.00  0.00     0.124 S 
ATOM     90  O   UNL     1      10.622 -24.752  -0.704  1.00  0.00    -0.237 OA
ATOM     91  O   UNL     1      12.360 -24.171   0.953  1.00  0.00    -0.237 OA
ATOM     92  O   UNL     1      10.453 -25.585   1.612  1.00  0.00    -0.744 OA
ENDBRANCH  88  89
ENDBRANCH  62  83
ENDBRANCH  36  37
ENDBRANCH  28  31
ENDBRANCH  26  27
ENDBRANCH  25  26
ENDBRANCH   1  25
TORSDOF 18
