REMARK SMILES COc1cccc([C@H]2CC(c3ccc(S(C)(=O)=O)cc3)=NN2c2ccc(C(=O)NCCCCNC(=O)c3ccc(-c4c5nc(c(-c6ccc(S(=O)(=O)[O-])cc6)c6ccc([nH]6)c(-c6ccc(S(=O)(=O)[O-])cc6)c6nc(c(-c7ccc(S(=O)(=O)[O-])cc7)c7ccc4[nH]7)C=C6)C=C5)cc3)cc2)c1
REMARK SMILES IDX 31 1 30 2 29 3 27 4 28 5 26 7 23 8 24 9 98 10 25 11 97 12
REMARK SMILES IDX 22 13 8 14 9 15 10 16 21 17 7 18 3 19 4 20 99 21 5 22 6 23
REMARK SMILES IDX 2 24 1 25 11 26 12 27 20 28 13 29 19 30 14 31 15 32 16 33
REMARK SMILES IDX 17 34 18 35 32 36 33 37 34 38 35 39 36 41 37 42 38 43 96 44
REMARK SMILES IDX 39 45 95 46 40 47 41 48 42 49 89 50 43 51 94 52 88 53 90 54
REMARK SMILES IDX 44 55 93 56 87 57 86 58 45 60 75 61 56 62 74 63 57 64 60 65
REMARK SMILES IDX 73 66 91 67 58 68 59 69 72 71 92 72 61 73 46 74 47 75 55 76
REMARK SMILES IDX 48 77 54 78 49 79 50 80 51 81 52 82 53 83 76 84 77 85 85 86
REMARK SMILES IDX 78 87 84 88 79 89 80 90 81 91 82 92 83 93 62 94 63 95 71 96
REMARK SMILES IDX 64 97 70 98 65 99 66 100 67 101 68 102 69 103
REMARK H PARENT 29 6 34 40 90 59 60 70
REMARK Flexibility Score: inf
ROOT
ATOM      1  C   UNL     1       5.125  -4.979  -9.305  1.00  0.00     0.023 C 
ENDROOT
BRANCH   1   2
ATOM      2  C   UNL     1       3.773  -4.953  -8.587  1.00  0.00     0.116 C 
BRANCH   2   3
ATOM      3  N   UNL     1       3.779  -5.880  -7.475  1.00  0.00    -0.352 N 
ATOM      4  C   UNL     1       4.043  -5.706  -6.141  1.00  0.00     0.251 C 
ATOM      5  O   UNL     1       3.974  -6.696  -5.412  1.00  0.00    -0.269 OA
ATOM      6  H   UNL     1       3.552  -6.805  -7.723  1.00  0.00     0.163 HD
BRANCH   4   7
ATOM      7  C   UNL     1       4.340  -4.377  -5.534  1.00  0.00     0.039 A 
ATOM      8  C   UNL     1       4.675  -1.878  -4.260  1.00  0.00     0.060 A 
ATOM      9  C   UNL     1       4.210  -2.986  -3.546  1.00  0.00     0.029 A 
ATOM     10  C   UNL     1       5.042  -2.053  -5.593  1.00  0.00     0.029 A 
ATOM     11  C   UNL     1       4.023  -4.217  -4.179  1.00  0.00     0.016 A 
ATOM     12  C   UNL     1       4.917  -3.300  -6.209  1.00  0.00     0.016 A 
BRANCH   8  13
ATOM     13  N   UNL     1       4.759  -0.642  -3.651  1.00  0.00    -0.257 N 
ATOM     14  C   UNL     1       3.978   0.525  -4.056  1.00  0.00     0.144 C 
ATOM     15  C   UNL     1       4.584   1.641  -3.194  1.00  0.00     0.091 C 
ATOM     16  C   UNL     1       5.659   0.867  -2.481  1.00  0.00     0.071 C 
ATOM     17  N   UNL     1       5.743  -0.393  -2.760  1.00  0.00    -0.176 NA
BRANCH  14  18
ATOM     18  C   UNL     1       2.496   0.298  -3.806  1.00  0.00    -0.019 A 
ATOM     19  C   UNL     1       0.665  -0.274  -2.297  1.00  0.00     0.119 A 
ATOM     20  C   UNL     1      -0.215  -0.288  -3.378  1.00  0.00     0.046 A 
ATOM     21  C   UNL     1       2.016   0.000  -2.515  1.00  0.00     0.052 A 
ATOM     22  C   UNL     1       0.241   0.007  -4.662  1.00  0.00     0.004 A 
ATOM     23  C   UNL     1       1.589   0.303  -4.876  1.00  0.00     0.006 A 
BRANCH  19  24
ATOM     24  O   UNL     1       0.120  -0.601  -1.086  1.00  0.00    -0.497 OA
ATOM     25  C   UNL     1       0.739   0.007   0.042  1.00  0.00     0.278 C 
ENDBRANCH  19  24
ENDBRANCH  14  18
BRANCH  16  26
ATOM     26  C   UNL     1       6.578   1.514  -1.545  1.00  0.00    -0.002 A 
ATOM     27  C   UNL     1       7.954   1.403  -1.771  1.00  0.00     0.011 A 
ATOM     28  C   UNL     1       6.081   2.160  -0.412  1.00  0.00     0.011 A 
ATOM     29  C   UNL     1       8.848   1.959  -0.859  1.00  0.00     0.021 A 
ATOM     30  C   UNL     1       6.976   2.694   0.516  1.00  0.00     0.021 A 
ATOM     31  C   UNL     1       8.353   2.587   0.289  1.00  0.00     0.067 A 
BRANCH  31  32
ATOM     32  S   UNL     1       9.500   3.264   1.466  1.00  0.00     0.175 S 
ATOM     33  C   UNL     1      10.427   1.861   2.031  1.00  0.00     0.163 C 
ATOM     34  O   UNL     1      10.388   4.138   0.728  1.00  0.00    -0.224 OA
ATOM     35  O   UNL     1       8.729   3.760   2.592  1.00  0.00    -0.224 OA
ENDBRANCH  31  32
ENDBRANCH  16  26
ENDBRANCH   8  13
ENDBRANCH   4   7
ENDBRANCH   2   3
ENDBRANCH   1   2
BRANCH   1  36
ATOM     36  C   UNL     1       5.298  -6.172 -10.244  1.00  0.00     0.023 C 
BRANCH  36  37
ATOM     37  C   UNL     1       4.321  -6.198 -11.409  1.00  0.00     0.116 C 
BRANCH  37  38
ATOM     38  N   UNL     1       4.414  -5.021 -12.264  1.00  0.00    -0.352 N 
ATOM     39  C   UNL     1       4.209  -4.958 -13.622  1.00  0.00     0.251 C 
ATOM     40  H   UNL     1       4.651  -4.176 -11.818  1.00  0.00     0.163 HD
ATOM     41  O   UNL     1       4.432  -3.928 -14.247  1.00  0.00    -0.269 OA
BRANCH  39  42
ATOM     42  C   UNL     1       3.752  -6.181 -14.309  1.00  0.00     0.039 A 
ATOM     43  C   UNL     1       4.506  -6.692 -15.366  1.00  0.00     0.014 A 
ATOM     44  C   UNL     1       2.637  -6.868 -13.824  1.00  0.00     0.014 A 
ATOM     45  C   UNL     1       4.177  -7.940 -15.898  1.00  0.00     0.010 A 
ATOM     46  C   UNL     1       2.364  -8.143 -14.299  1.00  0.00     0.010 A 
ATOM     47  C   UNL     1       3.128  -8.691 -15.342  1.00  0.00    -0.014 A 
BRANCH  47  48
ATOM     48  C   UNL     1       2.781 -10.046 -15.839  1.00  0.00     0.031 A 
ATOM     49  C   UNL     1       1.417 -10.285 -16.428  1.00  0.00     0.074 A 
ATOM     50  C   UNL     1       3.642 -11.070 -15.679  1.00  0.00     0.049 A 
ATOM     51  N   UNL     1       0.857 -11.411 -16.785  1.00  0.00    -0.248 NA
ATOM     52  C   UNL     1       0.557  -9.102 -16.607  1.00  0.00     0.031 C 
ATOM     53  C   UNL     1       4.985 -10.971 -15.102  1.00  0.00     0.029 A 
ATOM     54  N   UNL     1       3.507 -12.404 -15.974  1.00  0.00    -0.354 N 
ATOM     55  C   UNL     1      -0.425 -11.076 -17.204  1.00  0.00     0.074 A 
ATOM     56  C   UNL     1      -0.579  -9.653 -17.007  1.00  0.00     0.031 C 
ATOM     57  C   UNL     1       5.555 -12.188 -15.103  1.00  0.00     0.029 A 
ATOM     58  C   UNL     1       4.603 -13.161 -15.630  1.00  0.00     0.049 A 
ATOM     59  H   UNL     1       2.701 -12.784 -16.393  1.00  0.00     0.167 HD
ATOM     60  C   UNL     1      -1.382 -11.879 -17.725  1.00  0.00     0.031 A 
ATOM     61  C   UNL     1       4.811 -14.490 -15.713  1.00  0.00     0.031 A 
ATOM     62  C   UNL     1      -1.217 -13.293 -17.931  1.00  0.00     0.049 A 
ATOM     63  C   UNL     1       3.721 -15.368 -16.270  1.00  0.00     0.074 A 
ATOM     64  C   UNL     1      -2.109 -14.188 -18.493  1.00  0.00     0.029 A 
ATOM     65  N   UNL     1      -0.085 -14.016 -17.585  1.00  0.00    -0.354 N 
ATOM     66  N   UNL     1       2.531 -15.028 -16.705  1.00  0.00    -0.248 NA
ATOM     67  C   UNL     1       4.006 -16.807 -16.360  1.00  0.00     0.031 C 
ATOM     68  C   UNL     1      -1.538 -15.463 -18.436  1.00  0.00     0.029 A 
ATOM     69  C   UNL     1      -0.263 -15.350 -17.905  1.00  0.00     0.049 A 
ATOM     70  H   UNL     1       0.724 -13.636 -17.172  1.00  0.00     0.167 HD
ATOM     71  C   UNL     1       1.943 -16.204 -17.159  1.00  0.00     0.074 A 
ATOM     72  C   UNL     1       2.909 -17.263 -16.948  1.00  0.00     0.031 C 
ATOM     73  C   UNL     1       0.717 -16.389 -17.708  1.00  0.00     0.031 A 
BRANCH  60  74
ATOM     74  C   UNL     1      -2.695 -11.245 -18.101  1.00  0.00    -0.014 A 
ATOM     75  C   UNL     1      -2.787 -10.342 -19.176  1.00  0.00     0.010 A 
ATOM     76  C   UNL     1      -3.862 -11.584 -17.392  1.00  0.00     0.010 A 
ATOM     77  C   UNL     1      -4.011  -9.755 -19.506  1.00  0.00     0.020 A 
ATOM     78  C   UNL     1      -5.095 -11.025 -17.741  1.00  0.00     0.020 A 
ATOM     79  C   UNL     1      -5.158 -10.101 -18.785  1.00  0.00     0.054 A 
BRANCH  79  80
ATOM     80  S   UNL     1      -6.737  -9.342 -19.253  1.00  0.00     0.124 S 
ATOM     81  O   UNL     1      -6.554  -7.965 -18.800  1.00  0.00    -0.237 OA
ATOM     82  O   UNL     1      -6.763  -9.527 -20.702  1.00  0.00    -0.237 OA
ATOM     83  O   UNL     1      -7.728 -10.115 -18.510  1.00  0.00    -0.744 OA
ENDBRANCH  79  80
ENDBRANCH  60  74
BRANCH  61  84
ATOM     84  C   UNL     1       6.107 -15.075 -15.267  1.00  0.00    -0.014 A 
ATOM     85  C   UNL     1       7.002 -15.622 -16.203  1.00  0.00     0.010 A 
ATOM     86  C   UNL     1       6.456 -15.087 -13.903  1.00  0.00     0.010 A 
ATOM     87  C   UNL     1       8.208 -16.192 -15.784  1.00  0.00     0.020 A 
ATOM     88  C   UNL     1       7.675 -15.627 -13.483  1.00  0.00     0.020 A 
ATOM     89  C   UNL     1       8.538 -16.189 -14.426  1.00  0.00     0.054 A 
BRANCH  89  90
ATOM     90  S   UNL     1      10.127 -16.898 -13.912  1.00  0.00     0.124 S 
ATOM     91  O   UNL     1       9.900 -18.326 -14.107  1.00  0.00    -0.237 OA
ATOM     92  O   UNL     1      11.065 -16.273 -14.841  1.00  0.00    -0.237 OA
ATOM     93  O   UNL     1      10.260 -16.468 -12.522  1.00  0.00    -0.744 OA
ENDBRANCH  89  90
ENDBRANCH  61  84
BRANCH  73  94
ATOM     94  C   UNL     1       0.363 -17.771 -18.190  1.00  0.00    -0.014 A 
ATOM     95  C   UNL     1       0.082 -18.816 -17.294  1.00  0.00     0.010 A 
ATOM     96  C   UNL     1       0.225 -17.997 -19.573  1.00  0.00     0.010 A 
ATOM     97  C   UNL     1      -0.313 -20.069 -17.774  1.00  0.00     0.020 A 
ATOM     98  C   UNL     1      -0.198 -19.238 -20.054  1.00  0.00     0.020 A 
ATOM     99  C   UNL     1      -0.456 -20.269 -19.151  1.00  0.00     0.054 A 
BRANCH  99 100
ATOM    100  S   UNL     1      -1.036 -21.882 -19.743  1.00  0.00     0.124 S 
ATOM    101  O   UNL     1       0.125 -22.733 -19.499  1.00  0.00    -0.237 OA
ATOM    102  O   UNL     1      -2.193 -22.138 -18.888  1.00  0.00    -0.237 OA
ATOM    103  O   UNL     1      -1.349 -21.644 -21.150  1.00  0.00    -0.744 OA
ENDBRANCH  99 100
ENDBRANCH  73  94
ENDBRANCH  47  48
ENDBRANCH  39  42
ENDBRANCH  37  38
ENDBRANCH  36  37
ENDBRANCH   1  36
TORSDOF 19
