REMARK SMILES O=C(CCn1c(N2CC[NH2+]CC2)nc2ccccc2c1=O)NCCCCNC(=O)c1ccc(-c2c3nc(c(-c4ccc(S(=O)(=O)[O-])cc4)c4ccc([nH]4)c(-c4ccc(S(=O)(=O)[O-])cc4)c4nc(c(-c5ccc(S(=O)(=O)[O-])cc5)c5ccc2[nH]5)C=C4)C=C3)cc1
REMARK SMILES IDX 24 1 23 2 22 3 1 4 2 5 3 7 4 8 5 9 6 10 20 11 13 12 19 13
REMARK SMILES IDX 21 14 14 15 18 16 15 17 17 18 16 19 7 20 8 21 12 22 9 23
REMARK SMILES IDX 11 24 10 25 25 28 26 29 27 30 28 31 29 33 30 34 31 35 89 36
REMARK SMILES IDX 32 37 88 38 33 39 34 40 35 41 82 42 36 43 87 44 81 45 83 46
REMARK SMILES IDX 37 47 86 48 80 49 79 50 38 52 68 53 49 54 67 55 50 56 53 57
REMARK SMILES IDX 66 58 84 59 51 60 52 61 65 63 85 64 54 65 39 66 40 67 48 68
REMARK SMILES IDX 41 69 47 70 42 71 43 72 44 73 45 74 46 75 69 76 70 77 78 78
REMARK SMILES IDX 71 79 77 80 72 81 73 82 74 83 75 84 76 85 55 86 56 87 64 88
REMARK SMILES IDX 57 89 63 90 58 91 59 92 60 93 61 94 62 95
REMARK H PARENT 22 6 10 26 10 27 27 32 83 51 53 62
REMARK Flexibility Score: inf
ROOT
ATOM      1  C   UNL     1       2.246  -0.780   3.513  1.00  0.00     0.023 C 
ENDROOT
BRANCH   1   2
ATOM      2  C   UNL     1       1.818   0.385   2.620  1.00  0.00     0.116 C 
BRANCH   2   3
ATOM      3  N   UNL     1       2.327   0.256   1.271  1.00  0.00    -0.356 N 
ATOM      4  O   UNL     1       0.478   1.129   0.225  1.00  0.00    -0.275 OA
ATOM      5  C   UNL     1       1.602   0.638   0.165  1.00  0.00     0.221 C 
ATOM      6  H   UNL     1       3.227  -0.120   1.139  1.00  0.00     0.163 HD
BRANCH   5   7
ATOM      7  C   UNL     1       2.245   0.287  -1.157  1.00  0.00     0.122 C 
BRANCH   7   8
ATOM      8  C   UNL     1       3.473   1.104  -1.541  1.00  0.00     0.139 C 
BRANCH   8   9
ATOM      9  N   UNL     1       4.588   1.117  -0.585  1.00  0.00    -0.278 N 
ATOM     10  C   UNL     1       5.303  -0.034  -0.249  1.00  0.00     0.209 A 
ATOM     11  C   UNL     1       4.899   2.361  -0.029  1.00  0.00     0.262 A 
ATOM     12  N   UNL     1       6.273  -0.013   0.617  1.00  0.00    -0.214 NA
ATOM     13  C   UNL     1       6.057   2.409   0.868  1.00  0.00     0.066 A 
ATOM     14  O   UNL     1       4.272   3.395  -0.247  1.00  0.00    -0.269 OA
ATOM     15  C   UNL     1       6.705   1.210   1.143  1.00  0.00     0.080 A 
ATOM     16  C   UNL     1       6.512   3.627   1.392  1.00  0.00     0.016 A 
ATOM     17  C   UNL     1       7.851   1.246   1.940  1.00  0.00     0.029 A 
ATOM     18  C   UNL     1       7.660   3.650   2.178  1.00  0.00     0.001 A 
ATOM     19  C   UNL     1       8.339   2.461   2.435  1.00  0.00     0.002 A 
BRANCH  10  20
ATOM     20  N   UNL     1       4.919  -1.236  -0.801  1.00  0.00    -0.331 N 
ATOM     21  C   UNL     1       4.707  -2.418   0.053  1.00  0.00     0.181 C 
ATOM     22  C   UNL     1       5.416  -1.618  -2.132  1.00  0.00     0.181 C 
ATOM     23  C   UNL     1       3.714  -3.387  -0.628  1.00  0.00     0.282 C 
ATOM     24  C   UNL     1       4.407  -2.575  -2.802  1.00  0.00     0.282 C 
ATOM     25  N   UNL     1       4.095  -3.778  -2.001  1.00  0.00    -0.343 N 
ATOM     26  H   UNL     1       3.322  -4.282  -2.435  1.00  0.00     0.346 HD
ATOM     27  H   UNL     1       4.920  -4.376  -1.961  1.00  0.00     0.346 HD
ENDBRANCH  10  20
ENDBRANCH   8   9
ENDBRANCH   7   8
ENDBRANCH   5   7
ENDBRANCH   2   3
ENDBRANCH   1   2
BRANCH   1  28
ATOM     28  C   UNL     1       3.745  -0.879   3.803  1.00  0.00     0.023 C 
BRANCH  28  29
ATOM     29  C   UNL     1       4.391   0.350   4.428  1.00  0.00     0.116 C 
BRANCH  29  30
ATOM     30  N   UNL     1       3.867   0.660   5.750  1.00  0.00    -0.352 N 
ATOM     31  C   UNL     1       4.535   0.855   6.939  1.00  0.00     0.251 C 
ATOM     32  H   UNL     1       2.887   0.741   5.803  1.00  0.00     0.163 HD
ATOM     33  O   UNL     1       3.896   0.986   7.981  1.00  0.00    -0.269 OA
BRANCH  31  34
ATOM     34  C   UNL     1       6.016   0.868   6.974  1.00  0.00     0.039 A 
ATOM     35  C   UNL     1       6.749   1.547   6.004  1.00  0.00     0.014 A 
ATOM     36  C   UNL     1       6.686   0.172   7.986  1.00  0.00     0.014 A 
ATOM     37  C   UNL     1       8.128   1.371   5.938  1.00  0.00     0.010 A 
ATOM     38  C   UNL     1       8.084   0.068   7.962  1.00  0.00     0.010 A 
ATOM     39  C   UNL     1       8.816   0.615   6.899  1.00  0.00    -0.014 A 
BRANCH  39  40
ATOM     40  C   UNL     1      10.280   0.378   6.728  1.00  0.00     0.031 A 
ATOM     41  C   UNL     1      10.811  -1.019   6.512  1.00  0.00     0.074 A 
ATOM     42  C   UNL     1      11.128   1.425   6.655  1.00  0.00     0.049 A 
ATOM     43  N   UNL     1      12.046  -1.406   6.311  1.00  0.00    -0.248 NA
ATOM     44  C   UNL     1       9.836  -2.122   6.515  1.00  0.00     0.031 C 
ATOM     45  C   UNL     1      10.742   2.832   6.787  1.00  0.00     0.029 A 
ATOM     46  N   UNL     1      12.479   1.477   6.407  1.00  0.00    -0.354 N 
ATOM     47  C   UNL     1      11.998  -2.790   6.182  1.00  0.00     0.074 A 
ATOM     48  C   UNL     1      10.617  -3.181   6.356  1.00  0.00     0.031 C 
ATOM     49  C   UNL     1      11.809   3.606   6.542  1.00  0.00     0.029 A 
ATOM     50  C   UNL     1      12.976   2.757   6.319  1.00  0.00     0.049 A 
ATOM     51  H   UNL     1      13.038   0.673   6.302  1.00  0.00     0.167 HD
ATOM     52  C   UNL     1      13.008  -3.657   5.928  1.00  0.00     0.031 A 
ATOM     53  C   UNL     1      14.228   3.208   6.097  1.00  0.00     0.031 A 
ATOM     54  C   UNL     1      14.381  -3.271   5.734  1.00  0.00     0.049 A 
ATOM     55  C   UNL     1      15.345   2.224   5.898  1.00  0.00     0.074 A 
ATOM     56  C   UNL     1      15.470  -4.088   5.481  1.00  0.00     0.029 A 
ATOM     57  N   UNL     1      14.855  -1.970   5.760  1.00  0.00    -0.354 N 
ATOM     58  N   UNL     1      15.280   0.917   5.819  1.00  0.00    -0.248 NA
ATOM     59  C   UNL     1      16.704   2.770   5.773  1.00  0.00     0.031 C 
ATOM     60  C   UNL     1      16.611  -3.286   5.410  1.00  0.00     0.029 A 
ATOM     61  C   UNL     1      16.224  -1.963   5.551  1.00  0.00     0.049 A 
ATOM     62  H   UNL     1      14.301  -1.169   5.904  1.00  0.00     0.167 HD
ATOM     63  C   UNL     1      16.588   0.485   5.629  1.00  0.00     0.074 A 
ATOM     64  C   UNL     1      17.420   1.669   5.583  1.00  0.00     0.031 C 
ATOM     65  C   UNL     1      17.052  -0.783   5.510  1.00  0.00     0.031 A 
BRANCH  52  66
ATOM     66  C   UNL     1      12.681  -5.126   5.846  1.00  0.00    -0.014 A 
ATOM     67  C   UNL     1      13.148  -6.001   6.844  1.00  0.00     0.010 A 
ATOM     68  C   UNL     1      12.009  -5.657   4.731  1.00  0.00     0.010 A 
ATOM     69  C   UNL     1      12.970  -7.382   6.720  1.00  0.00     0.020 A 
ATOM     70  C   UNL     1      11.806  -7.036   4.615  1.00  0.00     0.020 A 
ATOM     71  C   UNL     1      12.306  -7.891   5.601  1.00  0.00     0.054 A 
BRANCH  71  72
ATOM     72  S   UNL     1      12.087  -9.686   5.450  1.00  0.00     0.124 S 
ATOM     73  O   UNL     1      13.409 -10.122   5.012  1.00  0.00    -0.237 OA
ATOM     74  O   UNL     1      11.708 -10.078   6.805  1.00  0.00    -0.237 OA
ATOM     75  O   UNL     1      11.023  -9.815   4.456  1.00  0.00    -0.744 OA
ENDBRANCH  71  72
ENDBRANCH  52  66
BRANCH  53  76
ATOM     76  C   UNL     1      14.474   4.677   6.051  1.00  0.00    -0.014 A 
ATOM     77  C   UNL     1      14.312   5.463   7.207  1.00  0.00     0.010 A 
ATOM     78  C   UNL     1      14.796   5.308   4.836  1.00  0.00     0.010 A 
ATOM     79  C   UNL     1      14.401   6.855   7.138  1.00  0.00     0.020 A 
ATOM     80  C   UNL     1      14.918   6.700   4.770  1.00  0.00     0.020 A 
ATOM     81  C   UNL     1      14.687   7.465   5.915  1.00  0.00     0.054 A 
BRANCH  81  82
ATOM     82  S   UNL     1      14.744   9.277   5.836  1.00  0.00     0.124 S 
ATOM     83  O   UNL     1      13.324   9.617   5.807  1.00  0.00    -0.237 OA
ATOM     84  O   UNL     1      15.451   9.630   7.065  1.00  0.00    -0.237 OA
ATOM     85  O   UNL     1      15.478   9.541   4.601  1.00  0.00    -0.744 OA
ENDBRANCH  81  82
ENDBRANCH  53  76
BRANCH  65  86
ATOM     86  C   UNL     1      18.531  -0.988   5.320  1.00  0.00    -0.014 A 
ATOM     87  C   UNL     1      19.016  -1.479   4.094  1.00  0.00     0.010 A 
ATOM     88  C   UNL     1      19.422  -0.829   6.396  1.00  0.00     0.010 A 
ATOM     89  C   UNL     1      20.357  -1.846   3.957  1.00  0.00     0.020 A 
ATOM     90  C   UNL     1      20.771  -1.170   6.254  1.00  0.00     0.020 A 
ATOM     91  C   UNL     1      21.223  -1.702   5.044  1.00  0.00     0.054 A 
BRANCH  91  92
ATOM     92  S   UNL     1      22.951  -2.225   4.862  1.00  0.00     0.124 S 
ATOM     93  O   UNL     1      22.845  -3.677   4.968  1.00  0.00    -0.237 OA
ATOM     94  O   UNL     1      23.306  -1.714   3.541  1.00  0.00    -0.237 OA
ATOM     95  O   UNL     1      23.627  -1.566   5.978  1.00  0.00    -0.744 OA
ENDBRANCH  91  92
ENDBRANCH  65  86
ENDBRANCH  39  40
ENDBRANCH  31  34
ENDBRANCH  29  30
ENDBRANCH  28  29
ENDBRANCH   1  28
TORSDOF 17
