REMARK SMILES Cc1nn(Cc2ccc(Cl)cc2Cl)c(C)c1NC(=O)c1c(C(=O)NCCCCNC(=O)c2ccc(-c3c4nc(c(-c5ccc(S(=O)(=O)[O-])cc5)c5ccc([nH]5)c(-c5ccc(S(=O)(=O)[O-])cc5)c5nc(c(-c6ccc(S(=O)(=O)[O-])cc6)c6ccc3[nH]6)C=C5)C=C4)cc2)cnn1C
REMARK SMILES IDX 26 1 25 2 24 3 22 4 23 5 21 7 20 8 94 9 92 10 93 11 95 12
REMARK SMILES IDX 18 13 17 14 19 16 16 17 1 18 2 19 3 20 4 21 14 22 15 23 5 24
REMARK SMILES IDX 6 25 7 26 12 27 8 28 11 29 13 30 9 31 10 32 27 33 28 34
REMARK SMILES IDX 29 35 30 36 31 38 32 39 33 40 91 41 34 42 90 43 35 44 36 45
REMARK SMILES IDX 37 46 84 47 38 48 89 49 83 50 85 51 39 52 88 53 82 54 81 55
REMARK SMILES IDX 40 57 70 58 51 59 69 60 52 61 55 62 68 63 86 64 53 65 54 66
REMARK SMILES IDX 67 68 87 69 56 70 41 71 42 72 50 73 43 74 49 75 44 76 45 77
REMARK SMILES IDX 46 78 47 79 48 80 71 81 72 82 80 83 73 84 79 85 74 86 75 87
REMARK SMILES IDX 76 88 77 89 78 90 57 91 58 92 66 93 59 94 65 95 60 96 61 97
REMARK SMILES IDX 62 98 63 99 64 100
REMARK H PARENT 24 6 17 15 29 37 85 56 55 67
REMARK Flexibility Score: inf
ROOT
ATOM      1  C   UNL     1       1.201  -3.947   6.480  1.00  0.00     0.023 C 
ENDROOT
BRANCH   1   2
ATOM      2  C   UNL     1       1.319  -2.447   6.787  1.00  0.00     0.116 C 
BRANCH   2   3
ATOM      3  N   UNL     1       1.649  -1.567   5.676  1.00  0.00    -0.352 N 
ATOM      4  C   UNL     1       1.186  -0.315   5.309  1.00  0.00     0.255 C 
ATOM      5  O   UNL     1       1.838   0.284   4.455  1.00  0.00    -0.269 OA
ATOM      6  H   UNL     1       2.332  -1.933   5.069  1.00  0.00     0.163 HD
BRANCH   4   7
ATOM      7  C   UNL     1      -0.046   0.242   5.851  1.00  0.00     0.090 A 
ATOM      8  C   UNL     1      -0.930   1.112   5.192  1.00  0.00     0.138 A 
ATOM      9  N   UNL     1      -1.963   1.323   6.079  1.00  0.00    -0.262 N 
ATOM     10  C   UNL     1      -0.596   0.139   7.149  1.00  0.00     0.149 A 
ATOM     11  N   UNL     1      -1.789   0.717   7.267  1.00  0.00    -0.180 NA
ATOM     12  C   UNL     1      -3.237   1.962   5.833  1.00  0.00     0.174 C 
BRANCH   8  13
ATOM     13  C   UNL     1      -0.872   1.779   3.908  1.00  0.00     0.274 C 
ATOM     14  N   UNL     1      -0.542   1.130   2.743  1.00  0.00    -0.317 N 
ATOM     15  H   UNL     1      -0.307   1.731   1.999  1.00  0.00     0.170 HD
ATOM     16  O   UNL     1      -1.120   2.985   3.812  1.00  0.00    -0.267 OA
BRANCH  14  17
ATOM     17  C   UNL     1      -0.480  -0.209   2.428  1.00  0.00     0.085 A 
ATOM     18  C   UNL     1       0.992  -0.099   0.255  1.00  0.00     0.071 C 
ATOM     19  C   UNL     1       0.239  -0.781   1.338  1.00  0.00     0.083 A 
ATOM     20  N   UNL     1       0.231  -2.119   1.392  1.00  0.00    -0.175 NA
ATOM     21  N   UNL     1      -0.480  -2.383   2.504  1.00  0.00    -0.263 N 
ATOM     22  C   UNL     1      -1.133  -1.280   3.002  1.00  0.00     0.060 A 
ATOM     23  C   UNL     1      -2.265  -1.398   3.949  1.00  0.00     0.069 C 
BRANCH  21  24
ATOM     24  C   UNL     1      -0.243  -3.628   3.224  1.00  0.00     0.181 C 
BRANCH  24  25
ATOM     25  C   UNL     1      -1.156  -4.748   2.819  1.00  0.00    -0.008 A 
ATOM     26  C   UNL     1      -0.911  -5.384   1.589  1.00  0.00     0.009 A 
ATOM     27  C   UNL     1      -2.223  -5.207   3.610  1.00  0.00     0.047 A 
ATOM     28  C   UNL     1      -1.730  -6.420   1.145  1.00  0.00     0.021 A 
ATOM     29  C   UNL     1      -3.058  -6.228   3.153  1.00  0.00     0.041 A 
ATOM     30  Cl  UNL     1      -2.554  -4.596   5.191  1.00  0.00    -0.084 Cl
ATOM     31  C   UNL     1      -2.811  -6.825   1.921  1.00  0.00     0.042 A 
ATOM     32  Cl  UNL     1      -3.847  -8.077   1.361  1.00  0.00    -0.084 Cl
ENDBRANCH  24  25
ENDBRANCH  21  24
ENDBRANCH  14  17
ENDBRANCH   8  13
ENDBRANCH   4   7
ENDBRANCH   2   3
ENDBRANCH   1   2
BRANCH   1  33
ATOM     33  C   UNL     1       2.261  -4.606   5.593  1.00  0.00     0.023 C 
BRANCH  33  34
ATOM     34  C   UNL     1       3.605  -4.795   6.272  1.00  0.00     0.116 C 
BRANCH  34  35
ATOM     35  N   UNL     1       3.512  -5.646   7.458  1.00  0.00    -0.352 N 
ATOM     36  C   UNL     1       4.453  -5.846   8.453  1.00  0.00     0.251 C 
ATOM     37  H   UNL     1       2.669  -6.143   7.562  1.00  0.00     0.163 HD
ATOM     38  O   UNL     1       4.389  -6.810   9.192  1.00  0.00    -0.269 OA
BRANCH  36  39
ATOM     39  C   UNL     1       5.545  -4.863   8.576  1.00  0.00     0.039 A 
ATOM     40  C   UNL     1       6.870  -5.277   8.706  1.00  0.00     0.014 A 
ATOM     41  C   UNL     1       5.222  -3.515   8.458  1.00  0.00     0.014 A 
ATOM     42  C   UNL     1       7.878  -4.322   8.603  1.00  0.00     0.010 A 
ATOM     43  C   UNL     1       6.216  -2.607   8.190  1.00  0.00     0.010 A 
ATOM     44  C   UNL     1       7.548  -2.989   8.304  1.00  0.00    -0.014 A 
BRANCH  44  45
ATOM     45  C   UNL     1       8.601  -2.022   7.998  1.00  0.00     0.031 A 
ATOM     46  C   UNL     1       9.613  -2.478   7.000  1.00  0.00     0.074 A 
ATOM     47  C   UNL     1       8.586  -0.735   8.404  1.00  0.00     0.049 A 
ATOM     48  N   UNL     1      10.857  -2.756   7.210  1.00  0.00    -0.248 NA
ATOM     49  C   UNL     1       9.157  -2.778   5.632  1.00  0.00     0.031 C 
ATOM     50  C   UNL     1       7.527   0.001   9.104  1.00  0.00     0.029 A 
ATOM     51  N   UNL     1       9.502   0.238   8.154  1.00  0.00    -0.354 N 
ATOM     52  C   UNL     1      11.400  -3.062   5.965  1.00  0.00     0.074 A 
ATOM     53  C   UNL     1      10.281  -3.229   5.070  1.00  0.00     0.031 C 
ATOM     54  C   UNL     1       7.742   1.329   8.980  1.00  0.00     0.029 A 
ATOM     55  C   UNL     1       9.042   1.530   8.371  1.00  0.00     0.049 A 
ATOM     56  H   UNL     1      10.416   0.043   7.844  1.00  0.00     0.167 HD
ATOM     57  C   UNL     1      12.732  -2.932   5.706  1.00  0.00     0.031 A 
ATOM     58  C   UNL     1       9.673   2.683   8.036  1.00  0.00     0.031 A 
ATOM     59  C   UNL     1      13.505  -2.789   6.914  1.00  0.00     0.049 A 
ATOM     60  C   UNL     1      11.113   2.353   7.882  1.00  0.00     0.074 A 
ATOM     61  C   UNL     1      13.652  -3.546   8.061  1.00  0.00     0.029 A 
ATOM     62  N   UNL     1      13.947  -1.528   7.243  1.00  0.00    -0.354 N 
ATOM     63  N   UNL     1      11.870   1.961   8.870  1.00  0.00    -0.248 NA
ATOM     64  C   UNL     1      11.596   2.013   6.553  1.00  0.00     0.031 C 
ATOM     65  C   UNL     1      13.658  -2.594   9.123  1.00  0.00     0.029 A 
ATOM     66  C   UNL     1      13.604  -1.319   8.556  1.00  0.00     0.049 A 
ATOM     67  H   UNL     1      14.419  -0.898   6.652  1.00  0.00     0.167 HD
ATOM     68  C   UNL     1      12.680   0.973   8.329  1.00  0.00     0.074 A 
ATOM     69  C   UNL     1      12.526   1.112   6.881  1.00  0.00     0.031 C 
ATOM     70  C   UNL     1      13.185  -0.041   9.094  1.00  0.00     0.031 A 
BRANCH  57  71
ATOM     71  C   UNL     1      13.284  -2.558   4.352  1.00  0.00    -0.014 A 
ATOM     72  C   UNL     1      14.678  -2.559   4.148  1.00  0.00     0.010 A 
ATOM     73  C   UNL     1      12.492  -1.954   3.353  1.00  0.00     0.010 A 
ATOM     74  C   UNL     1      15.249  -1.944   3.023  1.00  0.00     0.020 A 
ATOM     75  C   UNL     1      13.046  -1.380   2.208  1.00  0.00     0.020 A 
ATOM     76  C   UNL     1      14.426  -1.352   2.065  1.00  0.00     0.054 A 
BRANCH  76  77
ATOM     77  S   UNL     1      15.172  -0.492   0.658  1.00  0.00     0.124 S 
ATOM     78  O   UNL     1      15.809   0.649   1.307  1.00  0.00    -0.237 OA
ATOM     79  O   UNL     1      16.077  -1.505   0.122  1.00  0.00    -0.237 OA
ATOM     80  O   UNL     1      14.028  -0.174  -0.193  1.00  0.00    -0.744 OA
ENDBRANCH  76  77
ENDBRANCH  57  71
BRANCH  58  81
ATOM     81  C   UNL     1       9.065   3.931   7.508  1.00  0.00    -0.014 A 
ATOM     82  C   UNL     1       9.848   5.086   7.326  1.00  0.00     0.010 A 
ATOM     83  C   UNL     1       7.788   3.907   6.907  1.00  0.00     0.010 A 
ATOM     84  C   UNL     1       9.410   6.136   6.501  1.00  0.00     0.020 A 
ATOM     85  C   UNL     1       7.339   4.954   6.094  1.00  0.00     0.020 A 
ATOM     86  C   UNL     1       8.168   6.050   5.868  1.00  0.00     0.054 A 
BRANCH  86  87
ATOM     87  S   UNL     1       7.706   7.303   4.634  1.00  0.00     0.124 S 
ATOM     88  O   UNL     1       7.449   8.476   5.464  1.00  0.00    -0.237 OA
ATOM     89  O   UNL     1       8.897   7.372   3.793  1.00  0.00    -0.237 OA
ATOM     90  O   UNL     1       6.527   6.730   3.986  1.00  0.00    -0.744 OA
ENDBRANCH  86  87
ENDBRANCH  58  81
BRANCH  70  91
ATOM     91  C   UNL     1      13.091   0.050  10.602  1.00  0.00    -0.014 A 
ATOM     92  C   UNL     1      11.881   0.174  11.313  1.00  0.00     0.010 A 
ATOM     93  C   UNL     1      14.272  -0.168  11.335  1.00  0.00     0.010 A 
ATOM     94  C   UNL     1      11.861   0.103  12.717  1.00  0.00     0.020 A 
ATOM     95  C   UNL     1      14.257  -0.259  12.729  1.00  0.00     0.020 A 
ATOM     96  C   UNL     1      13.052  -0.114  13.416  1.00  0.00     0.054 A 
BRANCH  96  97
ATOM     97  S   UNL     1      13.019  -0.254  15.226  1.00  0.00     0.124 S 
ATOM     98  O   UNL     1      12.677   1.102  15.644  1.00  0.00    -0.237 OA
ATOM     99  O   UNL     1      11.987  -1.263  15.456  1.00  0.00    -0.237 OA
ATOM    100  O   UNL     1      14.376  -0.681  15.568  1.00  0.00    -0.744 OA
ENDBRANCH  96  97
ENDBRANCH  70  91
ENDBRANCH  44  45
ENDBRANCH  36  39
ENDBRANCH  34  35
ENDBRANCH  33  34
ENDBRANCH   1  33
TORSDOF 18
