REMARK SMILES Cc1ccc(NS(=O)(=O)c2cc(C(=O)Nc3ccccc3C(=O)NCCCCNC(=O)c3ccc(-c4c5nc(c(-c6ccc(S(=O)(=O)[O-])cc6)c6ccc([nH]6)c(-c6ccc(S(=O)(=O)[O-])cc6)c6nc(c(-c7ccc(S(=O)(=O)[O-])cc7)c7ccc4[nH]7)C=C6)C=C5)cc3)ccc2Br)cc1
REMARK SMILES IDX 25 1 24 2 22 3 23 4 21 6 16 7 17 8 18 9 20 10 19 11 15 12
REMARK SMILES IDX 13 13 14 14 12 16 10 17 11 18 94 19 93 20 95 21 92 22 7 23
REMARK SMILES IDX 8 24 9 25 6 26 5 28 1 29 2 30 3 31 97 32 4 33 96 34 26 35
REMARK SMILES IDX 27 36 28 37 29 38 30 39 31 41 32 42 33 43 91 44 34 45 90 46
REMARK SMILES IDX 35 47 36 48 37 49 84 50 38 51 89 52 83 53 85 54 39 55 88 56
REMARK SMILES IDX 82 57 81 58 40 60 70 61 51 62 69 63 52 64 55 65 68 66 86 67
REMARK SMILES IDX 53 68 54 69 67 71 87 72 56 73 41 74 42 75 50 76 43 77 49 78
REMARK SMILES IDX 44 79 45 80 46 81 47 82 48 83 71 84 72 85 80 86 73 87 79 88
REMARK SMILES IDX 74 89 75 90 76 91 77 92 78 93 57 94 58 95 66 96 59 97 65 98
REMARK SMILES IDX 60 99 61 100 62 101 63 102 64 103
REMARK H PARENT 24 5 15 15 6 27 29 40 85 59 55 70
REMARK Flexibility Score: inf
ROOT
ATOM      1  C   UNL     1      -3.698  -1.102   3.016  1.00  0.00     0.116 C 
ENDROOT
BRANCH   1   2
ATOM      2  N   UNL     1      -2.380  -1.660   3.260  1.00  0.00    -0.352 N 
ATOM      3  C   UNL     1      -1.154  -1.207   2.811  1.00  0.00     0.253 C 
ATOM      4  O   UNL     1      -0.119  -1.655   3.291  1.00  0.00    -0.269 OA
ATOM      5  H   UNL     1      -2.356  -2.470   3.819  1.00  0.00     0.163 HD
BRANCH   3   6
ATOM      6  C   UNL     1      -1.086  -0.295   1.638  1.00  0.00     0.063 A 
ATOM      7  C   UNL     1       0.087  -0.642   0.288  1.00  0.00     0.054 A 
ATOM      8  C   UNL     1       0.063   0.658  -1.284  1.00  0.00     0.027 A 
ATOM      9  C   UNL     1      -1.169   1.975  -1.311  1.00  0.00     0.002 A 
ATOM     10  C   UNL     1      -2.186   1.081   1.478  1.00  0.00     0.016 A 
ATOM     11  C   UNL     1      -2.248   2.138   0.055  1.00  0.00     0.001 A 
BRANCH   7  12
ATOM     12  N   UNL     1       0.819  -1.933   0.565  1.00  0.00    -0.321 N 
ATOM     13  C   UNL     1       0.447  -3.294   0.653  1.00  0.00     0.255 C 
ATOM     14  O   UNL     1       1.345  -4.129   0.807  1.00  0.00    -0.269 OA
ATOM     15  H   UNL     1       1.781  -1.795   0.720  1.00  0.00     0.170 HD
BRANCH  13  16
ATOM     16  C   UNL     1      -0.929  -3.839   0.393  1.00  0.00     0.041 A 
ATOM     17  C   UNL     1      -3.143  -3.187  -0.400  1.00  0.00     0.102 A 
ATOM     18  C   UNL     1      -1.964  -2.962   0.265  1.00  0.00     0.037 A 
ATOM     19  C   UNL     1      -3.518  -4.501  -0.570  1.00  0.00     0.038 A 
ATOM     20  C   UNL     1      -2.576  -5.505  -0.243  1.00  0.00     0.018 A 
ATOM     21  Br  UNL     1      -5.256  -5.011  -1.092  1.00  0.00    -0.049 Br
ATOM     22  C   UNL     1      -1.255  -5.169   0.153  1.00  0.00     0.015 A 
BRANCH  17  23
ATOM     23  S   UNL     1      -3.875  -1.716  -1.115  1.00  0.00     0.263 S 
ATOM     24  O   UNL     1      -5.221  -1.599  -0.601  1.00  0.00    -0.201 OA
ATOM     25  O   UNL     1      -3.630  -1.782  -2.540  1.00  0.00    -0.201 OA
BRANCH  23  26
ATOM     26  N   UNL     1      -3.034  -0.345  -0.476  1.00  0.00    -0.280 N 
ATOM     27  H   UNL     1      -3.591   0.321  -0.011  1.00  0.00     0.180 HD
BRANCH  26  28
ATOM     28  C   UNL     1      -1.538  -0.034  -0.540  1.00  0.00     0.049 A 
ATOM     29  C   UNL     1       3.573  -0.376  -0.790  1.00  0.00     0.044 C 
ATOM     30  C   UNL     1       2.089  -0.153  -0.839  1.00  0.00    -0.051 A 
ATOM     31  C   UNL     1       1.044  -1.250  -1.770  1.00  0.00     0.005 A 
ATOM     32  C   UNL     1       1.486   1.063   0.249  1.00  0.00     0.005 A 
ATOM     33  C   UNL     1      -0.726  -1.218  -1.665  1.00  0.00     0.027 A 
ATOM     34  C   UNL     1      -0.280   1.219   0.457  1.00  0.00     0.027 A 
ENDBRANCH  26  28
ENDBRANCH  23  26
ENDBRANCH  17  23
ENDBRANCH  13  16
ENDBRANCH   7  12
ENDBRANCH   3   6
ENDBRANCH   1   2
BRANCH   1  35
ATOM     35  C   UNL     1      -4.761  -2.006   2.424  1.00  0.00     0.023 C 
BRANCH  35  36
ATOM     36  C   UNL     1      -5.302  -3.120   3.264  1.00  0.00     0.023 C 
BRANCH  36  37
ATOM     37  C   UNL     1      -5.722  -2.644   4.617  1.00  0.00     0.116 C 
BRANCH  37  38
ATOM     38  N   UNL     1      -6.910  -1.823   4.680  1.00  0.00    -0.352 N 
ATOM     39  C   UNL     1      -7.757  -1.774   5.785  1.00  0.00     0.251 C 
ATOM     40  H   UNL     1      -7.133  -1.267   3.899  1.00  0.00     0.163 HD
ATOM     41  O   UNL     1      -8.975  -1.746   5.675  1.00  0.00    -0.269 OA
BRANCH  39  42
ATOM     42  C   UNL     1      -7.100  -1.591   7.111  1.00  0.00     0.039 A 
ATOM     43  C   UNL     1      -7.498  -0.516   7.913  1.00  0.00     0.014 A 
ATOM     44  C   UNL     1      -5.858  -2.162   7.308  1.00  0.00     0.014 A 
ATOM     45  C   UNL     1      -6.543   0.126   8.690  1.00  0.00     0.010 A 
ATOM     46  C   UNL     1      -4.864  -1.344   7.731  1.00  0.00     0.010 A 
ATOM     47  C   UNL     1      -5.218  -0.219   8.464  1.00  0.00    -0.014 A 
BRANCH  47  48
ATOM     48  C   UNL     1      -4.060   0.272   9.164  1.00  0.00     0.031 A 
ATOM     49  C   UNL     1      -3.751  -0.558  10.364  1.00  0.00     0.074 A 
ATOM     50  C   UNL     1      -3.299   1.139   8.448  1.00  0.00     0.049 A 
ATOM     51  N   UNL     1      -3.127  -0.147  11.400  1.00  0.00    -0.248 NA
ATOM     52  C   UNL     1      -4.228  -1.950  10.569  1.00  0.00     0.031 C 
ATOM     53  C   UNL     1      -1.896   1.513   8.553  1.00  0.00     0.029 A 
ATOM     54  N   UNL     1      -3.778   2.028   7.480  1.00  0.00    -0.354 N 
ATOM     55  C   UNL     1      -2.692  -1.284  12.063  1.00  0.00     0.074 A 
ATOM     56  C   UNL     1      -3.573  -2.338  11.669  1.00  0.00     0.031 C 
ATOM     57  C   UNL     1      -1.715   2.728   7.991  1.00  0.00     0.029 A 
ATOM     58  C   UNL     1      -3.018   3.209   7.552  1.00  0.00     0.049 A 
ATOM     59  H   UNL     1      -4.519   1.857   6.855  1.00  0.00     0.167 HD
ATOM     60  C   UNL     1      -1.462  -1.247  12.641  1.00  0.00     0.031 A 
ATOM     61  C   UNL     1      -3.625   4.353   8.004  1.00  0.00     0.031 A 
ATOM     62  C   UNL     1      -0.864   0.047  12.335  1.00  0.00     0.049 A 
ATOM     63  C   UNL     1      -3.177   4.633   9.421  1.00  0.00     0.074 A 
ATOM     64  C   UNL     1       0.024   0.434  11.348  1.00  0.00     0.029 A 
ATOM     65  N   UNL     1      -1.499   1.187  12.786  1.00  0.00    -0.354 N 
ATOM     66  N   UNL     1      -2.850   3.696  10.271  1.00  0.00    -0.248 NA
ATOM     67  C   UNL     1      -2.931   5.978   9.934  1.00  0.00     0.031 C 
ATOM     68  C   UNL     1      -0.120   1.837  11.183  1.00  0.00     0.029 A 
ATOM     69  C   UNL     1      -1.115   2.277  12.040  1.00  0.00     0.049 A 
ATOM     70  H   UNL     1      -2.137   1.216  13.536  1.00  0.00     0.167 HD
ATOM     71  C   UNL     1      -2.268   4.275  11.365  1.00  0.00     0.074 A 
ATOM     72  C   UNL     1      -2.376   5.703  11.127  1.00  0.00     0.031 C 
ATOM     73  C   UNL     1      -1.664   3.576  12.366  1.00  0.00     0.031 A 
BRANCH  60  74
ATOM     74  C   UNL     1      -0.629  -2.364  13.213  1.00  0.00    -0.014 A 
ATOM     75  C   UNL     1       0.722  -2.053  13.493  1.00  0.00     0.010 A 
ATOM     76  C   UNL     1      -1.046  -3.672  13.518  1.00  0.00     0.010 A 
ATOM     77  C   UNL     1       1.621  -2.978  14.016  1.00  0.00     0.020 A 
ATOM     78  C   UNL     1      -0.144  -4.620  14.057  1.00  0.00     0.020 A 
ATOM     79  C   UNL     1       1.184  -4.262  14.300  1.00  0.00     0.054 A 
BRANCH  79  80
ATOM     80  S   UNL     1       2.391  -5.411  15.011  1.00  0.00     0.124 S 
ATOM     81  O   UNL     1       3.405  -5.487  13.961  1.00  0.00    -0.237 OA
ATOM     82  O   UNL     1       2.803  -4.720  16.230  1.00  0.00    -0.237 OA
ATOM     83  O   UNL     1       1.623  -6.636  15.220  1.00  0.00    -0.744 OA
ENDBRANCH  79  80
ENDBRANCH  60  74
BRANCH  61  84
ATOM     84  C   UNL     1      -5.028   4.458   7.479  1.00  0.00    -0.014 A 
ATOM     85  C   UNL     1      -5.157   4.672   6.084  1.00  0.00     0.010 A 
ATOM     86  C   UNL     1      -6.085   3.834   8.165  1.00  0.00     0.010 A 
ATOM     87  C   UNL     1      -6.191   4.066   5.364  1.00  0.00     0.020 A 
ATOM     88  C   UNL     1      -7.134   3.244   7.442  1.00  0.00     0.020 A 
ATOM     89  C   UNL     1      -7.136   3.300   6.045  1.00  0.00     0.054 A 
BRANCH  89  90
ATOM     90  S   UNL     1      -8.256   2.256   5.064  1.00  0.00     0.124 S 
ATOM     91  O   UNL     1      -8.956   3.246   4.250  1.00  0.00    -0.237 OA
ATOM     92  O   UNL     1      -7.317   1.393   4.339  1.00  0.00    -0.237 OA
ATOM     93  O   UNL     1      -9.068   1.595   6.077  1.00  0.00    -0.744 OA
ENDBRANCH  89  90
ENDBRANCH  61  84
BRANCH  73  94
ATOM     94  C   UNL     1      -1.447   4.099  13.759  1.00  0.00    -0.014 A 
ATOM     95  C   UNL     1      -2.072   5.252  14.245  1.00  0.00     0.010 A 
ATOM     96  C   UNL     1      -0.697   3.331  14.686  1.00  0.00     0.010 A 
ATOM     97  C   UNL     1      -1.848   5.690  15.549  1.00  0.00     0.020 A 
ATOM     98  C   UNL     1      -0.548   3.706  16.015  1.00  0.00     0.020 A 
ATOM     99  C   UNL     1      -1.080   4.918  16.420  1.00  0.00     0.054 A 
BRANCH  99 100
ATOM    100  S   UNL     1      -0.782   5.531  18.084  1.00  0.00     0.124 S 
ATOM    101  O   UNL     1       0.175   6.605  17.832  1.00  0.00    -0.237 OA
ATOM    102  O   UNL     1      -2.114   5.962  18.505  1.00  0.00    -0.237 OA
ATOM    103  O   UNL     1      -0.252   4.372  18.795  1.00  0.00    -0.744 OA
ENDBRANCH  99 100
ENDBRANCH  73  94
ENDBRANCH  47  48
ENDBRANCH  39  42
ENDBRANCH  37  38
ENDBRANCH  36  37
ENDBRANCH  35  36
ENDBRANCH   1  35
TORSDOF 19
