REMARK SMILES O=C(NCCCCNC(=O)c1cn(-c2cc(Cl)ncn2)cn1)c1ccc(-c2c3nc(c(-c4ccc(S(=O)(=O)[O-])cc4)c4ccc([nH]4)c(-c4ccc(S(=O)(=O)[O-])cc4)c4nc(c(-c5ccc(S(=O)(=O)[O-])cc5)c5ccc2[nH]5)C=C4)C=C3)cc1
REMARK SMILES IDX 4 1 3 2 1 3 2 4 23 6 24 7 82 8 25 9 81 10 26 11 27 12 28 13
REMARK SMILES IDX 75 14 29 15 80 16 74 17 76 18 30 19 79 20 73 21 72 22 31 24
REMARK SMILES IDX 61 25 42 26 60 27 43 28 46 29 59 30 77 31 44 32 45 33 58 35
REMARK SMILES IDX 78 36 47 37 32 38 33 39 41 40 34 41 40 42 35 43 36 44 37 45
REMARK SMILES IDX 38 46 39 47 62 48 63 49 71 50 64 51 70 52 65 53 66 54 67 55
REMARK SMILES IDX 68 56 69 57 48 58 49 59 57 60 50 61 56 62 51 63 52 64 53 65
REMARK SMILES IDX 54 66 55 67 5 68 6 69 7 70 8 71 9 72 10 74 11 75 12 76 22 77
REMARK SMILES IDX 13 78 21 79 14 80 15 81 20 82 16 83 19 84 17 85 18 86
REMARK H PARENT 3 5 76 23 46 34 8 73
REMARK Flexibility Score: inf
ROOT
ATOM      1  C   UNL     1       4.684   1.015   0.233  1.00  0.00     0.116 C 
ENDROOT
BRANCH   1   2
ATOM      2  N   UNL     1       3.267   0.870   0.492  1.00  0.00    -0.352 N 
ATOM      3  O   UNL     1       1.212   0.116   0.645  1.00  0.00    -0.269 OA
ATOM      4  C   UNL     1       2.252   0.113  -0.024  1.00  0.00     0.251 C 
ATOM      5  H   UNL     1       2.959   1.460   1.217  1.00  0.00     0.163 HD
BRANCH   4   6
ATOM      6  C   UNL     1       2.265  -0.637  -1.315  1.00  0.00     0.039 A 
ATOM      7  C   UNL     1       3.365  -0.849  -2.146  1.00  0.00     0.014 A 
ATOM      8  C   UNL     1       1.011  -1.128  -1.738  1.00  0.00     0.014 A 
ATOM      9  C   UNL     1       3.196  -1.466  -3.393  1.00  0.00     0.010 A 
ATOM     10  C   UNL     1       0.838  -1.736  -2.979  1.00  0.00     0.010 A 
ATOM     11  C   UNL     1       1.926  -1.871  -3.831  1.00  0.00    -0.014 A 
BRANCH  11  12
ATOM     12  C   UNL     1       1.797  -2.583  -5.108  1.00  0.00     0.031 A 
ATOM     13  C   UNL     1       2.526  -3.885  -5.153  1.00  0.00     0.074 A 
ATOM     14  C   UNL     1       0.990  -2.220  -6.132  1.00  0.00     0.049 A 
ATOM     15  N   UNL     1       3.547  -4.197  -5.882  1.00  0.00    -0.248 NA
ATOM     16  C   UNL     1       2.150  -4.925  -4.181  1.00  0.00     0.031 C 
ATOM     17  C   UNL     1      -0.009  -1.149  -6.174  1.00  0.00     0.029 A 
ATOM     18  N   UNL     1       0.839  -2.810  -7.357  1.00  0.00    -0.354 N 
ATOM     19  C   UNL     1       3.831  -5.532  -5.606  1.00  0.00     0.074 A 
ATOM     20  C   UNL     1       3.033  -5.886  -4.459  1.00  0.00     0.031 C 
ATOM     21  C   UNL     1      -0.804  -1.310  -7.261  1.00  0.00     0.029 A 
ATOM     22  C   UNL     1      -0.283  -2.396  -8.075  1.00  0.00     0.049 A 
ATOM     23  H   UNL     1       1.475  -3.476  -7.706  1.00  0.00     0.167 HD
ATOM     24  C   UNL     1       4.558  -6.309  -6.458  1.00  0.00     0.031 A 
ATOM     25  C   UNL     1      -0.758  -2.919  -9.239  1.00  0.00     0.031 A 
ATOM     26  C   UNL     1       5.270  -5.521  -7.426  1.00  0.00     0.049 A 
ATOM     27  C   UNL     1       0.366  -3.638  -9.883  1.00  0.00     0.074 A 
ATOM     28  C   UNL     1       6.250  -4.551  -7.356  1.00  0.00     0.029 A 
ATOM     29  N   UNL     1       4.709  -5.401  -8.675  1.00  0.00    -0.354 N 
ATOM     30  N   UNL     1       1.430  -3.042 -10.339  1.00  0.00    -0.248 NA
ATOM     31  C   UNL     1       0.509  -5.057  -9.604  1.00  0.00     0.031 C 
ATOM     32  C   UNL     1       5.880  -3.591  -8.342  1.00  0.00     0.029 A 
ATOM     33  C   UNL     1       4.752  -4.072  -9.009  1.00  0.00     0.049 A 
ATOM     34  H   UNL     1       4.345  -6.131  -9.226  1.00  0.00     0.167 HD
ATOM     35  C   UNL     1       2.477  -3.882  -9.992  1.00  0.00     0.074 A 
ATOM     36  C   UNL     1       1.842  -5.142  -9.607  1.00  0.00     0.031 C 
ATOM     37  C   UNL     1       3.737  -3.398  -9.791  1.00  0.00     0.031 A 
BRANCH  24  38
ATOM     38  C   UNL     1       4.337  -7.790  -6.642  1.00  0.00    -0.014 A 
ATOM     39  C   UNL     1       5.198  -8.515  -7.492  1.00  0.00     0.010 A 
ATOM     40  C   UNL     1       3.153  -8.435  -6.230  1.00  0.00     0.010 A 
ATOM     41  C   UNL     1       4.861  -9.797  -7.949  1.00  0.00     0.020 A 
ATOM     42  C   UNL     1       2.827  -9.727  -6.648  1.00  0.00     0.020 A 
ATOM     43  C   UNL     1       3.670 -10.390  -7.530  1.00  0.00     0.054 A 
BRANCH  43  44
ATOM     44  S   UNL     1       3.203 -12.008  -8.194  1.00  0.00     0.124 S 
ATOM     45  O   UNL     1       3.006 -11.709  -9.609  1.00  0.00    -0.237 OA
ATOM     46  O   UNL     1       4.372 -12.822  -7.874  1.00  0.00    -0.237 OA
ATOM     47  O   UNL     1       1.992 -12.347  -7.449  1.00  0.00    -0.744 OA
ENDBRANCH  43  44
ENDBRANCH  24  38
BRANCH  25  48
ATOM     48  C   UNL     1      -2.169  -3.138  -9.669  1.00  0.00    -0.014 A 
ATOM     49  C   UNL     1      -2.494  -3.471 -11.002  1.00  0.00     0.010 A 
ATOM     50  C   UNL     1      -3.168  -3.332  -8.694  1.00  0.00     0.010 A 
ATOM     51  C   UNL     1      -3.744  -4.032 -11.334  1.00  0.00     0.020 A 
ATOM     52  C   UNL     1      -4.415  -3.889  -9.017  1.00  0.00     0.020 A 
ATOM     53  C   UNL     1      -4.691  -4.258 -10.332  1.00  0.00     0.054 A 
BRANCH  53  54
ATOM     54  S   UNL     1      -6.231  -5.147 -10.727  1.00  0.00     0.124 S 
ATOM     55  O   UNL     1      -6.961  -4.168 -11.527  1.00  0.00    -0.237 OA
ATOM     56  O   UNL     1      -5.747  -6.319 -11.452  1.00  0.00    -0.237 OA
ATOM     57  O   UNL     1      -6.811  -5.432  -9.415  1.00  0.00    -0.744 OA
ENDBRANCH  53  54
ENDBRANCH  25  48
BRANCH  37  58
ATOM     58  C   UNL     1       4.054  -1.982 -10.216  1.00  0.00    -0.014 A 
ATOM     59  C   UNL     1       3.437  -0.835  -9.678  1.00  0.00     0.010 A 
ATOM     60  C   UNL     1       5.153  -1.810 -11.075  1.00  0.00     0.010 A 
ATOM     61  C   UNL     1       3.907   0.449 -10.003  1.00  0.00     0.020 A 
ATOM     62  C   UNL     1       5.636  -0.539 -11.387  1.00  0.00     0.020 A 
ATOM     63  C   UNL     1       5.009   0.586 -10.854  1.00  0.00     0.054 A 
BRANCH  63  64
ATOM     64  S   UNL     1       5.662   2.240 -11.224  1.00  0.00     0.124 S 
ATOM     65  O   UNL     1       4.604   2.824 -12.042  1.00  0.00    -0.237 OA
ATOM     66  O   UNL     1       5.830   2.827  -9.896  1.00  0.00    -0.237 OA
ATOM     67  O   UNL     1       6.913   1.970 -11.933  1.00  0.00    -0.744 OA
ENDBRANCH  63  64
ENDBRANCH  37  58
ENDBRANCH  11  12
ENDBRANCH   4   6
ENDBRANCH   1   2
BRANCH   1  68
ATOM     68  C   UNL     1       5.042   2.178  -0.691  1.00  0.00     0.023 C 
BRANCH  68  69
ATOM     69  C   UNL     1       4.563   3.568  -0.243  1.00  0.00     0.023 C 
BRANCH  69  70
ATOM     70  C   UNL     1       4.993   4.026   1.153  1.00  0.00     0.116 C 
BRANCH  70  71
ATOM     71  N   UNL     1       6.434   4.155   1.298  1.00  0.00    -0.351 N 
ATOM     72  C   UNL     1       7.186   5.261   1.622  1.00  0.00     0.271 C 
ATOM     73  H   UNL     1       6.948   3.330   1.140  1.00  0.00     0.163 HD
ATOM     74  O   UNL     1       8.418   5.162   1.630  1.00  0.00    -0.267 OA
BRANCH  72  75
ATOM     75  C   UNL     1       6.505   6.506   1.966  1.00  0.00     0.146 A 
ATOM     76  C   UNL     1       5.639   6.722   3.026  1.00  0.00     0.128 A 
ATOM     77  N   UNL     1       6.652   7.672   1.241  1.00  0.00    -0.231 NA
ATOM     78  N   UNL     1       5.160   8.002   2.864  1.00  0.00    -0.290 N 
ATOM     79  C   UNL     1       5.811   8.528   1.776  1.00  0.00     0.206 A 
BRANCH  78  80
ATOM     80  C   UNL     1       4.152   8.659   3.612  1.00  0.00     0.142 A 
ATOM     81  C   UNL     1       3.925   8.298   4.921  1.00  0.00     0.088 A 
ATOM     82  N   UNL     1       3.438   9.617   2.981  1.00  0.00    -0.219 NA
ATOM     83  C   UNL     1       2.915   8.993   5.538  1.00  0.00     0.134 A 
ATOM     84  C   UNL     1       2.432  10.168   3.673  1.00  0.00     0.226 A 
ATOM     85  Cl  UNL     1       2.579   8.748   7.204  1.00  0.00    -0.062 Cl
ATOM     86  N   UNL     1       2.135   9.912   4.948  1.00  0.00    -0.224 NA
ENDBRANCH  78  80
ENDBRANCH  72  75
ENDBRANCH  70  71
ENDBRANCH  69  70
ENDBRANCH  68  69
ENDBRANCH   1  68
TORSDOF 15
