REMARK SMILES O=C(C[C@@H]([NH2+]Cc1ccccc1)C(=O)NCCCCNC(=O)c1ccc(-c2c3nc(c(-c4ccc(S(=O)(=O)[O-])cc4)c4ccc([nH]4)c(-c4ccc(S(=O)(=O)[O-])cc4)c4nc(c(-c5ccc(S(=O)(=O)[O-])cc5)c5ccc2[nH]5)C=C4)C=C3)cc1)Nc1cccc(Cl)c1Cl
REMARK SMILES IDX 17 1 16 2 15 3 13 4 14 5 4 7 3 8 2 9 1 10 83 11 84 13 85 14
REMARK SMILES IDX 90 15 86 16 88 17 91 18 87 19 89 20 5 21 6 24 7 25 8 26
REMARK SMILES IDX 12 27 9 28 11 29 10 30 18 31 19 32 20 33 21 34 22 36 23 37
REMARK SMILES IDX 24 38 82 39 25 40 81 41 26 42 27 43 28 44 75 45 29 46 80 47
REMARK SMILES IDX 74 48 76 49 30 50 79 51 73 52 72 53 31 55 61 56 42 57 60 58
REMARK SMILES IDX 43 59 46 60 59 61 77 62 44 63 45 64 58 66 78 67 47 68 32 69
REMARK SMILES IDX 33 70 41 71 34 72 40 73 35 74 36 75 37 76 38 77 39 78 62 79
REMARK SMILES IDX 63 80 71 81 64 82 70 83 65 84 66 85 67 86 68 87 69 88 48 89
REMARK SMILES IDX 49 90 57 91 50 92 56 93 51 94 52 95 53 96 54 97 55 98
REMARK H PARENT 15 6 83 12 5 22 5 23 20 35 76 54 46 65
REMARK Flexibility Score: inf
ROOT
ATOM      1  C   UNL     1       5.328  -0.242   3.395  1.00  0.00     0.023 C 
ENDROOT
BRANCH   1   2
ATOM      2  C   UNL     1       5.844  -0.731   2.042  1.00  0.00     0.116 C 
BRANCH   2   3
ATOM      3  N   UNL     1       5.478  -2.115   1.819  1.00  0.00    -0.351 N 
ATOM      4  C   UNL     1       4.570  -2.654   0.956  1.00  0.00     0.278 C 
ATOM      5  O   UNL     1       4.423  -3.879   0.972  1.00  0.00    -0.268 OA
ATOM      6  H   UNL     1       5.960  -2.768   2.377  1.00  0.00     0.163 HD
BRANCH   4   7
ATOM      7  C   UNL     1       3.777  -1.775  -0.032  1.00  0.00     0.282 C 
BRANCH   7   8
ATOM      8  C   UNL     1       2.817  -0.847   0.727  1.00  0.00     0.175 C 
BRANCH   8   9
ATOM      9  C   UNL     1       1.956  -0.027  -0.204  1.00  0.00     0.230 C 
ATOM     10  O   UNL     1       0.793  -0.329  -0.452  1.00  0.00    -0.274 OA
ATOM     11  N   UNL     1       2.651   1.024  -0.789  1.00  0.00    -0.325 N 
ATOM     12  H   UNL     1       3.598   1.154  -0.552  1.00  0.00     0.169 HD
BRANCH  11  13
ATOM     13  C   UNL     1       2.056   1.911  -1.708  1.00  0.00     0.061 A 
ATOM     14  C   UNL     1       2.680   2.031  -2.958  1.00  0.00     0.028 A 
ATOM     15  C   UNL     1       0.902   2.668  -1.420  1.00  0.00     0.083 A 
ATOM     16  C   UNL     1       2.116   2.829  -3.951  1.00  0.00     0.004 A 
ATOM     17  C   UNL     1       0.361   3.491  -2.419  1.00  0.00     0.061 A 
ATOM     18  Cl  UNL     1       0.269   2.726   0.198  1.00  0.00    -0.080 Cl
ATOM     19  C   UNL     1       0.956   3.553  -3.684  1.00  0.00     0.022 A 
ATOM     20  Cl  UNL     1      -1.026   4.492  -2.154  1.00  0.00    -0.083 Cl
ENDBRANCH  11  13
ENDBRANCH   8   9
ENDBRANCH   7   8
BRANCH   7  21
ATOM     21  N   UNL     1       4.689  -1.044  -0.972  1.00  0.00    -0.332 N 
ATOM     22  H   UNL     1       5.272  -0.406  -0.430  1.00  0.00     0.347 HD
ATOM     23  H   UNL     1       4.104  -0.543  -1.641  1.00  0.00     0.347 HD
BRANCH  21  24
ATOM     24  C   UNL     1       5.567  -1.953  -1.739  1.00  0.00     0.297 C 
BRANCH  24  25
ATOM     25  C   UNL     1       4.807  -2.872  -2.669  1.00  0.00     0.006 A 
ATOM     26  C   UNL     1       3.847  -2.373  -3.566  1.00  0.00     0.009 A 
ATOM     27  C   UNL     1       5.028  -4.255  -2.621  1.00  0.00     0.009 A 
ATOM     28  C   UNL     1       3.081  -3.240  -4.343  1.00  0.00     0.001 A 
ATOM     29  C   UNL     1       4.277  -5.119  -3.418  1.00  0.00     0.001 A 
ATOM     30  C   UNL     1       3.293  -4.614  -4.265  1.00  0.00     0.000 A 
ENDBRANCH  24  25
ENDBRANCH  21  24
ENDBRANCH   7  21
ENDBRANCH   4   7
ENDBRANCH   2   3
ENDBRANCH   1   2
BRANCH   1  31
ATOM     31  C   UNL     1       6.036  -0.867   4.600  1.00  0.00     0.023 C 
BRANCH  31  32
ATOM     32  C   UNL     1       7.550  -0.689   4.621  1.00  0.00     0.116 C 
BRANCH  32  33
ATOM     33  N   UNL     1       7.952   0.706   4.542  1.00  0.00    -0.352 N 
ATOM     34  C   UNL     1       8.916   1.373   5.254  1.00  0.00     0.251 C 
ATOM     35  H   UNL     1       7.462   1.250   3.884  1.00  0.00     0.163 HD
ATOM     36  O   UNL     1       9.008   2.595   5.154  1.00  0.00    -0.269 OA
BRANCH  34  37
ATOM     37  C   UNL     1       9.819   0.629   6.157  1.00  0.00     0.039 A 
ATOM     38  C   UNL     1      10.086   1.160   7.421  1.00  0.00     0.014 A 
ATOM     39  C   UNL     1      10.399  -0.583   5.768  1.00  0.00     0.014 A 
ATOM     40  C   UNL     1      10.889   0.448   8.312  1.00  0.00     0.010 A 
ATOM     41  C   UNL     1      11.133  -1.329   6.687  1.00  0.00     0.010 A 
ATOM     42  C   UNL     1      11.391  -0.820   7.967  1.00  0.00    -0.014 A 
BRANCH  42  43
ATOM     43  C   UNL     1      12.165  -1.617   8.953  1.00  0.00     0.031 A 
ATOM     44  C   UNL     1      13.607  -1.965   8.699  1.00  0.00     0.074 A 
ATOM     45  C   UNL     1      11.553  -2.049  10.074  1.00  0.00     0.049 A 
ATOM     46  N   UNL     1      14.444  -2.613   9.470  1.00  0.00    -0.248 NA
ATOM     47  C   UNL     1      14.181  -1.553   7.408  1.00  0.00     0.031 C 
ATOM     48  C   UNL     1      10.144  -1.826  10.408  1.00  0.00     0.029 A 
ATOM     49  N   UNL     1      12.038  -2.756  11.145  1.00  0.00    -0.354 N 
ATOM     50  C   UNL     1      15.636  -2.689   8.759  1.00  0.00     0.074 A 
ATOM     51  C   UNL     1      15.397  -2.075   7.471  1.00  0.00     0.031 C 
ATOM     52  C   UNL     1       9.892  -2.341  11.621  1.00  0.00     0.029 A 
ATOM     53  C   UNL     1      11.106  -2.967  12.134  1.00  0.00     0.049 A 
ATOM     54  H   UNL     1      12.966  -3.081  11.201  1.00  0.00     0.167 HD
ATOM     55  C   UNL     1      16.827  -3.204   9.149  1.00  0.00     0.031 A 
ATOM     56  C   UNL     1      11.215  -3.588  13.324  1.00  0.00     0.031 A 
ATOM     57  C   UNL     1      17.059  -3.818  10.431  1.00  0.00     0.049 A 
ATOM     58  C   UNL     1      12.546  -4.155  13.732  1.00  0.00     0.074 A 
ATOM     59  C   UNL     1      18.242  -4.321  10.942  1.00  0.00     0.029 A 
ATOM     60  N   UNL     1      16.088  -4.020  11.401  1.00  0.00    -0.354 N 
ATOM     61  N   UNL     1      13.683  -4.144  13.077  1.00  0.00    -0.248 NA
ATOM     62  C   UNL     1      12.613  -4.803  15.049  1.00  0.00     0.031 C 
ATOM     63  C   UNL     1      17.974  -4.883  12.195  1.00  0.00     0.029 A 
ATOM     64  C   UNL     1      16.639  -4.668  12.495  1.00  0.00     0.049 A 
ATOM     65  H   UNL     1      15.146  -3.744  11.323  1.00  0.00     0.167 HD
ATOM     66  C   UNL     1      14.606  -4.764  13.913  1.00  0.00     0.074 A 
ATOM     67  C   UNL     1      13.899  -5.110  15.130  1.00  0.00     0.031 C 
ATOM     68  C   UNL     1      15.920  -5.024  13.693  1.00  0.00     0.031 A 
BRANCH  55  69
ATOM     69  C   UNL     1      17.973  -3.132   8.171  1.00  0.00    -0.014 A 
ATOM     70  C   UNL     1      18.560  -1.900   7.827  1.00  0.00     0.010 A 
ATOM     71  C   UNL     1      18.502  -4.314   7.623  1.00  0.00     0.010 A 
ATOM     72  C   UNL     1      19.625  -1.849   6.923  1.00  0.00     0.020 A 
ATOM     73  C   UNL     1      19.588  -4.271   6.743  1.00  0.00     0.020 A 
ATOM     74  C   UNL     1      20.131  -3.035   6.385  1.00  0.00     0.054 A 
BRANCH  74  75
ATOM     75  S   UNL     1      21.530  -2.939   5.234  1.00  0.00     0.124 S 
ATOM     76  O   UNL     1      20.904  -2.364   4.047  1.00  0.00    -0.237 OA
ATOM     77  O   UNL     1      22.463  -2.063   5.938  1.00  0.00    -0.237 OA
ATOM     78  O   UNL     1      21.964  -4.327   5.098  1.00  0.00    -0.744 OA
ENDBRANCH  74  75
ENDBRANCH  55  69
BRANCH  56  79
ATOM     79  C   UNL     1      10.031  -3.688  14.222  1.00  0.00    -0.014 A 
ATOM     80  C   UNL     1       9.985  -2.972  15.432  1.00  0.00     0.010 A 
ATOM     81  C   UNL     1       8.934  -4.493  13.864  1.00  0.00     0.010 A 
ATOM     82  C   UNL     1       8.876  -3.077  16.276  1.00  0.00     0.020 A 
ATOM     83  C   UNL     1       7.810  -4.575  14.690  1.00  0.00     0.020 A 
ATOM     84  C   UNL     1       7.793  -3.876  15.897  1.00  0.00     0.054 A 
BRANCH  84  85
ATOM     85  S   UNL     1       6.343  -3.958  16.985  1.00  0.00     0.124 S 
ATOM     86  O   UNL     1       6.843  -4.761  18.097  1.00  0.00    -0.237 OA
ATOM     87  O   UNL     1       6.093  -2.550  17.281  1.00  0.00    -0.237 OA
ATOM     88  O   UNL     1       5.329  -4.602  16.153  1.00  0.00    -0.744 OA
ENDBRANCH  84  85
ENDBRANCH  56  79
BRANCH  68  89
ATOM     89  C   UNL     1      16.680  -5.698  14.806  1.00  0.00    -0.014 A 
ATOM     90  C   UNL     1      16.424  -7.034  15.164  1.00  0.00     0.010 A 
ATOM     91  C   UNL     1      17.679  -4.986  15.496  1.00  0.00     0.010 A 
ATOM     92  C   UNL     1      17.110  -7.626  16.227  1.00  0.00     0.020 A 
ATOM     93  C   UNL     1      18.392  -5.585  16.537  1.00  0.00     0.020 A 
ATOM     94  C   UNL     1      18.087  -6.895  16.911  1.00  0.00     0.054 A 
BRANCH  94  95
ATOM     95  S   UNL     1      18.967  -7.687  18.284  1.00  0.00     0.124 S 
ATOM     96  O   UNL     1      17.944  -7.711  19.326  1.00  0.00    -0.237 OA
ATOM     97  O   UNL     1      19.328  -8.988  17.727  1.00  0.00    -0.237 OA
ATOM     98  O   UNL     1      20.093  -6.790  18.538  1.00  0.00    -0.744 OA
ENDBRANCH  94  95
ENDBRANCH  68  89
ENDBRANCH  42  43
ENDBRANCH  34  37
ENDBRANCH  32  33
ENDBRANCH  31  32
ENDBRANCH   1  31
TORSDOF 20
