REMARK SMILES [NH3+][C@]1(C(=O)NCCCCNC(=O)c2ccc(-c3c4nc(c(-c5ccc(S(=O)(=O)[O-])cc5)c5ccc([nH]5)c(-c5ccc(S(=O)(=O)[O-])cc5)c5nc(c(-c6ccc(S(=O)(=O)[O-])cc6)c6ccc3[nH]6)C=C5)C=C4)cc2)CC[C@H](Oc2ccccc2[N+](=O)[O-])C1
REMARK SMILES IDX 7 1 6 2 5 3 3 4 4 5 2 7 73 8 86 9 74 10 75 11 1 12 76 16
REMARK SMILES IDX 77 17 78 18 82 19 79 20 81 21 80 22 83 23 84 24 85 25 8 26
REMARK SMILES IDX 9 27 10 28 11 29 12 31 13 32 14 33 72 34 15 35 71 36 16 37
REMARK SMILES IDX 17 38 18 39 65 40 19 41 70 42 64 43 66 44 20 45 69 46 63 47
REMARK SMILES IDX 62 48 21 50 51 51 32 52 50 53 33 54 36 55 49 56 67 57 34 58
REMARK SMILES IDX 35 59 48 61 68 62 37 63 22 64 23 65 31 66 24 67 30 68 25 69
REMARK SMILES IDX 26 70 27 71 28 72 29 73 52 74 53 75 61 76 54 77 60 78 55 79
REMARK SMILES IDX 56 80 57 81 58 82 59 83 38 84 39 85 47 86 40 87 46 88 41 89
REMARK SMILES IDX 42 90 43 91 44 92 45 93
REMARK H PARENT 5 6 1 13 1 14 1 15 10 30 66 49 36 60
REMARK Flexibility Score: inf
ROOT
ATOM      1  C   UNL     1       4.354  -0.018  -0.776  1.00  0.00     0.023 C 
ENDROOT
BRANCH   1   2
ATOM      2  C   UNL     1       3.215  -0.949  -0.366  1.00  0.00     0.116 C 
BRANCH   2   3
ATOM      3  N   UNL     1       2.183  -0.236   0.361  1.00  0.00    -0.351 N 
ATOM      4  C   UNL     1       0.952   0.217  -0.020  1.00  0.00     0.281 C 
ATOM      5  O   UNL     1       0.334   0.901   0.801  1.00  0.00    -0.268 OA
ATOM      6  H   UNL     1       2.410  -0.043   1.300  1.00  0.00     0.163 HD
BRANCH   4   7
ATOM      7  C   UNL     1       0.358  -0.125  -1.412  1.00  0.00     0.177 C 
ATOM      8  C   UNL     1       0.151  -1.631  -1.588  1.00  0.00     0.083 C 
ATOM      9  C   UNL     1      -1.089   0.402  -1.567  1.00  0.00     0.124 C 
ATOM     10  C   UNL     1      -0.846  -1.736  -2.726  1.00  0.00     0.052 C 
ATOM     11  C   UNL     1      -1.820  -0.574  -2.511  1.00  0.00     0.180 C 
BRANCH   7  12
ATOM     12  N   UNL     1       1.171   0.458  -2.501  1.00  0.00    -0.345 N 
ATOM     13  H   UNL     1       0.757   0.216  -3.401  1.00  0.00     0.345 HD
ATOM     14  H   UNL     1       2.120   0.086  -2.452  1.00  0.00     0.345 HD
ATOM     15  H   UNL     1       1.198   1.472  -2.400  1.00  0.00     0.345 HD
ENDBRANCH   7  12
BRANCH  11  16
ATOM     16  O   UNL     1      -2.144   0.109  -3.724  1.00  0.00    -0.483 OA
BRANCH  16  17
ATOM     17  C   UNL     1      -2.821  -0.539  -4.717  1.00  0.00     0.197 A 
ATOM     18  C   UNL     1      -3.398  -1.807  -4.562  1.00  0.00     0.054 A 
ATOM     19  C   UNL     1      -2.915   0.074  -5.978  1.00  0.00     0.310 A 
ATOM     20  C   UNL     1      -3.974  -2.479  -5.646  1.00  0.00     0.004 A 
ATOM     21  C   UNL     1      -3.498  -0.599  -7.069  1.00  0.00     0.090 A 
ATOM     22  C   UNL     1      -4.012  -1.883  -6.901  1.00  0.00     0.007 A 
BRANCH  19  23
ATOM     23  N   UNL     1      -2.417   1.435  -6.213  1.00  0.00     0.066 N 
ATOM     24  O   UNL     1      -2.076   1.716  -7.374  1.00  0.00    -0.258 OA
ATOM     25  O   UNL     1      -2.429   2.249  -5.280  1.00  0.00    -0.258 OA
ENDBRANCH  19  23
ENDBRANCH  16  17
ENDBRANCH  11  16
ENDBRANCH   4   7
ENDBRANCH   2   3
ENDBRANCH   1   2
BRANCH   1  26
ATOM     26  C   UNL     1       5.224   0.469   0.385  1.00  0.00     0.023 C 
BRANCH  26  27
ATOM     27  C   UNL     1       5.914  -0.632   1.184  1.00  0.00     0.116 C 
BRANCH  27  28
ATOM     28  N   UNL     1       6.780  -1.472   0.371  1.00  0.00    -0.352 N 
ATOM     29  C   UNL     1       8.001  -2.014   0.701  1.00  0.00     0.251 C 
ATOM     30  H   UNL     1       6.449  -1.679  -0.532  1.00  0.00     0.163 HD
ATOM     31  O   UNL     1       8.660  -2.607  -0.144  1.00  0.00    -0.269 OA
BRANCH  29  32
ATOM     32  C   UNL     1       8.522  -1.840   2.073  1.00  0.00     0.039 A 
ATOM     33  C   UNL     1       9.824  -1.364   2.245  1.00  0.00     0.014 A 
ATOM     34  C   UNL     1       7.716  -2.112   3.182  1.00  0.00     0.014 A 
ATOM     35  C   UNL     1      10.295  -1.094   3.532  1.00  0.00     0.010 A 
ATOM     36  C   UNL     1       8.164  -1.782   4.457  1.00  0.00     0.010 A 
ATOM     37  C   UNL     1       9.456  -1.266   4.645  1.00  0.00    -0.014 A 
BRANCH  37  38
ATOM     38  C   UNL     1       9.903  -0.906   6.013  1.00  0.00     0.031 A 
ATOM     39  C   UNL     1      10.049  -1.973   7.063  1.00  0.00     0.074 A 
ATOM     40  C   UNL     1      10.104   0.389   6.331  1.00  0.00     0.049 A 
ATOM     41  N   UNL     1      10.343  -1.846   8.332  1.00  0.00    -0.248 NA
ATOM     42  C   UNL     1       9.809  -3.361   6.637  1.00  0.00     0.031 C 
ATOM     43  C   UNL     1       9.959   1.521   5.413  1.00  0.00     0.029 A 
ATOM     44  N   UNL     1      10.463   0.972   7.521  1.00  0.00    -0.354 N 
ATOM     45  C   UNL     1      10.304  -3.131   8.858  1.00  0.00     0.074 A 
ATOM     46  C   UNL     1       9.916  -4.018   7.783  1.00  0.00     0.031 C 
ATOM     47  C   UNL     1      10.246   2.658   6.067  1.00  0.00     0.029 A 
ATOM     48  C   UNL     1      10.556   2.342   7.458  1.00  0.00     0.049 A 
ATOM     49  H   UNL     1      10.638   0.457   8.341  1.00  0.00     0.167 HD
ATOM     50  C   UNL     1      10.584  -3.540  10.119  1.00  0.00     0.031 A 
ATOM     51  C   UNL     1      10.850   3.245   8.414  1.00  0.00     0.031 A 
ATOM     52  C   UNL     1      10.983  -2.659  11.184  1.00  0.00     0.049 A 
ATOM     53  C   UNL     1      11.153   2.767   9.808  1.00  0.00     0.074 A 
ATOM     54  C   UNL     1      11.336  -2.984  12.482  1.00  0.00     0.029 A 
ATOM     55  N   UNL     1      11.083  -1.281  11.074  1.00  0.00    -0.354 N 
ATOM     56  N   UNL     1      11.164   1.541  10.273  1.00  0.00    -0.248 NA
ATOM     57  C   UNL     1      11.491   3.794  10.803  1.00  0.00     0.031 C 
ATOM     58  C   UNL     1      11.611  -1.796  13.169  1.00  0.00     0.029 A 
ATOM     59  C   UNL     1      11.477  -0.738  12.284  1.00  0.00     0.049 A 
ATOM     60  H   UNL     1      10.902  -0.765  10.255  1.00  0.00     0.167 HD
ATOM     61  C   UNL     1      11.538   1.647  11.608  1.00  0.00     0.074 A 
ATOM     62  C   UNL     1      11.753   3.055  11.872  1.00  0.00     0.031 C 
ATOM     63  C   UNL     1      11.691   0.666  12.530  1.00  0.00     0.031 A 
BRANCH  50  64
ATOM     64  C   UNL     1      10.462  -5.012  10.412  1.00  0.00    -0.014 A 
ATOM     65  C   UNL     1      11.387  -5.934   9.888  1.00  0.00     0.010 A 
ATOM     66  C   UNL     1       9.428  -5.478  11.245  1.00  0.00     0.010 A 
ATOM     67  C   UNL     1      11.253  -7.299  10.152  1.00  0.00     0.020 A 
ATOM     68  C   UNL     1       9.307  -6.840  11.534  1.00  0.00     0.020 A 
ATOM     69  C   UNL     1      10.209  -7.744  10.969  1.00  0.00     0.054 A 
BRANCH  69  70
ATOM     70  S   UNL     1      10.065  -9.520  11.305  1.00  0.00     0.124 S 
ATOM     71  O   UNL     1       9.533 -10.022  10.040  1.00  0.00    -0.237 OA
ATOM     72  O   UNL     1      11.442  -9.905  11.603  1.00  0.00    -0.237 OA
ATOM     73  O   UNL     1       9.144  -9.585  12.437  1.00  0.00    -0.744 OA
ENDBRANCH  69  70
ENDBRANCH  50  64
BRANCH  51  74
ATOM     74  C   UNL     1      10.889   4.694   8.080  1.00  0.00    -0.014 A 
ATOM     75  C   UNL     1      12.117   5.375   8.012  1.00  0.00     0.010 A 
ATOM     76  C   UNL     1       9.700   5.398   7.815  1.00  0.00     0.010 A 
ATOM     77  C   UNL     1      12.155   6.738   7.702  1.00  0.00     0.020 A 
ATOM     78  C   UNL     1       9.736   6.755   7.480  1.00  0.00     0.020 A 
ATOM     79  C   UNL     1      10.964   7.419   7.438  1.00  0.00     0.054 A 
BRANCH  79  80
ATOM     80  S   UNL     1      11.040   9.175   6.987  1.00  0.00     0.124 S 
ATOM     81  O   UNL     1      11.301   9.807   8.276  1.00  0.00    -0.237 OA
ATOM     82  O   UNL     1      12.144   9.209   6.030  1.00  0.00    -0.237 OA
ATOM     83  O   UNL     1       9.722   9.437   6.414  1.00  0.00    -0.744 OA
ENDBRANCH  79  80
ENDBRANCH  51  74
BRANCH  63  84
ATOM     84  C   UNL     1      12.147   1.072  13.905  1.00  0.00    -0.014 A 
ATOM     85  C   UNL     1      11.274   1.711  14.803  1.00  0.00     0.010 A 
ATOM     86  C   UNL     1      13.451   0.751  14.325  1.00  0.00     0.010 A 
ATOM     87  C   UNL     1      11.706   2.043  16.090  1.00  0.00     0.020 A 
ATOM     88  C   UNL     1      13.879   1.060  15.618  1.00  0.00     0.020 A 
ATOM     89  C   UNL     1      13.006   1.715  16.489  1.00  0.00     0.054 A 
BRANCH  89  90
ATOM     90  S   UNL     1      13.526   2.107  18.182  1.00  0.00     0.124 S 
ATOM     91  O   UNL     1      13.740   3.550  18.108  1.00  0.00    -0.237 OA
ATOM     92  O   UNL     1      12.377   1.682  18.978  1.00  0.00    -0.237 OA
ATOM     93  O   UNL     1      14.734   1.306  18.367  1.00  0.00    -0.744 OA
ENDBRANCH  89  90
ENDBRANCH  63  84
ENDBRANCH  37  38
ENDBRANCH  29  32
ENDBRANCH  27  28
ENDBRANCH  26  27
ENDBRANCH   1  26
TORSDOF 18
