REMARK SMILES CC(C)(C)N(CC(=O)NCCCCNC(=O)c1ccc(-c2c3nc(c(-c4ccc(S(=O)(=O)[O-])cc4)c4ccc([nH]4)c(-c4ccc(S(=O)(=O)[O-])cc4)c4nc(c(-c5ccc(S(=O)(=O)[O-])cc5)c5ccc2[nH]5)C=C4)C=C3)cc1)C(=O)C1C[NH2+]C1
REMARK SMILES IDX 11 1 10 2 9 3 7 4 8 5 6 7 5 8 2 9 1 10 3 11 4 12 77 13 78 14
REMARK SMILES IDX 79 15 80 16 82 17 81 18 12 21 13 22 14 23 15 24 16 26 17 27
REMARK SMILES IDX 18 28 76 29 19 30 75 31 20 32 21 33 22 34 69 35 23 36 74 37
REMARK SMILES IDX 68 38 70 39 24 40 73 41 67 42 66 43 25 45 55 46 36 47 54 48
REMARK SMILES IDX 37 49 40 50 53 51 71 52 38 53 39 54 52 56 72 57 41 58 26 59
REMARK SMILES IDX 27 60 35 61 28 62 34 63 29 64 30 65 31 66 32 67 33 68 56 69
REMARK SMILES IDX 57 70 65 71 58 72 64 73 59 74 60 75 61 76 62 77 63 78 42 79
REMARK SMILES IDX 43 80 51 81 44 82 50 83 45 84 46 85 47 86 48 87 49 88
REMARK H PARENT 9 6 81 19 81 20 14 25 70 44 40 55
REMARK Flexibility Score: inf
ROOT
ATOM      1  C   UNL     1       3.571  -0.486   3.063  1.00  0.00     0.023 C 
ENDROOT
BRANCH   1   2
ATOM      2  C   UNL     1       3.760  -0.661   1.559  1.00  0.00     0.116 C 
BRANCH   2   3
ATOM      3  N   UNL     1       3.977  -2.037   1.176  1.00  0.00    -0.355 N 
ATOM      4  C   UNL     1       3.121  -2.896   0.555  1.00  0.00     0.239 C 
ATOM      5  O   UNL     1       3.580  -3.960   0.132  1.00  0.00    -0.273 OA
ATOM      6  H   UNL     1       4.864  -2.404   1.394  1.00  0.00     0.163 HD
BRANCH   4   7
ATOM      7  C   UNL     1       1.656  -2.517   0.259  1.00  0.00     0.219 C 
BRANCH   7   8
ATOM      8  N   UNL     1       0.839  -1.937   1.345  1.00  0.00    -0.328 N 
BRANCH   8   9
ATOM      9  C   UNL     1       0.005  -0.690   1.103  1.00  0.00     0.035 C 
ATOM     10  C   UNL     1       0.326   0.050  -0.224  1.00  0.00     0.034 C 
ATOM     11  C   UNL     1       0.210   0.356   2.224  1.00  0.00     0.034 C 
ATOM     12  C   UNL     1      -1.496  -1.055   1.015  1.00  0.00     0.034 C 
ENDBRANCH   8   9
BRANCH   8  13
ATOM     13  C   UNL     1       0.548  -2.740   2.489  1.00  0.00     0.238 C 
ATOM     14  O   UNL     1      -0.225  -2.332   3.366  1.00  0.00    -0.274 OA
BRANCH  13  15
ATOM     15  C   UNL     1       1.214  -4.130   2.633  1.00  0.00     0.188 C 
ATOM     16  C   UNL     1       0.860  -4.968   3.887  1.00  0.00     0.280 C 
ATOM     17  C   UNL     1       0.598  -5.325   1.874  1.00  0.00     0.280 C 
ATOM     18  N   UNL     1       0.897  -6.186   3.040  1.00  0.00    -0.345 N 
ATOM     19  H   UNL     1       0.175  -6.874   3.255  1.00  0.00     0.346 HD
ATOM     20  H   UNL     1       1.702  -6.813   3.045  1.00  0.00     0.346 HD
ENDBRANCH  13  15
ENDBRANCH   8  13
ENDBRANCH   7   8
ENDBRANCH   4   7
ENDBRANCH   2   3
ENDBRANCH   1   2
BRANCH   1  21
ATOM     21  C   UNL     1       4.847  -0.605   3.894  1.00  0.00     0.023 C 
BRANCH  21  22
ATOM     22  C   UNL     1       5.990   0.317   3.480  1.00  0.00     0.116 C 
BRANCH  22  23
ATOM     23  N   UNL     1       5.615   1.722   3.388  1.00  0.00    -0.352 N 
ATOM     24  C   UNL     1       6.362   2.832   3.708  1.00  0.00     0.251 C 
ATOM     25  H   UNL     1       4.707   1.900   3.052  1.00  0.00     0.163 HD
ATOM     26  O   UNL     1       5.867   3.953   3.632  1.00  0.00    -0.269 OA
BRANCH  24  27
ATOM     27  C   UNL     1       7.748   2.657   4.191  1.00  0.00     0.039 A 
ATOM     28  C   UNL     1       8.132   3.283   5.379  1.00  0.00     0.014 A 
ATOM     29  C   UNL     1       8.641   1.829   3.507  1.00  0.00     0.014 A 
ATOM     30  C   UNL     1       9.385   3.007   5.928  1.00  0.00     0.010 A 
ATOM     31  C   UNL     1       9.859   1.500   4.092  1.00  0.00     0.010 A 
ATOM     32  C   UNL     1      10.240   2.076   5.314  1.00  0.00    -0.014 A 
BRANCH  32  33
ATOM     33  C   UNL     1      11.523   1.672   5.942  1.00  0.00     0.031 A 
ATOM     34  C   UNL     1      12.827   1.952   5.245  1.00  0.00     0.074 A 
ATOM     35  C   UNL     1      11.509   0.974   7.096  1.00  0.00     0.049 A 
ATOM     36  N   UNL     1      14.037   1.596   5.590  1.00  0.00    -0.248 NA
ATOM     37  C   UNL     1      12.759   2.703   3.980  1.00  0.00     0.031 C 
ATOM     38  C   UNL     1      10.307   0.584   7.840  1.00  0.00     0.029 A 
ATOM     39  N   UNL     1      12.539   0.453   7.840  1.00  0.00    -0.354 N 
ATOM     40  C   UNL     1      14.869   2.052   4.574  1.00  0.00     0.074 A 
ATOM     41  C   UNL     1      14.023   2.678   3.582  1.00  0.00     0.031 C 
ATOM     42  C   UNL     1      10.671  -0.097   8.940  1.00  0.00     0.029 A 
ATOM     43  C   UNL     1      12.124  -0.222   8.964  1.00  0.00     0.049 A 
ATOM     44  H   UNL     1      13.486   0.553   7.591  1.00  0.00     0.167 HD
ATOM     45  C   UNL     1      16.218   1.972   4.484  1.00  0.00     0.031 A 
ATOM     46  C   UNL     1      12.832  -0.874   9.906  1.00  0.00     0.031 A 
ATOM     47  C   UNL     1      17.061   1.384   5.489  1.00  0.00     0.049 A 
ATOM     48  C   UNL     1      14.332  -0.912   9.802  1.00  0.00     0.074 A 
ATOM     49  C   UNL     1      18.444   1.327   5.524  1.00  0.00     0.029 A 
ATOM     50  N   UNL     1      16.605   0.758   6.638  1.00  0.00    -0.354 N 
ATOM     51  N   UNL     1      15.105  -0.407   8.870  1.00  0.00    -0.248 NA
ATOM     52  C   UNL     1      15.057  -1.594  10.883  1.00  0.00     0.031 C 
ATOM     53  C   UNL     1      18.823   0.634   6.678  1.00  0.00     0.029 A 
ATOM     54  C   UNL     1      17.677   0.298   7.382  1.00  0.00     0.049 A 
ATOM     55  H   UNL     1      15.658   0.655   6.887  1.00  0.00     0.167 HD
ATOM     56  C   UNL     1      16.407  -0.690   9.266  1.00  0.00     0.074 A 
ATOM     57  C   UNL     1      16.319  -1.395  10.528  1.00  0.00     0.031 C 
ATOM     58  C   UNL     1      17.572  -0.394   8.639  1.00  0.00     0.031 A 
BRANCH  45  59
ATOM     59  C   UNL     1      16.871   2.545   3.256  1.00  0.00    -0.014 A 
ATOM     60  C   UNL     1      16.955   3.935   3.062  1.00  0.00     0.010 A 
ATOM     61  C   UNL     1      17.460   1.684   2.312  1.00  0.00     0.010 A 
ATOM     62  C   UNL     1      17.591   4.454   1.932  1.00  0.00     0.020 A 
ATOM     63  C   UNL     1      18.118   2.200   1.192  1.00  0.00     0.020 A 
ATOM     64  C   UNL     1      18.167   3.583   1.003  1.00  0.00     0.054 A 
BRANCH  64  65
ATOM     65  S   UNL     1      19.023   4.285  -0.434  1.00  0.00     0.124 S 
ATOM     66  O   UNL     1      17.904   4.715  -1.269  1.00  0.00    -0.237 OA
ATOM     67  O   UNL     1      19.815   5.361   0.157  1.00  0.00    -0.237 OA
ATOM     68  O   UNL     1      19.797   3.163  -0.959  1.00  0.00    -0.744 OA
ENDBRANCH  64  65
ENDBRANCH  45  59
BRANCH  46  69
ATOM     69  C   UNL     1      12.136  -1.538  11.041  1.00  0.00    -0.014 A 
ATOM     70  C   UNL     1      12.211  -0.999  12.337  1.00  0.00     0.010 A 
ATOM     71  C   UNL     1      11.402  -2.720  10.832  1.00  0.00     0.010 A 
ATOM     72  C   UNL     1      11.591  -1.646  13.410  1.00  0.00     0.020 A 
ATOM     73  C   UNL     1      10.759  -3.355  11.899  1.00  0.00     0.020 A 
ATOM     74  C   UNL     1      10.872  -2.822  13.184  1.00  0.00     0.054 A 
BRANCH  74  75
ATOM     75  S   UNL     1      10.047  -3.631  14.584  1.00  0.00     0.124 S 
ATOM     76  O   UNL     1      11.162  -4.304  15.243  1.00  0.00    -0.237 OA
ATOM     77  O   UNL     1       9.470  -2.502  15.310  1.00  0.00    -0.237 OA
ATOM     78  O   UNL     1       9.073  -4.511  13.941  1.00  0.00    -0.744 OA
ENDBRANCH  74  75
ENDBRANCH  46  69
BRANCH  58  79
ATOM     79  C   UNL     1      18.847  -0.799   9.325  1.00  0.00    -0.014 A 
ATOM     80  C   UNL     1      19.262  -2.141   9.354  1.00  0.00     0.010 A 
ATOM     81  C   UNL     1      19.668   0.188   9.901  1.00  0.00     0.010 A 
ATOM     82  C   UNL     1      20.463  -2.494   9.974  1.00  0.00     0.020 A 
ATOM     83  C   UNL     1      20.880  -0.158  10.501  1.00  0.00     0.020 A 
ATOM     84  C   UNL     1      21.264  -1.500  10.546  1.00  0.00     0.054 A 
BRANCH  84  85
ATOM     85  S   UNL     1      22.840  -1.975  11.306  1.00  0.00     0.124 S 
ATOM     86  O   UNL     1      22.405  -2.539  12.580  1.00  0.00    -0.237 OA
ATOM     87  O   UNL     1      23.386  -2.934  10.348  1.00  0.00    -0.237 OA
ATOM     88  O   UNL     1      23.572  -0.714  11.400  1.00  0.00    -0.744 OA
ENDBRANCH  84  85
ENDBRANCH  58  79
ENDBRANCH  32  33
ENDBRANCH  24  27
ENDBRANCH  22  23
ENDBRANCH  21  22
ENDBRANCH   1  21
TORSDOF 18
