REMARK SMILES COC(=O)[C@H]1CCN(S(=O)(=O)N2CCC[C@H](C(=O)NCCCCNC(=O)c3ccc(-c4c5nc(c(-c6ccc(S(=O)(=O)[O-])cc6)c6ccc([nH]6)c(-c6ccc(S(=O)(=O)[O-])cc6)c6nc(c(-c7ccc(S(=O)(=O)[O-])cc7)c7ccc4[nH]7)C=C6)C=C5)cc3)C2)C1
REMARK SMILES IDX 21 1 20 2 19 3 17 4 18 5 16 7 12 8 13 9 87 10 14 11 15 12
REMARK SMILES IDX 9 13 10 14 11 15 8 16 5 17 6 18 88 19 7 20 3 21 4 22 2 23
REMARK SMILES IDX 1 24 22 25 23 26 24 27 25 28 26 30 27 31 28 32 86 33 29 34
REMARK SMILES IDX 85 35 30 36 31 37 32 38 79 39 33 40 84 41 78 42 80 43 34 44
REMARK SMILES IDX 83 45 77 46 76 47 35 49 65 50 46 51 64 52 47 53 50 54 63 55
REMARK SMILES IDX 81 56 48 57 49 58 62 60 82 61 51 62 36 63 37 64 45 65 38 66
REMARK SMILES IDX 44 67 39 68 40 69 41 70 42 71 43 72 66 73 67 74 75 75 68 76
REMARK SMILES IDX 74 77 69 78 70 79 71 80 72 81 73 82 52 83 53 84 61 85 54 86
REMARK SMILES IDX 60 87 55 88 56 89 57 90 58 91 59 92
REMARK H PARENT 19 6 24 29 80 48 50 59
REMARK Flexibility Score: inf
ROOT
ATOM      1  C   UNL     1      -4.617   8.580  -2.138  1.00  0.00     0.023 C 
ENDROOT
BRANCH   1   2
ATOM      2  C   UNL     1      -4.613   7.553  -1.012  1.00  0.00     0.116 C 
BRANCH   2   3
ATOM      3  N   UNL     1      -5.756   6.673  -1.066  1.00  0.00    -0.356 N 
ATOM      4  C   UNL     1      -5.864   5.362  -1.386  1.00  0.00     0.224 C 
ATOM      5  O   UNL     1      -6.990   4.860  -1.271  1.00  0.00    -0.275 OA
ATOM      6  H   UNL     1      -6.609   7.103  -0.826  1.00  0.00     0.163 HD
BRANCH   4   7
ATOM      7  C   UNL     1      -4.711   4.484  -1.875  1.00  0.00     0.094 C 
ATOM      8  N   UNL     1      -2.518   5.134  -0.898  1.00  0.00    -0.188 NA
ATOM      9  C   UNL     1      -1.864   5.300  -2.205  1.00  0.00     0.103 C 
ATOM     10  C   UNL     1      -3.638   4.184  -0.843  1.00  0.00     0.117 C 
ATOM     11  C   UNL     1      -2.885   5.632  -3.293  1.00  0.00     0.018 C 
ATOM     12  C   UNL     1      -4.151   4.782  -3.264  1.00  0.00     0.016 C 
BRANCH   8  13
ATOM     13  S   UNL     1      -1.623   5.438   0.486  1.00  0.00     0.282 S 
ATOM     14  O   UNL     1      -2.441   5.187   1.645  1.00  0.00    -0.195 OA
ATOM     15  O   UNL     1      -0.954   6.707   0.301  1.00  0.00    -0.195 OA
BRANCH  13  16
ATOM     16  N   UNL     1      -0.433   4.232   0.413  1.00  0.00    -0.188 NA
ATOM     17  C   UNL     1       0.772   3.156   2.224  1.00  0.00     0.116 C 
ATOM     18  C   UNL     1      -0.555   2.460   1.999  1.00  0.00     0.033 C 
ATOM     19  C   UNL     1       0.668   4.446   1.419  1.00  0.00     0.118 C 
ATOM     20  C   UNL     1      -0.878   2.828   0.570  1.00  0.00     0.104 C 
BRANCH  17  21
ATOM     21  C   UNL     1       1.000   3.467   3.679  1.00  0.00     0.310 C 
ATOM     22  O   UNL     1       0.144   3.872   4.451  1.00  0.00    -0.252 OA
BRANCH  21  23
ATOM     23  O   UNL     1       2.303   3.248   4.006  1.00  0.00    -0.469 OA
ATOM     24  C   UNL     1       2.607   3.556   5.368  1.00  0.00     0.282 C 
ENDBRANCH  21  23
ENDBRANCH  17  21
ENDBRANCH  13  16
ENDBRANCH   8  13
ENDBRANCH   4   7
ENDBRANCH   2   3
ENDBRANCH   1   2
BRANCH   1  25
ATOM     25  C   UNL     1      -5.364   9.862  -1.804  1.00  0.00     0.023 C 
BRANCH  25  26
ATOM     26  C   UNL     1      -4.847  10.589  -0.570  1.00  0.00     0.116 C 
BRANCH  26  27
ATOM     27  N   UNL     1      -3.430  10.929  -0.634  1.00  0.00    -0.352 N 
ATOM     28  C   UNL     1      -2.831  12.116  -0.273  1.00  0.00     0.251 C 
ATOM     29  H   UNL     1      -2.830  10.227  -0.975  1.00  0.00     0.163 HD
ATOM     30  O   UNL     1      -1.644  12.322  -0.494  1.00  0.00    -0.269 OA
BRANCH  28  31
ATOM     31  C   UNL     1      -3.675  13.156   0.347  1.00  0.00     0.039 A 
ATOM     32  C   UNL     1      -3.703  14.432  -0.214  1.00  0.00     0.014 A 
ATOM     33  C   UNL     1      -4.532  12.817   1.398  1.00  0.00     0.014 A 
ATOM     34  C   UNL     1      -4.660  15.346   0.227  1.00  0.00     0.010 A 
ATOM     35  C   UNL     1      -5.551  13.689   1.755  1.00  0.00     0.010 A 
ATOM     36  C   UNL     1      -5.625  14.964   1.176  1.00  0.00    -0.014 A 
BRANCH  36  37
ATOM     37  C   UNL     1      -6.723  15.885   1.566  1.00  0.00     0.031 A 
ATOM     38  C   UNL     1      -6.862  16.327   2.998  1.00  0.00     0.074 A 
ATOM     39  C   UNL     1      -7.622  16.283   0.642  1.00  0.00     0.049 A 
ATOM     40  N   UNL     1      -7.756  17.120   3.531  1.00  0.00    -0.248 NA
ATOM     41  C   UNL     1      -5.890  15.787   3.965  1.00  0.00     0.031 C 
ATOM     42  C   UNL     1      -7.629  15.875  -0.766  1.00  0.00     0.029 A 
ATOM     43  N   UNL     1      -8.702  17.123   0.746  1.00  0.00    -0.354 N 
ATOM     44  C   UNL     1      -7.460  17.163   4.888  1.00  0.00     0.074 A 
ATOM     45  C   UNL     1      -6.350  16.266   5.110  1.00  0.00     0.031 C 
ATOM     46  C   UNL     1      -8.631  16.503  -1.402  1.00  0.00     0.029 A 
ATOM     47  C   UNL     1      -9.367  17.319  -0.443  1.00  0.00     0.049 A 
ATOM     48  H   UNL     1      -8.975  17.547   1.591  1.00  0.00     0.167 HD
ATOM     49  C   UNL     1      -8.041  17.905   5.860  1.00  0.00     0.031 A 
ATOM     50  C   UNL     1     -10.448  18.071  -0.729  1.00  0.00     0.031 A 
ATOM     51  C   UNL     1      -9.143  18.802   5.632  1.00  0.00     0.049 A 
ATOM     52  C   UNL     1     -11.085  18.877   0.371  1.00  0.00     0.074 A 
ATOM     53  C   UNL     1      -9.767  19.642   6.536  1.00  0.00     0.029 A 
ATOM     54  N   UNL     1      -9.789  18.969   4.416  1.00  0.00    -0.354 N 
ATOM     55  N   UNL     1     -10.736  18.970   1.632  1.00  0.00    -0.248 NA
ATOM     56  C   UNL     1     -12.254  19.689   0.006  1.00  0.00     0.031 C 
ATOM     57  C   UNL     1     -10.833  20.269   5.883  1.00  0.00     0.029 A 
ATOM     58  C   UNL     1     -10.827  19.875   4.554  1.00  0.00     0.049 A 
ATOM     59  H   UNL     1      -9.546  18.512   3.579  1.00  0.00     0.167 HD
ATOM     60  C   UNL     1     -11.628  19.871   2.206  1.00  0.00     0.074 A 
ATOM     61  C   UNL     1     -12.514  20.310   1.147  1.00  0.00     0.031 C 
ATOM     62  C   UNL     1     -11.706  20.296   3.492  1.00  0.00     0.031 A 
BRANCH  49  63
ATOM     63  C   UNL     1      -7.496  17.773   7.259  1.00  0.00    -0.014 A 
ATOM     64  C   UNL     1      -6.207  18.234   7.586  1.00  0.00     0.010 A 
ATOM     65  C   UNL     1      -8.297  17.214   8.271  1.00  0.00     0.010 A 
ATOM     66  C   UNL     1      -5.715  18.102   8.887  1.00  0.00     0.020 A 
ATOM     67  C   UNL     1      -7.822  17.111   9.582  1.00  0.00     0.020 A 
ATOM     68  C   UNL     1      -6.527  17.542   9.878  1.00  0.00     0.054 A 
BRANCH  68  69
ATOM     69  S   UNL     1      -5.874  17.415  11.565  1.00  0.00     0.124 S 
ATOM     70  O   UNL     1      -4.863  16.371  11.419  1.00  0.00    -0.237 OA
ATOM     71  O   UNL     1      -5.357  18.759  11.807  1.00  0.00    -0.237 OA
ATOM     72  O   UNL     1      -7.040  17.046  12.363  1.00  0.00    -0.744 OA
ENDBRANCH  68  69
ENDBRANCH  49  63
BRANCH  50  73
ATOM     73  C   UNL     1     -10.986  18.109  -2.119  1.00  0.00    -0.014 A 
ATOM     74  C   UNL     1     -10.899  19.282  -2.891  1.00  0.00     0.010 A 
ATOM     75  C   UNL     1     -11.584  16.966  -2.681  1.00  0.00     0.010 A 
ATOM     76  C   UNL     1     -11.417  19.317  -4.189  1.00  0.00     0.020 A 
ATOM     77  C   UNL     1     -12.073  16.987  -3.990  1.00  0.00     0.020 A 
ATOM     78  C   UNL     1     -11.998  18.167  -4.732  1.00  0.00     0.054 A 
BRANCH  78  79
ATOM     79  S   UNL     1     -12.619  18.222  -6.436  1.00  0.00     0.124 S 
ATOM     80  O   UNL     1     -13.804  19.064  -6.302  1.00  0.00    -0.237 OA
ATOM     81  O   UNL     1     -11.498  18.816  -7.160  1.00  0.00    -0.237 OA
ATOM     82  O   UNL     1     -12.881  16.819  -6.751  1.00  0.00    -0.744 OA
ENDBRANCH  78  79
ENDBRANCH  50  73
BRANCH  62  83
ATOM     83  C   UNL     1     -12.771  21.309   3.822  1.00  0.00    -0.014 A 
ATOM     84  C   UNL     1     -14.135  20.965   3.821  1.00  0.00     0.010 A 
ATOM     85  C   UNL     1     -12.395  22.616   4.184  1.00  0.00     0.010 A 
ATOM     86  C   UNL     1     -15.104  21.921   4.136  1.00  0.00     0.020 A 
ATOM     87  C   UNL     1     -13.358  23.564   4.535  1.00  0.00     0.020 A 
ATOM     88  C   UNL     1     -14.709  23.215   4.492  1.00  0.00     0.054 A 
BRANCH  88  89
ATOM     89  S   UNL     1     -15.986  24.425   4.929  1.00  0.00     0.124 S 
ATOM     90  O   UNL     1     -16.601  24.701   3.633  1.00  0.00    -0.237 OA
ATOM     91  O   UNL     1     -16.817  23.685   5.875  1.00  0.00    -0.237 OA
ATOM     92  O   UNL     1     -15.230  25.534   5.507  1.00  0.00    -0.744 OA
ENDBRANCH  88  89
ENDBRANCH  62  83
ENDBRANCH  36  37
ENDBRANCH  28  31
ENDBRANCH  26  27
ENDBRANCH  25  26
ENDBRANCH   1  25
TORSDOF 18
