REMARK SMILES COCCCC(=O)N[C@H]1CC[C@@H](C(=O)NCCCCNC(=O)c2ccc(-c3c4nc(c(-c5ccc(S(=O)(=O)[O-])cc5)c5ccc([nH]5)c(-c5ccc(S(=O)(=O)[O-])cc5)c5nc(c(-c6ccc(S(=O)(=O)[O-])cc6)c6ccc3[nH]6)C=C5)C=C4)cc2)CC1
REMARK SMILES IDX 16 1 15 2 13 3 14 4 12 6 9 7 10 8 84 9 11 10 83 11 8 12 6 13
REMARK SMILES IDX 7 14 5 16 4 17 3 18 2 19 1 20 17 21 18 22 19 23 20 24 21 25
REMARK SMILES IDX 22 27 23 28 24 29 82 30 25 31 81 32 26 33 27 34 28 35 75 36
REMARK SMILES IDX 29 37 80 38 74 39 76 40 30 41 79 42 73 43 72 44 31 46 61 47
REMARK SMILES IDX 42 48 60 49 43 50 46 51 59 52 77 53 44 54 45 55 58 57 78 58
REMARK SMILES IDX 47 59 32 60 33 61 41 62 34 63 40 64 35 65 36 66 37 67 38 68
REMARK SMILES IDX 39 69 62 70 63 71 71 72 64 73 70 74 65 75 66 76 67 77 68 78
REMARK SMILES IDX 69 79 48 80 49 81 57 82 50 83 56 84 51 85 52 86 53 87 54 88
REMARK SMILES IDX 55 89
REMARK H PARENT 15 5 8 15 20 26 76 45 46 56
REMARK Flexibility Score: inf
ROOT
ATOM      1  C   UNL     1       2.990   1.820   3.600  1.00  0.00     0.116 C 
ENDROOT
BRANCH   1   2
ATOM      2  N   UNL     1       2.455   3.154   3.708  1.00  0.00    -0.356 N 
ATOM      3  C   UNL     1       1.893   3.964   2.775  1.00  0.00     0.223 C 
ATOM      4  O   UNL     1       1.226   4.912   3.208  1.00  0.00    -0.275 OA
ATOM      5  H   UNL     1       2.507   3.543   4.611  1.00  0.00     0.163 HD
BRANCH   3   6
ATOM      6  C   UNL     1       2.015   3.781   1.248  1.00  0.00     0.078 C 
ATOM      7  C   UNL     1       2.777   1.030   0.163  1.00  0.00     0.082 C 
ATOM      8  C   UNL     1       1.364   1.410   0.609  1.00  0.00     0.026 C 
ATOM      9  C   UNL     1       3.836   2.156   0.308  1.00  0.00     0.026 C 
ATOM     10  C   UNL     1       0.989   2.876   0.590  1.00  0.00     0.015 C 
ATOM     11  C   UNL     1       3.403   3.580   0.659  1.00  0.00     0.015 C 
BRANCH   7  12
ATOM     12  N   UNL     1       3.308  -0.150   0.889  1.00  0.00    -0.353 N 
ATOM     13  C   UNL     1       2.784  -1.258   1.467  1.00  0.00     0.220 C 
ATOM     14  O   UNL     1       3.526  -1.867   2.239  1.00  0.00    -0.275 OA
ATOM     15  H   UNL     1       4.288  -0.120   0.971  1.00  0.00     0.163 HD
BRANCH  13  16
ATOM     16  C   UNL     1       1.381  -1.738   1.200  1.00  0.00     0.102 C 
BRANCH  16  17
ATOM     17  C   UNL     1       0.361  -1.353   2.276  1.00  0.00     0.038 C 
BRANCH  17  18
ATOM     18  C   UNL     1      -0.964  -0.805   1.732  1.00  0.00     0.160 C 
BRANCH  18  19
ATOM     19  O   UNL     1      -1.485  -1.629   0.691  1.00  0.00    -0.385 OA
ATOM     20  C   UNL     1      -1.478  -1.011  -0.590  1.00  0.00     0.194 C 
ENDBRANCH  18  19
ENDBRANCH  17  18
ENDBRANCH  16  17
ENDBRANCH  13  16
ENDBRANCH   7  12
ENDBRANCH   3   6
ENDBRANCH   1   2
BRANCH   1  21
ATOM     21  C   UNL     1       4.461   1.675   3.963  1.00  0.00     0.023 C 
BRANCH  21  22
ATOM     22  C   UNL     1       4.710   1.092   5.348  1.00  0.00     0.023 C 
BRANCH  22  23
ATOM     23  C   UNL     1       4.092  -0.280   5.617  1.00  0.00     0.116 C 
BRANCH  23  24
ATOM     24  N   UNL     1       4.592  -1.363   4.779  1.00  0.00    -0.352 N 
ATOM     25  C   UNL     1       5.111  -2.585   5.161  1.00  0.00     0.251 C 
ATOM     26  H   UNL     1       4.555  -1.202   3.809  1.00  0.00     0.163 HD
ATOM     27  O   UNL     1       5.578  -3.370   4.349  1.00  0.00    -0.269 OA
BRANCH  25  28
ATOM     28  C   UNL     1       5.137  -2.921   6.598  1.00  0.00     0.039 A 
ATOM     29  C   UNL     1       6.345  -3.315   7.174  1.00  0.00     0.014 A 
ATOM     30  C   UNL     1       3.995  -2.745   7.381  1.00  0.00     0.014 A 
ATOM     31  C   UNL     1       6.437  -3.410   8.562  1.00  0.00     0.010 A 
ATOM     32  C   UNL     1       4.117  -2.736   8.764  1.00  0.00     0.010 A 
ATOM     33  C   UNL     1       5.343  -3.053   9.368  1.00  0.00    -0.014 A 
BRANCH  33  34
ATOM     34  C   UNL     1       5.470  -2.972  10.844  1.00  0.00     0.031 A 
ATOM     35  C   UNL     1       4.607  -3.837  11.720  1.00  0.00     0.074 A 
ATOM     36  C   UNL     1       6.302  -2.062  11.391  1.00  0.00     0.049 A 
ATOM     37  N   UNL     1       4.520  -3.858  13.025  1.00  0.00    -0.248 NA
ATOM     38  C   UNL     1       3.696  -4.774  11.042  1.00  0.00     0.031 C 
ATOM     39  C   UNL     1       7.142  -1.119  10.645  1.00  0.00     0.029 A 
ATOM     40  N   UNL     1       6.577  -1.777  12.704  1.00  0.00    -0.354 N 
ATOM     41  C   UNL     1       3.530  -4.788  13.320  1.00  0.00     0.074 A 
ATOM     42  C   UNL     1       3.007  -5.266  12.060  1.00  0.00     0.031 C 
ATOM     43  C   UNL     1       7.867  -0.392  11.511  1.00  0.00     0.029 A 
ATOM     44  C   UNL     1       7.515  -0.784  12.870  1.00  0.00     0.049 A 
ATOM     45  H   UNL     1       6.144  -2.239  13.458  1.00  0.00     0.167 HD
ATOM     46  C   UNL     1       3.112  -5.224  14.531  1.00  0.00     0.031 A 
ATOM     47  C   UNL     1       8.036  -0.251  13.993  1.00  0.00     0.031 A 
ATOM     48  C   UNL     1       3.658  -4.768  15.779  1.00  0.00     0.049 A 
ATOM     49  C   UNL     1       7.578  -0.774  15.326  1.00  0.00     0.074 A 
ATOM     50  C   UNL     1       3.352  -5.193  17.060  1.00  0.00     0.029 A 
ATOM     51  N   UNL     1       4.631  -3.787  15.903  1.00  0.00    -0.354 N 
ATOM     52  N   UNL     1       6.688  -1.703  15.583  1.00  0.00    -0.248 NA
ATOM     53  C   UNL     1       8.203  -0.187  16.519  1.00  0.00     0.031 C 
ATOM     54  C   UNL     1       4.114  -4.442  17.961  1.00  0.00     0.029 A 
ATOM     55  C   UNL     1       4.928  -3.583  17.239  1.00  0.00     0.049 A 
ATOM     56  H   UNL     1       5.048  -3.306  15.152  1.00  0.00     0.167 HD
ATOM     57  C   UNL     1       6.664  -1.829  16.967  1.00  0.00     0.074 A 
ATOM     58  C   UNL     1       7.638  -0.892  17.490  1.00  0.00     0.031 C 
ATOM     59  C   UNL     1       5.904  -2.647  17.736  1.00  0.00     0.031 A 
BRANCH  46  60
ATOM     60  C   UNL     1       2.015  -6.254  14.552  1.00  0.00    -0.014 A 
ATOM     61  C   UNL     1       2.248  -7.570  14.113  1.00  0.00     0.010 A 
ATOM     62  C   UNL     1       0.739  -5.908  15.031  1.00  0.00     0.010 A 
ATOM     63  C   UNL     1       1.213  -8.508  14.106  1.00  0.00     0.020 A 
ATOM     64  C   UNL     1      -0.293  -6.851  15.052  1.00  0.00     0.020 A 
ATOM     65  C   UNL     1      -0.053  -8.140  14.571  1.00  0.00     0.054 A 
BRANCH  65  66
ATOM     66  S   UNL     1      -1.376  -9.381  14.563  1.00  0.00     0.124 S 
ATOM     67  O   UNL     1      -1.719  -9.446  13.145  1.00  0.00    -0.237 OA
ATOM     68  O   UNL     1      -0.710 -10.565  15.102  1.00  0.00    -0.237 OA
ATOM     69  O   UNL     1      -2.401  -8.800  15.427  1.00  0.00    -0.744 OA
ENDBRANCH  65  66
ENDBRANCH  46  60
BRANCH  47  70
ATOM     70  C   UNL     1       9.070   0.816  13.902  1.00  0.00    -0.014 A 
ATOM     71  C   UNL     1      10.410   0.535  14.221  1.00  0.00     0.010 A 
ATOM     72  C   UNL     1       8.725   2.113  13.481  1.00  0.00     0.010 A 
ATOM     73  C   UNL     1      11.384   1.535  14.139  1.00  0.00     0.020 A 
ATOM     74  C   UNL     1       9.700   3.110  13.374  1.00  0.00     0.020 A 
ATOM     75  C   UNL     1      11.022   2.817  13.716  1.00  0.00     0.054 A 
BRANCH  75  76
ATOM     76  S   UNL     1      12.310   4.087  13.568  1.00  0.00     0.124 S 
ATOM     77  O   UNL     1      12.550   4.440  14.963  1.00  0.00    -0.237 OA
ATOM     78  O   UNL     1      13.393   3.366  12.902  1.00  0.00    -0.237 OA
ATOM     79  O   UNL     1      11.675   5.124  12.758  1.00  0.00    -0.744 OA
ENDBRANCH  75  76
ENDBRANCH  47  70
BRANCH  59  80
ATOM     80  C   UNL     1       6.118  -2.589  19.224  1.00  0.00    -0.014 A 
ATOM     81  C   UNL     1       5.645  -1.506  19.984  1.00  0.00     0.010 A 
ATOM     82  C   UNL     1       6.747  -3.666  19.875  1.00  0.00     0.010 A 
ATOM     83  C   UNL     1       5.822  -1.488  21.369  1.00  0.00     0.020 A 
ATOM     84  C   UNL     1       6.904  -3.662  21.262  1.00  0.00     0.020 A 
ATOM     85  C   UNL     1       6.452  -2.566  22.000  1.00  0.00     0.054 A 
BRANCH  85  86
ATOM     86  S   UNL     1       6.626  -2.543  23.805  1.00  0.00     0.124 S 
ATOM     87  O   UNL     1       7.719  -1.592  23.991  1.00  0.00    -0.237 OA
ATOM     88  O   UNL     1       5.312  -2.085  24.249  1.00  0.00    -0.237 OA
ATOM     89  O   UNL     1       6.942  -3.930  24.139  1.00  0.00    -0.744 OA
ENDBRANCH  85  86
ENDBRANCH  59  80
ENDBRANCH  33  34
ENDBRANCH  25  28
ENDBRANCH  23  24
ENDBRANCH  22  23
ENDBRANCH  21  22
ENDBRANCH   1  21
TORSDOF 19
