REMARK SMILES CC(C)C[C@H](NC(=O)[C@H](Cc1ccccc1)NC(=O)CNC(=O)CNC(=O)OCc1ccccc1)C(=O)NCCCCNC(=O)c1ccc(-c2c3nc(c(-c4ccc(S(=O)(=O)[O-])cc4)c4ccc([nH]4)c(-c4ccc(S(=O)(=O)[O-])cc4)c4nc(c(-c5ccc(S(=O)(=O)[O-])cc5)c5ccc2[nH]5)C=C4)C=C3)cc1
REMARK SMILES IDX 5 1 4 2 2 3 1 4 3 5 36 6 37 7 38 8 39 10 40 11 41 12 42 13
REMARK SMILES IDX 43 14 44 15 45 17 46 18 47 19 105 20 48 21 104 22 49 23
REMARK SMILES IDX 50 24 51 25 98 26 52 27 103 28 97 29 99 30 53 31 102 32
REMARK SMILES IDX 96 33 95 34 54 36 84 37 65 38 83 39 66 40 69 41 82 42 100 43
REMARK SMILES IDX 67 44 68 45 81 47 101 48 70 49 55 50 56 51 64 52 57 53 63 54
REMARK SMILES IDX 58 55 59 56 60 57 61 58 62 59 85 60 86 61 94 62 87 63 93 64
REMARK SMILES IDX 88 65 89 66 90 67 91 68 92 69 71 70 72 71 80 72 73 73 79 74
REMARK SMILES IDX 74 75 75 76 76 77 77 78 78 79 6 80 7 81 8 83 9 84 17 85
REMARK SMILES IDX 18 86 19 88 20 89 21 90 22 91 23 93 24 94 25 95 26 96 27 98
REMARK SMILES IDX 28 99 29 100 30 101 31 102 35 103 32 104 34 105 33 106
REMARK SMILES IDX 10 107 11 108 12 109 16 110 13 111 15 112 14 113
REMARK H PARENT 38 9 43 16 99 35 69 46 6 82 17 87 21 92 25 97
REMARK Flexibility Score: inf
ROOT
ATOM      1  C   UNL     1      -2.189   4.355   0.988  1.00  0.00     0.171 C 
ENDROOT
BRANCH   1   2
ATOM      2  C   UNL     1      -3.215   3.978  -0.115  1.00  0.00     0.038 C 
BRANCH   2   3
ATOM      3  C   UNL     1      -2.849   3.765  -1.611  1.00  0.00    -0.015 C 
ATOM      4  C   UNL     1      -1.734   2.789  -2.006  1.00  0.00     0.007 C 
ATOM      5  C   UNL     1      -4.125   3.270  -2.324  1.00  0.00     0.007 C 
ENDBRANCH   2   3
ENDBRANCH   1   2
BRANCH   1   6
ATOM      6  C   UNL     1      -2.303   3.521   2.272  1.00  0.00     0.242 C 
ATOM      7  O   UNL     1      -2.222   4.080   3.370  1.00  0.00    -0.273 OA
ATOM      8  N   UNL     1      -2.388   2.169   2.266  1.00  0.00    -0.354 N 
ATOM      9  H   UNL     1      -2.595   1.766   3.140  1.00  0.00     0.163 HD
BRANCH   8  10
ATOM     10  C   UNL     1      -2.222   1.218   1.185  1.00  0.00     0.116 C 
BRANCH  10  11
ATOM     11  C   UNL     1      -0.790   0.717   1.072  1.00  0.00     0.023 C 
BRANCH  11  12
ATOM     12  C   UNL     1      -0.309   0.113   2.380  1.00  0.00     0.023 C 
BRANCH  12  13
ATOM     13  C   UNL     1      -1.099  -1.080   2.857  1.00  0.00     0.116 C 
BRANCH  13  14
ATOM     14  N   UNL     1      -0.808  -2.263   2.073  1.00  0.00    -0.352 N 
ATOM     15  C   UNL     1      -0.153  -3.405   2.465  1.00  0.00     0.251 C 
ATOM     16  H   UNL     1      -1.119  -2.245   1.139  1.00  0.00     0.163 HD
ATOM     17  O   UNL     1       0.243  -4.199   1.618  1.00  0.00    -0.269 OA
BRANCH  15  18
ATOM     18  C   UNL     1       0.087  -3.653   3.906  1.00  0.00     0.039 A 
ATOM     19  C   UNL     1       1.287  -4.240   4.311  1.00  0.00     0.014 A 
ATOM     20  C   UNL     1      -0.874  -3.308   4.861  1.00  0.00     0.014 A 
ATOM     21  C   UNL     1       1.526  -4.453   5.671  1.00  0.00     0.010 A 
ATOM     22  C   UNL     1      -0.574  -3.384   6.212  1.00  0.00     0.010 A 
ATOM     23  C   UNL     1       0.603  -4.012   6.634  1.00  0.00    -0.014 A 
BRANCH  23  24
ATOM     24  C   UNL     1       0.786  -4.288   8.081  1.00  0.00     0.031 A 
ATOM     25  C   UNL     1      -0.252  -5.109   8.812  1.00  0.00     0.074 A 
ATOM     26  C   UNL     1       1.837  -3.772   8.746  1.00  0.00     0.049 A 
ATOM     27  N   UNL     1      -0.325  -5.407  10.083  1.00  0.00    -0.248 NA
ATOM     28  C   UNL     1      -1.380  -5.626   8.015  1.00  0.00     0.031 C 
ATOM     29  C   UNL     1       2.881  -2.924   8.163  1.00  0.00     0.029 A 
ATOM     30  N   UNL     1       2.202  -3.888  10.063  1.00  0.00    -0.354 N 
ATOM     31  C   UNL     1      -1.518  -6.106  10.238  1.00  0.00     0.074 A 
ATOM     32  C   UNL     1      -2.169  -6.131   8.950  1.00  0.00     0.031 C 
ATOM     33  C   UNL     1       3.791  -2.635   9.108  1.00  0.00     0.029 A 
ATOM     34  C   UNL     1       3.376  -3.240  10.370  1.00  0.00     0.049 A 
ATOM     35  H   UNL     1       1.674  -4.388  10.726  1.00  0.00     0.167 HD
ATOM     36  C   UNL     1      -2.015  -6.706  11.345  1.00  0.00     0.031 A 
ATOM     37  C   UNL     1       4.042  -3.150  11.537  1.00  0.00     0.031 A 
ATOM     38  C   UNL     1      -1.336  -6.726  12.610  1.00  0.00     0.049 A 
ATOM     39  C   UNL     1       3.488  -3.849  12.748  1.00  0.00     0.074 A 
ATOM     40  C   UNL     1      -1.707  -7.372  13.775  1.00  0.00     0.029 A 
ATOM     41  N   UNL     1      -0.138  -6.079  12.870  1.00  0.00    -0.354 N 
ATOM     42  N   UNL     1       2.391  -4.562  12.858  1.00  0.00    -0.248 NA
ATOM     43  C   UNL     1       4.267  -3.744  13.989  1.00  0.00     0.031 C 
ATOM     44  C   UNL     1      -0.754  -7.077  14.755  1.00  0.00     0.029 A 
ATOM     45  C   UNL     1       0.236  -6.293  14.184  1.00  0.00     0.049 A 
ATOM     46  H   UNL     1       0.370  -5.546  12.217  1.00  0.00     0.167 HD
ATOM     47  C   UNL     1       2.364  -5.012  14.174  1.00  0.00     0.074 A 
ATOM     48  C   UNL     1       3.560  -4.503  14.814  1.00  0.00     0.031 C 
ATOM     49  C   UNL     1       1.434  -5.778  14.797  1.00  0.00     0.031 A 
BRANCH  36  50
ATOM     50  C   UNL     1      -3.352  -7.391  11.227  1.00  0.00    -0.014 A 
ATOM     51  C   UNL     1      -3.508  -8.563  10.463  1.00  0.00     0.010 A 
ATOM     52  C   UNL     1      -4.465  -6.870  11.910  1.00  0.00     0.010 A 
ATOM     53  C   UNL     1      -4.760  -9.170  10.343  1.00  0.00     0.020 A 
ATOM     54  C   UNL     1      -5.713  -7.492  11.819  1.00  0.00     0.020 A 
ATOM     55  C   UNL     1      -5.857  -8.628  11.020  1.00  0.00     0.054 A 
BRANCH  55  56
ATOM     56  S   UNL     1      -7.467  -9.448  10.863  1.00  0.00     0.124 S 
ATOM     57  O   UNL     1      -7.860  -9.079   9.505  1.00  0.00    -0.237 OA
ATOM     58  O   UNL     1      -7.130 -10.856  11.057  1.00  0.00    -0.237 OA
ATOM     59  O   UNL     1      -8.267  -8.849  11.928  1.00  0.00    -0.744 OA
ENDBRANCH  55  56
ENDBRANCH  36  50
BRANCH  37  60
ATOM     60  C   UNL     1       5.325  -2.397  11.605  1.00  0.00    -0.014 A 
ATOM     61  C   UNL     1       6.543  -3.083  11.755  1.00  0.00     0.010 A 
ATOM     62  C   UNL     1       5.338  -0.995  11.500  1.00  0.00     0.010 A 
ATOM     63  C   UNL     1       7.750  -2.380  11.817  1.00  0.00     0.020 A 
ATOM     64  C   UNL     1       6.545  -0.290  11.534  1.00  0.00     0.020 A 
ATOM     65  C   UNL     1       7.743  -0.987  11.704  1.00  0.00     0.054 A 
BRANCH  65  66
ATOM     66  S   UNL     1       9.326  -0.099  11.733  1.00  0.00     0.124 S 
ATOM     67  O   UNL     1       9.692  -0.178  13.143  1.00  0.00    -0.237 OA
ATOM     68  O   UNL     1      10.148  -0.890  10.819  1.00  0.00    -0.237 OA
ATOM     69  O   UNL     1       8.977   1.235  11.248  1.00  0.00    -0.744 OA
ENDBRANCH  65  66
ENDBRANCH  37  60
BRANCH  49  70
ATOM     70  C   UNL     1       1.689  -6.142  16.233  1.00  0.00    -0.014 A 
ATOM     71  C   UNL     1       1.553  -5.192  17.260  1.00  0.00     0.010 A 
ATOM     72  C   UNL     1       2.006  -7.473  16.564  1.00  0.00     0.010 A 
ATOM     73  C   UNL     1       1.760  -5.559  18.591  1.00  0.00     0.020 A 
ATOM     74  C   UNL     1       2.185  -7.850  17.895  1.00  0.00     0.020 A 
ATOM     75  C   UNL     1       2.075  -6.887  18.900  1.00  0.00     0.054 A 
BRANCH  75  76
ATOM     76  S   UNL     1       2.293  -7.349  20.640  1.00  0.00     0.124 S 
ATOM     77  O   UNL     1       3.599  -6.772  20.945  1.00  0.00    -0.237 OA
ATOM     78  O   UNL     1       1.154  -6.705  21.289  1.00  0.00    -0.237 OA
ATOM     79  O   UNL     1       2.246  -8.810  20.618  1.00  0.00    -0.744 OA
ENDBRANCH  75  76
ENDBRANCH  49  70
ENDBRANCH  23  24
ENDBRANCH  15  18
ENDBRANCH  13  14
ENDBRANCH  12  13
ENDBRANCH  11  12
ENDBRANCH  10  11
ENDBRANCH   8  10
ENDBRANCH   1   6
BRANCH   1  80
ATOM     80  N   UNL     1      -0.811   4.579   0.586  1.00  0.00    -0.343 N 
ATOM     81  C   UNL     1       0.118   5.493   0.982  1.00  0.00     0.243 C 
ATOM     82  H   UNL     1      -0.488   3.953  -0.102  1.00  0.00     0.164 HD
ATOM     83  O   UNL     1       1.069   5.668   0.211  1.00  0.00    -0.273 OA
BRANCH  81  84
ATOM     84  C   UNL     1       0.013   6.290   2.308  1.00  0.00     0.175 C 
BRANCH  84  85
ATOM     85  N   UNL     1       1.376   6.793   2.588  1.00  0.00    -0.342 N 
ATOM     86  C   UNL     1       2.375   6.438   3.432  1.00  0.00     0.240 C 
ATOM     87  H   UNL     1       1.614   7.567   2.029  1.00  0.00     0.164 HD
ATOM     88  O   UNL     1       3.491   6.918   3.190  1.00  0.00    -0.273 OA
BRANCH  86  89
ATOM     89  C   UNL     1       2.247   5.444   4.593  1.00  0.00     0.216 C 
BRANCH  89  90
ATOM     90  N   UNL     1       0.953   5.147   5.171  1.00  0.00    -0.346 N 
ATOM     91  C   UNL     1       0.396   3.912   5.364  1.00  0.00     0.239 C 
ATOM     92  H   UNL     1       0.414   5.919   5.457  1.00  0.00     0.164 HD
ATOM     93  O   UNL     1      -0.511   3.801   6.189  1.00  0.00    -0.273 OA
BRANCH  91  94
ATOM     94  C   UNL     1       0.979   2.691   4.638  1.00  0.00     0.219 C 
BRANCH  94  95
ATOM     95  N   UNL     1       1.132   2.977   3.219  1.00  0.00    -0.312 N 
ATOM     96  C   UNL     1       2.065   2.527   2.339  1.00  0.00     0.407 C 
ATOM     97  H   UNL     1       0.459   3.588   2.840  1.00  0.00     0.167 HD
ATOM     98  O   UNL     1       2.194   3.076   1.254  1.00  0.00    -0.225 OA
BRANCH  96  99
ATOM     99  O   UNL     1       2.768   1.455   2.765  1.00  0.00    -0.445 OA
BRANCH  99 100
ATOM    100  C   UNL     1       3.874   1.066   1.924  1.00  0.00     0.270 C 
BRANCH 100 101
ATOM    101  C   UNL     1       3.545   0.579   0.523  1.00  0.00    -0.011 A 
ATOM    102  C   UNL     1       2.643  -0.466   0.288  1.00  0.00     0.007 A 
ATOM    103  C   UNL     1       4.194   1.152  -0.584  1.00  0.00     0.007 A 
ATOM    104  C   UNL     1       2.339  -0.875  -1.015  1.00  0.00     0.000 A 
ATOM    105  C   UNL     1       3.917   0.721  -1.884  1.00  0.00     0.000 A 
ATOM    106  C   UNL     1       2.975  -0.281  -2.101  1.00  0.00     0.000 A 
ENDBRANCH 100 101
ENDBRANCH  99 100
ENDBRANCH  96  99
ENDBRANCH  94  95
ENDBRANCH  91  94
ENDBRANCH  89  90
ENDBRANCH  86  89
ENDBRANCH  84  85
BRANCH  84 107
ATOM    107  C   UNL     1      -0.988   7.461   2.242  1.00  0.00     0.070 C 
BRANCH 107 108
ATOM    108  C   UNL     1      -1.006   8.234   0.939  1.00  0.00    -0.045 A 
ATOM    109  C   UNL     1      -1.799   7.802  -0.136  1.00  0.00     0.004 A 
ATOM    110  C   UNL     1      -0.204   9.366   0.761  1.00  0.00     0.004 A 
ATOM    111  C   UNL     1      -1.756   8.445  -1.371  1.00  0.00     0.000 A 
ATOM    112  C   UNL     1      -0.183  10.030  -0.469  1.00  0.00     0.000 A 
ATOM    113  C   UNL     1      -0.947   9.562  -1.538  1.00  0.00     0.000 A 
ENDBRANCH 107 108
ENDBRANCH  84 107
ENDBRANCH  81  84
ENDBRANCH   1  80
TORSDOF 28
