REMARK SMILES Cc1ccc(Oc2cc(C(=O)NCCCCNC(=O)c3ccc(-c4c5nc(c(-c6ccc(S(=O)(=O)[O-])cc6)c6ccc([nH]6)c(-c6ccc(S(=O)(=O)[O-])cc6)c6nc(c(-c7ccc(S(=O)(=O)[O-])cc7)c7ccc4[nH]7)C=C6)C=C5)cc3)nc3ccccc23)cc1
REMARK SMILES IDX 15 1 14 2 13 3 12 4 10 5 11 6 9 8 7 9 8 10 86 11 81 12 85 13
REMARK SMILES IDX 80 14 82 15 84 16 83 17 6 18 5 19 1 20 2 21 3 22 88 23 4 24
REMARK SMILES IDX 87 25 16 26 17 27 18 28 19 30 20 31 21 32 79 33 22 34 78 35
REMARK SMILES IDX 23 36 24 37 25 38 72 39 26 40 77 41 71 42 73 43 27 44 76 45
REMARK SMILES IDX 70 46 69 47 28 49 58 50 39 51 57 52 40 53 43 54 56 55 74 56
REMARK SMILES IDX 41 57 42 58 55 60 75 61 44 62 29 63 30 64 38 65 31 66 37 67
REMARK SMILES IDX 32 68 33 69 34 70 35 71 36 72 59 73 60 74 68 75 61 76 67 77
REMARK SMILES IDX 62 78 63 79 64 80 65 81 66 82 45 83 46 84 54 85 47 86 53 87
REMARK SMILES IDX 48 88 49 89 50 90 51 91 52 92
REMARK H PARENT 12 7 17 29 73 48 43 59
REMARK Flexibility Score: inf
ROOT
ATOM      1  C   UNL     1      -9.545   5.541   0.381  1.00  0.00     0.023 C 
ENDROOT
BRANCH   1   2
ATOM      2  C   UNL     1      -8.108   5.469  -0.152  1.00  0.00     0.023 C 
BRANCH   2   3
ATOM      3  C   UNL     1      -7.017   5.460   0.930  1.00  0.00     0.116 C 
BRANCH   3   4
ATOM      4  N   UNL     1      -7.091   4.289   1.795  1.00  0.00    -0.351 N 
ATOM      5  C   UNL     1      -6.427   3.083   1.752  1.00  0.00     0.270 C 
ATOM      6  O   UNL     1      -6.653   2.269   2.652  1.00  0.00    -0.268 OA
ATOM      7  H   UNL     1      -7.728   4.375   2.541  1.00  0.00     0.163 HD
BRANCH   5   8
ATOM      8  C   UNL     1      -5.450   2.723   0.672  1.00  0.00     0.132 A 
ATOM      9  C   UNL     1      -3.811   1.236  -0.208  1.00  0.00     0.139 A 
ATOM     10  C   UNL     1      -4.712   1.558   0.803  1.00  0.00     0.082 A 
ATOM     11  C   UNL     1      -3.692   2.050  -1.356  1.00  0.00     0.043 A 
ATOM     12  C   UNL     1      -4.470   3.224  -1.371  1.00  0.00     0.075 A 
ATOM     13  C   UNL     1      -2.851   1.776  -2.462  1.00  0.00     0.014 A 
ATOM     14  N   UNL     1      -5.333   3.541  -0.397  1.00  0.00    -0.242 NA
ATOM     15  C   UNL     1      -4.339   4.105  -2.434  1.00  0.00     0.029 A 
ATOM     16  C   UNL     1      -2.735   2.676  -3.519  1.00  0.00     0.001 A 
ATOM     17  C   UNL     1      -3.473   3.851  -3.499  1.00  0.00     0.002 A 
BRANCH   9  18
ATOM     18  O   UNL     1      -3.115   0.057  -0.039  1.00  0.00    -0.457 OA
BRANCH  18  19
ATOM     19  C   UNL     1      -1.740   0.102   0.073  1.00  0.00     0.127 A 
ATOM     20  C   UNL     1       2.565  -0.107   0.101  1.00  0.00     0.044 C 
ATOM     21  C   UNL     1       1.067  -0.033   0.111  1.00  0.00    -0.051 A 
ATOM     22  C   UNL     1       0.306  -1.190  -0.088  1.00  0.00     0.007 A 
ATOM     23  C   UNL     1       0.410   1.181   0.344  1.00  0.00     0.007 A 
ATOM     24  C   UNL     1      -1.089  -1.121  -0.109  1.00  0.00     0.047 A 
ATOM     25  C   UNL     1      -0.986   1.247   0.337  1.00  0.00     0.047 A 
ENDBRANCH  18  19
ENDBRANCH   9  18
ENDBRANCH   5   8
ENDBRANCH   3   4
ENDBRANCH   2   3
ENDBRANCH   1   2
BRANCH   1  26
ATOM     26  C   UNL     1      -9.848   6.811   1.171  1.00  0.00     0.116 C 
BRANCH  26  27
ATOM     27  N   UNL     1     -10.668   7.786   0.483  1.00  0.00    -0.352 N 
ATOM     28  C   UNL     1     -11.202   8.963   1.015  1.00  0.00     0.251 C 
ATOM     29  H   UNL     1     -10.872   7.600  -0.462  1.00  0.00     0.163 HD
ATOM     30  O   UNL     1     -12.152   9.520   0.537  1.00  0.00    -0.269 OA
BRANCH  28  31
ATOM     31  C   UNL     1     -10.428   9.587   2.121  1.00  0.00     0.039 A 
ATOM     32  C   UNL     1      -9.787  10.800   1.835  1.00  0.00     0.014 A 
ATOM     33  C   UNL     1     -10.126   8.876   3.276  1.00  0.00     0.014 A 
ATOM     34  C   UNL     1      -8.709  11.210   2.619  1.00  0.00     0.010 A 
ATOM     35  C   UNL     1      -8.998   9.233   3.993  1.00  0.00     0.010 A 
ATOM     36  C   UNL     1      -8.259  10.372   3.636  1.00  0.00    -0.014 A 
BRANCH  36  37
ATOM     37  C   UNL     1      -6.988  10.539   4.338  1.00  0.00     0.031 A 
ATOM     38  C   UNL     1      -6.966  10.945   5.762  1.00  0.00     0.074 A 
ATOM     39  C   UNL     1      -5.830  10.173   3.744  1.00  0.00     0.049 A 
ATOM     40  N   UNL     1      -5.923  11.384   6.388  1.00  0.00    -0.248 NA
ATOM     41  C   UNL     1      -8.167  10.936   6.590  1.00  0.00     0.031 C 
ATOM     42  C   UNL     1      -4.561   9.887   4.411  1.00  0.00     0.029 A 
ATOM     43  N   UNL     1      -5.495  10.200   2.390  1.00  0.00    -0.354 N 
ATOM     44  C   UNL     1      -6.219  11.372   7.733  1.00  0.00     0.074 A 
ATOM     45  C   UNL     1      -7.652  11.202   7.793  1.00  0.00     0.031 C 
ATOM     46  C   UNL     1      -3.566  10.071   3.532  1.00  0.00     0.029 A 
ATOM     47  C   UNL     1      -4.157  10.632   2.330  1.00  0.00     0.049 A 
ATOM     48  H   UNL     1      -6.076   9.964   1.631  1.00  0.00     0.167 HD
ATOM     49  C   UNL     1      -5.206  11.352   8.648  1.00  0.00     0.031 A 
ATOM     50  C   UNL     1      -3.755  11.783   1.714  1.00  0.00     0.031 A 
ATOM     51  C   UNL     1      -3.889  11.542   8.030  1.00  0.00     0.049 A 
ATOM     52  C   UNL     1      -3.038  12.756   2.634  1.00  0.00     0.074 A 
ATOM     53  C   UNL     1      -2.787  10.733   7.803  1.00  0.00     0.029 A 
ATOM     54  N   UNL     1      -3.657  12.703   7.307  1.00  0.00    -0.354 N 
ATOM     55  N   UNL     1      -2.799  12.540   3.898  1.00  0.00    -0.248 NA
ATOM     56  C   UNL     1      -2.630  14.100   2.220  1.00  0.00     0.031 C 
ATOM     57  C   UNL     1      -1.893  11.425   6.934  1.00  0.00     0.029 A 
ATOM     58  C   UNL     1      -2.450  12.654   6.638  1.00  0.00     0.049 A 
ATOM     59  H   UNL     1      -4.277  13.467   7.275  1.00  0.00     0.167 HD
ATOM     60  C   UNL     1      -2.300  13.677   4.472  1.00  0.00     0.074 A 
ATOM     61  C   UNL     1      -2.191  14.624   3.378  1.00  0.00     0.031 C 
ATOM     62  C   UNL     1      -2.065  13.785   5.811  1.00  0.00     0.031 A 
BRANCH  49  63
ATOM     63  C   UNL     1      -5.393  10.909  10.090  1.00  0.00    -0.014 A 
ATOM     64  C   UNL     1      -4.296  10.402  10.817  1.00  0.00     0.010 A 
ATOM     65  C   UNL     1      -6.627  10.898  10.767  1.00  0.00     0.010 A 
ATOM     66  C   UNL     1      -4.443   9.816  12.086  1.00  0.00     0.020 A 
ATOM     67  C   UNL     1      -6.800  10.287  12.018  1.00  0.00     0.020 A 
ATOM     68  C   UNL     1      -5.706   9.732  12.666  1.00  0.00     0.054 A 
BRANCH  68  69
ATOM     69  S   UNL     1      -5.906   8.889  14.256  1.00  0.00     0.124 S 
ATOM     70  O   UNL     1      -5.362   7.562  13.980  1.00  0.00    -0.237 OA
ATOM     71  O   UNL     1      -5.114   9.723  15.155  1.00  0.00    -0.237 OA
ATOM     72  O   UNL     1      -7.349   8.925  14.488  1.00  0.00    -0.744 OA
ENDBRANCH  68  69
ENDBRANCH  49  63
BRANCH  50  73
ATOM     73  C   UNL     1      -4.606  12.174   0.556  1.00  0.00    -0.014 A 
ATOM     74  C   UNL     1      -4.538  11.357  -0.593  1.00  0.00     0.010 A 
ATOM     75  C   UNL     1      -5.733  12.991   0.752  1.00  0.00     0.010 A 
ATOM     76  C   UNL     1      -5.654  11.208  -1.418  1.00  0.00     0.020 A 
ATOM     77  C   UNL     1      -6.849  12.849  -0.082  1.00  0.00     0.020 A 
ATOM     78  C   UNL     1      -6.825  11.901  -1.110  1.00  0.00     0.054 A 
BRANCH  78  79
ATOM     79  S   UNL     1      -8.363  11.381  -1.928  1.00  0.00     0.124 S 
ATOM     80  O   UNL     1      -8.018  11.487  -3.342  1.00  0.00    -0.237 OA
ATOM     81  O   UNL     1      -8.523  10.020  -1.418  1.00  0.00    -0.237 OA
ATOM     82  O   UNL     1      -9.341  12.349  -1.443  1.00  0.00    -0.744 OA
ENDBRANCH  78  79
ENDBRANCH  50  73
BRANCH  62  83
ATOM     83  C   UNL     1      -1.485  15.012   6.459  1.00  0.00    -0.014 A 
ATOM     84  C   UNL     1      -0.410  15.721   5.897  1.00  0.00     0.010 A 
ATOM     85  C   UNL     1      -1.933  15.414   7.736  1.00  0.00     0.010 A 
ATOM     86  C   UNL     1       0.152  16.823   6.556  1.00  0.00     0.020 A 
ATOM     87  C   UNL     1      -1.367  16.500   8.410  1.00  0.00     0.020 A 
ATOM     88  C   UNL     1      -0.338  17.211   7.806  1.00  0.00     0.054 A 
BRANCH  88  89
ATOM     89  S   UNL     1       0.425  18.615   8.660  1.00  0.00     0.124 S 
ATOM     90  O   UNL     1       1.851  18.398   8.425  1.00  0.00    -0.237 OA
ATOM     91  O   UNL     1      -0.160  19.751   7.954  1.00  0.00    -0.237 OA
ATOM     92  O   UNL     1      -0.003  18.453  10.047  1.00  0.00    -0.744 OA
ENDBRANCH  88  89
ENDBRANCH  62  83
ENDBRANCH  36  37
ENDBRANCH  28  31
ENDBRANCH  26  27
ENDBRANCH   1  26
TORSDOF 16
