REMARK SMILES CCOc1ccc(C(=O)NNC(=O)[C@H]2CC=CC[C@H]2C(=O)NCCCCNC(=O)c2ccc(-c3c4nc(c(-c5ccc(S(=O)(=O)[O-])cc5)c5ccc([nH]5)c(-c5ccc(S(=O)(=O)[O-])cc5)c5nc(c(-c6ccc(S(=O)(=O)[O-])cc6)c6ccc3[nH]6)C=C5)C=C4)cc2)cc1
REMARK SMILES IDX 23 1 22 2 20 3 21 4 19 6 14 7 15 8 16 9 18 10 17 11 12 12
REMARK SMILES IDX 11 13 13 15 10 16 8 17 9 18 7 20 4 21 5 22 91 23 6 24 90 25
REMARK SMILES IDX 3 26 2 27 1 28 24 29 25 30 26 31 27 32 28 33 29 35 30 36
REMARK SMILES IDX 31 37 89 38 32 39 88 40 33 41 34 42 35 43 82 44 36 45 87 46
REMARK SMILES IDX 81 47 83 48 37 49 86 50 80 51 79 52 38 54 68 55 49 56 67 57
REMARK SMILES IDX 50 58 53 59 66 60 84 61 51 62 52 63 65 65 85 66 54 67 39 68
REMARK SMILES IDX 40 69 48 70 41 71 47 72 42 73 43 74 44 75 45 76 46 77 69 78
REMARK SMILES IDX 70 79 78 80 71 81 77 82 72 83 73 84 74 85 75 86 76 87 55 88
REMARK SMILES IDX 56 89 64 90 57 91 63 92 58 93 59 94 60 95 61 96 62 97
REMARK H PARENT 22 5 11 14 10 19 27 34 83 53 53 64
REMARK Flexibility Score: inf
ROOT
ATOM      1  C   UNL     1       6.886   2.517   0.358  1.00  0.00     0.116 C 
ENDROOT
BRANCH   1   2
ATOM      2  N   UNL     1       8.020   3.256   0.871  1.00  0.00    -0.356 N 
ATOM      3  C   UNL     1       9.335   2.934   0.976  1.00  0.00     0.224 C 
ATOM      4  O   UNL     1      10.085   3.782   1.468  1.00  0.00    -0.275 OA
ATOM      5  H   UNL     1       7.798   4.155   1.203  1.00  0.00     0.163 HD
BRANCH   3   6
ATOM      6  C   UNL     1       9.910   1.603   0.504  1.00  0.00     0.095 C 
ATOM      7  C   UNL     1       9.749   0.428   1.495  1.00  0.00     0.097 C 
ATOM      8  C   UNL     1      10.336  -0.872   0.929  1.00  0.00     0.041 C 
ATOM      9  C   UNL     1       9.967  -1.121  -0.501  1.00  0.00    -0.030 C 
ATOM     10  C   UNL     1       9.629   1.311  -0.980  1.00  0.00     0.041 C 
ATOM     11  C   UNL     1       9.641  -0.140  -1.350  1.00  0.00    -0.030 C 
BRANCH   7  12
ATOM     12  C   UNL     1       8.377   0.244   2.141  1.00  0.00     0.242 C 
ATOM     13  N   UNL     1       7.531  -0.711   1.599  1.00  0.00    -0.267 N 
ATOM     14  H   UNL     1       7.054  -0.578   0.748  1.00  0.00     0.191 HD
ATOM     15  O   UNL     1       8.042   0.899   3.126  1.00  0.00    -0.273 OA
BRANCH  13  16
ATOM     16  N   UNL     1       7.410  -1.887   2.367  1.00  0.00    -0.263 N 
ATOM     17  C   UNL     1       6.359  -2.776   2.453  1.00  0.00     0.269 C 
ATOM     18  O   UNL     1       6.596  -3.879   2.953  1.00  0.00    -0.267 OA
ATOM     19  H   UNL     1       8.192  -2.107   2.924  1.00  0.00     0.191 HD
BRANCH  17  20
ATOM     20  C   UNL     1       4.967  -2.494   2.002  1.00  0.00     0.041 A 
ATOM     21  C   UNL     1       2.235  -2.178   1.400  1.00  0.00     0.119 A 
ATOM     22  C   UNL     1       2.788  -3.452   1.433  1.00  0.00     0.047 A 
ATOM     23  C   UNL     1       3.023  -1.067   1.697  1.00  0.00     0.047 A 
ATOM     24  C   UNL     1       4.149  -3.606   1.721  1.00  0.00     0.018 A 
ATOM     25  C   UNL     1       4.381  -1.224   2.015  1.00  0.00     0.018 A 
BRANCH  21  26
ATOM     26  O   UNL     1       0.879  -2.052   1.279  1.00  0.00    -0.494 OA
BRANCH  26  27
ATOM     27  C   UNL     1       0.454  -1.691  -0.040  1.00  0.00     0.226 C 
ATOM     28  C   UNL     1       0.480  -0.188  -0.243  1.00  0.00     0.049 C 
ENDBRANCH  26  27
ENDBRANCH  21  26
ENDBRANCH  17  20
ENDBRANCH  13  16
ENDBRANCH   7  12
ENDBRANCH   3   6
ENDBRANCH   1   2
BRANCH   1  29
ATOM     29  C   UNL     1       5.768   2.381   1.386  1.00  0.00     0.023 C 
BRANCH  29  30
ATOM     30  C   UNL     1       5.047   3.674   1.735  1.00  0.00     0.023 C 
BRANCH  30  31
ATOM     31  C   UNL     1       4.369   4.345   0.553  1.00  0.00     0.116 C 
BRANCH  31  32
ATOM     32  N   UNL     1       3.451   3.454  -0.145  1.00  0.00    -0.352 N 
ATOM     33  C   UNL     1       2.117   3.629  -0.428  1.00  0.00     0.251 C 
ATOM     34  H   UNL     1       3.841   2.606  -0.458  1.00  0.00     0.163 HD
ATOM     35  O   UNL     1       1.459   2.714  -0.896  1.00  0.00    -0.269 OA
BRANCH  33  36
ATOM     36  C   UNL     1       1.493   4.934  -0.148  1.00  0.00     0.039 A 
ATOM     37  C   UNL     1       0.273   4.976   0.528  1.00  0.00     0.014 A 
ATOM     38  C   UNL     1       2.140   6.111  -0.530  1.00  0.00     0.014 A 
ATOM     39  C   UNL     1      -0.268   6.212   0.877  1.00  0.00     0.010 A 
ATOM     40  C   UNL     1       1.653   7.332  -0.093  1.00  0.00     0.010 A 
ATOM     41  C   UNL     1       0.437   7.396   0.602  1.00  0.00    -0.014 A 
BRANCH  41  42
ATOM     42  C   UNL     1      -0.083   8.718   1.022  1.00  0.00     0.031 A 
ATOM     43  C   UNL     1      -0.408   9.757  -0.016  1.00  0.00     0.074 A 
ATOM     44  C   UNL     1      -0.200   8.997   2.336  1.00  0.00     0.049 A 
ATOM     45  N   UNL     1      -0.819  10.987   0.151  1.00  0.00    -0.248 NA
ATOM     46  C   UNL     1      -0.216   9.376  -1.427  1.00  0.00     0.031 C 
ATOM     47  C   UNL     1       0.141   8.084   3.431  1.00  0.00     0.029 A 
ATOM     48  N   UNL     1      -0.634  10.130   2.973  1.00  0.00    -0.354 N 
ATOM     49  C   UNL     1      -0.921  11.526  -1.126  1.00  0.00     0.074 A 
ATOM     50  C   UNL     1      -0.468  10.515  -2.053  1.00  0.00     0.031 C 
ATOM     51  C   UNL     1      -0.131   8.681   4.602  1.00  0.00     0.029 A 
ATOM     52  C   UNL     1      -0.621  10.030   4.345  1.00  0.00     0.049 A 
ATOM     53  H   UNL     1      -0.928  10.938   2.495  1.00  0.00     0.167 HD
ATOM     54  C   UNL     1      -1.379  12.745  -1.495  1.00  0.00     0.031 A 
ATOM     55  C   UNL     1      -0.960  10.930   5.288  1.00  0.00     0.031 A 
ATOM     56  C   UNL     1      -1.839  13.740  -0.563  1.00  0.00     0.049 A 
ATOM     57  C   UNL     1      -1.465  12.277   4.852  1.00  0.00     0.074 A 
ATOM     58  C   UNL     1      -2.369  14.989  -0.831  1.00  0.00     0.029 A 
ATOM     59  N   UNL     1      -1.826  13.596   0.816  1.00  0.00    -0.354 N 
ATOM     60  N   UNL     1      -1.619  12.746   3.636  1.00  0.00    -0.248 NA
ATOM     61  C   UNL     1      -1.858  13.212   5.915  1.00  0.00     0.031 C 
ATOM     62  C   UNL     1      -2.628  15.621   0.390  1.00  0.00     0.029 A 
ATOM     63  C   UNL     1      -2.319  14.742   1.415  1.00  0.00     0.049 A 
ATOM     64  H   UNL     1      -1.513  12.796   1.298  1.00  0.00     0.167 HD
ATOM     65  C   UNL     1      -2.147  14.023   3.787  1.00  0.00     0.074 A 
ATOM     66  C   UNL     1      -2.310  14.240   5.210  1.00  0.00     0.031 C 
ATOM     67  C   UNL     1      -2.465  14.937   2.836  1.00  0.00     0.031 A 
BRANCH  54  68
ATOM     68  C   UNL     1      -1.409  13.064  -2.967  1.00  0.00    -0.014 A 
ATOM     69  C   UNL     1      -2.305  12.408  -3.832  1.00  0.00     0.010 A 
ATOM     70  C   UNL     1      -0.564  14.061  -3.487  1.00  0.00     0.010 A 
ATOM     71  C   UNL     1      -2.331  12.718  -5.194  1.00  0.00     0.020 A 
ATOM     72  C   UNL     1      -0.609  14.396  -4.844  1.00  0.00     0.020 A 
ATOM     73  C   UNL     1      -1.483  13.712  -5.691  1.00  0.00     0.054 A 
BRANCH  73  74
ATOM     74  S   UNL     1      -1.569  14.119  -7.457  1.00  0.00     0.124 S 
ATOM     75  O   UNL     1      -0.965  12.937  -8.068  1.00  0.00    -0.237 OA
ATOM     76  O   UNL     1      -3.003  14.277  -7.678  1.00  0.00    -0.237 OA
ATOM     77  O   UNL     1      -0.784  15.346  -7.569  1.00  0.00    -0.744 OA
ENDBRANCH  73  74
ENDBRANCH  54  68
BRANCH  55  78
ATOM     78  C   UNL     1      -0.843  10.580   6.731  1.00  0.00    -0.014 A 
ATOM     79  C   UNL     1      -1.990  10.418   7.527  1.00  0.00     0.010 A 
ATOM     80  C   UNL     1       0.424  10.398   7.317  1.00  0.00     0.010 A 
ATOM     81  C   UNL     1      -1.874  10.110   8.885  1.00  0.00     0.020 A 
ATOM     82  C   UNL     1       0.544  10.057   8.667  1.00  0.00     0.020 A 
ATOM     83  C   UNL     1      -0.607   9.930   9.447  1.00  0.00     0.054 A 
BRANCH  83  84
ATOM     84  S   UNL     1      -0.482   9.493  11.204  1.00  0.00     0.124 S 
ATOM     85  O   UNL     1      -0.838  10.750  11.854  1.00  0.00    -0.237 OA
ATOM     86  O   UNL     1      -1.459   8.415  11.330  1.00  0.00    -0.237 OA
ATOM     87  O   UNL     1       0.912   9.082  11.355  1.00  0.00    -0.744 OA
ENDBRANCH  83  84
ENDBRANCH  55  78
BRANCH  67  88
ATOM     88  C   UNL     1      -3.047  16.243   3.307  1.00  0.00    -0.014 A 
ATOM     89  C   UNL     1      -2.259  17.190   3.984  1.00  0.00     0.010 A 
ATOM     90  C   UNL     1      -4.395  16.540   3.034  1.00  0.00     0.010 A 
ATOM     91  C   UNL     1      -2.820  18.392   4.419  1.00  0.00     0.020 A 
ATOM     92  C   UNL     1      -4.951  17.755   3.438  1.00  0.00     0.020 A 
ATOM     93  C   UNL     1      -4.164  18.666   4.145  1.00  0.00     0.054 A 
BRANCH  93  94
ATOM     94  S   UNL     1      -4.862  20.245   4.698  1.00  0.00     0.124 S 
ATOM     95  O   UNL     1      -4.971  20.040   6.139  1.00  0.00    -0.237 OA
ATOM     96  O   UNL     1      -3.848  21.209   4.274  1.00  0.00    -0.237 OA
ATOM     97  O   UNL     1      -6.133  20.332   3.983  1.00  0.00    -0.744 OA
ENDBRANCH  93  94
ENDBRANCH  67  88
ENDBRANCH  41  42
ENDBRANCH  33  36
ENDBRANCH  31  32
ENDBRANCH  30  31
ENDBRANCH  29  30
ENDBRANCH   1  29
TORSDOF 19
