REMARK SMILES O=C(COc1ccc(N2C[C@@H](C(=O)NCCCCNC(=O)c3ccc(-c4c5nc(c(-c6ccc(S(=O)(=O)[O-])cc6)c6ccc([nH]6)c(-c6ccc(S(=O)(=O)[O-])cc6)c6nc(c(-c7ccc(S(=O)(=O)[O-])cc7)c7ccc4[nH]7)C=C6)C=C5)cc3)CC2=O)cc1)Nc1ccc(Cl)cc1Cl
REMARK SMILES IDX 15 1 14 2 12 3 13 4 11 6 9 7 10 8 83 9 82 10 84 11 8 12 5 13
REMARK SMILES IDX 6 14 86 15 7 16 85 17 4 18 3 19 2 20 1 21 87 22 88 24 89 25
REMARK SMILES IDX 94 26 90 27 93 28 95 29 91 30 92 31 16 32 17 33 18 34 19 35
REMARK SMILES IDX 20 36 21 38 22 39 23 40 81 41 24 42 80 43 25 44 26 45 27 46
REMARK SMILES IDX 74 47 28 48 79 49 73 50 75 51 29 52 78 53 72 54 71 55 30 57
REMARK SMILES IDX 60 58 41 59 59 60 42 61 45 62 58 63 76 64 43 65 44 66 57 68
REMARK SMILES IDX 77 69 46 70 31 71 32 72 40 73 33 74 39 75 34 76 35 77 36 78
REMARK SMILES IDX 37 79 38 80 61 81 62 82 70 83 63 84 69 85 64 86 65 87 66 88
REMARK SMILES IDX 67 89 68 90 47 91 48 92 56 93 49 94 55 95 50 96 51 97 52 98
REMARK SMILES IDX 53 99 54 100
REMARK H PARENT 14 5 87 23 19 37 75 56 45 67
REMARK Flexibility Score: inf
ROOT
ATOM      1  C   UNL     1      -2.360  -5.239  -4.951  1.00  0.00     0.116 C 
ENDROOT
BRANCH   1   2
ATOM      2  N   UNL     1      -2.005  -6.587  -5.363  1.00  0.00    -0.356 N 
ATOM      3  C   UNL     1      -0.826  -7.135  -5.751  1.00  0.00     0.225 C 
ATOM      4  O   UNL     1      -0.824  -8.335  -6.038  1.00  0.00    -0.275 OA
ATOM      5  H   UNL     1      -2.760  -7.219  -5.360  1.00  0.00     0.163 HD
BRANCH   3   6
ATOM      6  C   UNL     1       0.470  -6.355  -5.807  1.00  0.00     0.107 C 
ATOM      7  N   UNL     1       1.379  -4.561  -4.581  1.00  0.00    -0.312 N 
ATOM      8  C   UNL     1       0.951  -5.929  -4.432  1.00  0.00     0.139 C 
ATOM      9  C   UNL     1       1.071  -4.037  -5.837  1.00  0.00     0.227 C 
ATOM     10  C   UNL     1       0.435  -5.110  -6.674  1.00  0.00     0.116 C 
ATOM     11  O   UNL     1       1.284  -2.908  -6.263  1.00  0.00    -0.274 OA
BRANCH   7  12
ATOM     12  C   UNL     1       1.956  -3.825  -3.518  1.00  0.00     0.044 A 
ATOM     13  C   UNL     1       3.138  -2.308  -1.458  1.00  0.00     0.120 A 
ATOM     14  C   UNL     1       3.382  -3.675  -1.544  1.00  0.00     0.048 A 
ATOM     15  C   UNL     1       2.316  -1.700  -2.401  1.00  0.00     0.048 A 
ATOM     16  C   UNL     1       2.769  -4.436  -2.553  1.00  0.00     0.030 A 
ATOM     17  C   UNL     1       1.734  -2.451  -3.420  1.00  0.00     0.030 A 
BRANCH  13  18
ATOM     18  O   UNL     1       3.815  -1.568  -0.524  1.00  0.00    -0.484 OA
BRANCH  18  19
ATOM     19  C   UNL     1       2.966  -1.094   0.526  1.00  0.00     0.329 C 
BRANCH  19  20
ATOM     20  C   UNL     1       2.083   0.099   0.144  1.00  0.00     0.262 C 
ATOM     21  O   UNL     1       0.883   0.101   0.394  1.00  0.00    -0.271 OA
ATOM     22  N   UNL     1       2.780   1.060  -0.582  1.00  0.00    -0.322 N 
ATOM     23  H   UNL     1       3.760   0.977  -0.625  1.00  0.00     0.170 HD
BRANCH  22  24
ATOM     24  C   UNL     1       2.183   2.148  -1.263  1.00  0.00     0.060 A 
ATOM     25  C   UNL     1       2.699   2.409  -2.544  1.00  0.00     0.029 A 
ATOM     26  C   UNL     1       1.121   2.940  -0.791  1.00  0.00     0.066 A 
ATOM     27  C   UNL     1       2.107   3.364  -3.374  1.00  0.00     0.023 A 
ATOM     28  C   UNL     1       0.525   3.892  -1.629  1.00  0.00     0.043 A 
ATOM     29  Cl  UNL     1       0.615   2.961   0.864  1.00  0.00    -0.082 Cl
ATOM     30  C   UNL     1       1.010   4.088  -2.919  1.00  0.00     0.042 A 
ATOM     31  Cl  UNL     1       0.274   5.255  -3.945  1.00  0.00    -0.084 Cl
ENDBRANCH  22  24
ENDBRANCH  19  20
ENDBRANCH  18  19
ENDBRANCH  13  18
ENDBRANCH   7  12
ENDBRANCH   3   6
ENDBRANCH   1   2
BRANCH   1  32
ATOM     32  C   UNL     1      -3.301  -4.565  -5.950  1.00  0.00     0.023 C 
BRANCH  32  33
ATOM     33  C   UNL     1      -4.675  -5.224  -6.086  1.00  0.00     0.023 C 
BRANCH  33  34
ATOM     34  C   UNL     1      -5.460  -5.368  -4.788  1.00  0.00     0.116 C 
BRANCH  34  35
ATOM     35  N   UNL     1      -5.713  -4.094  -4.134  1.00  0.00    -0.352 N 
ATOM     36  C   UNL     1      -6.894  -3.592  -3.640  1.00  0.00     0.251 C 
ATOM     37  H   UNL     1      -4.928  -3.508  -4.031  1.00  0.00     0.163 HD
ATOM     38  O   UNL     1      -6.950  -2.430  -3.251  1.00  0.00    -0.269 OA
BRANCH  36  39
ATOM     39  C   UNL     1      -8.099  -4.448  -3.611  1.00  0.00     0.039 A 
ATOM     40  C   UNL     1      -9.310  -3.926  -4.073  1.00  0.00     0.014 A 
ATOM     41  C   UNL     1      -8.031  -5.767  -3.154  1.00  0.00     0.014 A 
ATOM     42  C   UNL     1     -10.435  -4.751  -4.143  1.00  0.00     0.010 A 
ATOM     43  C   UNL     1      -9.130  -6.608  -3.302  1.00  0.00     0.010 A 
ATOM     44  C   UNL     1     -10.345  -6.109  -3.797  1.00  0.00    -0.014 A 
BRANCH  44  45
ATOM     45  C   UNL     1     -11.505  -7.025  -3.954  1.00  0.00     0.031 A 
ATOM     46  C   UNL     1     -12.102  -7.705  -2.752  1.00  0.00     0.074 A 
ATOM     47  C   UNL     1     -11.982  -7.292  -5.187  1.00  0.00     0.049 A 
ATOM     48  N   UNL     1     -13.077  -8.575  -2.696  1.00  0.00    -0.248 NA
ATOM     49  C   UNL     1     -11.509  -7.385  -1.442  1.00  0.00     0.031 C 
ATOM     50  C   UNL     1     -11.466  -6.729  -6.437  1.00  0.00     0.029 A 
ATOM     51  N   UNL     1     -13.007  -8.111  -5.593  1.00  0.00    -0.354 N 
ATOM     52  C   UNL     1     -13.206  -8.915  -1.355  1.00  0.00     0.074 A 
ATOM     53  C   UNL     1     -12.172  -8.203  -0.638  1.00  0.00     0.031 C 
ATOM     54  C   UNL     1     -12.194  -7.195  -7.464  1.00  0.00     0.029 A 
ATOM     55  C   UNL     1     -13.197  -8.125  -6.955  1.00  0.00     0.049 A 
ATOM     56  H   UNL     1     -13.555  -8.638  -4.968  1.00  0.00     0.167 HD
ATOM     57  C   UNL     1     -14.115  -9.730  -0.768  1.00  0.00     0.031 A 
ATOM     58  C   UNL     1     -14.073  -8.814  -7.713  1.00  0.00     0.031 A 
ATOM     59  C   UNL     1     -15.145 -10.436  -1.485  1.00  0.00     0.049 A 
ATOM     60  C   UNL     1     -15.058  -9.732  -7.041  1.00  0.00     0.074 A 
ATOM     61  C   UNL     1     -16.145 -11.246  -0.977  1.00  0.00     0.029 A 
ATOM     62  N   UNL     1     -15.304 -10.421  -2.863  1.00  0.00    -0.354 N 
ATOM     63  N   UNL     1     -15.207  -9.988  -5.763  1.00  0.00    -0.248 NA
ATOM     64  C   UNL     1     -16.002 -10.445  -7.913  1.00  0.00     0.031 C 
ATOM     65  C   UNL     1     -16.871 -11.770  -2.051  1.00  0.00     0.029 A 
ATOM     66  C   UNL     1     -16.368 -11.231  -3.225  1.00  0.00     0.049 A 
ATOM     67  H   UNL     1     -14.744  -9.911  -3.491  1.00  0.00     0.167 HD
ATOM     68  C   UNL     1     -16.280 -10.868  -5.676  1.00  0.00     0.074 A 
ATOM     69  C   UNL     1     -16.752 -11.087  -7.028  1.00  0.00     0.031 C 
ATOM     70  C   UNL     1     -16.827 -11.442  -4.575  1.00  0.00     0.031 A 
BRANCH  57  71
ATOM     71  C   UNL     1     -14.030  -9.909   0.726  1.00  0.00    -0.014 A 
ATOM     72  C   UNL     1     -14.326  -8.850   1.605  1.00  0.00     0.010 A 
ATOM     73  C   UNL     1     -13.686 -11.163   1.263  1.00  0.00     0.010 A 
ATOM     74  C   UNL     1     -14.235  -9.029   2.988  1.00  0.00     0.020 A 
ATOM     75  C   UNL     1     -13.625 -11.356   2.646  1.00  0.00     0.020 A 
ATOM     76  C   UNL     1     -13.883 -10.281   3.499  1.00  0.00     0.054 A 
BRANCH  76  77
ATOM     77  S   UNL     1     -13.791 -10.489   5.299  1.00  0.00     0.124 S 
ATOM     78  O   UNL     1     -12.590  -9.726   5.629  1.00  0.00    -0.237 OA
ATOM     79  O   UNL     1     -15.050  -9.903   5.752  1.00  0.00    -0.237 OA
ATOM     80  O   UNL     1     -13.679 -11.934   5.478  1.00  0.00    -0.744 OA
ENDBRANCH  76  77
ENDBRANCH  57  71
BRANCH  58  81
ATOM     81  C   UNL     1     -14.063  -8.654  -9.194  1.00  0.00    -0.014 A 
ATOM     82  C   UNL     1     -15.126  -8.013  -9.854  1.00  0.00     0.010 A 
ATOM     83  C   UNL     1     -12.980  -9.135  -9.954  1.00  0.00     0.010 A 
ATOM     84  C   UNL     1     -15.117  -7.874 -11.245  1.00  0.00     0.020 A 
ATOM     85  C   UNL     1     -12.952  -8.969 -11.341  1.00  0.00     0.020 A 
ATOM     86  C   UNL     1     -14.028  -8.350 -11.980  1.00  0.00     0.054 A 
BRANCH  86  87
ATOM     87  S   UNL     1     -14.015  -8.112 -13.779  1.00  0.00     0.124 S 
ATOM     88  O   UNL     1     -15.035  -9.060 -14.217  1.00  0.00    -0.237 OA
ATOM     89  O   UNL     1     -14.364  -6.700 -13.911  1.00  0.00    -0.237 OA
ATOM     90  O   UNL     1     -12.644  -8.446 -14.158  1.00  0.00    -0.744 OA
ENDBRANCH  86  87
ENDBRANCH  58  81
BRANCH  70  91
ATOM     91  C   UNL     1     -18.023 -12.336  -4.778  1.00  0.00    -0.014 A 
ATOM     92  C   UNL     1     -17.900 -13.599  -5.385  1.00  0.00     0.010 A 
ATOM     93  C   UNL     1     -19.281 -11.926  -4.299  1.00  0.00     0.010 A 
ATOM     94  C   UNL     1     -19.021 -14.420  -5.539  1.00  0.00     0.020 A 
ATOM     95  C   UNL     1     -20.397 -12.757  -4.423  1.00  0.00     0.020 A 
ATOM     96  C   UNL     1     -20.262 -13.994  -5.055  1.00  0.00     0.054 A 
BRANCH  96  97
ATOM     97  S   UNL     1     -21.691 -15.098  -5.228  1.00  0.00     0.124 S 
ATOM     98  O   UNL     1     -21.957 -15.029  -6.662  1.00  0.00    -0.237 OA
ATOM     99  O   UNL     1     -21.168 -16.374  -4.746  1.00  0.00    -0.237 OA
ATOM    100  O   UNL     1     -22.708 -14.486  -4.375  1.00  0.00    -0.744 OA
ENDBRANCH  96  97
ENDBRANCH  70  91
ENDBRANCH  44  45
ENDBRANCH  36  39
ENDBRANCH  34  35
ENDBRANCH  33  34
ENDBRANCH  32  33
ENDBRANCH   1  32
TORSDOF 19
