REMARK SMILES COc1ccc([C@@H]2C(C#N)=C(N)N3C(=O)[C@H](CC(=O)NCCCCNC(=O)c4ccc(-c5c6nc(c(-c7ccc(S(=O)(=O)[O-])cc7)c7ccc([nH]7)c(-c7ccc(S(=O)(=O)[O-])cc7)c7nc(c(-c8ccc(S(=O)(=O)[O-])cc8)c8ccc5[nH]8)C=C7)C=C6)cc4)SC3=C2C#N)cc1
REMARK SMILES IDX 22 1 21 2 20 3 18 4 19 5 17 7 16 8 7 9 8 10 90 11 11 12
REMARK SMILES IDX 89 13 13 14 88 15 14 16 15 17 6 18 3 19 4 20 94 21 5 22
REMARK SMILES IDX 93 23 2 24 1 25 9 26 10 27 91 28 92 29 12 30 23 33 24 34
REMARK SMILES IDX 25 35 26 36 27 38 28 39 29 40 87 41 30 42 86 43 31 44 32 45
REMARK SMILES IDX 33 46 80 47 34 48 85 49 79 50 81 51 35 52 84 53 78 54 77 55
REMARK SMILES IDX 36 57 66 58 47 59 65 60 48 61 51 62 64 63 82 64 49 65 50 66
REMARK SMILES IDX 63 68 83 69 52 70 37 71 38 72 46 73 39 74 45 75 40 76 41 77
REMARK SMILES IDX 42 78 43 79 44 80 67 81 68 82 76 83 69 84 75 85 70 86 71 87
REMARK SMILES IDX 72 88 73 89 74 90 53 91 54 92 62 93 55 94 61 95 56 96 57 97
REMARK SMILES IDX 58 98 59 99 60 100
REMARK H PARENT 20 6 12 31 12 32 25 37 81 56 51 67
REMARK Flexibility Score: inf
ROOT
ATOM      1  C   UNL     1       6.399   1.815  10.944  1.00  0.00     0.023 C 
ENDROOT
BRANCH   1   2
ATOM      2  C   UNL     1       7.170   0.624  10.373  1.00  0.00     0.116 C 
BRANCH   2   3
ATOM      3  N   UNL     1       7.060  -0.520  11.252  1.00  0.00    -0.356 N 
ATOM      4  C   UNL     1       6.372  -1.682  11.073  1.00  0.00     0.221 C 
ATOM      5  O   UNL     1       6.231  -2.443  12.030  1.00  0.00    -0.275 OA
ATOM      6  H   UNL     1       7.554  -0.449  12.101  1.00  0.00     0.163 HD
BRANCH   4   7
ATOM      7  C   UNL     1       5.824  -2.046   9.707  1.00  0.00     0.125 C 
BRANCH   7   8
ATOM      8  C   UNL     1       4.356  -1.669   9.563  1.00  0.00     0.152 C 
ATOM      9  C   UNL     1       1.888   0.805   6.154  1.00  0.00     0.107 C 
ATOM     10  C   UNL     1       2.953   1.785   6.599  1.00  0.00     0.083 C 
ATOM     11  C   UNL     1       2.239  -0.639   6.483  1.00  0.00     0.073 C 
ATOM     12  C   UNL     1       3.913   1.416   7.478  1.00  0.00     0.126 C 
ATOM     13  C   UNL     1       3.216  -0.882   7.367  1.00  0.00     0.099 C 
ATOM     14  N   UNL     1       3.881   0.128   8.013  1.00  0.00    -0.258 N 
ATOM     15  S   UNL     1       3.624  -2.424   8.049  1.00  0.00    -0.093 SA
ATOM     16  C   UNL     1       4.148  -0.182   9.341  1.00  0.00     0.247 C 
ATOM     17  O   UNL     1       4.065   0.618  10.260  1.00  0.00    -0.273 OA
BRANCH   9  18
ATOM     18  C   UNL     1       1.559   0.948   4.678  1.00  0.00    -0.034 A 
ATOM     19  C   UNL     1       0.865   0.995   1.976  1.00  0.00     0.118 A 
ATOM     20  C   UNL     1      -0.087   1.309   2.943  1.00  0.00     0.047 A 
ATOM     21  C   UNL     1       2.182   0.729   2.350  1.00  0.00     0.047 A 
ATOM     22  C   UNL     1       0.253   1.282   4.292  1.00  0.00     0.008 A 
ATOM     23  C   UNL     1       2.530   0.702   3.696  1.00  0.00     0.008 A 
BRANCH  19  24
ATOM     24  O   UNL     1       0.431   1.008   0.679  1.00  0.00    -0.497 OA
ATOM     25  C   UNL     1       0.970  -0.049  -0.110  1.00  0.00     0.278 C 
ENDBRANCH  19  24
ENDBRANCH   9  18
BRANCH  10  26
ATOM     26  C   UNL     1       2.901   3.124   6.100  1.00  0.00     0.100 C 
ATOM     27  N   UNL     1       2.881   4.215   5.705  1.00  0.00    -0.193 NA
ENDBRANCH  10  26
BRANCH  11  28
ATOM     28  C   UNL     1       1.421  -1.688   5.974  1.00  0.00     0.098 C 
ATOM     29  N   UNL     1       0.733  -2.534   5.572  1.00  0.00    -0.193 NA
ENDBRANCH  11  28
BRANCH  12  30
ATOM     30  N   UNL     1       4.937   2.268   7.806  1.00  0.00    -0.384 N 
ATOM     31  H   UNL     1       4.961   3.177   7.430  1.00  0.00     0.158 HD
ATOM     32  H   UNL     1       5.649   1.969   8.418  1.00  0.00     0.158 HD
ENDBRANCH  12  30
ENDBRANCH   7   8
ENDBRANCH   4   7
ENDBRANCH   2   3
ENDBRANCH   1   2
BRANCH   1  33
ATOM     33  C   UNL     1       7.135   2.686  11.928  1.00  0.00     0.023 C 
BRANCH  33  34
ATOM     34  C   UNL     1       8.437   3.231  11.402  1.00  0.00     0.116 C 
BRANCH  34  35
ATOM     35  N   UNL     1       8.297   3.990  10.163  1.00  0.00    -0.352 N 
ATOM     36  C   UNL     1       8.742   5.264   9.891  1.00  0.00     0.251 C 
ATOM     37  H   UNL     1       7.826   3.534   9.430  1.00  0.00     0.163 HD
ATOM     38  O   UNL     1       8.434   5.821   8.844  1.00  0.00    -0.269 OA
BRANCH  36  39
ATOM     39  C   UNL     1       9.561   5.948  10.911  1.00  0.00     0.039 A 
ATOM     40  C   UNL     1       9.250   7.254  11.284  1.00  0.00     0.014 A 
ATOM     41  C   UNL     1      10.555   5.234  11.583  1.00  0.00     0.014 A 
ATOM     42  C   UNL     1       9.899   7.816  12.383  1.00  0.00     0.010 A 
ATOM     43  C   UNL     1      11.062   5.729  12.771  1.00  0.00     0.010 A 
ATOM     44  C   UNL     1      10.778   7.042  13.161  1.00  0.00    -0.014 A 
BRANCH  44  45
ATOM     45  C   UNL     1      11.467   7.601  14.349  1.00  0.00     0.031 A 
ATOM     46  C   UNL     1      12.975   7.610  14.393  1.00  0.00     0.074 A 
ATOM     47  C   UNL     1      10.750   8.060  15.394  1.00  0.00     0.049 A 
ATOM     48  N   UNL     1      13.769   8.037  15.340  1.00  0.00    -0.248 NA
ATOM     49  C   UNL     1      13.688   7.030  13.239  1.00  0.00     0.031 C 
ATOM     50  C   UNL     1       9.287   8.052  15.492  1.00  0.00     0.029 A 
ATOM     51  N   UNL     1      11.156   8.634  16.572  1.00  0.00    -0.354 N 
ATOM     52  C   UNL     1      15.059   7.765  14.900  1.00  0.00     0.074 A 
ATOM     53  C   UNL     1      14.945   7.057  13.648  1.00  0.00     0.031 C 
ATOM     54  C   UNL     1       8.920   8.648  16.639  1.00  0.00     0.029 A 
ATOM     55  C   UNL     1      10.116   9.031  17.380  1.00  0.00     0.049 A 
ATOM     56  H   UNL     1      12.102   8.751  16.816  1.00  0.00     0.167 HD
ATOM     57  C   UNL     1      16.240   8.106  15.465  1.00  0.00     0.031 A 
ATOM     58  C   UNL     1      10.128   9.637  18.583  1.00  0.00     0.031 A 
ATOM     59  C   UNL     1      16.347   8.823  16.705  1.00  0.00     0.049 A 
ATOM     60  C   UNL     1      11.454   9.990  19.203  1.00  0.00     0.074 A 
ATOM     61  C   UNL     1      17.491   9.265  17.345  1.00  0.00     0.029 A 
ATOM     62  N   UNL     1      15.271   9.202  17.494  1.00  0.00    -0.354 N 
ATOM     63  N   UNL     1      12.664   9.786  18.737  1.00  0.00    -0.248 NA
ATOM     64  C   UNL     1      11.414  10.674  20.501  1.00  0.00     0.031 C 
ATOM     65  C   UNL     1      17.110   9.845  18.558  1.00  0.00     0.029 A 
ATOM     66  C   UNL     1      15.726   9.848  18.630  1.00  0.00     0.049 A 
ATOM     67  H   UNL     1      14.325   9.037  17.278  1.00  0.00     0.167 HD
ATOM     68  C   UNL     1      13.528  10.354  19.668  1.00  0.00     0.074 A 
ATOM     69  C   UNL     1      12.699  10.923  20.710  1.00  0.00     0.031 C 
ATOM     70  C   UNL     1      14.884  10.407  19.659  1.00  0.00     0.031 A 
BRANCH  57  71
ATOM     71  C   UNL     1      17.502   7.703  14.746  1.00  0.00    -0.014 A 
ATOM     72  C   UNL     1      17.842   8.257  13.497  1.00  0.00     0.010 A 
ATOM     73  C   UNL     1      18.380   6.782  15.345  1.00  0.00     0.010 A 
ATOM     74  C   UNL     1      19.013   7.866  12.843  1.00  0.00     0.020 A 
ATOM     75  C   UNL     1      19.571   6.417  14.712  1.00  0.00     0.020 A 
ATOM     76  C   UNL     1      19.873   6.952  13.458  1.00  0.00     0.054 A 
BRANCH  76  77
ATOM     77  S   UNL     1      21.406   6.495  12.604  1.00  0.00     0.124 S 
ATOM     78  O   UNL     1      20.902   5.720  11.473  1.00  0.00    -0.237 OA
ATOM     79  O   UNL     1      21.980   7.795  12.268  1.00  0.00    -0.237 OA
ATOM     80  O   UNL     1      22.146   5.729  13.603  1.00  0.00    -0.744 OA
ENDBRANCH  76  77
ENDBRANCH  57  71
BRANCH  58  81
ATOM     81  C   UNL     1       8.847   9.967  19.271  1.00  0.00    -0.014 A 
ATOM     82  C   UNL     1       8.459  11.304  19.470  1.00  0.00     0.010 A 
ATOM     83  C   UNL     1       8.007   8.938  19.736  1.00  0.00     0.010 A 
ATOM     84  C   UNL     1       7.273  11.606  20.147  1.00  0.00     0.020 A 
ATOM     85  C   UNL     1       6.803   9.236  20.380  1.00  0.00     0.020 A 
ATOM     86  C   UNL     1       6.450  10.569  20.595  1.00  0.00     0.054 A 
BRANCH  86  87
ATOM     87  S   UNL     1       4.898  10.985  21.437  1.00  0.00     0.124 S 
ATOM     88  O   UNL     1       5.376  11.539  22.699  1.00  0.00    -0.237 OA
ATOM     89  O   UNL     1       4.289  11.940  20.515  1.00  0.00    -0.237 OA
ATOM     90  O   UNL     1       4.209   9.700  21.539  1.00  0.00    -0.744 OA
ENDBRANCH  86  87
ENDBRANCH  58  81
BRANCH  70  91
ATOM     91  C   UNL     1      15.556  11.158  20.779  1.00  0.00    -0.014 A 
ATOM     92  C   UNL     1      15.527  10.694  22.106  1.00  0.00     0.010 A 
ATOM     93  C   UNL     1      16.260  12.341  20.483  1.00  0.00     0.010 A 
ATOM     94  C   UNL     1      16.140  11.429  23.124  1.00  0.00     0.020 A 
ATOM     95  C   UNL     1      16.911  13.055  21.490  1.00  0.00     0.020 A 
ATOM     96  C   UNL     1      16.827  12.606  22.808  1.00  0.00     0.054 A 
BRANCH  96  97
ATOM     97  S   UNL     1      17.627  13.533  24.145  1.00  0.00     0.124 S 
ATOM     98  O   UNL     1      16.480  14.073  24.869  1.00  0.00    -0.237 OA
ATOM     99  O   UNL     1      18.382  12.496  24.844  1.00  0.00    -0.237 OA
ATOM    100  O   UNL     1      18.441  14.523  23.443  1.00  0.00    -0.744 OA
ENDBRANCH  96  97
ENDBRANCH  70  91
ENDBRANCH  44  45
ENDBRANCH  36  39
ENDBRANCH  34  35
ENDBRANCH  33  34
ENDBRANCH   1  33
TORSDOF 20
