REMARK SMILES Cc1[nH]c2c(C(=O)N3CC[C@H](O)C[C@@H]3C(=O)NCCCCNC(=O)c3ccc(-c4c5nc(c(-c6ccc(S(=O)(=O)[O-])cc6)c6ccc([nH]6)c(-c6ccc(S(=O)(=O)[O-])cc6)c6nc(c(-c7ccc(S(=O)(=O)[O-])cc7)c7ccc4[nH]7)C=C6)C=C5)cc3)cccc2c1C
REMARK SMILES IDX 20 1 19 2 18 3 17 4 15 5 16 6 14 8 8 9 9 10 10 11 13 12
REMARK SMILES IDX 11 13 6 14 7 15 5 16 1 17 2 18 3 19 89 20 4 21 88 23 90 24
REMARK SMILES IDX 87 25 85 26 86 27 12 28 21 30 22 31 23 32 24 34 25 35 26 36
REMARK SMILES IDX 84 37 27 38 83 39 28 40 29 41 30 42 77 43 31 44 82 45 76 46
REMARK SMILES IDX 78 47 32 48 81 49 75 50 74 51 33 53 63 54 44 55 62 56 45 57
REMARK SMILES IDX 48 58 61 59 79 60 46 61 47 62 60 64 80 65 49 66 34 67 35 68
REMARK SMILES IDX 43 69 36 70 42 71 37 72 38 73 39 74 40 75 41 76 64 77 65 78
REMARK SMILES IDX 73 79 66 80 72 81 67 82 68 83 69 84 70 85 71 86 50 87 51 88
REMARK SMILES IDX 59 89 52 90 58 91 53 92 54 93 55 94 56 95 57 96
REMARK H PARENT 17 7 3 22 12 29 22 33 78 52 48 63
REMARK Flexibility Score: inf
ROOT
ATOM      1  C   UNL     1      -4.791  -4.515  -1.257  1.00  0.00     0.023 C 
ENDROOT
BRANCH   1   2
ATOM      2  C   UNL     1      -3.337  -4.947  -1.390  1.00  0.00     0.023 C 
BRANCH   2   3
ATOM      3  C   UNL     1      -2.308  -4.051  -0.704  1.00  0.00     0.116 C 
BRANCH   3   4
ATOM      4  N   UNL     1      -2.176  -4.302   0.714  1.00  0.00    -0.354 N 
ATOM      5  C   UNL     1      -1.107  -4.680   1.466  1.00  0.00     0.242 C 
ATOM      6  O   UNL     1      -1.390  -5.127   2.588  1.00  0.00    -0.273 OA
ATOM      7  H   UNL     1      -3.007  -4.176   1.226  1.00  0.00     0.163 HD
BRANCH   5   8
ATOM      8  C   UNL     1       0.385  -4.704   1.001  1.00  0.00     0.177 C 
ATOM      9  N   UNL     1       0.913  -3.674   0.095  1.00  0.00    -0.326 N 
ATOM     10  C   UNL     1       0.988  -3.917  -1.344  1.00  0.00     0.123 C 
ATOM     11  C   UNL     1       0.941  -5.384  -1.813  1.00  0.00     0.053 C 
ATOM     12  C   UNL     1       0.878  -6.095   0.626  1.00  0.00     0.067 C 
ATOM     13  C   UNL     1       0.521  -6.451  -0.800  1.00  0.00     0.118 C 
BRANCH   9  14
ATOM     14  C   UNL     1       1.817  -2.752   0.635  1.00  0.00     0.256 C 
ATOM     15  O   UNL     1       2.672  -3.062   1.460  1.00  0.00    -0.269 OA
BRANCH  14  16
ATOM     16  C   UNL     1       1.697  -1.338   0.216  1.00  0.00     0.064 A 
ATOM     17  C   UNL     1      -3.158  -0.321   0.736  1.00  0.00     0.064 C 
ATOM     18  C   UNL     1      -1.718  -0.100   0.449  1.00  0.00     0.016 A 
ATOM     19  N   UNL     1      -0.804  -1.119   0.523  1.00  0.00    -0.358 N 
ATOM     20  C   UNL     1      -1.032   1.055   0.110  1.00  0.00    -0.023 A 
ATOM     21  C   UNL     1       0.460  -0.670   0.226  1.00  0.00     0.059 A 
ATOM     22  H   UNL     1      -1.025  -2.049   0.758  1.00  0.00     0.166 HD
ATOM     23  C   UNL     1       0.350   0.700  -0.017  1.00  0.00     0.003 A 
ATOM     24  C   UNL     1      -1.607   2.419  -0.045  1.00  0.00     0.047 C 
ATOM     25  C   UNL     1       1.526   1.434  -0.286  1.00  0.00     0.010 A 
ATOM     26  C   UNL     1       2.852  -0.580  -0.024  1.00  0.00     0.016 A 
ATOM     27  C   UNL     1       2.767   0.786  -0.282  1.00  0.00     0.002 A 
ENDBRANCH  14  16
ENDBRANCH   9  14
BRANCH  13  28
ATOM     28  O   UNL     1      -0.873  -6.702  -0.911  1.00  0.00    -0.393 OA
ATOM     29  H   UNL     1      -1.365  -5.894  -0.695  1.00  0.00     0.210 HD
ENDBRANCH  13  28
ENDBRANCH   5   8
ENDBRANCH   3   4
ENDBRANCH   2   3
ENDBRANCH   1   2
BRANCH   1  30
ATOM     30  C   UNL     1      -5.094  -3.072  -1.634  1.00  0.00     0.116 C 
BRANCH  30  31
ATOM     31  N   UNL     1      -4.585  -2.662  -2.936  1.00  0.00    -0.352 N 
ATOM     32  C   UNL     1      -5.171  -1.796  -3.835  1.00  0.00     0.251 C 
ATOM     33  H   UNL     1      -3.721  -3.048  -3.206  1.00  0.00     0.163 HD
ATOM     34  O   UNL     1      -4.646  -1.559  -4.917  1.00  0.00    -0.269 OA
BRANCH  32  35
ATOM     35  C   UNL     1      -6.480  -1.211  -3.486  1.00  0.00     0.039 A 
ATOM     36  C   UNL     1      -7.571  -1.462  -4.320  1.00  0.00     0.014 A 
ATOM     37  C   UNL     1      -6.648  -0.552  -2.266  1.00  0.00     0.014 A 
ATOM     38  C   UNL     1      -8.855  -1.141  -3.878  1.00  0.00     0.010 A 
ATOM     39  C   UNL     1      -7.933  -0.307  -1.796  1.00  0.00     0.010 A 
ATOM     40  C   UNL     1      -9.050  -0.614  -2.590  1.00  0.00    -0.014 A 
BRANCH  40  41
ATOM     41  C   UNL     1     -10.414  -0.406  -2.043  1.00  0.00     0.031 A 
ATOM     42  C   UNL     1     -10.877   0.977  -1.682  1.00  0.00     0.074 A 
ATOM     43  C   UNL     1     -11.205  -1.471  -1.797  1.00  0.00     0.049 A 
ATOM     44  N   UNL     1     -12.004   1.351  -1.133  1.00  0.00    -0.248 NA
ATOM     45  C   UNL     1      -9.939   2.081  -1.944  1.00  0.00     0.031 C 
ATOM     46  C   UNL     1     -10.849  -2.872  -2.042  1.00  0.00     0.029 A 
ATOM     47  N   UNL     1     -12.475  -1.541  -1.279  1.00  0.00    -0.354 N 
ATOM     48  C   UNL     1     -11.902   2.726  -0.965  1.00  0.00     0.074 A 
ATOM     49  C   UNL     1     -10.585   3.113  -1.421  1.00  0.00     0.031 C 
ATOM     50  C   UNL     1     -11.885  -3.656  -1.703  1.00  0.00     0.029 A 
ATOM     51  C   UNL     1     -12.966  -2.822  -1.188  1.00  0.00     0.049 A 
ATOM     52  H   UNL     1     -12.986  -0.747  -0.999  1.00  0.00     0.167 HD
ATOM     53  C   UNL     1     -12.829   3.594  -0.494  1.00  0.00     0.031 A 
ATOM     54  C   UNL     1     -14.154  -3.276  -0.743  1.00  0.00     0.031 A 
ATOM     55  C   UNL     1     -14.146   3.213  -0.065  1.00  0.00     0.049 A 
ATOM     56  C   UNL     1     -15.181  -2.290  -0.261  1.00  0.00     0.074 A 
ATOM     57  C   UNL     1     -15.177   4.025   0.375  1.00  0.00     0.029 A 
ATOM     58  N   UNL     1     -14.619   1.910  -0.029  1.00  0.00    -0.354 N 
ATOM     59  N   UNL     1     -15.087  -0.985  -0.167  1.00  0.00    -0.248 NA
ATOM     60  C   UNL     1     -16.479  -2.835   0.162  1.00  0.00     0.031 C 
ATOM     61  C   UNL     1     -16.264   3.209   0.705  1.00  0.00     0.029 A 
ATOM     62  C   UNL     1     -15.923   1.894   0.432  1.00  0.00     0.049 A 
ATOM     63  H   UNL     1     -14.102   1.114  -0.292  1.00  0.00     0.167 HD
ATOM     64  C   UNL     1     -16.321  -0.551   0.305  1.00  0.00     0.074 A 
ATOM     65  C   UNL     1     -17.148  -1.730   0.464  1.00  0.00     0.031 C 
ATOM     66  C   UNL     1     -16.732   0.711   0.581  1.00  0.00     0.031 A 
BRANCH  53  67
ATOM     67  C   UNL     1     -12.441   5.046  -0.434  1.00  0.00    -0.014 A 
ATOM     68  C   UNL     1     -12.302   5.804  -1.611  1.00  0.00     0.010 A 
ATOM     69  C   UNL     1     -12.230   5.665   0.811  1.00  0.00     0.010 A 
ATOM     70  C   UNL     1     -11.911   7.143  -1.547  1.00  0.00     0.020 A 
ATOM     71  C   UNL     1     -11.864   7.013   0.880  1.00  0.00     0.020 A 
ATOM     72  C   UNL     1     -11.688   7.737  -0.302  1.00  0.00     0.054 A 
BRANCH  72  73
ATOM     73  S   UNL     1     -11.191   9.481  -0.246  1.00  0.00     0.124 S 
ATOM     74  O   UNL     1      -9.784   9.403  -0.629  1.00  0.00    -0.237 OA
ATOM     75  O   UNL     1     -12.076  10.100  -1.229  1.00  0.00    -0.237 OA
ATOM     76  O   UNL     1     -11.440   9.866   1.141  1.00  0.00    -0.744 OA
ENDBRANCH  72  73
ENDBRANCH  53  67
BRANCH  54  77
ATOM     77  C   UNL     1     -14.448  -4.734  -0.765  1.00  0.00    -0.014 A 
ATOM     78  C   UNL     1     -15.330  -5.267  -1.721  1.00  0.00     0.010 A 
ATOM     79  C   UNL     1     -13.835  -5.599   0.158  1.00  0.00     0.010 A 
ATOM     80  C   UNL     1     -15.606  -6.637  -1.745  1.00  0.00     0.020 A 
ATOM     81  C   UNL     1     -14.091  -6.974   0.123  1.00  0.00     0.020 A 
ATOM     82  C   UNL     1     -14.984  -7.482  -0.823  1.00  0.00     0.054 A 
BRANCH  82  83
ATOM     83  S   UNL     1     -15.309  -9.266  -0.908  1.00  0.00     0.124 S 
ATOM     84  O   UNL     1     -16.627  -9.364  -0.292  1.00  0.00    -0.237 OA
ATOM     85  O   UNL     1     -15.259  -9.530  -2.344  1.00  0.00    -0.237 OA
ATOM     86  O   UNL     1     -14.210  -9.848  -0.139  1.00  0.00    -0.744 OA
ENDBRANCH  82  83
ENDBRANCH  54  77
BRANCH  66  87
ATOM     87  C   UNL     1     -18.146   0.889   1.056  1.00  0.00    -0.014 A 
ATOM     88  C   UNL     1     -18.519   0.548   2.368  1.00  0.00     0.010 A 
ATOM     89  C   UNL     1     -19.100   1.463   0.196  1.00  0.00     0.010 A 
ATOM     90  C   UNL     1     -19.830   0.755   2.804  1.00  0.00     0.020 A 
ATOM     91  C   UNL     1     -20.406   1.692   0.636  1.00  0.00     0.020 A 
ATOM     92  C   UNL     1     -20.765   1.325   1.935  1.00  0.00     0.054 A 
BRANCH  92  93
ATOM     93  S   UNL     1     -22.448   1.632   2.538  1.00  0.00     0.124 S 
ATOM     94  O   UNL     1     -23.034   0.295   2.496  1.00  0.00    -0.237 OA
ATOM     95  O   UNL     1     -22.218   2.175   3.875  1.00  0.00    -0.237 OA
ATOM     96  O   UNL     1     -22.993   2.583   1.572  1.00  0.00    -0.744 OA
ENDBRANCH  92  93
ENDBRANCH  66  87
ENDBRANCH  40  41
ENDBRANCH  32  35
ENDBRANCH  30  31
ENDBRANCH   1  30
TORSDOF 17
