REMARK SMILES COc1ccc(-n2ccnc2C[N@@H+]2CCn3nc(C(=O)NCCCCNC(=O)c4ccc(-c5c6nc(c(-c7ccc(S(=O)(=O)[O-])cc7)c7ccc([nH]7)c(-c7ccc(S(=O)(=O)[O-])cc7)c7nc(c(-c8ccc(S(=O)(=O)[O-])cc8)c8ccc5[nH]8)C=C7)C=C6)cc4)cc3C2)cc1
REMARK SMILES IDX 23 1 22 2 21 3 19 4 20 5 18 7 13 8 14 9 91 10 15 12 90 13
REMARK SMILES IDX 16 14 89 15 17 16 12 17 11 18 7 19 8 20 9 21 10 22 6 23 3 24
REMARK SMILES IDX 4 25 93 26 5 27 92 28 2 29 1 30 24 31 25 32 26 33 27 34
REMARK SMILES IDX 28 36 29 37 30 38 88 39 31 40 87 41 32 42 33 43 34 44 81 45
REMARK SMILES IDX 35 46 86 47 80 48 82 49 36 50 85 51 79 52 78 53 37 55 67 56
REMARK SMILES IDX 48 57 66 58 49 59 52 60 65 61 83 62 50 63 51 64 64 66 84 67
REMARK SMILES IDX 53 68 38 69 39 70 47 71 40 72 46 73 41 74 42 75 43 76 44 77
REMARK SMILES IDX 45 78 68 79 69 80 77 81 70 82 76 83 71 84 72 85 73 86 74 87
REMARK SMILES IDX 75 88 54 89 55 90 63 91 56 92 62 93 57 94 58 95 59 96 60 97
REMARK SMILES IDX 61 98
REMARK H PARENT 21 6 13 11 26 35 82 54 52 65
REMARK Flexibility Score: inf
ROOT
ATOM      1  C   UNL     1       1.129   3.578  -5.769  1.00  0.00     0.023 C 
ENDROOT
BRANCH   1   2
ATOM      2  C   UNL     1       0.018   3.652  -4.721  1.00  0.00     0.116 C 
BRANCH   2   3
ATOM      3  N   UNL     1       0.140   2.738  -3.578  1.00  0.00    -0.351 N 
ATOM      4  C   UNL     1       1.036   2.958  -2.352  1.00  0.00     0.271 C 
ATOM      5  O   UNL     1       2.085   2.474  -2.948  1.00  0.00    -0.267 OA
ATOM      6  H   UNL     1      -0.399   1.914  -3.600  1.00  0.00     0.163 HD
BRANCH   4   7
ATOM      7  C   UNL     1       0.694   3.664  -0.420  1.00  0.00     0.150 A 
ATOM      8  N   UNL     1       0.703   7.510   0.841  1.00  0.00    -0.322 N 
ATOM      9  C   UNL     1       2.073   7.093   1.252  1.00  0.00     0.286 C 
ATOM     10  C   UNL     1      -0.347   6.687   1.492  1.00  0.00     0.319 C 
ATOM     11  H   UNL     1       0.672   8.470   1.185  1.00  0.00     0.348 HD
ATOM     12  C   UNL     1       2.194   5.733   1.979  1.00  0.00     0.206 C 
ATOM     13  C   UNL     1      -0.041   5.271   1.183  1.00  0.00     0.094 A 
ATOM     14  N   UNL     1       1.211   4.832   1.410  1.00  0.00    -0.257 N 
ATOM     15  C   UNL     1      -0.588   4.336   0.347  1.00  0.00     0.065 A 
ATOM     16  N   UNL     1       1.579   3.766   0.705  1.00  0.00    -0.167 NA
BRANCH   8  17
ATOM     17  C   UNL     1       0.423   7.654  -0.618  1.00  0.00     0.339 C 
BRANCH  17  18
ATOM     18  C   UNL     1       1.520   7.459  -1.632  1.00  0.00     0.168 A 
ATOM     19  N   UNL     1       1.920   6.245  -2.173  1.00  0.00    -0.299 N 
ATOM     20  C   UNL     1       3.040   6.492  -2.929  1.00  0.00     0.113 A 
ATOM     21  C   UNL     1       3.213   7.851  -2.908  1.00  0.00     0.132 A 
ATOM     22  N   UNL     1       2.280   8.441  -2.102  1.00  0.00    -0.236 NA
BRANCH  19  23
ATOM     23  C   UNL     1       1.447   4.951  -1.925  1.00  0.00     0.047 A 
ATOM     24  C   UNL     1       0.355   1.621  -0.913  1.00  0.00     0.119 A 
ATOM     25  C   UNL     1      -0.868   2.811  -1.547  1.00  0.00     0.048 A 
ATOM     26  C   UNL     1       2.109   2.073  -0.789  1.00  0.00     0.048 A 
ATOM     27  C   UNL     1      -0.314   4.508  -2.055  1.00  0.00     0.030 A 
ATOM     28  C   UNL     1       2.667   3.753  -1.309  1.00  0.00     0.030 A 
BRANCH  24  29
ATOM     29  O   UNL     1      -0.138   0.394  -0.576  1.00  0.00    -0.497 OA
ATOM     30  C   UNL     1       0.745  -0.365   0.238  1.00  0.00     0.278 C 
ENDBRANCH  24  29
ENDBRANCH  19  23
ENDBRANCH  17  18
ENDBRANCH   8  17
ENDBRANCH   4   7
ENDBRANCH   2   3
ENDBRANCH   1   2
BRANCH   1  31
ATOM     31  C   UNL     1       1.108   2.376  -6.719  1.00  0.00     0.023 C 
BRANCH  31  32
ATOM     32  C   UNL     1      -0.214   2.129  -7.439  1.00  0.00     0.116 C 
BRANCH  32  33
ATOM     33  N   UNL     1      -0.703   3.290  -8.184  1.00  0.00    -0.352 N 
ATOM     34  C   UNL     1      -1.905   3.413  -8.856  1.00  0.00     0.251 C 
ATOM     35  H   UNL     1      -0.108   4.073  -8.209  1.00  0.00     0.163 HD
ATOM     36  O   UNL     1      -2.062   4.270  -9.717  1.00  0.00    -0.269 OA
BRANCH  34  37
ATOM     37  C   UNL     1      -3.003   2.497  -8.504  1.00  0.00     0.039 A 
ATOM     38  C   UNL     1      -3.739   1.826  -9.486  1.00  0.00     0.014 A 
ATOM     39  C   UNL     1      -3.254   2.287  -7.151  1.00  0.00     0.014 A 
ATOM     40  C   UNL     1      -4.671   0.868  -9.090  1.00  0.00     0.010 A 
ATOM     41  C   UNL     1      -4.083   1.264  -6.766  1.00  0.00     0.010 A 
ATOM     42  C   UNL     1      -4.823   0.576  -7.727  1.00  0.00    -0.014 A 
BRANCH  42  43
ATOM     43  C   UNL     1      -5.621  -0.567  -7.285  1.00  0.00     0.031 A 
ATOM     44  C   UNL     1      -5.162  -1.882  -7.826  1.00  0.00     0.074 A 
ATOM     45  C   UNL     1      -6.491  -0.470  -6.253  1.00  0.00     0.049 A 
ATOM     46  N   UNL     1      -5.812  -2.710  -8.576  1.00  0.00    -0.248 NA
ATOM     47  C   UNL     1      -3.750  -2.258  -7.620  1.00  0.00     0.031 C 
ATOM     48  C   UNL     1      -6.770   0.716  -5.431  1.00  0.00     0.029 A 
ATOM     49  N   UNL     1      -7.191  -1.443  -5.610  1.00  0.00    -0.354 N 
ATOM     50  C   UNL     1      -4.979  -3.817  -8.735  1.00  0.00     0.074 A 
ATOM     51  C   UNL     1      -3.669  -3.395  -8.313  1.00  0.00     0.031 C 
ATOM     52  C   UNL     1      -7.343   0.336  -4.269  1.00  0.00     0.029 A 
ATOM     53  C   UNL     1      -7.629  -1.085  -4.335  1.00  0.00     0.049 A 
ATOM     54  H   UNL     1      -7.374  -2.324  -6.009  1.00  0.00     0.167 HD
ATOM     55  C   UNL     1      -5.483  -5.069  -8.929  1.00  0.00     0.031 A 
ATOM     56  C   UNL     1      -8.145  -1.902  -3.380  1.00  0.00     0.031 A 
ATOM     57  C   UNL     1      -6.874  -5.024  -9.301  1.00  0.00     0.049 A 
ATOM     58  C   UNL     1      -8.591  -3.137  -4.066  1.00  0.00     0.074 A 
ATOM     59  C   UNL     1      -7.591  -4.453 -10.333  1.00  0.00     0.029 A 
ATOM     60  N   UNL     1      -7.787  -5.302  -8.310  1.00  0.00    -0.354 N 
ATOM     61  N   UNL     1      -9.557  -3.161  -4.941  1.00  0.00    -0.248 NA
ATOM     62  C   UNL     1      -7.662  -4.253  -4.132  1.00  0.00     0.031 C 
ATOM     63  C   UNL     1      -8.791  -3.980  -9.725  1.00  0.00     0.029 A 
ATOM     64  C   UNL     1      -8.780  -4.362  -8.381  1.00  0.00     0.049 A 
ATOM     65  H   UNL     1      -7.736  -6.044  -7.666  1.00  0.00     0.167 HD
ATOM     66  C   UNL     1      -9.112  -4.024  -5.933  1.00  0.00     0.074 A 
ATOM     67  C   UNL     1      -7.990  -4.743  -5.331  1.00  0.00     0.031 C 
ATOM     68  C   UNL     1      -9.510  -3.868  -7.232  1.00  0.00     0.031 A 
BRANCH  55  69
ATOM     69  C   UNL     1      -4.862  -6.323  -8.345  1.00  0.00    -0.014 A 
ATOM     70  C   UNL     1      -5.501  -7.562  -8.569  1.00  0.00     0.010 A 
ATOM     71  C   UNL     1      -3.864  -6.299  -7.348  1.00  0.00     0.010 A 
ATOM     72  C   UNL     1      -5.229  -8.680  -7.769  1.00  0.00     0.020 A 
ATOM     73  C   UNL     1      -3.553  -7.420  -6.575  1.00  0.00     0.020 A 
ATOM     74  C   UNL     1      -4.268  -8.593  -6.762  1.00  0.00     0.054 A 
BRANCH  74  75
ATOM     75  S   UNL     1      -4.011  -9.998  -5.652  1.00  0.00     0.124 S 
ATOM     76  O   UNL     1      -5.285 -10.053  -4.941  1.00  0.00    -0.237 OA
ATOM     77  O   UNL     1      -3.759 -11.088  -6.590  1.00  0.00    -0.237 OA
ATOM     78  O   UNL     1      -2.860  -9.592  -4.850  1.00  0.00    -0.744 OA
ENDBRANCH  74  75
ENDBRANCH  55  69
BRANCH  56  79
ATOM     79  C   UNL     1      -7.995  -1.812  -1.903  1.00  0.00    -0.014 A 
ATOM     80  C   UNL     1      -8.805  -2.571  -1.036  1.00  0.00     0.010 A 
ATOM     81  C   UNL     1      -6.859  -1.186  -1.346  1.00  0.00     0.010 A 
ATOM     82  C   UNL     1      -8.461  -2.745   0.318  1.00  0.00     0.020 A 
ATOM     83  C   UNL     1      -6.513  -1.349   0.002  1.00  0.00     0.020 A 
ATOM     84  C   UNL     1      -7.304  -2.148   0.824  1.00  0.00     0.054 A 
BRANCH  84  85
ATOM     85  S   UNL     1      -6.771  -2.517   2.525  1.00  0.00     0.124 S 
ATOM     86  O   UNL     1      -7.776  -1.823   3.324  1.00  0.00    -0.237 OA
ATOM     87  O   UNL     1      -6.825  -3.975   2.568  1.00  0.00    -0.237 OA
ATOM     88  O   UNL     1      -5.425  -1.948   2.595  1.00  0.00    -0.744 OA
ENDBRANCH  84  85
ENDBRANCH  56  79
BRANCH  68  89
ATOM     89  C   UNL     1     -10.667  -2.941  -7.528  1.00  0.00    -0.014 A 
ATOM     90  C   UNL     1     -10.659  -1.555  -7.270  1.00  0.00     0.010 A 
ATOM     91  C   UNL     1     -11.748  -3.480  -8.248  1.00  0.00     0.010 A 
ATOM     92  C   UNL     1     -11.717  -0.739  -7.703  1.00  0.00     0.020 A 
ATOM     93  C   UNL     1     -12.793  -2.672  -8.696  1.00  0.00     0.020 A 
ATOM     94  C   UNL     1     -12.780  -1.306  -8.414  1.00  0.00     0.054 A 
BRANCH  94  95
ATOM     95  S   UNL     1     -14.129  -0.248  -9.010  1.00  0.00     0.124 S 
ATOM     96  O   UNL     1     -14.788   0.154  -7.771  1.00  0.00    -0.237 OA
ATOM     97  O   UNL     1     -13.420   0.815  -9.720  1.00  0.00    -0.237 OA
ATOM     98  O   UNL     1     -14.915  -1.135  -9.868  1.00  0.00    -0.744 OA
ENDBRANCH  94  95
ENDBRANCH  68  89
ENDBRANCH  42  43
ENDBRANCH  34  37
ENDBRANCH  32  33
ENDBRANCH  31  32
ENDBRANCH   1  31
TORSDOF 18
