REMARK SMILES CCOc1ccccc1NC(=O)N[C@@](C)(CC)C(=O)NCCCCNC(=O)c1ccc(-c2c3nc(c(-c4ccc(S(=O)(=O)[O-])cc4)c4ccc([nH]4)c(-c4ccc(S(=O)(=O)[O-])cc4)c4nc(c(-c5ccc(S(=O)(=O)[O-])cc5)c5ccc2[nH]5)C=C4)C=C3)cc1
REMARK SMILES IDX 22 1 21 2 20 3 18 4 19 5 14 7 15 8 13 9 10 10 11 11 12 13
REMARK SMILES IDX 9 15 4 16 5 17 6 18 8 19 7 20 3 21 2 22 1 23 16 24 17 25
REMARK SMILES IDX 23 26 24 27 25 28 26 29 27 31 28 32 29 33 87 34 30 35 86 36
REMARK SMILES IDX 31 37 32 38 33 39 80 40 34 41 85 42 79 43 81 44 35 45 84 46
REMARK SMILES IDX 78 47 77 48 36 50 66 51 47 52 65 53 48 54 51 55 64 56 82 57
REMARK SMILES IDX 49 58 50 59 63 61 83 62 52 63 37 64 38 65 46 66 39 67 45 68
REMARK SMILES IDX 40 69 41 70 42 71 43 72 44 73 67 74 68 75 76 76 69 77 75 78
REMARK SMILES IDX 70 79 71 80 72 81 73 82 74 83 53 84 54 85 62 86 55 87 61 88
REMARK SMILES IDX 56 89 57 90 58 91 59 92 60 93
REMARK H PARENT 20 6 10 12 13 14 25 30 81 49 51 60
REMARK Flexibility Score: inf
ROOT
ATOM      1  C   UNL     1       6.161   3.343  -4.465  1.00  0.00     0.023 C 
ENDROOT
BRANCH   1   2
ATOM      2  C   UNL     1       6.676   2.835  -3.128  1.00  0.00     0.116 C 
BRANCH   2   3
ATOM      3  N   UNL     1       5.891   1.758  -2.590  1.00  0.00    -0.354 N 
ATOM      4  C   UNL     1       6.379   1.090  -1.492  1.00  0.00     0.245 C 
ATOM      5  O   UNL     1       7.058   1.681  -0.648  1.00  0.00    -0.272 OA
ATOM      6  H   UNL     1       5.031   1.506  -2.995  1.00  0.00     0.163 HD
BRANCH   4   7
ATOM      7  C   UNL     1       6.087  -0.437  -1.416  1.00  0.00     0.117 C 
ATOM      8  C   UNL     1       7.366  -0.961  -0.677  1.00  0.00     0.045 C 
BRANCH   7   9
ATOM      9  N   UNL     1       4.973  -0.938  -0.577  1.00  0.00    -0.324 N 
ATOM     10  N   UNL     1       2.894   0.157  -0.902  1.00  0.00    -0.305 N 
ATOM     11  C   UNL     1       3.648  -0.926  -0.727  1.00  0.00     0.320 C 
ATOM     12  H   UNL     1       2.042  -0.065  -1.342  1.00  0.00     0.172 HD
ATOM     13  O   UNL     1       3.080  -2.023  -0.682  1.00  0.00    -0.248 OA
ATOM     14  H   UNL     1       5.271  -1.366   0.258  1.00  0.00     0.166 HD
BRANCH  10  15
ATOM     15  C   UNL     1       2.989   1.526  -0.627  1.00  0.00     0.085 A 
ATOM     16  C   UNL     1       1.874   2.303  -0.979  1.00  0.00     0.142 A 
ATOM     17  C   UNL     1       1.929   3.694  -1.015  1.00  0.00     0.048 A 
ATOM     18  C   UNL     1       3.071   4.329  -0.544  1.00  0.00     0.004 A 
ATOM     19  C   UNL     1       4.039   2.166   0.006  1.00  0.00     0.030 A 
ATOM     20  C   UNL     1       4.096   3.567   0.021  1.00  0.00     0.002 A 
BRANCH  16  21
ATOM     21  O   UNL     1       0.673   1.670  -1.217  1.00  0.00    -0.492 OA
BRANCH  21  22
ATOM     22  C   UNL     1      -0.062   1.563   0.025  1.00  0.00     0.226 C 
ATOM     23  C   UNL     1      -0.002   0.146   0.580  1.00  0.00     0.049 C 
ENDBRANCH  21  22
ENDBRANCH  16  21
ENDBRANCH  10  15
ENDBRANCH   7   9
BRANCH   7  24
ATOM     24  C   UNL     1       6.160  -1.079  -2.840  1.00  0.00     0.035 C 
ATOM     25  C   UNL     1       4.886  -1.143  -3.671  1.00  0.00     0.007 C 
ENDBRANCH   7  24
ENDBRANCH   4   7
ENDBRANCH   2   3
ENDBRANCH   1   2
BRANCH   1  26
ATOM     26  C   UNL     1       5.131   4.463  -4.356  1.00  0.00     0.023 C 
BRANCH  26  27
ATOM     27  C   UNL     1       5.528   5.629  -3.453  1.00  0.00     0.116 C 
BRANCH  27  28
ATOM     28  N   UNL     1       6.875   6.126  -3.710  1.00  0.00    -0.352 N 
ATOM     29  C   UNL     1       7.307   7.401  -3.967  1.00  0.00     0.251 C 
ATOM     30  H   UNL     1       7.582   5.441  -3.696  1.00  0.00     0.163 HD
ATOM     31  O   UNL     1       8.481   7.603  -4.273  1.00  0.00    -0.269 OA
BRANCH  29  32
ATOM     32  C   UNL     1       6.351   8.523  -3.911  1.00  0.00     0.039 A 
ATOM     33  C   UNL     1       6.326   9.436  -4.966  1.00  0.00     0.014 A 
ATOM     34  C   UNL     1       5.465   8.655  -2.839  1.00  0.00     0.014 A 
ATOM     35  C   UNL     1       5.359  10.441  -4.982  1.00  0.00     0.010 A 
ATOM     36  C   UNL     1       4.450   9.605  -2.898  1.00  0.00     0.010 A 
ATOM     37  C   UNL     1       4.387  10.507  -3.970  1.00  0.00    -0.014 A 
BRANCH  37  38
ATOM     38  C   UNL     1       3.289  11.504  -4.033  1.00  0.00     0.031 A 
ATOM     39  C   UNL     1       3.161  12.565  -2.976  1.00  0.00     0.074 A 
ATOM     40  C   UNL     1       2.368  11.415  -5.013  1.00  0.00     0.049 A 
ATOM     41  N   UNL     1       2.258  13.504  -2.858  1.00  0.00    -0.248 NA
ATOM     42  C   UNL     1       4.162  12.553  -1.898  1.00  0.00     0.031 C 
ATOM     43  C   UNL     1       2.351  10.399  -6.069  1.00  0.00     0.029 A 
ATOM     44  N   UNL     1       1.265  12.187  -5.279  1.00  0.00    -0.354 N 
ATOM     45  C   UNL     1       2.571  14.184  -1.688  1.00  0.00     0.074 A 
ATOM     46  C   UNL     1       3.714  13.515  -1.105  1.00  0.00     0.031 C 
ATOM     47  C   UNL     1       1.308  10.628  -6.881  1.00  0.00     0.029 A 
ATOM     48  C   UNL     1       0.557  11.777  -6.383  1.00  0.00     0.049 A 
ATOM     49  H   UNL     1       1.005  12.962  -4.729  1.00  0.00     0.167 HD
ATOM     50  C   UNL     1       1.972  15.276  -1.154  1.00  0.00     0.031 A 
ATOM     51  C   UNL     1      -0.573  12.262  -6.934  1.00  0.00     0.031 A 
ATOM     52  C   UNL     1       0.831  15.934  -1.735  1.00  0.00     0.049 A 
ATOM     53  C   UNL     1      -1.226  13.471  -6.325  1.00  0.00     0.074 A 
ATOM     54  C   UNL     1       0.192  17.084  -1.306  1.00  0.00     0.029 A 
ATOM     55  N   UNL     1       0.148  15.493  -2.859  1.00  0.00    -0.354 N 
ATOM     56  N   UNL     1      -0.865  14.154  -5.265  1.00  0.00    -0.248 NA
ATOM     57  C   UNL     1      -2.429  13.983  -6.994  1.00  0.00     0.031 C 
ATOM     58  C   UNL     1      -0.916  17.301  -2.132  1.00  0.00     0.029 A 
ATOM     59  C   UNL     1      -0.927  16.327  -3.119  1.00  0.00     0.049 A 
ATOM     60  H   UNL     1       0.392  14.703  -3.394  1.00  0.00     0.167 HD
ATOM     61  C   UNL     1      -1.784  15.191  -5.151  1.00  0.00     0.074 A 
ATOM     62  C   UNL     1      -2.708  15.052  -6.260  1.00  0.00     0.031 C 
ATOM     63  C   UNL     1      -1.851  16.172  -4.216  1.00  0.00     0.031 A 
BRANCH  50  64
ATOM     64  C   UNL     1       2.531  15.804   0.143  1.00  0.00    -0.014 A 
ATOM     65  C   UNL     1       3.815  16.378   0.209  1.00  0.00     0.010 A 
ATOM     66  C   UNL     1       1.759  15.726   1.316  1.00  0.00     0.010 A 
ATOM     67  C   UNL     1       4.341  16.800   1.434  1.00  0.00     0.020 A 
ATOM     68  C   UNL     1       2.267  16.179   2.537  1.00  0.00     0.020 A 
ATOM     69  C   UNL     1       3.566  16.689   2.592  1.00  0.00     0.054 A 
BRANCH  69  70
ATOM     70  S   UNL     1       4.279  17.225   4.170  1.00  0.00     0.124 S 
ATOM     71  O   UNL     1       5.248  16.164   4.438  1.00  0.00    -0.237 OA
ATOM     72  O   UNL     1       4.851  18.527   3.838  1.00  0.00    -0.237 OA
ATOM     73  O   UNL     1       3.133  17.263   5.075  1.00  0.00    -0.744 OA
ENDBRANCH  69  70
ENDBRANCH  50  64
BRANCH  51  74
ATOM     74  C   UNL     1      -1.137  11.600  -8.141  1.00  0.00    -0.014 A 
ATOM     75  C   UNL     1      -1.047  12.211  -9.403  1.00  0.00     0.010 A 
ATOM     76  C   UNL     1      -1.710  10.318  -8.040  1.00  0.00     0.010 A 
ATOM     77  C   UNL     1      -1.514  11.551 -10.543  1.00  0.00     0.020 A 
ATOM     78  C   UNL     1      -2.153   9.644  -9.181  1.00  0.00     0.020 A 
ATOM     79  C   UNL     1      -2.053  10.266 -10.427  1.00  0.00     0.054 A 
BRANCH  79  80
ATOM     80  S   UNL     1      -2.560   9.390 -11.933  1.00  0.00     0.124 S 
ATOM     81  O   UNL     1      -3.769  10.112 -12.314  1.00  0.00    -0.237 OA
ATOM     82  O   UNL     1      -1.406   9.579 -12.808  1.00  0.00    -0.237 OA
ATOM     83  O   UNL     1      -2.766   8.017 -11.477  1.00  0.00    -0.744 OA
ENDBRANCH  79  80
ENDBRANCH  51  74
BRANCH  63  84
ATOM     84  C   UNL     1      -2.951  17.193  -4.357  1.00  0.00    -0.014 A 
ATOM     85  C   UNL     1      -4.295  16.862  -4.109  1.00  0.00     0.010 A 
ATOM     86  C   UNL     1      -2.623  18.522  -4.685  1.00  0.00     0.010 A 
ATOM     87  C   UNL     1      -5.294  17.834  -4.218  1.00  0.00     0.020 A 
ATOM     88  C   UNL     1      -3.614  19.503  -4.765  1.00  0.00     0.020 A 
ATOM     89  C   UNL     1      -4.947  19.149  -4.543  1.00  0.00     0.054 A 
BRANCH  89  90
ATOM     90  S   UNL     1      -6.256  20.401  -4.633  1.00  0.00     0.124 S 
ATOM     91  O   UNL     1      -6.944  20.034  -5.867  1.00  0.00    -0.237 OA
ATOM     92  O   UNL     1      -7.006  20.168  -3.401  1.00  0.00    -0.237 OA
ATOM     93  O   UNL     1      -5.525  21.666  -4.680  1.00  0.00    -0.744 OA
ENDBRANCH  89  90
ENDBRANCH  63  84
ENDBRANCH  37  38
ENDBRANCH  29  32
ENDBRANCH  27  28
ENDBRANCH  26  27
ENDBRANCH   1  26
TORSDOF 19
