REMARK SMILES Cc1ccc2occ(/C=N/NC(=O)CCC(=O)Nc3ccc(C(=O)NCCCCNC(=O)c4ccc(-c5c6nc(c(-c7ccc(S(=O)(=O)[O-])cc7)c7ccc([nH]7)c(-c7ccc(S(=O)(=O)[O-])cc7)c7nc(c(-c8ccc(S(=O)(=O)[O-])cc8)c8ccc5[nH]8)C=C7)C=C6)cc4)cc3)c(=O)c2c1
REMARK SMILES IDX 26 1 25 2 23 3 24 4 22 6 19 7 20 8 94 9 21 10 93 11 18 12
REMARK SMILES IDX 16 13 17 14 15 16 14 17 12 18 11 19 13 21 10 22 9 23 8 24
REMARK SMILES IDX 1 25 2 26 3 27 98 28 4 29 97 30 5 31 95 32 6 33 96 34 7 35
REMARK SMILES IDX 27 36 28 37 29 38 30 39 31 40 32 42 33 43 34 44 92 45 35 46
REMARK SMILES IDX 91 47 36 48 37 49 38 50 85 51 39 52 90 53 84 54 86 55 40 56
REMARK SMILES IDX 89 57 83 58 82 59 41 61 71 62 52 63 70 64 53 65 56 66 69 67
REMARK SMILES IDX 87 68 54 69 55 70 68 72 88 73 57 74 42 75 43 76 51 77 44 78
REMARK SMILES IDX 50 79 45 80 46 81 47 82 48 83 49 84 72 85 73 86 81 87 74 88
REMARK SMILES IDX 80 89 75 90 76 91 77 92 78 93 79 94 58 95 59 96 67 97 60 98
REMARK SMILES IDX 66 99 61 100 62 101 63 102 64 103 65 104
REMARK H PARENT 25 5 18 15 11 20 30 41 86 60 56 71
REMARK Flexibility Score: inf
ROOT
ATOM      1  C   UNL     1      10.827   3.810   0.078  1.00  0.00     0.116 C 
ENDROOT
BRANCH   1   2
ATOM      2  N   UNL     1      11.459   2.579  -0.396  1.00  0.00    -0.352 N 
ATOM      3  C   UNL     1      10.977   1.452  -1.033  1.00  0.00     0.251 C 
ATOM      4  O   UNL     1      11.778   0.589  -1.389  1.00  0.00    -0.269 OA
ATOM      5  H   UNL     1      12.428   2.546  -0.225  1.00  0.00     0.163 HD
BRANCH   3   6
ATOM      6  C   UNL     1       9.535   1.253  -1.343  1.00  0.00     0.039 A 
ATOM      7  C   UNL     1       6.789   1.030  -2.041  1.00  0.00     0.041 A 
ATOM      8  C   UNL     1       7.737   0.188  -2.627  1.00  0.00     0.027 A 
ATOM      9  C   UNL     1       7.255   1.949  -1.133  1.00  0.00     0.027 A 
ATOM     10  C   UNL     1       9.110   0.329  -2.311  1.00  0.00     0.016 A 
ATOM     11  C   UNL     1       8.562   1.975  -0.696  1.00  0.00     0.016 A 
BRANCH   7  12
ATOM     12  N   UNL     1       5.413   0.858  -2.276  1.00  0.00    -0.326 N 
ATOM     13  C   UNL     1       4.313   1.558  -1.839  1.00  0.00     0.224 C 
ATOM     14  O   UNL     1       3.205   1.017  -1.951  1.00  0.00    -0.275 OA
ATOM     15  H   UNL     1       5.198   0.097  -2.862  1.00  0.00     0.169 HD
BRANCH  13  16
ATOM     16  C   UNL     1       4.395   3.006  -1.360  1.00  0.00     0.110 C 
BRANCH  16  17
ATOM     17  C   UNL     1       4.233   3.314   0.137  1.00  0.00     0.112 C 
BRANCH  17  18
ATOM     18  C   UNL     1       5.305   2.837   1.124  1.00  0.00     0.240 C 
ATOM     19  N   UNL     1       5.384   1.506   1.476  1.00  0.00    -0.247 N 
ATOM     20  H   UNL     1       6.115   1.240   2.079  1.00  0.00     0.193 HD
ATOM     21  O   UNL     1       6.157   3.621   1.555  1.00  0.00    -0.273 OA
BRANCH  19  22
ATOM     22  N   UNL     1       4.535   0.530   1.057  1.00  0.00    -0.180 NA
ATOM     23  C   UNL     1       3.314   0.747   1.419  1.00  0.00     0.148 C 
BRANCH  23  24
ATOM     24  C   UNL     1       2.136   0.072   0.872  1.00  0.00     0.078 A 
ATOM     25  C   UNL     1      -3.967   0.804  -0.123  1.00  0.00     0.044 C 
ATOM     26  C   UNL     1      -2.658   0.077  -0.075  1.00  0.00    -0.050 A 
ATOM     27  C   UNL     1      -2.572  -1.310  -0.262  1.00  0.00     0.007 A 
ATOM     28  C   UNL     1      -1.490   0.802   0.160  1.00  0.00     0.019 A 
ATOM     29  C   UNL     1      -1.335  -1.968  -0.203  1.00  0.00     0.048 A 
ATOM     30  C   UNL     1      -0.269   0.133   0.253  1.00  0.00     0.066 A 
ATOM     31  C   UNL     1      -0.179  -1.243   0.063  1.00  0.00     0.137 A 
ATOM     32  C   UNL     1       0.926   0.875   0.644  1.00  0.00     0.201 A 
ATOM     33  O   UNL     1       1.009  -1.932   0.152  1.00  0.00    -0.463 OA
ATOM     34  O   UNL     1       0.903   2.088   0.822  1.00  0.00    -0.288 OA
ATOM     35  C   UNL     1       2.112  -1.235   0.597  1.00  0.00     0.209 A 
ENDBRANCH  23  24
ENDBRANCH  19  22
ENDBRANCH  17  18
ENDBRANCH  16  17
ENDBRANCH  13  16
ENDBRANCH   7  12
ENDBRANCH   3   6
ENDBRANCH   1   2
BRANCH   1  36
ATOM     36  C   UNL     1      10.454   3.724   1.570  1.00  0.00     0.023 C 
BRANCH  36  37
ATOM     37  C   UNL     1      11.580   4.165   2.503  1.00  0.00     0.023 C 
BRANCH  37  38
ATOM     38  C   UNL     1      11.841   5.665   2.476  1.00  0.00     0.116 C 
BRANCH  38  39
ATOM     39  N   UNL     1      10.790   6.452   3.103  1.00  0.00    -0.352 N 
ATOM     40  C   UNL     1      10.921   7.681   3.721  1.00  0.00     0.251 C 
ATOM     41  H   UNL     1       9.885   6.066   3.085  1.00  0.00     0.163 HD
ATOM     42  O   UNL     1       9.980   8.196   4.302  1.00  0.00    -0.269 OA
BRANCH  40  43
ATOM     43  C   UNL     1      12.250   8.336   3.708  1.00  0.00     0.039 A 
ATOM     44  C   UNL     1      12.821   8.730   4.920  1.00  0.00     0.014 A 
ATOM     45  C   UNL     1      12.957   8.485   2.512  1.00  0.00     0.014 A 
ATOM     46  C   UNL     1      14.138   9.197   4.941  1.00  0.00     0.010 A 
ATOM     47  C   UNL     1      14.291   8.880   2.545  1.00  0.00     0.010 A 
ATOM     48  C   UNL     1      14.898   9.232   3.760  1.00  0.00    -0.014 A 
BRANCH  48  49
ATOM     49  C   UNL     1      16.334   9.613   3.774  1.00  0.00     0.031 A 
ATOM     50  C   UNL     1      16.801  10.837   3.035  1.00  0.00     0.074 A 
ATOM     51  C   UNL     1      17.231   8.814   4.387  1.00  0.00     0.049 A 
ATOM     52  N   UNL     1      18.018  11.289   2.874  1.00  0.00    -0.248 NA
ATOM     53  C   UNL     1      15.767  11.645   2.366  1.00  0.00     0.031 C 
ATOM     54  C   UNL     1      16.915   7.572   5.099  1.00  0.00     0.029 A 
ATOM     55  N   UNL     1      18.595   8.921   4.502  1.00  0.00    -0.354 N 
ATOM     56  C   UNL     1      17.899  12.418   2.073  1.00  0.00     0.074 A 
ATOM     57  C   UNL     1      16.498  12.556   1.741  1.00  0.00     0.031 C 
ATOM     58  C   UNL     1      18.048   7.049   5.596  1.00  0.00     0.029 A 
ATOM     59  C   UNL     1      19.174   7.892   5.207  1.00  0.00     0.049 A 
ATOM     60  H   UNL     1      19.111   9.665   4.115  1.00  0.00     0.167 HD
ATOM     61  C   UNL     1      18.866  13.275   1.665  1.00  0.00     0.031 A 
ATOM     62  C   UNL     1      20.466   7.648   5.504  1.00  0.00     0.031 A 
ATOM     63  C   UNL     1      20.257  13.146   2.008  1.00  0.00     0.049 A 
ATOM     64  C   UNL     1      21.522   8.615   5.042  1.00  0.00     0.074 A 
ATOM     65  C   UNL     1      21.303  13.996   1.692  1.00  0.00     0.029 A 
ATOM     66  N   UNL     1      20.797  12.101   2.742  1.00  0.00    -0.354 N 
ATOM     67  N   UNL     1      21.380   9.715   4.342  1.00  0.00    -0.248 NA
ATOM     68  C   UNL     1      22.910   8.314   5.420  1.00  0.00     0.031 C 
ATOM     69  C   UNL     1      22.483  13.442   2.197  1.00  0.00     0.029 A 
ATOM     70  C   UNL     1      22.165  12.275   2.874  1.00  0.00     0.049 A 
ATOM     71  H   UNL     1      20.285  11.348   3.115  1.00  0.00     0.167 HD
ATOM     72  C   UNL     1      22.657  10.253   4.221  1.00  0.00     0.074 A 
ATOM     73  C   UNL     1      23.555   9.363   4.928  1.00  0.00     0.031 C 
ATOM     74  C   UNL     1      23.047  11.385   3.586  1.00  0.00     0.031 A 
BRANCH  61  75
ATOM     75  C   UNL     1      18.447  14.431   0.796  1.00  0.00    -0.014 A 
ATOM     76  C   UNL     1      17.687  15.494   1.319  1.00  0.00     0.010 A 
ATOM     77  C   UNL     1      18.845  14.475  -0.552  1.00  0.00     0.010 A 
ATOM     78  C   UNL     1      17.295  16.555   0.500  1.00  0.00     0.020 A 
ATOM     79  C   UNL     1      18.479  15.549  -1.369  1.00  0.00     0.020 A 
ATOM     80  C   UNL     1      17.690  16.573  -0.841  1.00  0.00     0.054 A 
BRANCH  80  81
ATOM     81  S   UNL     1      17.179  17.970  -1.879  1.00  0.00     0.124 S 
ATOM     82  O   UNL     1      15.763  17.682  -2.094  1.00  0.00    -0.237 OA
ATOM     83  O   UNL     1      17.463  19.123  -1.028  1.00  0.00    -0.237 OA
ATOM     84  O   UNL     1      18.026  17.850  -3.063  1.00  0.00    -0.744 OA
ENDBRANCH  80  81
ENDBRANCH  61  75
BRANCH  62  85
ATOM     85  C   UNL     1      20.830   6.444   6.301  1.00  0.00    -0.014 A 
ATOM     86  C   UNL     1      21.257   6.575   7.634  1.00  0.00     0.010 A 
ATOM     87  C   UNL     1      20.735   5.159   5.736  1.00  0.00     0.010 A 
ATOM     88  C   UNL     1      21.599   5.446   8.383  1.00  0.00     0.020 A 
ATOM     89  C   UNL     1      21.051   4.025   6.491  1.00  0.00     0.020 A 
ATOM     90  C   UNL     1      21.492   4.177   7.807  1.00  0.00     0.054 A 
BRANCH  90  91
ATOM     91  S   UNL     1      21.887   2.721   8.815  1.00  0.00     0.124 S 
ATOM     92  O   UNL     1      23.345   2.772   8.862  1.00  0.00    -0.237 OA
ATOM     93  O   UNL     1      21.203   3.012  10.073  1.00  0.00    -0.237 OA
ATOM     94  O   UNL     1      21.322   1.612   8.050  1.00  0.00    -0.744 OA
ENDBRANCH  90  91
ENDBRANCH  62  85
BRANCH  74  95
ATOM     95  C   UNL     1      24.504  11.755   3.653  1.00  0.00    -0.014 A 
ATOM     96  C   UNL     1      25.469  11.060   2.905  1.00  0.00     0.010 A 
ATOM     97  C   UNL     1      24.899  12.865   4.423  1.00  0.00     0.010 A 
ATOM     98  C   UNL     1      26.809  11.456   2.942  1.00  0.00     0.020 A 
ATOM     99  C   UNL     1      26.233  13.279   4.443  1.00  0.00     0.020 A 
ATOM    100  C   UNL     1      27.182  12.564   3.709  1.00  0.00     0.054 A 
BRANCH 100 101
ATOM    101  S   UNL     1      28.917  13.095   3.692  1.00  0.00     0.124 S 
ATOM    102  O   UNL     1      29.554  12.079   4.524  1.00  0.00    -0.237 OA
ATOM    103  O   UNL     1      29.254  13.047   2.271  1.00  0.00    -0.237 OA
ATOM    104  O   UNL     1      28.874  14.437   4.270  1.00  0.00    -0.744 OA
ENDBRANCH 100 101
ENDBRANCH  74  95
ENDBRANCH  48  49
ENDBRANCH  40  43
ENDBRANCH  38  39
ENDBRANCH  37  38
ENDBRANCH  36  37
ENDBRANCH   1  36
TORSDOF 20
