REMARK SMILES COc1ccc([C@H](C)[N@H+]2CC[C@H](C(=O)NCCCCNC(=O)c3ccc(-c4c5nc(c(-c6ccc(S(=O)(=O)[O-])cc6)c6ccc([nH]6)c(-c6ccc(S(=O)(=O)[O-])cc6)c6nc(c(-c7ccc(S(=O)(=O)[O-])cc7)c7ccc4[nH]7)C=C6)C=C5)cc3)[C@@H]2C)cc1
REMARK SMILES IDX 17 1 16 2 15 3 13 4 14 5 12 7 9 8 10 9 83 10 11 12 84 13
REMARK SMILES IDX 7 14 8 15 6 16 3 17 4 18 86 19 5 20 85 21 2 22 1 23 18 24
REMARK SMILES IDX 19 25 20 26 21 27 22 29 23 30 24 31 82 32 25 33 81 34 26 35
REMARK SMILES IDX 27 36 28 37 75 38 29 39 80 40 74 41 76 42 30 43 79 44 73 45
REMARK SMILES IDX 72 46 31 48 61 49 42 50 60 51 43 52 46 53 59 54 77 55 44 56
REMARK SMILES IDX 45 57 58 59 78 60 47 61 32 62 33 63 41 64 34 65 40 66 35 67
REMARK SMILES IDX 36 68 37 69 38 70 39 71 62 72 63 73 71 74 64 75 70 76 65 77
REMARK SMILES IDX 66 78 67 79 68 80 69 81 48 82 49 83 57 84 50 85 56 86 51 87
REMARK SMILES IDX 52 88 53 89 54 90 55 91
REMARK H PARENT 15 6 9 11 20 28 76 47 46 58
REMARK Flexibility Score: inf
ROOT
ATOM      1  C   UNL     1      -2.724   7.568  -3.611  1.00  0.00     0.023 C 
ENDROOT
BRANCH   1   2
ATOM      2  C   UNL     1      -1.497   8.312  -3.085  1.00  0.00     0.116 C 
BRANCH   2   3
ATOM      3  N   UNL     1      -1.401   8.271  -1.641  1.00  0.00    -0.356 N 
ATOM      4  C   UNL     1      -0.753   7.429  -0.801  1.00  0.00     0.229 C 
ATOM      5  O   UNL     1      -0.772   7.735   0.399  1.00  0.00    -0.275 OA
ATOM      6  H   UNL     1      -1.899   8.988  -1.185  1.00  0.00     0.163 HD
BRANCH   4   7
ATOM      7  C   UNL     1      -0.009   6.161  -1.220  1.00  0.00     0.142 C 
ATOM      8  N   UNL     1       1.155   5.797  -3.296  1.00  0.00    -0.326 N 
ATOM      9  C   UNL     1      -0.173   5.195  -3.429  1.00  0.00     0.264 C 
ATOM     10  C   UNL     1       1.347   6.282  -1.919  1.00  0.00     0.194 C 
ATOM     11  H   UNL     1       1.198   6.618  -3.899  1.00  0.00     0.348 HD
ATOM     12  C   UNL     1      -0.774   5.141  -2.040  1.00  0.00     0.081 C 
ATOM     13  C   UNL     1       1.996   7.662  -1.878  1.00  0.00     0.076 C 
BRANCH   8  14
ATOM     14  C   UNL     1       2.253   4.983  -3.856  1.00  0.00     0.212 C 
ATOM     15  C   UNL     1       2.416   3.605  -3.180  1.00  0.00     0.081 C 
BRANCH  14  16
ATOM     16  C   UNL     1       2.106   4.916  -5.380  1.00  0.00     0.009 A 
ATOM     17  C   UNL     1       1.591   4.989  -8.148  1.00  0.00     0.118 A 
ATOM     18  C   UNL     1       2.138   6.100  -7.513  1.00  0.00     0.047 A 
ATOM     19  C   UNL     1       1.361   3.820  -7.427  1.00  0.00     0.047 A 
ATOM     20  C   UNL     1       2.382   6.069  -6.138  1.00  0.00     0.013 A 
ATOM     21  C   UNL     1       1.615   3.785  -6.053  1.00  0.00     0.013 A 
BRANCH  17  22
ATOM     22  O   UNL     1       1.338   5.106  -9.488  1.00  0.00    -0.497 OA
ATOM     23  C   UNL     1       0.033   4.650  -9.846  1.00  0.00     0.278 C 
ENDBRANCH  17  22
ENDBRANCH  14  16
ENDBRANCH   8  14
ENDBRANCH   4   7
ENDBRANCH   2   3
ENDBRANCH   1   2
BRANCH   1  24
ATOM     24  C   UNL     1      -4.011   8.384  -3.671  1.00  0.00     0.023 C 
BRANCH  24  25
ATOM     25  C   UNL     1      -3.989   9.537  -4.662  1.00  0.00     0.116 C 
BRANCH  25  26
ATOM     26  N   UNL     1      -3.706   9.131  -6.031  1.00  0.00    -0.352 N 
ATOM     27  C   UNL     1      -4.179   9.683  -7.201  1.00  0.00     0.251 C 
ATOM     28  H   UNL     1      -3.099   8.363  -6.134  1.00  0.00     0.163 HD
ATOM     29  O   UNL     1      -3.920   9.166  -8.278  1.00  0.00    -0.269 OA
BRANCH  27  30
ATOM     30  C   UNL     1      -5.042  10.883  -7.130  1.00  0.00     0.039 A 
ATOM     31  C   UNL     1      -6.226  10.905  -7.869  1.00  0.00     0.014 A 
ATOM     32  C   UNL     1      -4.707  11.956  -6.301  1.00  0.00     0.014 A 
ATOM     33  C   UNL     1      -7.104  11.982  -7.727  1.00  0.00     0.010 A 
ATOM     34  C   UNL     1      -5.623  12.979  -6.090  1.00  0.00     0.010 A 
ATOM     35  C   UNL     1      -6.824  13.011  -6.813  1.00  0.00    -0.014 A 
BRANCH  35  36
ATOM     36  C   UNL     1      -7.763  14.145  -6.628  1.00  0.00     0.031 A 
ATOM     37  C   UNL     1      -7.332  15.543  -6.984  1.00  0.00     0.074 A 
ATOM     38  C   UNL     1      -8.984  13.923  -6.103  1.00  0.00     0.049 A 
ATOM     39  N   UNL     1      -8.009  16.659  -6.902  1.00  0.00    -0.248 NA
ATOM     40  C   UNL     1      -5.950  15.716  -7.465  1.00  0.00     0.031 C 
ATOM     41  C   UNL     1      -9.493  12.624  -5.653  1.00  0.00     0.029 A 
ATOM     42  N   UNL     1     -10.023  14.785  -5.863  1.00  0.00    -0.354 N 
ATOM     43  C   UNL     1      -7.133  17.662  -7.302  1.00  0.00     0.074 A 
ATOM     44  C   UNL     1      -5.859  17.033  -7.566  1.00  0.00     0.031 C 
ATOM     45  C   UNL     1     -10.760  12.770  -5.231  1.00  0.00     0.029 A 
ATOM     46  C   UNL     1     -11.144  14.172  -5.355  1.00  0.00     0.049 A 
ATOM     47  H   UNL     1      -9.971  15.753  -6.038  1.00  0.00     0.167 HD
ATOM     48  C   UNL     1      -7.374  18.984  -7.467  1.00  0.00     0.031 A 
ATOM     49  C   UNL     1     -12.351  14.681  -5.040  1.00  0.00     0.031 A 
ATOM     50  C   UNL     1      -8.650  19.603  -7.231  1.00  0.00     0.049 A 
ATOM     51  C   UNL     1     -12.608  16.145  -5.271  1.00  0.00     0.074 A 
ATOM     52  C   UNL     1      -9.019  20.921  -7.433  1.00  0.00     0.029 A 
ATOM     53  N   UNL     1      -9.768  18.942  -6.747  1.00  0.00    -0.354 N 
ATOM     54  N   UNL     1     -11.790  17.063  -5.729  1.00  0.00    -0.248 NA
ATOM     55  C   UNL     1     -13.957  16.636  -4.962  1.00  0.00     0.031 C 
ATOM     56  C   UNL     1     -10.352  21.065  -7.033  1.00  0.00     0.029 A 
ATOM     57  C   UNL     1     -10.825  19.827  -6.628  1.00  0.00     0.049 A 
ATOM     58  H   UNL     1      -9.805  17.984  -6.521  1.00  0.00     0.167 HD
ATOM     59  C   UNL     1     -12.533  18.236  -5.784  1.00  0.00     0.074 A 
ATOM     60  C   UNL     1     -13.870  17.905  -5.334  1.00  0.00     0.031 C 
ATOM     61  C   UNL     1     -12.146  19.478  -6.170  1.00  0.00     0.031 A 
BRANCH  48  62
ATOM     62  C   UNL     1      -6.229  19.843  -7.934  1.00  0.00    -0.014 A 
ATOM     63  C   UNL     1      -5.728  19.732  -9.245  1.00  0.00     0.010 A 
ATOM     64  C   UNL     1      -5.658  20.787  -7.062  1.00  0.00     0.010 A 
ATOM     65  C   UNL     1      -4.649  20.516  -9.660  1.00  0.00     0.020 A 
ATOM     66  C   UNL     1      -4.596  21.594  -7.483  1.00  0.00     0.020 A 
ATOM     67  C   UNL     1      -4.087  21.439  -8.774  1.00  0.00     0.054 A 
BRANCH  67  68
ATOM     68  S   UNL     1      -2.700  22.459  -9.346  1.00  0.00     0.124 S 
ATOM     69  O   UNL     1      -1.599  21.499  -9.337  1.00  0.00    -0.237 OA
ATOM     70  O   UNL     1      -3.143  22.893 -10.668  1.00  0.00    -0.237 OA
ATOM     71  O   UNL     1      -2.611  23.517  -8.343  1.00  0.00    -0.744 OA
ENDBRANCH  67  68
ENDBRANCH  48  62
BRANCH  49  72
ATOM     72  C   UNL     1     -13.421  13.791  -4.512  1.00  0.00    -0.014 A 
ATOM     73  C   UNL     1     -14.529  13.457  -5.311  1.00  0.00     0.010 A 
ATOM     74  C   UNL     1     -13.335  13.268  -3.209  1.00  0.00     0.010 A 
ATOM     75  C   UNL     1     -15.543  12.635  -4.809  1.00  0.00     0.020 A 
ATOM     76  C   UNL     1     -14.335  12.426  -2.713  1.00  0.00     0.020 A 
ATOM     77  C   UNL     1     -15.440  12.126  -3.513  1.00  0.00     0.054 A 
BRANCH  77  78
ATOM     78  S   UNL     1     -16.744  11.024  -2.897  1.00  0.00     0.124 S 
ATOM     79  O   UNL     1     -17.824  11.963  -2.611  1.00  0.00    -0.237 OA
ATOM     80  O   UNL     1     -16.965  10.130  -4.030  1.00  0.00    -0.237 OA
ATOM     81  O   UNL     1     -16.134  10.395  -1.728  1.00  0.00    -0.744 OA
ENDBRANCH  77  78
ENDBRANCH  49  72
BRANCH  61  82
ATOM     82  C   UNL     1     -13.190  20.560  -6.143  1.00  0.00    -0.014 A 
ATOM     83  C   UNL     1     -13.657  21.088  -4.926  1.00  0.00     0.010 A 
ATOM     84  C   UNL     1     -13.690  21.075  -7.353  1.00  0.00     0.010 A 
ATOM     85  C   UNL     1     -14.641  22.079  -4.919  1.00  0.00     0.020 A 
ATOM     86  C   UNL     1     -14.653  22.086  -7.350  1.00  0.00     0.020 A 
ATOM     87  C   UNL     1     -15.137  22.567  -6.132  1.00  0.00     0.054 A 
BRANCH  87  88
ATOM     88  S   UNL     1     -16.403  23.866  -6.100  1.00  0.00     0.124 S 
ATOM     89  O   UNL     1     -17.602  23.110  -5.752  1.00  0.00    -0.237 OA
ATOM     90  O   UNL     1     -15.909  24.773  -5.066  1.00  0.00    -0.237 OA
ATOM     91  O   UNL     1     -16.377  24.406  -7.457  1.00  0.00    -0.744 OA
ENDBRANCH  87  88
ENDBRANCH  61  82
ENDBRANCH  35  36
ENDBRANCH  27  30
ENDBRANCH  25  26
ENDBRANCH  24  25
ENDBRANCH   1  24
TORSDOF 17
