REMARK SMILES CCC[C@@H]1C[N@@H+](Cc2cc(OC)c3c(c2)OCO3)C[C@H]1C(=O)NCCCCNC(=O)c1ccc(-c2c3nc(c(-c4ccc(S(=O)(=O)[O-])cc4)c4ccc([nH]4)c(-c4ccc(S(=O)(=O)[O-])cc4)c4nc(c(-c5ccc(S(=O)(=O)[O-])cc5)c5ccc2[nH]5)C=C4)C=C3)cc1
REMARK SMILES IDX 25 1 24 2 23 3 21 4 22 5 20 7 4 8 5 9 6 10 19 11 3 13 2 14
REMARK SMILES IDX 1 15 7 16 8 17 9 18 15 19 10 20 14 21 13 22 16 23 18 24
REMARK SMILES IDX 17 25 11 26 12 27 26 28 27 29 28 30 29 31 30 33 31 34 32 35
REMARK SMILES IDX 90 36 33 37 89 38 34 39 35 40 36 41 83 42 37 43 88 44 82 45
REMARK SMILES IDX 84 46 38 47 87 48 81 49 80 50 39 52 69 53 50 54 68 55 51 56
REMARK SMILES IDX 54 57 67 58 85 59 52 60 53 61 66 63 86 64 55 65 40 66 41 67
REMARK SMILES IDX 49 68 42 69 48 70 43 71 44 72 45 73 46 74 47 75 70 76 71 77
REMARK SMILES IDX 79 78 72 79 78 80 73 81 74 82 75 83 76 84 77 85 56 86 57 87
REMARK SMILES IDX 65 88 58 89 64 90 59 91 60 92 61 93 62 94 63 95
REMARK H PARENT 23 6 6 12 28 32 84 51 54 62
REMARK Flexibility Score: inf
ROOT
ATOM      1  C   UNL     1       1.499   0.948   6.673  1.00  0.00     0.023 C 
ENDROOT
BRANCH   1   2
ATOM      2  C   UNL     1       1.825   1.977   5.569  1.00  0.00     0.116 C 
BRANCH   2   3
ATOM      3  N   UNL     1       2.480   1.529   4.323  1.00  0.00    -0.356 N 
ATOM      4  C   UNL     1       2.171   1.233   3.020  1.00  0.00     0.229 C 
ATOM      5  O   UNL     1       3.156   1.182   2.265  1.00  0.00    -0.275 OA
ATOM      6  H   UNL     1       3.445   1.402   4.477  1.00  0.00     0.163 HD
BRANCH   4   7
ATOM      7  C   UNL     1       0.783   0.893   2.394  1.00  0.00     0.142 C 
ATOM      8  C   UNL     1       0.578  -0.588   1.913  1.00  0.00     0.062 C 
ATOM      9  C   UNL     1      -0.903  -0.870   2.167  1.00  0.00     0.267 C 
ATOM     10  N   UNL     1      -1.205  -0.133   3.389  1.00  0.00    -0.330 N 
ATOM     11  C   UNL     1      -0.456   1.129   3.269  1.00  0.00     0.276 C 
ATOM     12  H   UNL     1      -2.201   0.074   3.467  1.00  0.00     0.348 HD
BRANCH   8  13
ATOM     13  C   UNL     1       1.157  -1.214   0.644  1.00  0.00     0.010 C 
BRANCH  13  14
ATOM     14  C   UNL     1       0.449  -1.032  -0.685  1.00  0.00    -0.003 C 
ATOM     15  C   UNL     1       0.707   0.332  -1.280  1.00  0.00     0.004 C 
ENDBRANCH  13  14
ENDBRANCH   8  13
BRANCH  10  16
ATOM     16  C   UNL     1      -1.137  -0.892   4.669  1.00  0.00     0.299 C 
BRANCH  16  17
ATOM     17  C   UNL     1       0.018  -1.847   4.980  1.00  0.00     0.014 A 
ATOM     18  C   UNL     1       1.329  -1.460   4.703  1.00  0.00     0.060 A 
ATOM     19  C   UNL     1      -0.091  -3.055   5.660  1.00  0.00     0.060 A 
ATOM     20  C   UNL     1       2.500  -2.196   4.847  1.00  0.00     0.165 A 
ATOM     21  C   UNL     1       1.087  -3.762   5.938  1.00  0.00     0.170 A 
ATOM     22  C   UNL     1       2.351  -3.362   5.521  1.00  0.00     0.207 A 
ATOM     23  O   UNL     1       1.149  -4.912   6.672  1.00  0.00    -0.453 OA
ATOM     24  O   UNL     1       3.326  -4.218   5.911  1.00  0.00    -0.450 OA
ATOM     25  C   UNL     1       2.580  -5.076   6.790  1.00  0.00     0.468 C 
BRANCH  20  26
ATOM     26  O   UNL     1       3.578  -1.585   4.302  1.00  0.00    -0.493 OA
ATOM     27  C   UNL     1       4.873  -1.945   4.740  1.00  0.00     0.278 C 
ENDBRANCH  20  26
ENDBRANCH  16  17
ENDBRANCH  10  16
ENDBRANCH   4   7
ENDBRANCH   2   3
ENDBRANCH   1   2
BRANCH   1  28
ATOM     28  C   UNL     1       2.669   0.119   7.218  1.00  0.00     0.023 C 
BRANCH  28  29
ATOM     29  C   UNL     1       3.127   0.587   8.584  1.00  0.00     0.116 C 
BRANCH  29  30
ATOM     30  N   UNL     1       2.137   0.319   9.628  1.00  0.00    -0.352 N 
ATOM     31  C   UNL     1       2.359  -0.015  10.948  1.00  0.00     0.251 C 
ATOM     32  H   UNL     1       1.194   0.385   9.353  1.00  0.00     0.163 HD
ATOM     33  O   UNL     1       1.442  -0.368  11.671  1.00  0.00    -0.269 OA
BRANCH  31  34
ATOM     34  C   UNL     1       3.747   0.041  11.452  1.00  0.00     0.039 A 
ATOM     35  C   UNL     1       4.250  -0.996  12.239  1.00  0.00     0.014 A 
ATOM     36  C   UNL     1       4.564   1.104  11.069  1.00  0.00     0.014 A 
ATOM     37  C   UNL     1       5.597  -0.979  12.602  1.00  0.00     0.010 A 
ATOM     38  C   UNL     1       5.924   1.035  11.291  1.00  0.00     0.010 A 
ATOM     39  C   UNL     1       6.445   0.027  12.110  1.00  0.00    -0.014 A 
BRANCH  39  40
ATOM     40  C   UNL     1       7.865   0.132  12.510  1.00  0.00     0.031 A 
ATOM     41  C   UNL     1       8.326   1.384  13.215  1.00  0.00     0.074 A 
ATOM     42  C   UNL     1       8.731  -0.841  12.175  1.00  0.00     0.049 A 
ATOM     43  N   UNL     1       9.532   1.736  13.572  1.00  0.00    -0.248 NA
ATOM     44  C   UNL     1       7.300   2.405  13.503  1.00  0.00     0.031 C 
ATOM     45  C   UNL     1       8.395  -2.065  11.442  1.00  0.00     0.029 A 
ATOM     46  N   UNL     1      10.074  -0.956  12.413  1.00  0.00    -0.354 N 
ATOM     47  C   UNL     1       9.409   3.025  14.079  1.00  0.00     0.074 A 
ATOM     48  C   UNL     1       8.036   3.429  13.897  1.00  0.00     0.031 C 
ATOM     49  C   UNL     1       9.491  -2.836  11.351  1.00  0.00     0.029 A 
ATOM     50  C   UNL     1      10.612  -2.142  11.973  1.00  0.00     0.049 A 
ATOM     51  H   UNL     1      10.605  -0.255  12.858  1.00  0.00     0.167 HD
ATOM     52  C   UNL     1      10.345   3.790  14.685  1.00  0.00     0.031 A 
ATOM     53  C   UNL     1      11.868  -2.613  12.081  1.00  0.00     0.031 A 
ATOM     54  C   UNL     1      11.693   3.346  14.901  1.00  0.00     0.049 A 
ATOM     55  C   UNL     1      12.892  -1.759  12.778  1.00  0.00     0.074 A 
ATOM     56  C   UNL     1      12.718   3.987  15.569  1.00  0.00     0.029 A 
ATOM     57  N   UNL     1      12.195   2.131  14.455  1.00  0.00    -0.354 N 
ATOM     58  N   UNL     1      12.745  -0.571  13.318  1.00  0.00    -0.248 NA
ATOM     59  C   UNL     1      14.246  -2.314  12.891  1.00  0.00     0.031 C 
ATOM     60  C   UNL     1      13.858   3.181  15.479  1.00  0.00     0.029 A 
ATOM     61  C   UNL     1      13.525   2.011  14.811  1.00  0.00     0.049 A 
ATOM     62  H   UNL     1      11.681   1.455  13.958  1.00  0.00     0.167 HD
ATOM     63  C   UNL     1      13.981  -0.248  13.864  1.00  0.00     0.074 A 
ATOM     64  C   UNL     1      14.857  -1.374  13.598  1.00  0.00     0.031 C 
ATOM     65  C   UNL     1      14.363   0.873  14.526  1.00  0.00     0.031 A 
BRANCH  52  66
ATOM     66  C   UNL     1       9.929   5.165  15.144  1.00  0.00    -0.014 A 
ATOM     67  C   UNL     1       8.964   5.341  16.155  1.00  0.00     0.010 A 
ATOM     68  C   UNL     1      10.492   6.303  14.539  1.00  0.00     0.010 A 
ATOM     69  C   UNL     1       8.518   6.620  16.499  1.00  0.00     0.020 A 
ATOM     70  C   UNL     1      10.078   7.587  14.907  1.00  0.00     0.020 A 
ATOM     71  C   UNL     1       9.073   7.736  15.866  1.00  0.00     0.054 A 
BRANCH  71  72
ATOM     72  S   UNL     1       8.470   9.383  16.324  1.00  0.00     0.124 S 
ATOM     73  O   UNL     1       7.149   9.404  15.700  1.00  0.00    -0.237 OA
ATOM     74  O   UNL     1       8.473   9.331  17.784  1.00  0.00    -0.237 OA
ATOM     75  O   UNL     1       9.451  10.289  15.733  1.00  0.00    -0.744 OA
ENDBRANCH  71  72
ENDBRANCH  52  66
BRANCH  53  76
ATOM     76  C   UNL     1      12.198  -3.975  11.579  1.00  0.00    -0.014 A 
ATOM     77  C   UNL     1      12.466  -5.015  12.488  1.00  0.00     0.010 A 
ATOM     78  C   UNL     1      12.208  -4.255  10.201  1.00  0.00     0.010 A 
ATOM     79  C   UNL     1      12.752  -6.304  12.029  1.00  0.00     0.020 A 
ATOM     80  C   UNL     1      12.466  -5.550   9.739  1.00  0.00     0.020 A 
ATOM     81  C   UNL     1      12.746  -6.565  10.656  1.00  0.00     0.054 A 
BRANCH  81  82
ATOM     82  S   UNL     1      13.062  -8.259  10.090  1.00  0.00     0.124 S 
ATOM     83  O   UNL     1      14.486  -8.413  10.371  1.00  0.00    -0.237 OA
ATOM     84  O   UNL     1      12.162  -9.044  10.931  1.00  0.00    -0.237 OA
ATOM     85  O   UNL     1      12.703  -8.219   8.674  1.00  0.00    -0.744 OA
ENDBRANCH  81  82
ENDBRANCH  53  76
BRANCH  65  86
ATOM     86  C   UNL     1      15.776   0.919  15.037  1.00  0.00    -0.014 A 
ATOM     87  C   UNL     1      16.862   1.072  14.158  1.00  0.00     0.010 A 
ATOM     88  C   UNL     1      16.009   0.873  16.423  1.00  0.00     0.010 A 
ATOM     89  C   UNL     1      18.163   1.145  14.658  1.00  0.00     0.020 A 
ATOM     90  C   UNL     1      17.305   0.980  16.928  1.00  0.00     0.020 A 
ATOM     91  C   UNL     1      18.376   1.101  16.040  1.00  0.00     0.054 A 
BRANCH  91  92
ATOM     92  S   UNL     1      20.071   1.247  16.664  1.00  0.00     0.124 S 
ATOM     93  O   UNL     1      20.637  -0.051  16.309  1.00  0.00    -0.237 OA
ATOM     94  O   UNL     1      20.590   2.387  15.912  1.00  0.00    -0.237 OA
ATOM     95  O   UNL     1      19.894   1.481  18.095  1.00  0.00    -0.744 OA
ENDBRANCH  91  92
ENDBRANCH  65  86
ENDBRANCH  39  40
ENDBRANCH  31  34
ENDBRANCH  29  30
ENDBRANCH  28  29
ENDBRANCH   1  28
TORSDOF 19
