REMARK SMILES O=C(CSc1nc2cnccc2n1CCC1CC1)NCCCCNC(=O)c1ccc(-c2c3nc(c(-c4ccc(S(=O)(=O)[O-])cc4)c4ccc([nH]4)c(-c4ccc(S(=O)(=O)[O-])cc4)c4nc(c(-c5ccc(S(=O)(=O)[O-])cc5)c5ccc2[nH]5)C=C4)C=C3)cc1
REMARK SMILES IDX 20 1 19 2 1 3 2 4 3 6 4 7 5 8 6 9 13 10 7 11 12 12 8 13
REMARK SMILES IDX 11 14 9 15 10 16 14 17 15 18 16 19 17 20 18 21 21 22 22 23
REMARK SMILES IDX 23 24 24 25 25 26 26 28 27 29 28 30 86 31 29 32 85 33 30 34
REMARK SMILES IDX 31 35 32 36 79 37 33 38 84 39 78 40 80 41 34 42 83 43 77 44
REMARK SMILES IDX 76 45 35 47 65 48 46 49 64 50 47 51 50 52 63 53 81 54 48 55
REMARK SMILES IDX 49 56 62 58 82 59 51 60 36 61 37 62 45 63 38 64 44 65 39 66
REMARK SMILES IDX 40 67 41 68 42 69 43 70 66 71 67 72 75 73 68 74 74 75 69 76
REMARK SMILES IDX 70 77 71 78 72 79 73 80 52 81 53 82 61 83 54 84 60 85 55 86
REMARK SMILES IDX 56 87 57 88 58 89 59 90
REMARK H PARENT 19 5 24 27 80 46 50 57
REMARK Flexibility Score: inf
ROOT
ATOM      1  C   UNL     1       1.965  -0.259   2.477  1.00  0.00     0.116 C 
ENDROOT
BRANCH   1   2
ATOM      2  N   UNL     1       2.464  -0.134   1.116  1.00  0.00    -0.355 N 
ATOM      3  O   UNL     1       0.388   0.278   0.236  1.00  0.00    -0.274 OA
ATOM      4  C   UNL     1       1.599   0.131   0.067  1.00  0.00     0.230 C 
ATOM      5  H   UNL     1       3.427  -0.238   0.939  1.00  0.00     0.163 HD
BRANCH   4   6
ATOM      6  C   UNL     1       2.194   0.061  -1.325  1.00  0.00     0.178 C 
BRANCH   6   7
ATOM      7  S   UNL     1       3.231   1.426  -1.873  1.00  0.00    -0.078 SA
BRANCH   7   8
ATOM      8  C   UNL     1       2.571   2.878  -1.207  1.00  0.00     0.169 A 
ATOM      9  N   UNL     1       1.336   3.004  -0.798  1.00  0.00    -0.221 NA
ATOM     10  N   UNL     1       3.272   4.068  -1.103  1.00  0.00    -0.319 N 
ATOM     11  C   UNL     1       1.175   4.333  -0.510  1.00  0.00     0.108 A 
ATOM     12  C   UNL     1       2.359   5.037  -0.726  1.00  0.00     0.072 A 
ATOM     13  C   UNL     1       0.037   5.028  -0.093  1.00  0.00     0.141 A 
ATOM     14  C   UNL     1       2.426   6.424  -0.571  1.00  0.00     0.049 A 
ATOM     15  N   UNL     1       0.071   6.380   0.050  1.00  0.00    -0.262 NA
ATOM     16  C   UNL     1       1.232   7.028  -0.196  1.00  0.00     0.113 A 
BRANCH  10  17
ATOM     17  C   UNL     1       4.673   4.332  -1.416  1.00  0.00     0.125 C 
BRANCH  17  18
ATOM     18  C   UNL     1       5.681   3.970  -0.294  1.00  0.00     0.025 C 
BRANCH  18  19
ATOM     19  C   UNL     1       5.750   2.483  -0.142  1.00  0.00    -0.009 C 
ATOM     20  C   UNL     1       6.642   1.804  -1.159  1.00  0.00     0.004 C 
ATOM     21  C   UNL     1       6.846   1.543   0.296  1.00  0.00     0.004 C 
ENDBRANCH  18  19
ENDBRANCH  17  18
ENDBRANCH  10  17
ENDBRANCH   7   8
ENDBRANCH   6   7
ENDBRANCH   4   6
ENDBRANCH   1   2
BRANCH   1  22
ATOM     22  C   UNL     1       2.545  -1.455   3.232  1.00  0.00     0.023 C 
BRANCH  22  23
ATOM     23  C   UNL     1       4.042  -1.382   3.548  1.00  0.00     0.023 C 
BRANCH  23  24
ATOM     24  C   UNL     1       4.514  -0.069   4.175  1.00  0.00     0.116 C 
BRANCH  24  25
ATOM     25  N   UNL     1       3.856   0.290   5.414  1.00  0.00    -0.352 N 
ATOM     26  C   UNL     1       4.067  -0.002   6.741  1.00  0.00     0.251 C 
ATOM     27  H   UNL     1       3.079   0.878   5.274  1.00  0.00     0.163 HD
ATOM     28  O   UNL     1       3.418   0.643   7.549  1.00  0.00    -0.269 OA
BRANCH  26  29
ATOM     29  C   UNL     1       4.961  -1.091   7.231  1.00  0.00     0.039 A 
ATOM     30  C   UNL     1       5.873  -1.803   6.455  1.00  0.00     0.014 A 
ATOM     31  C   UNL     1       4.790  -1.466   8.579  1.00  0.00     0.014 A 
ATOM     32  C   UNL     1       6.480  -2.949   6.952  1.00  0.00     0.010 A 
ATOM     33  C   UNL     1       5.422  -2.594   9.094  1.00  0.00     0.010 A 
ATOM     34  C   UNL     1       6.209  -3.374   8.252  1.00  0.00    -0.014 A 
BRANCH  34  35
ATOM     35  C   UNL     1       6.760  -4.664   8.659  1.00  0.00     0.031 A 
ATOM     36  C   UNL     1       8.246  -4.766   8.748  1.00  0.00     0.074 A 
ATOM     37  C   UNL     1       5.968  -5.696   9.008  1.00  0.00     0.049 A 
ATOM     38  N   UNL     1       9.044  -5.606   8.167  1.00  0.00    -0.248 NA
ATOM     39  C   UNL     1       8.934  -3.749   9.556  1.00  0.00     0.031 C 
ATOM     40  C   UNL     1       4.525  -5.674   9.273  1.00  0.00     0.029 A 
ATOM     41  N   UNL     1       6.323  -6.971   9.326  1.00  0.00    -0.354 N 
ATOM     42  C   UNL     1      10.327  -5.316   8.636  1.00  0.00     0.074 A 
ATOM     43  C   UNL     1      10.210  -4.106   9.411  1.00  0.00     0.031 C 
ATOM     44  C   UNL     1       4.184  -6.793   9.948  1.00  0.00     0.029 A 
ATOM     45  C   UNL     1       5.344  -7.665  10.020  1.00  0.00     0.049 A 
ATOM     46  H   UNL     1       7.194  -7.364   9.085  1.00  0.00     0.167 HD
ATOM     47  C   UNL     1      11.393  -6.149   8.471  1.00  0.00     0.031 A 
ATOM     48  C   UNL     1       5.509  -8.824  10.699  1.00  0.00     0.031 A 
ATOM     49  C   UNL     1      11.164  -7.135   7.455  1.00  0.00     0.049 A 
ATOM     50  C   UNL     1       6.740  -9.475  10.190  1.00  0.00     0.074 A 
ATOM     51  C   UNL     1      11.013  -7.104   6.085  1.00  0.00     0.029 A 
ATOM     52  N   UNL     1      10.767  -8.386   7.858  1.00  0.00    -0.354 N 
ATOM     53  N   UNL     1       6.875  -9.944   8.981  1.00  0.00    -0.248 NA
ATOM     54  C   UNL     1       7.979  -9.283  10.927  1.00  0.00     0.031 C 
ATOM     55  C   UNL     1      10.120  -8.171   5.786  1.00  0.00     0.029 A 
ATOM     56  C   UNL     1       9.793  -8.806   6.988  1.00  0.00     0.049 A 
ATOM     57  H   UNL     1      11.116  -8.888   8.629  1.00  0.00     0.167 HD
ATOM     58  C   UNL     1       8.210  -9.740   8.665  1.00  0.00     0.074 A 
ATOM     59  C   UNL     1       8.859  -9.445   9.937  1.00  0.00     0.031 C 
ATOM     60  C   UNL     1       8.617  -9.564   7.374  1.00  0.00     0.031 A 
BRANCH  47  61
ATOM     61  C   UNL     1      12.572  -6.231   9.412  1.00  0.00    -0.014 A 
ATOM     62  C   UNL     1      12.547  -5.696  10.715  1.00  0.00     0.010 A 
ATOM     63  C   UNL     1      13.659  -7.075   9.093  1.00  0.00     0.010 A 
ATOM     64  C   UNL     1      13.548  -5.971  11.650  1.00  0.00     0.020 A 
ATOM     65  C   UNL     1      14.645  -7.396  10.040  1.00  0.00     0.020 A 
ATOM     66  C   UNL     1      14.581  -6.838  11.315  1.00  0.00     0.054 A 
BRANCH  66  67
ATOM     67  S   UNL     1      15.759  -7.302  12.610  1.00  0.00     0.124 S 
ATOM     68  O   UNL     1      16.530  -6.073  12.770  1.00  0.00    -0.237 OA
ATOM     69  O   UNL     1      14.880  -7.644  13.725  1.00  0.00    -0.237 OA
ATOM     70  O   UNL     1      16.486  -8.427  12.025  1.00  0.00    -0.744 OA
ENDBRANCH  66  67
ENDBRANCH  47  61
BRANCH  48  71
ATOM     71  C   UNL     1       4.935  -9.137  12.031  1.00  0.00    -0.014 A 
ATOM     72  C   UNL     1       4.646  -8.091  12.933  1.00  0.00     0.010 A 
ATOM     73  C   UNL     1       4.950 -10.452  12.528  1.00  0.00     0.010 A 
ATOM     74  C   UNL     1       4.448  -8.336  14.293  1.00  0.00     0.020 A 
ATOM     75  C   UNL     1       4.756 -10.706  13.896  1.00  0.00     0.020 A 
ATOM     76  C   UNL     1       4.542  -9.640  14.773  1.00  0.00     0.054 A 
BRANCH  76  77
ATOM     77  S   UNL     1       4.475  -9.895  16.568  1.00  0.00     0.124 S 
ATOM     78  O   UNL     1       5.704  -9.242  17.012  1.00  0.00    -0.237 OA
ATOM     79  O   UNL     1       3.236  -9.214  16.937  1.00  0.00    -0.237 OA
ATOM     80  O   UNL     1       4.452 -11.348  16.712  1.00  0.00    -0.744 OA
ENDBRANCH  76  77
ENDBRANCH  48  71
BRANCH  60  81
ATOM     81  C   UNL     1       7.654  -9.878   6.249  1.00  0.00    -0.014 A 
ATOM     82  C   UNL     1       8.099 -10.734   5.224  1.00  0.00     0.010 A 
ATOM     83  C   UNL     1       6.455  -9.164   6.056  1.00  0.00     0.010 A 
ATOM     84  C   UNL     1       7.406 -10.825   4.014  1.00  0.00     0.020 A 
ATOM     85  C   UNL     1       5.742  -9.270   4.852  1.00  0.00     0.020 A 
ATOM     86  C   UNL     1       6.245 -10.072   3.825  1.00  0.00     0.054 A 
BRANCH  86  87
ATOM     87  S   UNL     1       5.445 -10.116   2.197  1.00  0.00     0.124 S 
ATOM     88  O   UNL     1       6.365  -9.328   1.380  1.00  0.00    -0.237 OA
ATOM     89  O   UNL     1       5.408 -11.545   1.891  1.00  0.00    -0.237 OA
ATOM     90  O   UNL     1       4.140  -9.501   2.427  1.00  0.00    -0.744 OA
ENDBRANCH  86  87
ENDBRANCH  60  81
ENDBRANCH  34  35
ENDBRANCH  26  29
ENDBRANCH  24  25
ENDBRANCH  23  24
ENDBRANCH  22  23
ENDBRANCH   1  22
TORSDOF 19
