REMARK SMILES COc1ccc(C(=O)C[C@H](C)CC(=O)NCCCCNC(=O)c2ccc(-c3c4nc(c(-c5ccc(S(=O)(=O)[O-])cc5)c5ccc([nH]5)c(-c5ccc(S(=O)(=O)[O-])cc5)c5nc(c(-c6ccc(S(=O)(=O)[O-])cc6)c6ccc3[nH]6)C=C5)C=C4)cc2)c(OC)c1
REMARK SMILES IDX 16 1 15 2 13 3 14 4 12 6 10 7 11 8 9 9 7 10 8 11 6 12 3 13
REMARK SMILES IDX 4 14 86 15 5 16 83 17 2 18 1 19 84 20 85 21 17 22 18 23
REMARK SMILES IDX 19 24 20 25 21 26 22 28 23 29 24 30 82 31 25 32 81 33 26 34
REMARK SMILES IDX 27 35 28 36 75 37 29 38 80 39 74 40 76 41 30 42 79 43 73 44
REMARK SMILES IDX 72 45 31 47 61 48 42 49 60 50 43 51 46 52 59 53 77 54 44 55
REMARK SMILES IDX 45 56 58 58 78 59 47 60 32 61 33 62 41 63 34 64 40 65 35 66
REMARK SMILES IDX 36 67 37 68 38 69 39 70 62 71 63 72 71 73 64 74 70 75 65 76
REMARK SMILES IDX 66 77 67 78 68 79 69 80 48 81 49 82 57 83 50 84 56 85 51 86
REMARK SMILES IDX 52 87 53 88 54 89 55 90
REMARK H PARENT 15 5 20 27 76 46 46 57
REMARK Flexibility Score: inf
ROOT
ATOM      1  C   UNL     1       4.141  -4.609  -7.716  1.00  0.00     0.116 C 
ENDROOT
BRANCH   1   2
ATOM      2  N   UNL     1       4.184  -3.455  -8.596  1.00  0.00    -0.356 N 
ATOM      3  C   UNL     1       4.385  -2.141  -8.278  1.00  0.00     0.220 C 
ATOM      4  O   UNL     1       4.316  -1.289  -9.162  1.00  0.00    -0.275 OA
ATOM      5  H   UNL     1       4.051  -3.646  -9.553  1.00  0.00     0.163 HD
BRANCH   3   6
ATOM      6  C   UNL     1       4.699  -1.768  -6.842  1.00  0.00     0.103 C 
BRANCH   6   7
ATOM      7  C   UNL     1       3.496  -1.330  -5.988  1.00  0.00     0.003 C 
ATOM      8  C   UNL     1       2.224  -2.152  -6.221  1.00  0.00     0.008 C 
BRANCH   7   9
ATOM      9  C   UNL     1       3.753  -1.297  -4.463  1.00  0.00     0.085 C 
BRANCH   9  10
ATOM     10  C   UNL     1       5.175  -1.051  -3.990  1.00  0.00     0.166 C 
ATOM     11  O   UNL     1       5.503   0.082  -3.626  1.00  0.00    -0.294 OA
BRANCH  10  12
ATOM     12  C   UNL     1       6.220  -2.136  -3.996  1.00  0.00     0.060 A 
ATOM     13  C   UNL     1       8.360  -3.930  -4.249  1.00  0.00     0.122 A 
ATOM     14  C   UNL     1       8.617  -2.572  -4.133  1.00  0.00     0.047 A 
ATOM     15  C   UNL     1       7.053  -4.411  -4.165  1.00  0.00     0.093 A 
ATOM     16  C   UNL     1       7.553  -1.680  -4.016  1.00  0.00     0.019 A 
ATOM     17  C   UNL     1       5.970  -3.525  -4.037  1.00  0.00     0.133 A 
BRANCH  13  18
ATOM     18  O   UNL     1       9.436  -4.764  -4.381  1.00  0.00    -0.497 OA
ATOM     19  C   UNL     1       9.373  -5.526  -5.589  1.00  0.00     0.278 C 
ENDBRANCH  13  18
BRANCH  17  20
ATOM     20  O   UNL     1       4.672  -3.952  -3.976  1.00  0.00    -0.496 OA
ATOM     21  C   UNL     1       4.412  -5.352  -3.940  1.00  0.00     0.278 C 
ENDBRANCH  17  20
ENDBRANCH  10  12
ENDBRANCH   9  10
ENDBRANCH   7   9
ENDBRANCH   6   7
ENDBRANCH   3   6
ENDBRANCH   1   2
BRANCH   1  22
ATOM     22  C   UNL     1       2.770  -5.281  -7.727  1.00  0.00     0.023 C 
BRANCH  22  23
ATOM     23  C   UNL     1       2.540  -6.216  -8.907  1.00  0.00     0.023 C 
BRANCH  23  24
ATOM     24  C   UNL     1       3.449  -7.437  -8.934  1.00  0.00     0.116 C 
BRANCH  24  25
ATOM     25  N   UNL     1       3.297  -8.294  -7.764  1.00  0.00    -0.352 N 
ATOM     26  C   UNL     1       3.133  -9.659  -7.717  1.00  0.00     0.251 C 
ATOM     27  H   UNL     1       3.313  -7.835  -6.893  1.00  0.00     0.163 HD
ATOM     28  O   UNL     1       2.907 -10.220  -6.649  1.00  0.00    -0.269 OA
BRANCH  26  29
ATOM     29  C   UNL     1       3.196 -10.429  -8.975  1.00  0.00     0.039 A 
ATOM     30  C   UNL     1       2.153 -11.302  -9.293  1.00  0.00     0.014 A 
ATOM     31  C   UNL     1       4.243 -10.216  -9.875  1.00  0.00     0.014 A 
ATOM     32  C   UNL     1       2.118 -11.896 -10.556  1.00  0.00     0.010 A 
ATOM     33  C   UNL     1       4.158 -10.737 -11.159  1.00  0.00     0.010 A 
ATOM     34  C   UNL     1       3.094 -11.581 -11.515  1.00  0.00    -0.014 A 
BRANCH  34  35
ATOM     35  C   UNL     1       3.030 -12.116 -12.899  1.00  0.00     0.031 A 
ATOM     36  C   UNL     1       4.142 -12.989 -13.415  1.00  0.00     0.074 A 
ATOM     37  C   UNL     1       2.023 -11.748 -13.716  1.00  0.00     0.049 A 
ATOM     38  N   UNL     1       4.324 -13.469 -14.617  1.00  0.00    -0.248 NA
ATOM     39  C   UNL     1       5.208 -13.338 -12.461  1.00  0.00     0.031 C 
ATOM     40  C   UNL     1       0.913 -10.861 -13.355  1.00  0.00     0.029 A 
ATOM     41  N   UNL     1       1.777 -12.066 -15.029  1.00  0.00    -0.354 N 
ATOM     42  C   UNL     1       5.536 -14.147 -14.573  1.00  0.00     0.074 A 
ATOM     43  C   UNL     1       6.069 -13.975 -13.240  1.00  0.00     0.031 C 
ATOM     44  C   UNL     1       0.091 -10.733 -14.410  1.00  0.00     0.029 A 
ATOM     45  C   UNL     1       0.632 -11.493 -15.531  1.00  0.00     0.049 A 
ATOM     46  H   UNL     1       2.364 -12.651 -15.560  1.00  0.00     0.167 HD
ATOM     47  C   UNL     1       6.141 -14.868 -15.546  1.00  0.00     0.031 A 
ATOM     48  C   UNL     1       0.081 -11.569 -16.758  1.00  0.00     0.031 A 
ATOM     49  C   UNL     1       5.593 -15.067 -16.860  1.00  0.00     0.049 A 
ATOM     50  C   UNL     1       0.755 -12.401 -17.814  1.00  0.00     0.074 A 
ATOM     51  C   UNL     1       6.096 -15.834 -17.895  1.00  0.00     0.029 A 
ATOM     52  N   UNL     1       4.412 -14.501 -17.315  1.00  0.00    -0.354 N 
ATOM     53  N   UNL     1       1.873 -13.084 -17.734  1.00  0.00    -0.248 NA
ATOM     54  C   UNL     1       0.088 -12.483 -19.121  1.00  0.00     0.031 C 
ATOM     55  C   UNL     1       5.235 -15.705 -18.991  1.00  0.00     0.029 A 
ATOM     56  C   UNL     1       4.174 -14.893 -18.621  1.00  0.00     0.049 A 
ATOM     57  H   UNL     1       3.829 -13.908 -16.788  1.00  0.00     0.167 HD
ATOM     58  C   UNL     1       2.030 -13.696 -18.973  1.00  0.00     0.074 A 
ATOM     59  C   UNL     1       0.888 -13.313 -19.778  1.00  0.00     0.031 C 
ATOM     60  C   UNL     1       3.030 -14.504 -19.404  1.00  0.00     0.031 A 
BRANCH  47  61
ATOM     61  C   UNL     1       7.467 -15.499 -15.213  1.00  0.00    -0.014 A 
ATOM     62  C   UNL     1       7.549 -16.582 -14.319  1.00  0.00     0.010 A 
ATOM     63  C   UNL     1       8.643 -15.013 -15.812  1.00  0.00     0.010 A 
ATOM     64  C   UNL     1       8.789 -17.133 -13.989  1.00  0.00     0.020 A 
ATOM     65  C   UNL     1       9.883 -15.582 -15.505  1.00  0.00     0.020 A 
ATOM     66  C   UNL     1       9.949 -16.624 -14.579  1.00  0.00     0.054 A 
BRANCH  66  67
ATOM     67  S   UNL     1      11.546 -17.362 -14.137  1.00  0.00     0.124 S 
ATOM     68  O   UNL     1      11.780 -16.796 -12.810  1.00  0.00    -0.237 OA
ATOM     69  O   UNL     1      11.259 -18.794 -14.165  1.00  0.00    -0.237 OA
ATOM     70  O   UNL     1      12.447 -16.889 -15.184  1.00  0.00    -0.744 OA
ENDBRANCH  66  67
ENDBRANCH  47  61
BRANCH  48  71
ATOM     71  C   UNL     1      -1.196 -10.861 -17.046  1.00  0.00    -0.014 A 
ATOM     72  C   UNL     1      -2.393 -11.586 -17.181  1.00  0.00     0.010 A 
ATOM     73  C   UNL     1      -1.225  -9.460 -17.169  1.00  0.00     0.010 A 
ATOM     74  C   UNL     1      -3.595 -10.925 -17.450  1.00  0.00     0.020 A 
ATOM     75  C   UNL     1      -2.430  -8.794 -17.416  1.00  0.00     0.020 A 
ATOM     76  C   UNL     1      -3.606  -9.532 -17.565  1.00  0.00     0.054 A 
BRANCH  76  77
ATOM     77  S   UNL     1      -5.186  -8.690 -17.858  1.00  0.00     0.124 S 
ATOM     78  O   UNL     1      -5.410  -8.951 -19.276  1.00  0.00    -0.237 OA
ATOM     79  O   UNL     1      -6.088  -9.377 -16.937  1.00  0.00    -0.237 OA
ATOM     80  O   UNL     1      -4.899  -7.299 -17.513  1.00  0.00    -0.744 OA
ENDBRANCH  76  77
ENDBRANCH  48  71
BRANCH  60  81
ATOM     81  C   UNL     1       2.919 -15.056 -20.798  1.00  0.00    -0.014 A 
ATOM     82  C   UNL     1       3.163 -14.246 -21.921  1.00  0.00     0.010 A 
ATOM     83  C   UNL     1       2.625 -16.419 -20.982  1.00  0.00     0.010 A 
ATOM     84  C   UNL     1       3.088 -14.786 -23.207  1.00  0.00     0.020 A 
ATOM     85  C   UNL     1       2.573 -16.967 -22.265  1.00  0.00     0.020 A 
ATOM     86  C   UNL     1       2.793 -16.144 -23.371  1.00  0.00     0.054 A 
BRANCH  86  87
ATOM     87  S   UNL     1       2.751 -16.834 -25.048  1.00  0.00     0.124 S 
ATOM     88  O   UNL     1       1.466 -16.350 -25.543  1.00  0.00    -0.237 OA
ATOM     89  O   UNL     1       3.930 -16.238 -25.672  1.00  0.00    -0.237 OA
ATOM     90  O   UNL     1       2.833 -18.277 -24.829  1.00  0.00    -0.744 OA
ENDBRANCH  86  87
ENDBRANCH  60  81
ENDBRANCH  34  35
ENDBRANCH  26  29
ENDBRANCH  24  25
ENDBRANCH  23  24
ENDBRANCH  22  23
ENDBRANCH   1  22
TORSDOF 20
