REMARK SMILES CCCN(CC(=O)NCCCCNC(=O)c1ccc(-c2c3nc(c(-c4ccc(S(=O)(=O)[O-])cc4)c4ccc([nH]4)c(-c4ccc(S(=O)(=O)[O-])cc4)c4nc(c(-c5ccc(S(=O)(=O)[O-])cc5)c5ccc2[nH]5)C=C4)C=C3)cc1)C(=O)C[C@@H]1CSCC[NH2+]1
REMARK SMILES IDX 10 1 9 2 8 3 6 4 7 5 5 7 4 8 3 9 2 10 1 11 76 12 77 13 78 14
REMARK SMILES IDX 79 15 80 16 84 17 81 18 83 19 82 22 11 23 12 24 13 25 14 26
REMARK SMILES IDX 15 28 16 29 17 30 75 31 18 32 74 33 19 34 20 35 21 36 68 37
REMARK SMILES IDX 22 38 73 39 67 40 69 41 23 42 72 43 66 44 65 45 24 47 54 48
REMARK SMILES IDX 35 49 53 50 36 51 39 52 52 53 70 54 37 55 38 56 51 58 71 59
REMARK SMILES IDX 40 60 25 61 26 62 34 63 27 64 33 65 28 66 29 67 30 68 31 69
REMARK SMILES IDX 32 70 55 71 56 72 64 73 57 74 63 75 58 76 59 77 60 78 61 79
REMARK SMILES IDX 62 80 41 81 42 82 50 83 43 84 49 85 44 86 45 87 46 88 47 89
REMARK SMILES IDX 48 90
REMARK H PARENT 8 6 84 20 84 21 13 27 69 46 39 57
REMARK Flexibility Score: inf
ROOT
ATOM      1  C   UNL     1       3.557  -2.878   3.520  1.00  0.00     0.023 C 
ENDROOT
BRANCH   1   2
ATOM      2  C   UNL     1       2.433  -3.880   3.767  1.00  0.00     0.116 C 
BRANCH   2   3
ATOM      3  N   UNL     1       1.492  -3.427   4.763  1.00  0.00    -0.355 N 
ATOM      4  C   UNL     1       0.252  -2.899   4.571  1.00  0.00     0.239 C 
ATOM      5  O   UNL     1      -0.480  -2.762   5.556  1.00  0.00    -0.273 OA
ATOM      6  H   UNL     1       1.784  -3.510   5.699  1.00  0.00     0.163 HD
BRANCH   4   7
ATOM      7  C   UNL     1      -0.253  -2.535   3.163  1.00  0.00     0.219 C 
BRANCH   7   8
ATOM      8  N   UNL     1       0.530  -1.517   2.442  1.00  0.00    -0.333 N 
BRANCH   8   9
ATOM      9  C   UNL     1       1.193  -1.929   1.194  1.00  0.00     0.120 C 
BRANCH   9  10
ATOM     10  C   UNL     1       0.504  -1.502  -0.109  1.00  0.00     0.018 C 
ATOM     11  C   UNL     1       0.881  -0.108  -0.586  1.00  0.00     0.006 C 
ENDBRANCH   9  10
ENDBRANCH   8   9
BRANCH   8  12
ATOM     12  C   UNL     1       0.657  -0.193   2.851  1.00  0.00     0.229 C 
ATOM     13  O   UNL     1       1.425   0.576   2.263  1.00  0.00    -0.275 OA
BRANCH  12  14
ATOM     14  C   UNL     1      -0.065   0.322   4.094  1.00  0.00     0.166 C 
BRANCH  14  15
ATOM     15  C   UNL     1      -1.441   1.017   3.983  1.00  0.00     0.201 C 
ATOM     16  C   UNL     1      -2.616   0.162   3.482  1.00  0.00     0.135 C 
ATOM     17  N   UNL     1      -1.436   2.373   3.399  1.00  0.00    -0.342 N 
ATOM     18  S   UNL     1      -2.636  -0.098   1.684  1.00  0.00    -0.150 SA
ATOM     19  C   UNL     1      -1.345   2.393   1.937  1.00  0.00     0.271 C 
ATOM     20  H   UNL     1      -0.637   2.882   3.777  1.00  0.00     0.346 HD
ATOM     21  H   UNL     1      -2.328   2.803   3.644  1.00  0.00     0.346 HD
ATOM     22  C   UNL     1      -2.446   1.639   1.184  1.00  0.00     0.131 C 
ENDBRANCH  14  15
ENDBRANCH  12  14
ENDBRANCH   8  12
ENDBRANCH   7   8
ENDBRANCH   4   7
ENDBRANCH   2   3
ENDBRANCH   1   2
BRANCH   1  23
ATOM     23  C   UNL     1       4.594  -2.784   4.639  1.00  0.00     0.023 C 
BRANCH  23  24
ATOM     24  C   UNL     1       5.176  -4.112   5.104  1.00  0.00     0.116 C 
BRANCH  24  25
ATOM     25  N   UNL     1       5.691  -4.935   4.019  1.00  0.00    -0.352 N 
ATOM     26  C   UNL     1       6.741  -5.820   4.049  1.00  0.00     0.251 C 
ATOM     27  H   UNL     1       5.228  -4.846   3.154  1.00  0.00     0.163 HD
ATOM     28  O   UNL     1       7.106  -6.387   3.024  1.00  0.00    -0.269 OA
BRANCH  26  29
ATOM     29  C   UNL     1       7.452  -6.039   5.324  1.00  0.00     0.039 A 
ATOM     30  C   UNL     1       8.839  -5.883   5.355  1.00  0.00     0.014 A 
ATOM     31  C   UNL     1       6.742  -6.329   6.492  1.00  0.00     0.014 A 
ATOM     32  C   UNL     1       9.509  -5.948   6.577  1.00  0.00     0.010 A 
ATOM     33  C   UNL     1       7.402  -6.323   7.715  1.00  0.00     0.010 A 
ATOM     34  C   UNL     1       8.791  -6.130   7.770  1.00  0.00    -0.014 A 
BRANCH  34  35
ATOM     35  C   UNL     1       9.472  -6.114   9.088  1.00  0.00     0.031 A 
ATOM     36  C   UNL     1       9.483  -7.351   9.943  1.00  0.00     0.074 A 
ATOM     37  C   UNL     1      10.016  -4.968   9.543  1.00  0.00     0.049 A 
ATOM     38  N   UNL     1       9.969  -7.516  11.146  1.00  0.00    -0.248 NA
ATOM     39  C   UNL     1       8.840  -8.552   9.384  1.00  0.00     0.031 C 
ATOM     40  C   UNL     1      10.026  -3.690   8.827  1.00  0.00     0.029 A 
ATOM     41  N   UNL     1      10.660  -4.692  10.723  1.00  0.00    -0.354 N 
ATOM     42  C   UNL     1       9.675  -8.828  11.495  1.00  0.00     0.074 A 
ATOM     43  C   UNL     1       8.926  -9.400  10.398  1.00  0.00     0.031 C 
ATOM     44  C   UNL     1      10.667  -2.774   9.571  1.00  0.00     0.029 A 
ATOM     45  C   UNL     1      11.080  -3.386  10.830  1.00  0.00     0.049 A 
ATOM     46  H   UNL     1      10.808  -5.364  11.426  1.00  0.00     0.167 HD
ATOM     47  C   UNL     1      10.014  -9.503  12.619  1.00  0.00     0.031 A 
ATOM     48  C   UNL     1      11.722  -2.753  11.830  1.00  0.00     0.031 A 
ATOM     49  C   UNL     1      10.772  -8.935  13.701  1.00  0.00     0.049 A 
ATOM     50  C   UNL     1      12.096  -3.525  13.065  1.00  0.00     0.074 A 
ATOM     51  C   UNL     1      11.218  -9.552  14.856  1.00  0.00     0.029 A 
ATOM     52  N   UNL     1      11.199  -7.617  13.761  1.00  0.00    -0.354 N 
ATOM     53  N   UNL     1      11.866  -4.785  13.348  1.00  0.00    -0.248 NA
ATOM     54  C   UNL     1      12.825  -2.794  14.110  1.00  0.00     0.031 C 
ATOM     55  C   UNL     1      11.877  -8.595  15.635  1.00  0.00     0.029 A 
ATOM     56  C   UNL     1      11.886  -7.396  14.941  1.00  0.00     0.049 A 
ATOM     57  H   UNL     1      11.036  -6.938  13.066  1.00  0.00     0.167 HD
ATOM     58  C   UNL     1      12.446  -5.004  14.593  1.00  0.00     0.074 A 
ATOM     59  C   UNL     1      13.048  -3.751  15.001  1.00  0.00     0.031 C 
ATOM     60  C   UNL     1      12.479  -6.141  15.331  1.00  0.00     0.031 A 
BRANCH  47  61
ATOM     61  C   UNL     1       9.560 -10.934  12.731  1.00  0.00    -0.014 A 
ATOM     62  C   UNL     1      10.123 -11.939  11.924  1.00  0.00     0.010 A 
ATOM     63  C   UNL     1       8.577 -11.285  13.674  1.00  0.00     0.010 A 
ATOM     64  C   UNL     1       9.680 -13.259  12.024  1.00  0.00     0.020 A 
ATOM     65  C   UNL     1       8.150 -12.610  13.798  1.00  0.00     0.020 A 
ATOM     66  C   UNL     1       8.691 -13.586  12.958  1.00  0.00     0.054 A 
BRANCH  66  67
ATOM     67  S   UNL     1       8.144 -15.311  13.077  1.00  0.00     0.124 S 
ATOM     68  O   UNL     1       7.325 -15.449  11.875  1.00  0.00    -0.237 OA
ATOM     69  O   UNL     1       9.404 -16.050  13.066  1.00  0.00    -0.237 OA
ATOM     70  O   UNL     1       7.410 -15.355  14.339  1.00  0.00    -0.744 OA
ENDBRANCH  66  67
ENDBRANCH  47  61
BRANCH  48  71
ATOM     71  C   UNL     1      12.071  -1.313  11.694  1.00  0.00    -0.014 A 
ATOM     72  C   UNL     1      13.407  -0.919  11.500  1.00  0.00     0.010 A 
ATOM     73  C   UNL     1      11.068  -0.328  11.740  1.00  0.00     0.010 A 
ATOM     74  C   UNL     1      13.736   0.434  11.372  1.00  0.00     0.020 A 
ATOM     75  C   UNL     1      11.389   1.024  11.587  1.00  0.00     0.020 A 
ATOM     76  C   UNL     1      12.724   1.397  11.415  1.00  0.00     0.054 A 
BRANCH  76  77
ATOM     77  S   UNL     1      13.166   3.143  11.193  1.00  0.00     0.124 S 
ATOM     78  O   UNL     1      13.766   3.470  12.483  1.00  0.00    -0.237 OA
ATOM     79  O   UNL     1      14.087   3.094  10.060  1.00  0.00    -0.237 OA
ATOM     80  O   UNL     1      11.884   3.786  10.916  1.00  0.00    -0.744 OA
ENDBRANCH  76  77
ENDBRANCH  48  71
BRANCH  60  81
ATOM     81  C   UNL     1      13.216  -6.094  16.642  1.00  0.00    -0.014 A 
ATOM     82  C   UNL     1      12.677  -5.427  17.756  1.00  0.00     0.010 A 
ATOM     83  C   UNL     1      14.439  -6.777  16.774  1.00  0.00     0.010 A 
ATOM     84  C   UNL     1      13.364  -5.420  18.973  1.00  0.00     0.020 A 
ATOM     85  C   UNL     1      15.115  -6.794  17.996  1.00  0.00     0.020 A 
ATOM     86  C   UNL     1      14.579  -6.103  19.085  1.00  0.00     0.054 A 
BRANCH  86  87
ATOM     87  S   UNL     1      15.428  -6.120  20.687  1.00  0.00     0.124 S 
ATOM     88  O   UNL     1      15.988  -4.772  20.748  1.00  0.00    -0.237 OA
ATOM     89  O   UNL     1      14.342  -6.392  21.625  1.00  0.00    -0.237 OA
ATOM     90  O   UNL     1      16.408  -7.195  20.549  1.00  0.00    -0.744 OA
ENDBRANCH  86  87
ENDBRANCH  60  81
ENDBRANCH  34  35
ENDBRANCH  26  29
ENDBRANCH  24  25
ENDBRANCH  23  24
ENDBRANCH   1  23
TORSDOF 20
