REMARK SMILES CCc1cc(C(=O)c2[nH]c3cc(Cl)ccc3c2CC(=O)NCCCCNC(=O)c2ccc(-c3c4nc(c(-c5ccc(S(=O)(=O)[O-])cc5)c5ccc([nH]5)c(-c5ccc(S(=O)(=O)[O-])cc5)c5nc(c(-c6ccc(S(=O)(=O)[O-])cc6)c6ccc3[nH]6)C=C5)C=C4)cc2)ncc1Cl
REMARK SMILES IDX 23 1 22 2 21 3 19 4 20 5 18 7 17 8 8 9 9 10 10 11 16 13
REMARK SMILES IDX 11 14 15 15 12 16 14 17 13 18 6 19 7 20 5 21 3 22 4 23 91 24
REMARK SMILES IDX 90 25 92 26 89 27 2 28 1 29 24 30 25 31 26 32 27 33 28 35
REMARK SMILES IDX 29 36 30 37 88 38 31 39 87 40 32 41 33 42 34 43 81 44 35 45
REMARK SMILES IDX 86 46 80 47 82 48 36 49 85 50 79 51 78 52 37 54 67 55 48 56
REMARK SMILES IDX 66 57 49 58 52 59 65 60 83 61 50 62 51 63 64 65 84 66 53 67
REMARK SMILES IDX 38 68 39 69 47 70 40 71 46 72 41 73 42 74 43 75 44 76 45 77
REMARK SMILES IDX 68 78 69 79 77 80 70 81 76 82 71 83 72 84 73 85 74 86 75 87
REMARK SMILES IDX 54 88 55 89 63 90 56 91 62 92 57 93 58 94 59 95 60 96 61 97
REMARK H PARENT 21 6 9 12 26 34 82 53 52 64
REMARK Flexibility Score: inf
ROOT
ATOM      1  C   UNL     1       3.202   1.803   7.969  1.00  0.00     0.023 C 
ENDROOT
BRANCH   1   2
ATOM      2  C   UNL     1       4.670   1.452   7.735  1.00  0.00     0.116 C 
BRANCH   2   3
ATOM      3  N   UNL     1       4.886   0.041   7.491  1.00  0.00    -0.356 N 
ATOM      4  C   UNL     1       5.095  -0.608   6.307  1.00  0.00     0.224 C 
ATOM      5  O   UNL     1       5.449  -1.790   6.341  1.00  0.00    -0.275 OA
ATOM      6  H   UNL     1       4.882  -0.532   8.292  1.00  0.00     0.163 HD
BRANCH   4   7
ATOM      7  C   UNL     1       5.021   0.137   4.984  1.00  0.00     0.138 C 
BRANCH   7   8
ATOM      8  C   UNL     1       3.683   0.735   4.648  1.00  0.00    -0.002 A 
ATOM      9  C   UNL     1       2.465   0.072   4.512  1.00  0.00     0.093 A 
ATOM     10  N   UNL     1       1.502   1.027   4.277  1.00  0.00    -0.351 N 
ATOM     11  C   UNL     1       2.071   2.267   4.125  1.00  0.00     0.048 A 
ATOM     12  H   UNL     1       0.536   0.845   4.226  1.00  0.00     0.167 HD
ATOM     13  C   UNL     1       3.439   2.119   4.343  1.00  0.00     0.004 A 
ATOM     14  C   UNL     1       1.474   3.500   3.833  1.00  0.00     0.047 A 
ATOM     15  C   UNL     1       4.258   3.265   4.255  1.00  0.00     0.012 A 
ATOM     16  C   UNL     1       2.312   4.615   3.752  1.00  0.00     0.043 A 
ATOM     17  C   UNL     1       3.683   4.507   3.958  1.00  0.00     0.021 A 
ATOM     18  Cl  UNL     1       1.628   6.154   3.385  1.00  0.00    -0.084 Cl
BRANCH   9  19
ATOM     19  C   UNL     1       2.156  -1.340   4.667  1.00  0.00     0.227 C 
ATOM     20  O   UNL     1       2.352  -1.924   5.726  1.00  0.00    -0.285 OA
BRANCH  19  21
ATOM     21  C   UNL     1       1.546  -2.073   3.493  1.00  0.00     0.113 A 
ATOM     22  C   UNL     1       0.907  -2.221   1.153  1.00  0.00    -0.026 A 
ATOM     23  C   UNL     1       1.520  -1.522   2.208  1.00  0.00     0.037 A 
ATOM     24  C   UNL     1       0.394  -3.496   1.437  1.00  0.00     0.062 A 
ATOM     25  C   UNL     1       0.476  -3.977   2.738  1.00  0.00     0.132 A 
ATOM     26  Cl  UNL     1      -0.328  -4.496   0.231  1.00  0.00    -0.082 Cl
ATOM     27  N   UNL     1       1.022  -3.292   3.767  1.00  0.00    -0.251 NA
BRANCH  22  28
ATOM     28  C   UNL     1       0.824  -1.647  -0.248  1.00  0.00     0.034 C 
ATOM     29  C   UNL     1       1.118  -0.158  -0.401  1.00  0.00     0.009 C 
ENDBRANCH  22  28
ENDBRANCH  19  21
ENDBRANCH   9  19
ENDBRANCH   7   8
ENDBRANCH   4   7
ENDBRANCH   2   3
ENDBRANCH   1   2
BRANCH   1  30
ATOM     30  C   UNL     1       2.597   1.290   9.280  1.00  0.00     0.023 C 
BRANCH  30  31
ATOM     31  C   UNL     1       3.325   1.692  10.562  1.00  0.00     0.116 C 
BRANCH  31  32
ATOM     32  N   UNL     1       3.542   3.124  10.671  1.00  0.00    -0.352 N 
ATOM     33  C   UNL     1       3.578   3.929  11.782  1.00  0.00     0.251 C 
ATOM     34  H   UNL     1       3.687   3.589   9.816  1.00  0.00     0.163 HD
ATOM     35  O   UNL     1       3.695   5.144  11.631  1.00  0.00    -0.269 OA
BRANCH  33  36
ATOM     36  C   UNL     1       3.443   3.368  13.146  1.00  0.00     0.039 A 
ATOM     37  C   UNL     1       2.644   4.061  14.064  1.00  0.00     0.014 A 
ATOM     38  C   UNL     1       4.122   2.214  13.549  1.00  0.00     0.014 A 
ATOM     39  C   UNL     1       2.481   3.572  15.362  1.00  0.00     0.010 A 
ATOM     40  C   UNL     1       3.937   1.710  14.839  1.00  0.00     0.010 A 
ATOM     41  C   UNL     1       3.112   2.383  15.752  1.00  0.00    -0.014 A 
BRANCH  41  42
ATOM     42  C   UNL     1       2.908   1.830  17.111  1.00  0.00     0.031 A 
ATOM     43  C   UNL     1       3.989   1.934  18.145  1.00  0.00     0.074 A 
ATOM     44  C   UNL     1       1.758   1.196  17.403  1.00  0.00     0.049 A 
ATOM     45  N   UNL     1       4.019   1.435  19.355  1.00  0.00    -0.248 NA
ATOM     46  C   UNL     1       5.197   2.680  17.766  1.00  0.00     0.031 C 
ATOM     47  C   UNL     1       0.639   1.003  16.479  1.00  0.00     0.029 A 
ATOM     48  N   UNL     1       1.346   0.592  18.562  1.00  0.00    -0.354 N 
ATOM     49  C   UNL     1       5.264   1.770  19.869  1.00  0.00     0.074 A 
ATOM     50  C   UNL     1       5.953   2.531  18.845  1.00  0.00     0.031 C 
ATOM     51  C   UNL     1      -0.339   0.335  17.113  1.00  0.00     0.029 A 
ATOM     52  C   UNL     1       0.090   0.045  18.479  1.00  0.00     0.049 A 
ATOM     53  H   UNL     1       1.897   0.554  19.377  1.00  0.00     0.167 HD
ATOM     54  C   UNL     1       5.794   1.462  21.077  1.00  0.00     0.031 A 
ATOM     55  C   UNL     1      -0.637  -0.618  19.397  1.00  0.00     0.031 A 
ATOM     56  C   UNL     1       5.110   0.737  22.112  1.00  0.00     0.049 A 
ATOM     57  C   UNL     1      -0.073  -0.854  20.765  1.00  0.00     0.074 A 
ATOM     58  C   UNL     1       5.571   0.374  23.366  1.00  0.00     0.029 A 
ATOM     59  N   UNL     1       3.806   0.279  22.018  1.00  0.00    -0.354 N 
ATOM     60  N   UNL     1       1.114  -0.543  21.227  1.00  0.00    -0.248 NA
ATOM     61  C   UNL     1      -0.948  -1.525  21.736  1.00  0.00     0.031 C 
ATOM     62  C   UNL     1       4.537  -0.296  24.036  1.00  0.00     0.029 A 
ATOM     63  C   UNL     1       3.436  -0.347  23.196  1.00  0.00     0.049 A 
ATOM     64  H   UNL     1       3.227   0.383  21.229  1.00  0.00     0.167 HD
ATOM     65  C   UNL     1       1.131  -0.984  22.544  1.00  0.00     0.074 A 
ATOM     66  C   UNL     1      -0.167  -1.572  22.808  1.00  0.00     0.031 C 
ATOM     67  C   UNL     1       2.138  -0.914  23.448  1.00  0.00     0.031 A 
BRANCH  54  68
ATOM     68  C   UNL     1       7.207   1.907  21.313  1.00  0.00    -0.014 A 
ATOM     69  C   UNL     1       7.481   3.197  21.798  1.00  0.00     0.010 A 
ATOM     70  C   UNL     1       8.271   1.043  20.999  1.00  0.00     0.010 A 
ATOM     71  C   UNL     1       8.802   3.636  21.922  1.00  0.00     0.020 A 
ATOM     72  C   UNL     1       9.592   1.477  21.125  1.00  0.00     0.020 A 
ATOM     73  C   UNL     1       9.848   2.780  21.563  1.00  0.00     0.054 A 
BRANCH  73  74
ATOM     74  S   UNL     1      11.566   3.354  21.675  1.00  0.00     0.124 S 
ATOM     75  O   UNL     1      11.822   3.795  20.306  1.00  0.00    -0.237 OA
ATOM     76  O   UNL     1      11.504   4.419  22.673  1.00  0.00    -0.237 OA
ATOM     77  O   UNL     1      12.289   2.156  22.094  1.00  0.00    -0.744 OA
ENDBRANCH  73  74
ENDBRANCH  54  68
BRANCH  55  78
ATOM     78  C   UNL     1      -1.995  -1.090  19.038  1.00  0.00    -0.014 A 
ATOM     79  C   UNL     1      -3.109  -0.264  19.265  1.00  0.00     0.010 A 
ATOM     80  C   UNL     1      -2.169  -2.333  18.408  1.00  0.00     0.010 A 
ATOM     81  C   UNL     1      -4.381  -0.670  18.857  1.00  0.00     0.020 A 
ATOM     82  C   UNL     1      -3.440  -2.739  17.994  1.00  0.00     0.020 A 
ATOM     83  C   UNL     1      -4.539  -1.905  18.221  1.00  0.00     0.054 A 
BRANCH  83  84
ATOM     84  S   UNL     1      -6.171  -2.396  17.599  1.00  0.00     0.124 S 
ATOM     85  O   UNL     1      -6.680  -3.215  18.694  1.00  0.00    -0.237 OA
ATOM     86  O   UNL     1      -6.851  -1.118  17.398  1.00  0.00    -0.237 OA
ATOM     87  O   UNL     1      -5.848  -3.116  16.369  1.00  0.00    -0.744 OA
ENDBRANCH  83  84
ENDBRANCH  55  78
BRANCH  67  88
ATOM     88  C   UNL     1       1.863  -1.482  24.808  1.00  0.00    -0.014 A 
ATOM     89  C   UNL     1       2.100  -2.842  25.071  1.00  0.00     0.010 A 
ATOM     90  C   UNL     1       1.376  -0.653  25.833  1.00  0.00     0.010 A 
ATOM     91  C   UNL     1       1.834  -3.372  26.336  1.00  0.00     0.020 A 
ATOM     92  C   UNL     1       1.111  -1.180  27.099  1.00  0.00     0.020 A 
ATOM     93  C   UNL     1       1.330  -2.539  27.339  1.00  0.00     0.054 A 
BRANCH  93  94
ATOM     94  S   UNL     1       1.004  -3.216  28.991  1.00  0.00     0.124 S 
ATOM     95  O   UNL     1      -0.409  -3.570  28.899  1.00  0.00    -0.237 OA
ATOM     96  O   UNL     1       1.928  -4.344  29.082  1.00  0.00    -0.237 OA
ATOM     97  O   UNL     1       1.313  -2.096  29.877  1.00  0.00    -0.744 OA
ENDBRANCH  93  94
ENDBRANCH  67  88
ENDBRANCH  41  42
ENDBRANCH  33  36
ENDBRANCH  31  32
ENDBRANCH  30  31
ENDBRANCH   1  30
TORSDOF 18
