REMARK SMILES O=C(NCCCCNC(=O)c1ccc([C@H]2CCC[N@@H+](CCN3CCCC3=O)C2)cc1)c1ccc(-c2c3nc(c(-c4ccc(S(=O)(=O)[O-])cc4)c4ccc([nH]4)c(-c4ccc(S(=O)(=O)[O-])cc4)c4nc(c(-c5ccc(S(=O)(=O)[O-])cc5)c5ccc2[nH]5)C=C4)C=C3)cc1
REMARK SMILES IDX 6 1 5 2 4 3 3 4 1 5 2 6 31 8 32 9 90 10 33 11 89 12 34 13
REMARK SMILES IDX 35 14 36 15 83 16 37 17 88 18 82 19 84 20 38 21 87 22 81 23
REMARK SMILES IDX 80 24 39 26 69 27 50 28 68 29 51 30 54 31 67 32 85 33 52 34
REMARK SMILES IDX 53 35 66 37 86 38 55 39 40 40 41 41 49 42 42 43 48 44 43 45
REMARK SMILES IDX 44 46 45 47 46 48 47 49 70 50 71 51 79 52 72 53 78 54 73 55
REMARK SMILES IDX 74 56 75 57 76 58 77 59 56 60 57 61 65 62 58 63 64 64 59 65
REMARK SMILES IDX 60 66 61 67 62 68 63 69 7 70 8 71 9 72 10 74 11 75 12 76
REMARK SMILES IDX 30 77 13 78 29 79 14 80 15 81 16 82 28 83 17 84 19 85 18 86
REMARK SMILES IDX 20 88 21 89 22 90 23 91 26 92 24 93 25 94 27 95
REMARK H PARENT 3 7 84 25 54 36 8 73 19 87
REMARK Flexibility Score: inf
ROOT
ATOM      1  C   UNL     1       5.708  13.358  11.201  1.00  0.00     0.023 C 
ENDROOT
BRANCH   1   2
ATOM      2  C   UNL     1       6.067  14.786  11.617  1.00  0.00     0.023 C 
BRANCH   2   3
ATOM      3  C   UNL     1       5.169  15.876  11.045  1.00  0.00     0.116 C 
BRANCH   3   4
ATOM      4  N   UNL     1       3.834  15.866  11.623  1.00  0.00    -0.352 N 
ATOM      5  O   UNL     1       2.100  16.613  12.853  1.00  0.00    -0.269 OA
ATOM      6  C   UNL     1       3.171  16.861  12.305  1.00  0.00     0.251 C 
ATOM      7  H   UNL     1       3.332  15.026  11.511  1.00  0.00     0.163 HD
BRANCH   6   8
ATOM      8  C   UNL     1       3.750  18.223  12.391  1.00  0.00     0.039 A 
ATOM      9  C   UNL     1       4.299  18.838  11.264  1.00  0.00     0.014 A 
ATOM     10  C   UNL     1       3.712  18.909  13.609  1.00  0.00     0.014 A 
ATOM     11  C   UNL     1       4.915  20.081  11.380  1.00  0.00     0.010 A 
ATOM     12  C   UNL     1       4.257  20.195  13.705  1.00  0.00     0.010 A 
ATOM     13  C   UNL     1       4.874  20.788  12.593  1.00  0.00    -0.014 A 
BRANCH  13  14
ATOM     14  C   UNL     1       5.357  22.193  12.631  1.00  0.00     0.031 A 
ATOM     15  C   UNL     1       6.539  22.602  13.466  1.00  0.00     0.074 A 
ATOM     16  C   UNL     1       4.700  23.108  11.889  1.00  0.00     0.049 A 
ATOM     17  N   UNL     1       7.071  23.791  13.600  1.00  0.00    -0.248 NA
ATOM     18  C   UNL     1       7.210  21.555  14.253  1.00  0.00     0.031 C 
ATOM     19  C   UNL     1       3.527  22.828  11.052  1.00  0.00     0.029 A 
ATOM     20  N   UNL     1       4.917  24.450  11.709  1.00  0.00    -0.354 N 
ATOM     21  C   UNL     1       8.121  23.644  14.499  1.00  0.00     0.074 A 
ATOM     22  C   UNL     1       8.148  22.250  14.887  1.00  0.00     0.031 C 
ATOM     23  C   UNL     1       3.149  23.953  10.429  1.00  0.00     0.029 A 
ATOM     24  C   UNL     1       4.001  25.048  10.874  1.00  0.00     0.049 A 
ATOM     25  H   UNL     1       5.657  24.939  12.137  1.00  0.00     0.167 HD
ATOM     26  C   UNL     1       8.976  24.590  14.957  1.00  0.00     0.031 A 
ATOM     27  C   UNL     1       3.834  26.339  10.531  1.00  0.00     0.031 A 
ATOM     28  C   UNL     1       8.943  25.975  14.557  1.00  0.00     0.049 A 
ATOM     29  C   UNL     1       4.774  27.366  11.093  1.00  0.00     0.074 A 
ATOM     30  C   UNL     1       9.814  26.990  14.915  1.00  0.00     0.029 A 
ATOM     31  N   UNL     1       7.985  26.544  13.733  1.00  0.00    -0.354 N 
ATOM     32  N   UNL     1       5.814  27.189  11.872  1.00  0.00    -0.248 NA
ATOM     33  C   UNL     1       4.518  28.767  10.734  1.00  0.00     0.031 C 
ATOM     34  C   UNL     1       9.340  28.187  14.370  1.00  0.00     0.029 A 
ATOM     35  C   UNL     1       8.213  27.906  13.615  1.00  0.00     0.049 A 
ATOM     36  H   UNL     1       7.251  26.054  13.297  1.00  0.00     0.167 HD
ATOM     37  C   UNL     1       6.339  28.456  12.091  1.00  0.00     0.074 A 
ATOM     38  C   UNL     1       5.527  29.384  11.333  1.00  0.00     0.031 C 
ATOM     39  C   UNL     1       7.393  28.819  12.861  1.00  0.00     0.031 A 
BRANCH  26  40
ATOM     40  C   UNL     1      10.019  24.191  15.971  1.00  0.00    -0.014 A 
ATOM     41  C   UNL     1      11.155  23.452  15.601  1.00  0.00     0.010 A 
ATOM     42  C   UNL     1       9.921  24.681  17.288  1.00  0.00     0.010 A 
ATOM     43  C   UNL     1      12.172  23.207  16.530  1.00  0.00     0.020 A 
ATOM     44  C   UNL     1      10.945  24.457  18.213  1.00  0.00     0.020 A 
ATOM     45  C   UNL     1      12.064  23.717  17.828  1.00  0.00     0.054 A 
BRANCH  45  46
ATOM     46  S   UNL     1      13.436  23.450  18.986  1.00  0.00     0.124 S 
ATOM     47  O   UNL     1      13.332  22.017  19.251  1.00  0.00    -0.237 OA
ATOM     48  O   UNL     1      14.599  23.861  18.203  1.00  0.00    -0.237 OA
ATOM     49  O   UNL     1      13.111  24.316  20.117  1.00  0.00    -0.744 OA
ENDBRANCH  45  46
ENDBRANCH  26  40
BRANCH  27  50
ATOM     50  C   UNL     1       2.689  26.739   9.668  1.00  0.00    -0.014 A 
ATOM     51  C   UNL     1       2.901  27.278   8.387  1.00  0.00     0.010 A 
ATOM     52  C   UNL     1       1.370  26.600  10.141  1.00  0.00     0.010 A 
ATOM     53  C   UNL     1       1.817  27.704   7.613  1.00  0.00     0.020 A 
ATOM     54  C   UNL     1       0.284  26.989   9.355  1.00  0.00     0.020 A 
ATOM     55  C   UNL     1       0.516  27.559   8.104  1.00  0.00     0.054 A 
BRANCH  55  56
ATOM     56  S   UNL     1      -0.875  28.111   7.081  1.00  0.00     0.124 S 
ATOM     57  O   UNL     1      -0.776  29.563   7.194  1.00  0.00    -0.237 OA
ATOM     58  O   UNL     1      -0.545  27.553   5.772  1.00  0.00    -0.237 OA
ATOM     59  O   UNL     1      -2.037  27.509   7.731  1.00  0.00    -0.744 OA
ENDBRANCH  55  56
ENDBRANCH  27  50
BRANCH  39  60
ATOM     60  C   UNL     1       7.733  30.284  12.917  1.00  0.00    -0.014 A 
ATOM     61  C   UNL     1       6.909  31.191  13.608  1.00  0.00     0.010 A 
ATOM     62  C   UNL     1       8.916  30.751  12.317  1.00  0.00     0.010 A 
ATOM     63  C   UNL     1       7.250  32.544  13.676  1.00  0.00     0.020 A 
ATOM     64  C   UNL     1       9.277  32.098  12.411  1.00  0.00     0.020 A 
ATOM     65  C   UNL     1       8.434  32.988  13.081  1.00  0.00     0.054 A 
BRANCH  65  66
ATOM     66  S   UNL     1       8.881  34.738  13.234  1.00  0.00     0.124 S 
ATOM     67  O   UNL     1       7.911  35.379  12.350  1.00  0.00    -0.237 OA
ATOM     68  O   UNL     1       8.695  34.992  14.661  1.00  0.00    -0.237 OA
ATOM     69  O   UNL     1      10.267  34.785  12.775  1.00  0.00    -0.744 OA
ENDBRANCH  65  66
ENDBRANCH  39  60
ENDBRANCH  13  14
ENDBRANCH   6   8
ENDBRANCH   3   4
ENDBRANCH   2   3
ENDBRANCH   1   2
BRANCH   1  70
ATOM     70  C   UNL     1       5.784  13.070   9.698  1.00  0.00     0.116 C 
BRANCH  70  71
ATOM     71  N   UNL     1       7.120  13.270   9.153  1.00  0.00    -0.352 N 
ATOM     72  C   UNL     1       7.901  12.397   8.434  1.00  0.00     0.251 C 
ATOM     73  H   UNL     1       7.519  14.153   9.324  1.00  0.00     0.163 HD
ATOM     74  O   UNL     1       9.063  12.670   8.153  1.00  0.00    -0.269 OA
BRANCH  72  75
ATOM     75  C   UNL     1       7.328  11.113   7.997  1.00  0.00     0.039 A 
ATOM     76  C   UNL     1       7.818   9.922   8.526  1.00  0.00     0.014 A 
ATOM     77  C   UNL     1       6.291  11.095   7.070  1.00  0.00     0.014 A 
ATOM     78  C   UNL     1       7.156   8.723   8.245  1.00  0.00     0.005 A 
ATOM     79  C   UNL     1       5.646   9.890   6.782  1.00  0.00     0.005 A 
ATOM     80  C   UNL     1       5.993   8.700   7.450  1.00  0.00    -0.039 A 
BRANCH  80  81
ATOM     81  C   UNL     1       5.095   7.442   7.404  1.00  0.00     0.074 C 
ATOM     82  C   UNL     1       5.024   6.785   8.800  1.00  0.00     0.020 C 
ATOM     83  C   UNL     1       3.662   7.745   6.860  1.00  0.00     0.270 C 
ATOM     84  C   UNL     1       3.933   5.733   8.890  1.00  0.00     0.062 C 
ATOM     85  N   UNL     1       2.528   6.886   7.227  1.00  0.00    -0.333 N 
ATOM     86  C   UNL     1       2.586   6.368   8.592  1.00  0.00     0.262 C 
ATOM     87  H   UNL     1       2.604   6.065   6.627  1.00  0.00     0.348 HD
BRANCH  85  88
ATOM     88  C   UNL     1       1.229   7.554   6.949  1.00  0.00     0.284 C 
BRANCH  88  89
ATOM     89  C   UNL     1       0.636   8.625   7.925  1.00  0.00     0.180 C 
BRANCH  89  90
ATOM     90  N   UNL     1       1.220   9.962   7.857  1.00  0.00    -0.337 N 
ATOM     91  C   UNL     1       0.462  11.100   7.405  1.00  0.00     0.120 C 
ATOM     92  C   UNL     1       2.344  10.377   8.559  1.00  0.00     0.222 C 
ATOM     93  C   UNL     1       1.497  12.192   7.238  1.00  0.00     0.031 C 
ATOM     94  C   UNL     1       2.609  11.821   8.209  1.00  0.00     0.102 C 
ATOM     95  O   UNL     1       3.018   9.716   9.329  1.00  0.00    -0.275 OA
ENDBRANCH  89  90
ENDBRANCH  88  89
ENDBRANCH  85  88
ENDBRANCH  80  81
ENDBRANCH  72  75
ENDBRANCH  70  71
ENDBRANCH   1  70
TORSDOF 18
