REMARK SMILES Cc1ccc([N+](=O)[O-])c(N[C@H]2[C@@H]3CC[C@@H](C3)[C@@H]2C(=O)NCCCCNC(=O)c2ccc(-c3c4nc(c(-c5ccc(S(=O)(=O)[O-])cc5)c5ccc([nH]5)c(-c5ccc(S(=O)(=O)[O-])cc5)c5nc(c(-c6ccc(S(=O)(=O)[O-])cc6)c6ccc3[nH]6)C=C5)C=C4)cc2)c1
REMARK SMILES IDX 22 1 21 2 20 3 18 4 19 5 17 7 11 8 12 9 13 10 16 11 15 12
REMARK SMILES IDX 14 13 10 14 9 16 1 17 2 18 3 19 88 20 4 21 5 22 6 23 7 24
REMARK SMILES IDX 8 25 23 26 24 27 25 28 26 29 27 31 28 32 29 33 87 34 30 35
REMARK SMILES IDX 86 36 31 37 32 38 33 39 80 40 34 41 85 42 79 43 81 44 35 45
REMARK SMILES IDX 84 46 78 47 77 48 36 50 66 51 47 52 65 53 48 54 51 55 64 56
REMARK SMILES IDX 82 57 49 58 50 59 63 61 83 62 52 63 37 64 38 65 46 66 39 67
REMARK SMILES IDX 45 68 40 69 41 70 42 71 43 72 44 73 67 74 68 75 76 76 69 77
REMARK SMILES IDX 75 78 70 79 71 80 72 81 73 82 74 83 53 84 54 85 62 86 55 87
REMARK SMILES IDX 61 88 56 89 57 90 58 91 59 92 60 93
REMARK H PARENT 20 6 10 15 25 30 81 49 51 60
REMARK Flexibility Score: inf
ROOT
ATOM      1  C   UNL     1      -6.613   4.996  -0.622  1.00  0.00     0.023 C 
ENDROOT
BRANCH   1   2
ATOM      2  C   UNL     1      -5.286   4.780   0.130  1.00  0.00     0.116 C 
BRANCH   2   3
ATOM      3  N   UNL     1      -5.401   3.919   1.309  1.00  0.00    -0.356 N 
ATOM      4  C   UNL     1      -5.006   2.686   1.702  1.00  0.00     0.225 C 
ATOM      5  O   UNL     1      -5.337   2.402   2.866  1.00  0.00    -0.275 OA
ATOM      6  H   UNL     1      -5.912   4.367   2.021  1.00  0.00     0.163 HD
BRANCH   4   7
ATOM      7  C   UNL     1      -4.308   1.593   0.882  1.00  0.00     0.104 C 
ATOM      8  C   UNL     1      -3.287   1.949  -0.192  1.00  0.00     0.095 C 
ATOM      9  C   UNL     1      -3.834   1.236  -1.456  1.00  0.00     0.012 C 
ATOM     10  C   UNL     1      -5.181   1.874  -1.893  1.00  0.00     0.006 C 
ATOM     11  C   UNL     1      -4.375  -0.069  -0.896  1.00  0.00     0.010 C 
ATOM     12  C   UNL     1      -5.269   0.623   0.140  1.00  0.00     0.004 C 
ATOM     13  C   UNL     1      -6.175   1.397  -0.813  1.00  0.00     0.005 C 
BRANCH   8  14
ATOM     14  N   UNL     1      -1.879   1.661   0.169  1.00  0.00    -0.376 N 
ATOM     15  H   UNL     1      -1.414   2.490   0.428  1.00  0.00     0.161 HD
BRANCH  14  16
ATOM     16  C   UNL     1      -1.024   0.582   0.250  1.00  0.00     0.114 A 
ATOM     17  C   UNL     1       2.745   0.251  -0.534  1.00  0.00     0.044 C 
ATOM     18  C   UNL     1       1.324  -0.126  -0.227  1.00  0.00    -0.049 A 
ATOM     19  C   UNL     1       1.010  -1.452   0.045  1.00  0.00     0.010 A 
ATOM     20  C   UNL     1       0.306   0.848  -0.171  1.00  0.00     0.036 A 
ATOM     21  C   UNL     1      -0.266  -1.764   0.491  1.00  0.00     0.088 A 
ATOM     22  C   UNL     1      -1.239  -0.748   0.648  1.00  0.00     0.292 A 
BRANCH  22  23
ATOM     23  N   UNL     1      -2.307  -1.139   1.556  1.00  0.00     0.064 N 
ATOM     24  O   UNL     1      -2.998  -2.120   1.233  1.00  0.00    -0.258 OA
ATOM     25  O   UNL     1      -2.350  -0.578   2.659  1.00  0.00    -0.258 OA
ENDBRANCH  22  23
ENDBRANCH  14  16
ENDBRANCH   8  14
ENDBRANCH   4   7
ENDBRANCH   2   3
ENDBRANCH   1   2
BRANCH   1  26
ATOM     26  C   UNL     1      -7.715   5.684   0.183  1.00  0.00     0.023 C 
BRANCH  26  27
ATOM     27  C   UNL     1      -7.469   7.174   0.341  1.00  0.00     0.116 C 
BRANCH  27  28
ATOM     28  N   UNL     1      -8.102   8.011  -0.669  1.00  0.00    -0.352 N 
ATOM     29  C   UNL     1      -7.923   9.372  -0.866  1.00  0.00     0.251 C 
ATOM     30  H   UNL     1      -8.727   7.560  -1.280  1.00  0.00     0.163 HD
ATOM     31  O   UNL     1      -8.650  10.021  -1.601  1.00  0.00    -0.269 OA
BRANCH  29  32
ATOM     32  C   UNL     1      -6.766  10.005  -0.193  1.00  0.00     0.039 A 
ATOM     33  C   UNL     1      -5.730  10.497  -0.992  1.00  0.00     0.014 A 
ATOM     34  C   UNL     1      -6.594   9.835   1.179  1.00  0.00     0.014 A 
ATOM     35  C   UNL     1      -4.456  10.640  -0.443  1.00  0.00     0.010 A 
ATOM     36  C   UNL     1      -5.308   9.858   1.686  1.00  0.00     0.010 A 
ATOM     37  C   UNL     1      -4.226  10.219   0.869  1.00  0.00    -0.014 A 
BRANCH  37  38
ATOM     38  C   UNL     1      -2.891  10.034   1.439  1.00  0.00     0.031 A 
ATOM     39  C   UNL     1      -2.422  10.905   2.549  1.00  0.00     0.074 A 
ATOM     40  C   UNL     1      -2.078   9.038   1.016  1.00  0.00     0.049 A 
ATOM     41  N   UNL     1      -1.179  11.144   2.817  1.00  0.00    -0.248 NA
ATOM     42  C   UNL     1      -3.340  11.630   3.421  1.00  0.00     0.031 C 
ATOM     43  C   UNL     1      -0.876   8.557   1.698  1.00  0.00     0.029 A 
ATOM     44  N   UNL     1      -2.034   8.394  -0.223  1.00  0.00    -0.354 N 
ATOM     45  C   UNL     1      -1.132  11.766   4.046  1.00  0.00     0.074 A 
ATOM     46  C   UNL     1      -2.501  12.127   4.333  1.00  0.00     0.031 C 
ATOM     47  C   UNL     1      -0.071   7.981   0.795  1.00  0.00     0.029 A 
ATOM     48  C   UNL     1      -0.676   8.175  -0.511  1.00  0.00     0.049 A 
ATOM     49  H   UNL     1      -2.804   8.143  -0.784  1.00  0.00     0.167 HD
ATOM     50  C   UNL     1       0.028  11.782   4.765  1.00  0.00     0.031 A 
ATOM     51  C   UNL     1      -0.028   8.624  -1.624  1.00  0.00     0.031 A 
ATOM     52  C   UNL     1       1.148  11.209   4.021  1.00  0.00     0.049 A 
ATOM     53  C   UNL     1       1.187   9.469  -1.317  1.00  0.00     0.074 A 
ATOM     54  C   UNL     1       1.810   9.993   4.090  1.00  0.00     0.029 A 
ATOM     55  N   UNL     1       1.587  11.828   2.856  1.00  0.00    -0.354 N 
ATOM     56  N   UNL     1       1.484   9.912  -0.129  1.00  0.00    -0.248 NA
ATOM     57  C   UNL     1       2.124   9.942  -2.334  1.00  0.00     0.031 C 
ATOM     58  C   UNL     1       2.615   9.862   2.930  1.00  0.00     0.029 A 
ATOM     59  C   UNL     1       2.453  11.002   2.164  1.00  0.00     0.049 A 
ATOM     60  H   UNL     1       1.319  12.729   2.565  1.00  0.00     0.167 HD
ATOM     61  C   UNL     1       2.566  10.750  -0.204  1.00  0.00     0.074 A 
ATOM     62  C   UNL     1       2.954  10.706  -1.601  1.00  0.00     0.031 C 
ATOM     63  C   UNL     1       3.021  11.429   0.890  1.00  0.00     0.031 A 
BRANCH  50  64
ATOM     64  C   UNL     1       0.070  12.046   6.260  1.00  0.00    -0.014 A 
ATOM     65  C   UNL     1       1.084  11.459   7.047  1.00  0.00     0.010 A 
ATOM     66  C   UNL     1      -0.891  12.797   6.963  1.00  0.00     0.010 A 
ATOM     67  C   UNL     1       1.068  11.512   8.450  1.00  0.00     0.020 A 
ATOM     68  C   UNL     1      -0.946  12.825   8.365  1.00  0.00     0.020 A 
ATOM     69  C   UNL     1       0.029  12.166   9.104  1.00  0.00     0.054 A 
BRANCH  69  70
ATOM     70  S   UNL     1      -0.043  12.136  10.914  1.00  0.00     0.124 S 
ATOM     71  O   UNL     1      -0.001  10.706  11.208  1.00  0.00    -0.237 OA
ATOM     72  O   UNL     1       1.148  12.893  11.286  1.00  0.00    -0.237 OA
ATOM     73  O   UNL     1      -1.315  12.789  11.220  1.00  0.00    -0.744 OA
ENDBRANCH  69  70
ENDBRANCH  50  64
BRANCH  51  74
ATOM     74  C   UNL     1      -0.890   8.781  -2.822  1.00  0.00    -0.014 A 
ATOM     75  C   UNL     1      -1.334   7.599  -3.450  1.00  0.00     0.010 A 
ATOM     76  C   UNL     1      -1.592   9.980  -3.036  1.00  0.00     0.010 A 
ATOM     77  C   UNL     1      -2.561   7.573  -4.112  1.00  0.00     0.020 A 
ATOM     78  C   UNL     1      -2.824   9.955  -3.702  1.00  0.00     0.020 A 
ATOM     79  C   UNL     1      -3.329   8.736  -4.165  1.00  0.00     0.054 A 
BRANCH  79  80
ATOM     80  S   UNL     1      -5.078   8.570  -4.628  1.00  0.00     0.124 S 
ATOM     81  O   UNL     1      -4.996   7.940  -5.942  1.00  0.00    -0.237 OA
ATOM     82  O   UNL     1      -5.582   7.720  -3.550  1.00  0.00    -0.237 OA
ATOM     83  O   UNL     1      -5.558   9.948  -4.616  1.00  0.00    -0.744 OA
ENDBRANCH  79  80
ENDBRANCH  51  74
BRANCH  63  84
ATOM     84  C   UNL     1       4.082  12.507   0.899  1.00  0.00    -0.014 A 
ATOM     85  C   UNL     1       4.466  13.256  -0.224  1.00  0.00     0.010 A 
ATOM     86  C   UNL     1       4.669  12.873   2.136  1.00  0.00     0.010 A 
ATOM     87  C   UNL     1       5.433  14.270  -0.133  1.00  0.00     0.020 A 
ATOM     88  C   UNL     1       5.601  13.909   2.247  1.00  0.00     0.020 A 
ATOM     89  C   UNL     1       6.000  14.586   1.101  1.00  0.00     0.054 A 
BRANCH  89  90
ATOM     90  S   UNL     1       7.206  15.931   1.224  1.00  0.00     0.124 S 
ATOM     91  O   UNL     1       8.467  15.225   1.013  1.00  0.00    -0.237 OA
ATOM     92  O   UNL     1       6.807  16.832   0.144  1.00  0.00    -0.237 OA
ATOM     93  O   UNL     1       6.995  16.455   2.570  1.00  0.00    -0.744 OA
ENDBRANCH  89  90
ENDBRANCH  63  84
ENDBRANCH  37  38
ENDBRANCH  29  32
ENDBRANCH  27  28
ENDBRANCH  26  27
ENDBRANCH   1  26
TORSDOF 17
