REMARK SMILES CC(C)CCn1nc(C(=O)NCCCCNC(=O)c2ccc(-c3c4nc(c(-c5ccc(S(=O)(=O)[O-])cc5)c5ccc([nH]5)c(-c5ccc(S(=O)(=O)[O-])cc5)c5nc(c(-c6ccc(S(=O)(=O)[O-])cc6)c6ccc3[nH]6)C=C5)C=C4)cc2)c2c1CCN(C(=O)[C@@H]1CCc3nn(C)c(=O)n3C1)C2
REMARK SMILES IDX 13 1 12 2 11 3 9 4 10 5 8 7 6 8 7 9 80 10 79 11 81 12 97 13
REMARK SMILES IDX 82 14 83 15 5 16 4 17 2 18 1 19 3 20 84 21 85 22 86 23 87 24
REMARK SMILES IDX 96 25 88 26 95 27 89 28 93 29 90 30 91 31 94 32 92 33 14 34
REMARK SMILES IDX 15 35 16 36 17 37 18 39 19 40 20 41 78 42 21 43 77 44 22 45
REMARK SMILES IDX 23 46 24 47 71 48 25 49 76 50 70 51 72 52 26 53 75 54 69 55
REMARK SMILES IDX 68 56 27 58 57 59 38 60 56 61 39 62 42 63 55 64 73 65 40 66
REMARK SMILES IDX 41 67 54 69 74 70 43 71 28 72 29 73 37 74 30 75 36 76 31 77
REMARK SMILES IDX 32 78 33 79 34 80 35 81 58 82 59 83 67 84 60 85 66 86 61 87
REMARK SMILES IDX 62 88 63 89 64 90 65 91 44 92 45 93 53 94 46 95 52 96 47 97
REMARK SMILES IDX 48 98 49 99 50 100 51 101
REMARK H PARENT 11 6 16 38 72 57 42 68
REMARK Flexibility Score: inf
ROOT
ATOM      1  C   UNL     1       0.868  -8.544   1.794  1.00  0.00     0.023 C 
ENDROOT
BRANCH   1   2
ATOM      2  C   UNL     1       0.645  -7.693   3.063  1.00  0.00     0.116 C 
BRANCH   2   3
ATOM      3  N   UNL     1       1.467  -6.487   3.077  1.00  0.00    -0.351 N 
ATOM      4  C   UNL     1       1.309  -5.156   2.732  1.00  0.00     0.272 C 
ATOM      5  O   UNL     1       2.263  -4.441   3.061  1.00  0.00    -0.267 OA
ATOM      6  H   UNL     1       2.371  -6.667   3.424  1.00  0.00     0.163 HD
BRANCH   4   7
ATOM      7  C   UNL     1       0.133  -4.576   2.024  1.00  0.00     0.155 A 
ATOM      8  N   UNL     1      -1.149  -2.981   1.313  1.00  0.00    -0.268 N 
ATOM      9  N   UNL     1      -0.084  -3.236   2.091  1.00  0.00    -0.167 NA
ATOM     10  C   UNL     1      -1.716  -4.125   0.858  1.00  0.00     0.046 A 
ATOM     11  C   UNL     1      -0.837  -5.142   1.153  1.00  0.00     0.026 A 
ATOM     12  C   UNL     1      -2.981  -4.310   0.113  1.00  0.00     0.078 C 
ATOM     13  C   UNL     1      -0.997  -6.501   0.605  1.00  0.00     0.159 C 
ATOM     14  C   UNL     1      -3.303  -5.819   0.181  1.00  0.00     0.126 C 
ATOM     15  N   UNL     1      -2.173  -6.652  -0.255  1.00  0.00    -0.338 N 
BRANCH   8  16
ATOM     16  C   UNL     1      -1.504  -1.638   0.887  1.00  0.00     0.145 C 
BRANCH  16  17
ATOM     17  C   UNL     1      -0.908  -0.446   1.644  1.00  0.00     0.027 C 
BRANCH  17  18
ATOM     18  C   UNL     1       0.608  -0.216   1.483  1.00  0.00    -0.016 C 
ATOM     19  C   UNL     1       1.023   0.059   0.037  1.00  0.00     0.007 C 
ATOM     20  C   UNL     1       1.042   0.949   2.376  1.00  0.00     0.007 C 
ENDBRANCH  17  18
ENDBRANCH  16  17
ENDBRANCH   8  16
BRANCH  15  21
ATOM     21  C   UNL     1      -2.130  -7.750  -1.097  1.00  0.00     0.227 C 
ATOM     22  O   UNL     1      -1.097  -8.441  -1.136  1.00  0.00    -0.274 OA
BRANCH  21  23
ATOM     23  C   UNL     1      -3.241  -8.183  -2.063  1.00  0.00     0.099 C 
ATOM     24  C   UNL     1      -3.342  -7.344  -3.337  1.00  0.00     0.023 C 
ATOM     25  C   UNL     1      -4.597  -8.512  -1.463  1.00  0.00     0.142 C 
ATOM     26  C   UNL     1      -4.194  -6.096  -3.190  1.00  0.00     0.078 C 
ATOM     27  N   UNL     1      -5.531  -7.416  -1.569  1.00  0.00    -0.278 N 
ATOM     28  C   UNL     1      -5.368  -6.277  -2.272  1.00  0.00     0.133 A 
ATOM     29  C   UNL     1      -6.517  -7.164  -0.646  1.00  0.00     0.345 A 
ATOM     30  N   UNL     1      -6.159  -5.303  -1.924  1.00  0.00    -0.155 NA
ATOM     31  N   UNL     1      -6.894  -5.836  -0.882  1.00  0.00    -0.216 N 
ATOM     32  O   UNL     1      -6.857  -7.881   0.279  1.00  0.00    -0.246 OA
ATOM     33  C   UNL     1      -7.539  -5.009   0.103  1.00  0.00     0.179 C 
ENDBRANCH  21  23
ENDBRANCH  15  21
ENDBRANCH   4   7
ENDBRANCH   2   3
ENDBRANCH   1   2
BRANCH   1  34
ATOM     34  C   UNL     1       1.679  -9.834   1.928  1.00  0.00     0.023 C 
BRANCH  34  35
ATOM     35  C   UNL     1       0.902 -10.993   2.544  1.00  0.00     0.116 C 
BRANCH  35  36
ATOM     36  N   UNL     1      -0.178 -11.507   1.690  1.00  0.00    -0.352 N 
ATOM     37  C   UNL     1      -1.202 -12.373   2.061  1.00  0.00     0.251 C 
ATOM     38  H   UNL     1      -0.177 -11.205   0.753  1.00  0.00     0.163 HD
ATOM     39  O   UNL     1      -1.804 -13.046   1.250  1.00  0.00    -0.269 OA
BRANCH  37  40
ATOM     40  C   UNL     1      -1.548 -12.416   3.494  1.00  0.00     0.039 A 
ATOM     41  C   UNL     1      -1.610 -13.615   4.208  1.00  0.00     0.014 A 
ATOM     42  C   UNL     1      -1.679 -11.185   4.129  1.00  0.00     0.014 A 
ATOM     43  C   UNL     1      -1.685 -13.560   5.600  1.00  0.00     0.010 A 
ATOM     44  C   UNL     1      -1.607 -11.135   5.497  1.00  0.00     0.010 A 
ATOM     45  C   UNL     1      -1.647 -12.313   6.244  1.00  0.00    -0.014 A 
BRANCH  45  46
ATOM     46  C   UNL     1      -1.498 -12.210   7.697  1.00  0.00     0.031 A 
ATOM     47  C   UNL     1      -0.318 -12.919   8.276  1.00  0.00     0.074 A 
ATOM     48  C   UNL     1      -2.192 -11.307   8.428  1.00  0.00     0.049 A 
ATOM     49  N   UNL     1      -0.311 -13.915   9.101  1.00  0.00    -0.248 NA
ATOM     50  C   UNL     1       1.023 -12.546   7.793  1.00  0.00     0.031 C 
ATOM     51  C   UNL     1      -3.152 -10.305   7.942  1.00  0.00     0.029 A 
ATOM     52  N   UNL     1      -2.074 -10.987   9.744  1.00  0.00    -0.354 N 
ATOM     53  C   UNL     1       1.027 -14.149   9.416  1.00  0.00     0.074 A 
ATOM     54  C   UNL     1       1.798 -13.415   8.445  1.00  0.00     0.031 C 
ATOM     55  C   UNL     1      -3.315  -9.343   8.875  1.00  0.00     0.029 A 
ATOM     56  C   UNL     1      -2.637  -9.760  10.086  1.00  0.00     0.049 A 
ATOM     57  H   UNL     1      -1.628 -11.572  10.399  1.00  0.00     0.167 HD
ATOM     58  C   UNL     1       1.399 -14.716  10.600  1.00  0.00     0.031 A 
ATOM     59  C   UNL     1      -2.543  -9.116  11.275  1.00  0.00     0.031 A 
ATOM     60  C   UNL     1       0.270 -15.288  11.289  1.00  0.00     0.049 A 
ATOM     61  C   UNL     1      -2.166 -10.131  12.284  1.00  0.00     0.074 A 
ATOM     62  C   UNL     1      -0.654 -16.274  11.011  1.00  0.00     0.029 A 
ATOM     63  N   UNL     1      -0.263 -14.541  12.313  1.00  0.00    -0.354 N 
ATOM     64  N   UNL     1      -2.939 -11.123  12.625  1.00  0.00    -0.248 NA
ATOM     65  C   UNL     1      -0.760 -10.296  12.612  1.00  0.00     0.031 C 
ATOM     66  C   UNL     1      -1.881 -15.790  11.554  1.00  0.00     0.029 A 
ATOM     67  C   UNL     1      -1.627 -14.575  12.195  1.00  0.00     0.049 A 
ATOM     68  H   UNL     1       0.247 -14.065  13.009  1.00  0.00     0.167 HD
ATOM     69  C   UNL     1      -2.080 -12.197  12.796  1.00  0.00     0.074 A 
ATOM     70  C   UNL     1      -0.750 -11.601  12.900  1.00  0.00     0.031 C 
ATOM     71  C   UNL     1      -2.499 -13.475  12.553  1.00  0.00     0.031 A 
BRANCH  58  72
ATOM     72  C   UNL     1       2.681 -14.388  11.340  1.00  0.00    -0.014 A 
ATOM     73  C   UNL     1       2.949 -15.046  12.561  1.00  0.00     0.010 A 
ATOM     74  C   UNL     1       3.478 -13.265  11.039  1.00  0.00     0.010 A 
ATOM     75  C   UNL     1       3.897 -14.551  13.468  1.00  0.00     0.020 A 
ATOM     76  C   UNL     1       4.458 -12.790  11.915  1.00  0.00     0.020 A 
ATOM     77  C   UNL     1       4.633 -13.412  13.143  1.00  0.00     0.054 A 
BRANCH  77  78
ATOM     78  S   UNL     1       5.766 -12.705  14.365  1.00  0.00     0.124 S 
ATOM     79  O   UNL     1       4.842 -12.248  15.398  1.00  0.00    -0.237 OA
ATOM     80  O   UNL     1       6.597 -13.853  14.717  1.00  0.00    -0.237 OA
ATOM     81  O   UNL     1       6.451 -11.649  13.623  1.00  0.00    -0.744 OA
ENDBRANCH  77  78
ENDBRANCH  58  72
BRANCH  59  82
ATOM     82  C   UNL     1      -2.515  -7.660  11.551  1.00  0.00    -0.014 A 
ATOM     83  C   UNL     1      -2.729  -7.169  12.852  1.00  0.00     0.010 A 
ATOM     84  C   UNL     1      -1.990  -6.771  10.591  1.00  0.00     0.010 A 
ATOM     85  C   UNL     1      -2.360  -5.859  13.200  1.00  0.00     0.020 A 
ATOM     86  C   UNL     1      -1.625  -5.461  10.929  1.00  0.00     0.020 A 
ATOM     87  C   UNL     1      -1.787  -5.021  12.241  1.00  0.00     0.054 A 
BRANCH  87  88
ATOM     88  S   UNL     1      -1.129  -3.404  12.751  1.00  0.00     0.124 S 
ATOM     89  O   UNL     1      -2.347  -2.644  13.021  1.00  0.00    -0.237 OA
ATOM     90  O   UNL     1      -0.324  -3.742  13.921  1.00  0.00    -0.237 OA
ATOM     91  O   UNL     1      -0.367  -2.960  11.585  1.00  0.00    -0.744 OA
ENDBRANCH  87  88
ENDBRANCH  59  82
BRANCH  71  92
ATOM     92  C   UNL     1      -3.984 -13.728  12.423  1.00  0.00    -0.014 A 
ATOM     93  C   UNL     1      -4.795 -13.166  11.417  1.00  0.00     0.010 A 
ATOM     94  C   UNL     1      -4.548 -14.692  13.277  1.00  0.00     0.010 A 
ATOM     95  C   UNL     1      -6.143 -13.540  11.290  1.00  0.00     0.020 A 
ATOM     96  C   UNL     1      -5.882 -15.083  13.144  1.00  0.00     0.020 A 
ATOM     97  C   UNL     1      -6.677 -14.498  12.158  1.00  0.00     0.054 A 
BRANCH  97  98
ATOM     98  S   UNL     1      -8.407 -15.013  11.967  1.00  0.00     0.124 S 
ATOM     99  O   UNL     1      -9.141 -13.823  12.386  1.00  0.00    -0.237 OA
ATOM    100  O   UNL     1      -8.496 -15.340  10.546  1.00  0.00    -0.237 OA
ATOM    101  O   UNL     1      -8.529 -16.162  12.865  1.00  0.00    -0.744 OA
ENDBRANCH  97  98
ENDBRANCH  71  92
ENDBRANCH  45  46
ENDBRANCH  37  40
ENDBRANCH  35  36
ENDBRANCH  34  35
ENDBRANCH   1  34
TORSDOF 19
