REMARK SMILES Cc1ccc(N)cc1S(=O)(=O)Nc1cccc(C(=O)NCCCCNC(=O)c2ccc(-c3c4nc(c(-c5ccc(S(=O)(=O)[O-])cc5)c5ccc([nH]5)c(-c5ccc(S(=O)(=O)[O-])cc5)c5nc(c(-c6ccc(S(=O)(=O)[O-])cc6)c6ccc3[nH]6)C=C5)C=C4)cc2)c1
REMARK SMILES IDX 22 1 21 2 20 3 18 4 19 5 17 7 13 8 14 9 88 10 15 11 16 12
REMARK SMILES IDX 12 13 9 15 10 16 11 17 8 18 1 19 2 20 3 21 4 22 7 23 5 24
REMARK SMILES IDX 6 25 23 28 24 29 25 30 26 31 27 33 28 34 29 35 87 36 30 37
REMARK SMILES IDX 86 38 31 39 32 40 33 41 80 42 34 43 85 44 79 45 81 46 35 47
REMARK SMILES IDX 84 48 78 49 77 50 36 52 66 53 47 54 65 55 48 56 51 57 64 58
REMARK SMILES IDX 82 59 49 60 50 61 63 63 83 64 52 65 37 66 38 67 46 68 39 69
REMARK SMILES IDX 45 70 40 71 41 72 42 73 43 74 44 75 67 76 68 77 76 78 69 79
REMARK SMILES IDX 75 80 70 81 71 82 72 83 73 84 74 85 53 86 54 87 62 88 55 89
REMARK SMILES IDX 61 90 56 91 57 92 58 93 59 94 60 95
REMARK H PARENT 20 6 12 14 6 26 6 27 25 32 81 51 51 62
REMARK Flexibility Score: inf
ROOT
ATOM      1  C   UNL     1      -1.660   0.283   3.961  1.00  0.00     0.023 C 
ENDROOT
BRANCH   1   2
ATOM      2  C   UNL     1      -1.669  -0.830   2.910  1.00  0.00     0.116 C 
BRANCH   2   3
ATOM      3  N   UNL     1      -2.841  -1.669   3.074  1.00  0.00    -0.352 N 
ATOM      4  C   UNL     1      -4.109  -1.614   2.553  1.00  0.00     0.251 C 
ATOM      5  O   UNL     1      -4.906  -2.480   2.917  1.00  0.00    -0.269 OA
ATOM      6  H   UNL     1      -2.698  -2.432   3.680  1.00  0.00     0.163 HD
BRANCH   4   7
ATOM      7  C   UNL     1      -4.549  -0.629   1.518  1.00  0.00     0.041 A 
ATOM      8  C   UNL     1      -4.227   1.295   0.084  1.00  0.00     0.050 A 
ATOM      9  C   UNL     1      -5.358   0.943  -0.658  1.00  0.00     0.027 A 
ATOM     10  C   UNL     1      -3.905   0.578   1.235  1.00  0.00     0.040 A 
ATOM     11  C   UNL     1      -6.084  -0.196  -0.325  1.00  0.00     0.003 A 
ATOM     12  C   UNL     1      -5.657  -0.996   0.734  1.00  0.00     0.014 A 
BRANCH   8  13
ATOM     13  N   UNL     1      -3.384   2.290  -0.478  1.00  0.00    -0.280 N 
ATOM     14  H   UNL     1      -3.788   2.870  -1.163  1.00  0.00     0.180 HD
BRANCH  13  15
ATOM     15  S   UNL     1      -1.786   2.583  -0.104  1.00  0.00     0.262 S 
ATOM     16  O   UNL     1      -1.716   2.860   1.316  1.00  0.00    -0.201 OA
ATOM     17  O   UNL     1      -1.359   3.575  -1.071  1.00  0.00    -0.201 OA
BRANCH  15  18
ATOM     18  C   UNL     1      -0.758   1.144  -0.393  1.00  0.00     0.092 A 
ATOM     19  C   UNL     1      -2.361  -0.326  -1.810  1.00  0.00     0.046 C 
ATOM     20  C   UNL     1      -1.106  -0.050  -1.044  1.00  0.00    -0.030 A 
ATOM     21  C   UNL     1      -0.195  -1.125  -0.975  1.00  0.00     0.007 A 
ATOM     22  C   UNL     1       1.067  -0.984  -0.398  1.00  0.00     0.026 A 
ATOM     23  C   UNL     1       0.538   1.274   0.162  1.00  0.00     0.048 A 
ATOM     24  C   UNL     1       1.473   0.241   0.113  1.00  0.00     0.033 A 
BRANCH  24  25
ATOM     25  N   UNL     1       2.723   0.385   0.685  1.00  0.00    -0.399 N 
ATOM     26  H   UNL     1       3.372  -0.353   0.641  1.00  0.00     0.156 HD
ATOM     27  H   UNL     1       2.964   1.227   1.135  1.00  0.00     0.156 HD
ENDBRANCH  24  25
ENDBRANCH  15  18
ENDBRANCH  13  15
ENDBRANCH   8  13
ENDBRANCH   4   7
ENDBRANCH   2   3
ENDBRANCH   1   2
BRANCH   1  28
ATOM     28  C   UNL     1      -1.054  -0.148   5.298  1.00  0.00     0.023 C 
BRANCH  28  29
ATOM     29  C   UNL     1       0.443  -0.439   5.249  1.00  0.00     0.116 C 
BRANCH  29  30
ATOM     30  N   UNL     1       1.234   0.702   4.817  1.00  0.00    -0.352 N 
ATOM     31  C   UNL     1       2.498   1.072   5.207  1.00  0.00     0.251 C 
ATOM     32  H   UNL     1       0.805   1.291   4.155  1.00  0.00     0.163 HD
ATOM     33  O   UNL     1       2.984   2.124   4.805  1.00  0.00    -0.269 OA
BRANCH  31  34
ATOM     34  C   UNL     1       3.255   0.214   6.144  1.00  0.00     0.039 A 
ATOM     35  C   UNL     1       3.878   0.812   7.241  1.00  0.00     0.014 A 
ATOM     36  C   UNL     1       3.345  -1.167   5.949  1.00  0.00     0.014 A 
ATOM     37  C   UNL     1       4.545   0.016   8.174  1.00  0.00     0.010 A 
ATOM     38  C   UNL     1       3.954  -1.966   6.914  1.00  0.00     0.010 A 
ATOM     39  C   UNL     1       4.562  -1.382   8.035  1.00  0.00    -0.014 A 
BRANCH  39  40
ATOM     40  C   UNL     1       5.204  -2.234   9.067  1.00  0.00     0.031 A 
ATOM     41  C   UNL     1       6.438  -3.030   8.743  1.00  0.00     0.074 A 
ATOM     42  C   UNL     1       4.653  -2.310  10.294  1.00  0.00     0.049 A 
ATOM     43  N   UNL     1       7.151  -3.797   9.528  1.00  0.00    -0.248 NA
ATOM     44  C   UNL     1       6.923  -2.977   7.355  1.00  0.00     0.031 C 
ATOM     45  C   UNL     1       3.422  -1.634  10.714  1.00  0.00     0.029 A 
ATOM     46  N   UNL     1       5.059  -2.985  11.417  1.00  0.00    -0.354 N 
ATOM     47  C   UNL     1       8.161  -4.322   8.732  1.00  0.00     0.074 A 
ATOM     48  C   UNL     1       7.940  -3.826   7.390  1.00  0.00     0.031 C 
ATOM     49  C   UNL     1       3.197  -1.897  12.012  1.00  0.00     0.029 A 
ATOM     50  C   UNL     1       4.250  -2.775  12.509  1.00  0.00     0.049 A 
ATOM     51  H   UNL     1       5.855  -3.564  11.439  1.00  0.00     0.167 HD
ATOM     52  C   UNL     1       9.193  -5.124   9.087  1.00  0.00     0.031 A 
ATOM     53  C   UNL     1       4.353  -3.228  13.773  1.00  0.00     0.031 A 
ATOM     54  C   UNL     1       9.419  -5.607  10.424  1.00  0.00     0.049 A 
ATOM     55  C   UNL     1       5.524  -4.092  14.149  1.00  0.00     0.074 A 
ATOM     56  C   UNL     1      10.465  -6.383  10.895  1.00  0.00     0.029 A 
ATOM     57  N   UNL     1       8.588  -5.359  11.505  1.00  0.00    -0.354 N 
ATOM     58  N   UNL     1       6.509  -4.519  13.395  1.00  0.00    -0.248 NA
ATOM     59  C   UNL     1       5.606  -4.518  15.553  1.00  0.00     0.031 C 
ATOM     60  C   UNL     1      10.246  -6.632  12.255  1.00  0.00     0.029 A 
ATOM     61  C   UNL     1       9.088  -5.976  12.639  1.00  0.00     0.049 A 
ATOM     62  H   UNL     1       7.762  -4.823  11.471  1.00  0.00     0.167 HD
ATOM     63  C   UNL     1       7.339  -5.248  14.239  1.00  0.00     0.074 A 
ATOM     64  C   UNL     1       6.752  -5.185  15.562  1.00  0.00     0.031 C 
ATOM     65  C   UNL     1       8.485  -5.912  13.945  1.00  0.00     0.031 A 
BRANCH  52  66
ATOM     66  C   UNL     1      10.163  -5.524   8.007  1.00  0.00    -0.014 A 
ATOM     67  C   UNL     1      11.066  -4.590   7.467  1.00  0.00     0.010 A 
ATOM     68  C   UNL     1      10.198  -6.853   7.549  1.00  0.00     0.010 A 
ATOM     69  C   UNL     1      11.959  -4.967   6.461  1.00  0.00     0.020 A 
ATOM     70  C   UNL     1      11.107  -7.241   6.560  1.00  0.00     0.020 A 
ATOM     71  C   UNL     1      11.969  -6.290   6.010  1.00  0.00     0.054 A 
BRANCH  71  72
ATOM     72  S   UNL     1      13.152  -6.760   4.716  1.00  0.00     0.124 S 
ATOM     73  O   UNL     1      12.536  -6.184   3.523  1.00  0.00    -0.237 OA
ATOM     74  O   UNL     1      14.386  -6.116   5.158  1.00  0.00    -0.237 OA
ATOM     75  O   UNL     1      13.161  -8.220   4.770  1.00  0.00    -0.744 OA
ENDBRANCH  71  72
ENDBRANCH  52  66
BRANCH  53  76
ATOM     76  C   UNL     1       3.337  -2.839  14.787  1.00  0.00    -0.014 A 
ATOM     77  C   UNL     1       3.659  -1.915  15.797  1.00  0.00     0.010 A 
ATOM     78  C   UNL     1       2.042  -3.385  14.745  1.00  0.00     0.010 A 
ATOM     79  C   UNL     1       2.711  -1.562  16.761  1.00  0.00     0.020 A 
ATOM     80  C   UNL     1       1.084  -3.016  15.693  1.00  0.00     0.020 A 
ATOM     81  C   UNL     1       1.429  -2.117  16.704  1.00  0.00     0.054 A 
BRANCH  81  82
ATOM     82  S   UNL     1       0.198  -1.612  17.937  1.00  0.00     0.124 S 
ATOM     83  O   UNL     1       0.601  -2.391  19.104  1.00  0.00    -0.237 OA
ATOM     84  O   UNL     1       0.413  -0.171  18.033  1.00  0.00    -0.237 OA
ATOM     85  O   UNL     1      -1.072  -2.005  17.329  1.00  0.00    -0.744 OA
ENDBRANCH  81  82
ENDBRANCH  53  76
BRANCH  65  86
ATOM     86  C   UNL     1       9.182  -6.603  15.084  1.00  0.00    -0.014 A 
ATOM     87  C   UNL     1       8.659  -7.780  15.648  1.00  0.00     0.010 A 
ATOM     88  C   UNL     1      10.383  -6.073  15.589  1.00  0.00     0.010 A 
ATOM     89  C   UNL     1       9.299  -8.388  16.731  1.00  0.00     0.020 A 
ATOM     90  C   UNL     1      11.039  -6.693  16.656  1.00  0.00     0.020 A 
ATOM     91  C   UNL     1      10.480  -7.835  17.234  1.00  0.00     0.054 A 
BRANCH  91  92
ATOM     92  S   UNL     1      11.301  -8.643  18.635  1.00  0.00     0.124 S 
ATOM     93  O   UNL     1      10.490  -8.190  19.762  1.00  0.00    -0.237 OA
ATOM     94  O   UNL     1      11.182 -10.062  18.306  1.00  0.00    -0.237 OA
ATOM     95  O   UNL     1      12.661  -8.112  18.591  1.00  0.00    -0.744 OA
ENDBRANCH  91  92
ENDBRANCH  65  86
ENDBRANCH  39  40
ENDBRANCH  31  34
ENDBRANCH  29  30
ENDBRANCH  28  29
ENDBRANCH   1  28
TORSDOF 18
