REMARK SMILES Cc1cn2c(=O)cc(CSc3ccccc3C(=O)NCCCCNC(=O)c3ccc(-c4c5nc(c(-c6ccc(S(=O)(=O)[O-])cc6)c6ccc([nH]6)c(-c6ccc(S(=O)(=O)[O-])cc6)c6nc(c(-c7ccc(S(=O)(=O)[O-])cc7)c7ccc4[nH]7)C=C6)C=C5)cc3)nc2s1
REMARK SMILES IDX 21 1 20 2 19 3 17 4 18 5 16 7 11 8 12 9 13 10 15 11 14 12
REMARK SMILES IDX 10 13 9 14 8 15 1 16 2 17 3 18 89 19 4 20 88 21 5 22 87 23
REMARK SMILES IDX 6 24 7 25 22 26 23 27 24 28 25 29 26 31 27 32 28 33 86 34
REMARK SMILES IDX 29 35 85 36 30 37 31 38 32 39 79 40 33 41 84 42 78 43 80 44
REMARK SMILES IDX 34 45 83 46 77 47 76 48 35 50 65 51 46 52 64 53 47 54 50 55
REMARK SMILES IDX 63 56 81 57 48 58 49 59 62 61 82 62 51 63 36 64 37 65 45 66
REMARK SMILES IDX 38 67 44 68 39 69 40 70 41 71 42 72 43 73 66 74 67 75 75 76
REMARK SMILES IDX 68 77 74 78 69 79 70 80 71 81 72 82 73 83 52 84 53 85 61 86
REMARK SMILES IDX 54 87 60 88 55 89 56 90 57 91 58 92 59 93
REMARK H PARENT 19 6 24 30 80 49 50 60
REMARK Flexibility Score: inf
ROOT
ATOM      1  C   UNL     1      -3.083  -7.391   4.345  1.00  0.00     0.023 C 
ENDROOT
BRANCH   1   2
ATOM      2  C   UNL     1      -2.472  -7.575   5.744  1.00  0.00     0.116 C 
BRANCH   2   3
ATOM      3  N   UNL     1      -1.248  -8.350   5.637  1.00  0.00    -0.352 N 
ATOM      4  C   UNL     1       0.098  -8.120   5.565  1.00  0.00     0.252 C 
ATOM      5  O   UNL     1       0.748  -9.137   5.277  1.00  0.00    -0.269 OA
ATOM      6  H   UNL     1      -1.444  -9.315   5.608  1.00  0.00     0.163 HD
BRANCH   4   7
ATOM      7  C   UNL     1       0.891  -6.867   5.821  1.00  0.00     0.053 A 
ATOM      8  C   UNL     1       0.594  -5.508   5.611  1.00  0.00     0.020 A 
ATOM      9  C   UNL     1       1.580  -4.527   5.906  1.00  0.00     0.016 A 
ATOM     10  C   UNL     1       2.858  -4.861   6.348  1.00  0.00     0.001 A 
ATOM     11  C   UNL     1       2.208  -7.166   6.277  1.00  0.00     0.015 A 
ATOM     12  C   UNL     1       3.178  -6.191   6.525  1.00  0.00     0.001 A 
BRANCH   8  13
ATOM     13  S   UNL     1      -0.890  -4.760   4.971  1.00  0.00    -0.119 SA
BRANCH  13  14
ATOM     14  C   UNL     1      -0.953  -5.458   3.300  1.00  0.00     0.131 C 
BRANCH  14  15
ATOM     15  C   UNL     1      -0.283  -4.617   2.265  1.00  0.00     0.059 A 
ATOM     16  C   UNL     1       1.446   0.531  -0.502  1.00  0.00     0.058 C 
ATOM     17  C   UNL     1       0.944  -0.772  -0.006  1.00  0.00     0.022 A 
ATOM     18  C   UNL     1       1.445  -1.986  -0.275  1.00  0.00     0.111 A 
ATOM     19  S   UNL     1      -0.358  -0.860   1.155  1.00  0.00    -0.102 S 
ATOM     20  N   UNL     1       0.874  -2.997   0.461  1.00  0.00    -0.258 N 
ATOM     21  C   UNL     1      -0.093  -2.577   1.342  1.00  0.00     0.197 A 
ATOM     22  C   UNL     1       1.227  -4.321   0.389  1.00  0.00     0.258 A 
ATOM     23  N   UNL     1      -0.698  -3.308   2.205  1.00  0.00    -0.224 NA
ATOM     24  O   UNL     1       1.998  -4.816  -0.427  1.00  0.00    -0.269 OA
ATOM     25  C   UNL     1       0.599  -5.170   1.418  1.00  0.00     0.097 A 
ENDBRANCH  14  15
ENDBRANCH  13  14
ENDBRANCH   8  13
ENDBRANCH   4   7
ENDBRANCH   2   3
ENDBRANCH   1   2
BRANCH   1  26
ATOM     26  C   UNL     1      -4.235  -8.300   3.924  1.00  0.00     0.023 C 
BRANCH  26  27
ATOM     27  C   UNL     1      -5.552  -7.903   4.560  1.00  0.00     0.116 C 
BRANCH  27  28
ATOM     28  N   UNL     1      -6.002  -6.570   4.149  1.00  0.00    -0.352 N 
ATOM     29  C   UNL     1      -7.081  -5.876   4.654  1.00  0.00     0.251 C 
ATOM     30  H   UNL     1      -5.482  -6.125   3.441  1.00  0.00     0.163 HD
ATOM     31  O   UNL     1      -7.598  -4.947   4.037  1.00  0.00    -0.269 OA
BRANCH  29  32
ATOM     32  C   UNL     1      -7.580  -6.281   5.974  1.00  0.00     0.039 A 
ATOM     33  C   UNL     1      -8.919  -6.615   6.171  1.00  0.00     0.014 A 
ATOM     34  C   UNL     1      -6.625  -6.445   6.982  1.00  0.00     0.014 A 
ATOM     35  C   UNL     1      -9.278  -7.204   7.378  1.00  0.00     0.010 A 
ATOM     36  C   UNL     1      -6.958  -7.139   8.118  1.00  0.00     0.010 A 
ATOM     37  C   UNL     1      -8.286  -7.490   8.333  1.00  0.00    -0.014 A 
BRANCH  37  38
ATOM     38  C   UNL     1      -8.591  -8.321   9.489  1.00  0.00     0.031 A 
ATOM     39  C   UNL     1      -9.142  -9.653   9.129  1.00  0.00     0.074 A 
ATOM     40  C   UNL     1      -8.244  -8.000  10.753  1.00  0.00     0.049 A 
ATOM     41  N   UNL     1     -10.387  -9.994   9.134  1.00  0.00    -0.248 NA
ATOM     42  C   UNL     1      -8.254 -10.654   8.512  1.00  0.00     0.031 C 
ATOM     43  C   UNL     1      -7.449  -6.858  11.216  1.00  0.00     0.029 A 
ATOM     44  N   UNL     1      -8.470  -8.688  11.904  1.00  0.00    -0.354 N 
ATOM     45  C   UNL     1     -10.404 -11.339   8.796  1.00  0.00     0.074 A 
ATOM     46  C   UNL     1      -9.120 -11.624   8.206  1.00  0.00     0.031 C 
ATOM     47  C   UNL     1      -7.082  -7.048  12.505  1.00  0.00     0.029 A 
ATOM     48  C   UNL     1      -7.755  -8.231  13.008  1.00  0.00     0.049 A 
ATOM     49  H   UNL     1      -9.091  -9.450  11.953  1.00  0.00     0.167 HD
ATOM     50  C   UNL     1     -11.337 -12.181   9.323  1.00  0.00     0.031 A 
ATOM     51  C   UNL     1      -7.738  -8.779  14.252  1.00  0.00     0.031 A 
ATOM     52  C   UNL     1     -12.392 -11.459   9.986  1.00  0.00     0.049 A 
ATOM     53  C   UNL     1      -8.998  -9.552  14.371  1.00  0.00     0.074 A 
ATOM     54  C   UNL     1     -13.325 -10.516   9.606  1.00  0.00     0.029 A 
ATOM     55  N   UNL     1     -12.282 -11.368  11.354  1.00  0.00    -0.354 N 
ATOM     56  N   UNL     1     -10.181  -9.004  14.358  1.00  0.00    -0.248 NA
ATOM     57  C   UNL     1      -8.960 -10.971  14.060  1.00  0.00     0.031 C 
ATOM     58  C   UNL     1     -13.406  -9.611  10.706  1.00  0.00     0.029 A 
ATOM     59  C   UNL     1     -12.587 -10.087  11.732  1.00  0.00     0.049 A 
ATOM     60  H   UNL     1     -12.026 -12.101  11.960  1.00  0.00     0.167 HD
ATOM     61  C   UNL     1     -10.962  -9.877  13.617  1.00  0.00     0.074 A 
ATOM     62  C   UNL     1     -10.187 -11.116  13.554  1.00  0.00     0.031 C 
ATOM     63  C   UNL     1     -12.028  -9.426  12.895  1.00  0.00     0.031 A 
BRANCH  50  64
ATOM     64  C   UNL     1     -11.041 -13.621   9.651  1.00  0.00    -0.014 A 
ATOM     65  C   UNL     1     -12.100 -14.485   9.986  1.00  0.00     0.010 A 
ATOM     66  C   UNL     1      -9.730 -14.075   9.910  1.00  0.00     0.010 A 
ATOM     67  C   UNL     1     -11.853 -15.741  10.557  1.00  0.00     0.020 A 
ATOM     68  C   UNL     1      -9.472 -15.338  10.439  1.00  0.00     0.020 A 
ATOM     69  C   UNL     1     -10.538 -16.160  10.773  1.00  0.00     0.054 A 
BRANCH  69  70
ATOM     70  S   UNL     1     -10.234 -17.764  11.555  1.00  0.00     0.124 S 
ATOM     71  O   UNL     1     -10.955 -17.630  12.817  1.00  0.00    -0.237 OA
ATOM     72  O   UNL     1     -10.816 -18.687  10.585  1.00  0.00    -0.237 OA
ATOM     73  O   UNL     1      -8.779 -17.819  11.668  1.00  0.00    -0.744 OA
ENDBRANCH  69  70
ENDBRANCH  50  64
BRANCH  51  74
ATOM     74  C   UNL     1      -6.575  -9.013  15.155  1.00  0.00    -0.014 A 
ATOM     75  C   UNL     1      -6.768  -9.629  16.412  1.00  0.00     0.010 A 
ATOM     76  C   UNL     1      -5.254  -8.934  14.671  1.00  0.00     0.010 A 
ATOM     77  C   UNL     1      -5.705 -10.241  17.098  1.00  0.00     0.020 A 
ATOM     78  C   UNL     1      -4.186  -9.533  15.357  1.00  0.00     0.020 A 
ATOM     79  C   UNL     1      -4.423 -10.220  16.546  1.00  0.00     0.054 A 
BRANCH  79  80
ATOM     80  S   UNL     1      -3.098 -11.184  17.335  1.00  0.00     0.124 S 
ATOM     81  O   UNL     1      -3.039 -10.605  18.674  1.00  0.00    -0.237 OA
ATOM     82  O   UNL     1      -3.618 -12.547  17.259  1.00  0.00    -0.237 OA
ATOM     83  O   UNL     1      -1.932 -10.920  16.495  1.00  0.00    -0.744 OA
ENDBRANCH  79  80
ENDBRANCH  51  74
BRANCH  63  84
ATOM     84  C   UNL     1     -12.582  -8.056  13.205  1.00  0.00    -0.014 A 
ATOM     85  C   UNL     1     -11.932  -6.840  12.915  1.00  0.00     0.010 A 
ATOM     86  C   UNL     1     -13.914  -8.017  13.653  1.00  0.00     0.010 A 
ATOM     87  C   UNL     1     -12.611  -5.617  13.064  1.00  0.00     0.020 A 
ATOM     88  C   UNL     1     -14.597  -6.809  13.788  1.00  0.00     0.020 A 
ATOM     89  C   UNL     1     -13.947  -5.613  13.487  1.00  0.00     0.054 A 
BRANCH  89  90
ATOM     90  S   UNL     1     -14.851  -4.043  13.614  1.00  0.00     0.124 S 
ATOM     91  O   UNL     1     -14.035  -3.274  14.549  1.00  0.00    -0.237 OA
ATOM     92  O   UNL     1     -14.850  -3.562  12.235  1.00  0.00    -0.237 OA
ATOM     93  O   UNL     1     -16.164  -4.436  14.124  1.00  0.00    -0.744 OA
ENDBRANCH  89  90
ENDBRANCH  63  84
ENDBRANCH  37  38
ENDBRANCH  29  32
ENDBRANCH  27  28
ENDBRANCH  26  27
ENDBRANCH   1  26
TORSDOF 17
