REMARK SMILES COc1ccc2c(c1)c(CC(=O)NCCCCNC(=O)c1ccc(-c3c4nc(c(-c5ccc(S(=O)(=O)[O-])cc5)c5ccc([nH]5)c(-c5ccc(S(=O)(=O)[O-])cc5)c5nc(c(-c6ccc(S(=O)(=O)[O-])cc6)c6ccc3[nH]6)C=C5)C=C4)cc1)c(C(F)(F)F)n2C(=O)c1ccc(Cl)cc1
REMARK SMILES IDX 15 1 14 2 13 3 11 4 12 5 10 7 9 8 3 9 4 10 8 11 5 12 7 13
REMARK SMILES IDX 6 14 86 15 81 16 2 17 1 18 87 19 88 20 89 21 90 22 95 23
REMARK SMILES IDX 91 24 94 25 92 26 93 27 82 28 83 29 84 30 85 31 16 32 17 33
REMARK SMILES IDX 18 34 19 35 20 37 21 38 22 39 80 40 23 41 79 42 24 43 25 44
REMARK SMILES IDX 26 45 73 46 27 47 78 48 72 49 74 50 28 51 77 52 71 53 70 54
REMARK SMILES IDX 29 56 59 57 40 58 58 59 41 60 44 61 57 62 75 63 42 64 43 65
REMARK SMILES IDX 56 67 76 68 45 69 30 70 31 71 39 72 32 73 38 74 33 75 34 76
REMARK SMILES IDX 35 77 36 78 37 79 60 80 61 81 69 82 62 83 68 84 63 85 64 86
REMARK SMILES IDX 65 87 66 88 67 89 46 90 47 91 55 92 48 93 54 94 49 95 50 96
REMARK SMILES IDX 51 97 52 98 53 99
REMARK H PARENT 13 6 18 36 74 55 44 66
REMARK Flexibility Score: inf
ROOT
ATOM      1  C   UNL     1       0.735   6.198   4.665  1.00  0.00     0.023 C 
ENDROOT
BRANCH   1   2
ATOM      2  C   UNL     1      -0.628   5.864   5.263  1.00  0.00     0.116 C 
BRANCH   2   3
ATOM      3  N   UNL     1      -1.554   5.357   4.269  1.00  0.00    -0.356 N 
ATOM      4  C   UNL     1      -2.131   4.121   4.194  1.00  0.00     0.224 C 
ATOM      5  O   UNL     1      -2.951   3.905   3.299  1.00  0.00    -0.275 OA
ATOM      6  H   UNL     1      -1.800   5.987   3.554  1.00  0.00     0.163 HD
BRANCH   4   7
ATOM      7  C   UNL     1      -1.806   3.066   5.242  1.00  0.00     0.138 C 
BRANCH   7   8
ATOM      8  C   UNL     1      -0.375   2.606   5.204  1.00  0.00     0.000 A 
ATOM      9  C   UNL     1       0.778   1.199   1.845  1.00  0.00     0.119 A 
ATOM     10  C   UNL     1       2.054   0.852   2.261  1.00  0.00     0.048 A 
ATOM     11  C   UNL     1      -0.096   1.815   2.744  1.00  0.00     0.057 A 
ATOM     12  C   UNL     1       2.476   1.105   3.571  1.00  0.00     0.031 A 
ATOM     13  C   UNL     1       0.305   2.076   4.073  1.00  0.00     0.008 A 
ATOM     14  C   UNL     1       1.606   1.752   4.469  1.00  0.00     0.057 A 
ATOM     15  N   UNL     1       1.783   2.249   5.768  1.00  0.00    -0.271 N 
ATOM     16  C   UNL     1       0.514   2.536   6.274  1.00  0.00     0.135 A 
BRANCH   9  17
ATOM     17  O   UNL     1       0.268   0.999   0.592  1.00  0.00    -0.497 OA
ATOM     18  C   UNL     1       0.914  -0.001  -0.189  1.00  0.00     0.278 C 
ENDBRANCH   9  17
BRANCH  15  19
ATOM     19  C   UNL     1       3.013   2.456   6.448  1.00  0.00     0.262 C 
ATOM     20  O   UNL     1       2.981   3.043   7.528  1.00  0.00    -0.268 OA
BRANCH  19  21
ATOM     21  C   UNL     1       4.333   2.023   5.964  1.00  0.00     0.040 A 
ATOM     22  C   UNL     1       4.979   2.704   4.925  1.00  0.00     0.015 A 
ATOM     23  C   UNL     1       4.899   0.877   6.534  1.00  0.00     0.015 A 
ATOM     24  C   UNL     1       6.167   2.183   4.401  1.00  0.00     0.021 A 
ATOM     25  C   UNL     1       6.089   0.370   6.012  1.00  0.00     0.021 A 
ATOM     26  C   UNL     1       6.708   1.014   4.939  1.00  0.00     0.041 A 
ATOM     27  Cl  UNL     1       8.138   0.334   4.266  1.00  0.00    -0.084 Cl
ENDBRANCH  19  21
ENDBRANCH  15  19
BRANCH  16  28
ATOM     28  C   UNL     1       0.259   2.764   7.725  1.00  0.00     0.432 C 
ATOM     29  F   UNL     1       0.436   4.057   8.085  1.00  0.00    -0.165 F 
ATOM     30  F   UNL     1      -1.040   2.470   8.026  1.00  0.00    -0.165 F 
ATOM     31  F   UNL     1       0.991   1.972   8.544  1.00  0.00    -0.165 F 
ENDBRANCH  16  28
ENDBRANCH   7   8
ENDBRANCH   4   7
ENDBRANCH   2   3
ENDBRANCH   1   2
BRANCH   1  32
ATOM     32  C   UNL     1       0.748   7.441   3.767  1.00  0.00     0.023 C 
BRANCH  32  33
ATOM     33  C   UNL     1       0.184   8.712   4.410  1.00  0.00     0.116 C 
BRANCH  33  34
ATOM     34  N   UNL     1       0.816   9.070   5.665  1.00  0.00    -0.352 N 
ATOM     35  C   UNL     1       1.873   9.870   6.009  1.00  0.00     0.251 C 
ATOM     36  H   UNL     1       0.390   8.642   6.443  1.00  0.00     0.163 HD
ATOM     37  O   UNL     1       2.009  10.095   7.215  1.00  0.00    -0.269 OA
BRANCH  35  38
ATOM     38  C   UNL     1       2.870  10.434   5.056  1.00  0.00     0.039 A 
ATOM     39  C   UNL     1       2.873  10.224   3.680  1.00  0.00     0.014 A 
ATOM     40  C   UNL     1       3.929  11.176   5.618  1.00  0.00     0.014 A 
ATOM     41  C   UNL     1       3.935  10.663   2.900  1.00  0.00     0.010 A 
ATOM     42  C   UNL     1       4.989  11.637   4.836  1.00  0.00     0.010 A 
ATOM     43  C   UNL     1       5.010  11.344   3.478  1.00  0.00    -0.014 A 
BRANCH  43  44
ATOM     44  C   UNL     1       6.080  11.762   2.575  1.00  0.00     0.031 A 
ATOM     45  C   UNL     1       5.659  12.628   1.438  1.00  0.00     0.074 A 
ATOM     46  C   UNL     1       7.379  11.438   2.716  1.00  0.00     0.049 A 
ATOM     47  N   UNL     1       5.691  12.355   0.174  1.00  0.00    -0.248 NA
ATOM     48  C   UNL     1       5.037  13.919   1.762  1.00  0.00     0.031 C 
ATOM     49  C   UNL     1       8.048  10.841   3.874  1.00  0.00     0.029 A 
ATOM     50  N   UNL     1       8.403  11.663   1.843  1.00  0.00    -0.354 N 
ATOM     51  C   UNL     1       5.227  13.494  -0.479  1.00  0.00     0.074 A 
ATOM     52  C   UNL     1       4.743  14.383   0.548  1.00  0.00     0.031 C 
ATOM     53  C   UNL     1       9.387  10.955   3.719  1.00  0.00     0.029 A 
ATOM     54  C   UNL     1       9.661  11.474   2.390  1.00  0.00     0.049 A 
ATOM     55  H   UNL     1       8.261  11.934   0.907  1.00  0.00     0.167 HD
ATOM     56  C   UNL     1       5.401  13.701  -1.814  1.00  0.00     0.031 A 
ATOM     57  C   UNL     1      10.846  11.768   1.806  1.00  0.00     0.031 A 
ATOM     58  C   UNL     1       5.772  12.501  -2.509  1.00  0.00     0.049 A 
ATOM     59  C   UNL     1      10.643  11.780   0.340  1.00  0.00     0.074 A 
ATOM     60  C   UNL     1       5.134  11.324  -2.834  1.00  0.00     0.029 A 
ATOM     61  N   UNL     1       7.116  12.289  -2.689  1.00  0.00    -0.354 N 
ATOM     62  N   UNL     1      10.348  10.720  -0.358  1.00  0.00    -0.248 NA
ATOM     63  C   UNL     1      10.466  13.048  -0.351  1.00  0.00     0.031 C 
ATOM     64  C   UNL     1       6.153  10.329  -2.837  1.00  0.00     0.029 A 
ATOM     65  C   UNL     1       7.371  10.947  -2.541  1.00  0.00     0.049 A 
ATOM     66  H   UNL     1       7.785  12.982  -2.891  1.00  0.00     0.167 HD
ATOM     67  C   UNL     1       9.571  11.188  -1.402  1.00  0.00     0.074 A 
ATOM     68  C   UNL     1       9.815  12.624  -1.437  1.00  0.00     0.031 C 
ATOM     69  C   UNL     1       8.593  10.415  -1.958  1.00  0.00     0.031 A 
BRANCH  56  70
ATOM     70  C   UNL     1       5.510  15.064  -2.447  1.00  0.00    -0.014 A 
ATOM     71  C   UNL     1       5.833  16.216  -1.701  1.00  0.00     0.010 A 
ATOM     72  C   UNL     1       5.525  15.189  -3.851  1.00  0.00     0.010 A 
ATOM     73  C   UNL     1       6.112  17.441  -2.310  1.00  0.00     0.020 A 
ATOM     74  C   UNL     1       5.846  16.405  -4.476  1.00  0.00     0.020 A 
ATOM     75  C   UNL     1       6.127  17.527  -3.697  1.00  0.00     0.054 A 
BRANCH  75  76
ATOM     76  S   UNL     1       6.601  19.106  -4.445  1.00  0.00     0.124 S 
ATOM     77  O   UNL     1       5.449  19.947  -4.127  1.00  0.00    -0.237 OA
ATOM     78  O   UNL     1       7.834  19.432  -3.734  1.00  0.00    -0.237 OA
ATOM     79  O   UNL     1       6.766  18.782  -5.859  1.00  0.00    -0.744 OA
ENDBRANCH  75  76
ENDBRANCH  56  70
BRANCH  57  80
ATOM     80  C   UNL     1      12.017  12.411   2.448  1.00  0.00    -0.014 A 
ATOM     81  C   UNL     1      11.820  13.273   3.547  1.00  0.00     0.010 A 
ATOM     82  C   UNL     1      13.263  12.442   1.796  1.00  0.00     0.010 A 
ATOM     83  C   UNL     1      12.796  14.198   3.925  1.00  0.00     0.020 A 
ATOM     84  C   UNL     1      14.247  13.370   2.170  1.00  0.00     0.020 A 
ATOM     85  C   UNL     1      13.988  14.269   3.206  1.00  0.00     0.054 A 
BRANCH  85  86
ATOM     86  S   UNL     1      15.139  15.620   3.588  1.00  0.00     0.124 S 
ATOM     87  O   UNL     1      14.387  16.791   3.146  1.00  0.00    -0.237 OA
ATOM     88  O   UNL     1      15.306  15.491   5.034  1.00  0.00    -0.237 OA
ATOM     89  O   UNL     1      16.323  15.301   2.796  1.00  0.00    -0.744 OA
ENDBRANCH  85  86
ENDBRANCH  57  80
BRANCH  69  90
ATOM     90  C   UNL     1       8.628   8.920  -1.716  1.00  0.00    -0.014 A 
ATOM     91  C   UNL     1       8.565   8.072  -2.838  1.00  0.00     0.010 A 
ATOM     92  C   UNL     1       8.558   8.336  -0.435  1.00  0.00     0.010 A 
ATOM     93  C   UNL     1       8.393   6.693  -2.692  1.00  0.00     0.020 A 
ATOM     94  C   UNL     1       8.415   6.949  -0.281  1.00  0.00     0.020 A 
ATOM     95  C   UNL     1       8.304   6.139  -1.413  1.00  0.00     0.054 A 
BRANCH  95  96
ATOM     96  S   UNL     1       8.005   4.356  -1.265  1.00  0.00     0.124 S 
ATOM     97  O   UNL     1       6.625   4.232  -1.729  1.00  0.00    -0.237 OA
ATOM     98  O   UNL     1       9.014   3.783  -2.154  1.00  0.00    -0.237 OA
ATOM     99  O   UNL     1       8.203   4.076   0.156  1.00  0.00    -0.744 OA
ENDBRANCH  95  96
ENDBRANCH  69  90
ENDBRANCH  43  44
ENDBRANCH  35  38
ENDBRANCH  33  34
ENDBRANCH  32  33
ENDBRANCH   1  32
TORSDOF 19
