REMARK SMILES CCN(CCC(=O)NCCCCNC(=O)c1ccc(-c2c3nc(c(-c4ccc(S(=O)(=O)[O-])cc4)c4ccc([nH]4)c(-c4ccc(S(=O)(=O)[O-])cc4)c4nc(c(-c5ccc(S(=O)(=O)[O-])cc5)c5ccc2[nH]5)C=C4)C=C3)cc1)C(=O)c1cc(Cl)ccc1F
REMARK SMILES IDX 10 1 9 2 8 3 6 4 7 5 5 7 4 8 3 9 2 10 1 11 76 12 77 13 78 14
REMARK SMILES IDX 79 15 84 16 80 17 83 18 85 19 81 20 82 21 11 22 12 23 13 24
REMARK SMILES IDX 14 25 15 27 16 28 17 29 75 30 18 31 74 32 19 33 20 34 21 35
REMARK SMILES IDX 68 36 22 37 73 38 67 39 69 40 23 41 72 42 66 43 65 44 24 46
REMARK SMILES IDX 54 47 35 48 53 49 36 50 39 51 52 52 70 53 37 54 38 55 51 57
REMARK SMILES IDX 71 58 40 59 25 60 26 61 34 62 27 63 33 64 28 65 29 66 30 67
REMARK SMILES IDX 31 68 32 69 55 70 56 71 64 72 57 73 63 74 58 75 59 76 60 77
REMARK SMILES IDX 61 78 62 79 41 80 42 81 50 82 43 83 49 84 44 85 45 86 46 87
REMARK SMILES IDX 47 88 48 89
REMARK H PARENT 8 6 13 26 69 45 39 56
REMARK Flexibility Score: inf
ROOT
ATOM      1  C   UNL     1       3.087   0.978  -2.571  1.00  0.00     0.023 C 
ENDROOT
BRANCH   1   2
ATOM      2  C   UNL     1       2.405   1.919  -3.551  1.00  0.00     0.116 C 
BRANCH   2   3
ATOM      3  N   UNL     1       2.062   1.309  -4.822  1.00  0.00    -0.356 N 
ATOM      4  C   UNL     1       0.884   0.763  -5.243  1.00  0.00     0.221 C 
ATOM      5  O   UNL     1       0.720   0.601  -6.457  1.00  0.00    -0.275 OA
ATOM      6  H   UNL     1       2.791   1.286  -5.483  1.00  0.00     0.163 HD
BRANCH   4   7
ATOM      7  C   UNL     1      -0.205   0.360  -4.268  1.00  0.00     0.121 C 
BRANCH   7   8
ATOM      8  C   UNL     1      -0.149  -1.086  -3.731  1.00  0.00     0.129 C 
BRANCH   8   9
ATOM      9  N   UNL     1       0.688  -1.301  -2.539  1.00  0.00    -0.338 N 
BRANCH   9  10
ATOM     10  C   UNL     1       0.240  -0.498  -1.368  1.00  0.00     0.116 C 
ATOM     11  C   UNL     1       0.816  -0.710   0.024  1.00  0.00     0.027 C 
ENDBRANCH   9  10
BRANCH   9  12
ATOM     12  C   UNL     1       1.782  -2.197  -2.430  1.00  0.00     0.256 C 
ATOM     13  O   UNL     1       2.185  -2.525  -1.308  1.00  0.00    -0.269 OA
BRANCH  12  14
ATOM     14  C   UNL     1       2.614  -2.772  -3.560  1.00  0.00     0.077 A 
ATOM     15  C   UNL     1       3.643  -3.670  -3.182  1.00  0.00     0.037 A 
ATOM     16  C   UNL     1       2.579  -2.451  -4.915  1.00  0.00     0.136 A 
ATOM     17  C   UNL     1       4.528  -4.226  -4.117  1.00  0.00     0.042 A 
ATOM     18  C   UNL     1       3.438  -3.026  -5.861  1.00  0.00     0.041 A 
ATOM     19  F   UNL     1       1.761  -1.539  -5.415  1.00  0.00    -0.206 F 
ATOM     20  Cl  UNL     1       5.788  -5.272  -3.595  1.00  0.00    -0.084 Cl
ATOM     21  C   UNL     1       4.415  -3.922  -5.465  1.00  0.00     0.023 A 
ENDBRANCH  12  14
ENDBRANCH   9  12
ENDBRANCH   8   9
ENDBRANCH   7   8
ENDBRANCH   4   7
ENDBRANCH   2   3
ENDBRANCH   1   2
BRANCH   1  22
ATOM     22  C   UNL     1       4.524   0.573  -2.854  1.00  0.00     0.023 C 
BRANCH  22  23
ATOM     23  C   UNL     1       5.524   1.709  -2.783  1.00  0.00     0.116 C 
BRANCH  23  24
ATOM     24  N   UNL     1       5.438   2.480  -1.550  1.00  0.00    -0.352 N 
ATOM     25  C   UNL     1       6.433   2.907  -0.702  1.00  0.00     0.251 C 
ATOM     26  H   UNL     1       4.525   2.735  -1.282  1.00  0.00     0.163 HD
ATOM     27  O   UNL     1       6.138   3.449   0.355  1.00  0.00    -0.269 OA
BRANCH  25  28
ATOM     28  C   UNL     1       7.849   2.682  -1.061  1.00  0.00     0.039 A 
ATOM     29  C   UNL     1       8.752   2.301  -0.065  1.00  0.00     0.014 A 
ATOM     30  C   UNL     1       8.281   2.817  -2.380  1.00  0.00     0.014 A 
ATOM     31  C   UNL     1      10.068   1.988  -0.411  1.00  0.00     0.010 A 
ATOM     32  C   UNL     1       9.547   2.382  -2.740  1.00  0.00     0.010 A 
ATOM     33  C   UNL     1      10.463   1.983  -1.759  1.00  0.00    -0.014 A 
BRANCH  33  34
ATOM     34  C   UNL     1      11.834   1.595  -2.174  1.00  0.00     0.031 A 
ATOM     35  C   UNL     1      12.688   2.579  -2.933  1.00  0.00     0.074 A 
ATOM     36  C   UNL     1      12.276   0.343  -1.941  1.00  0.00     0.049 A 
ATOM     37  N   UNL     1      13.873   2.409  -3.458  1.00  0.00    -0.248 NA
ATOM     38  C   UNL     1      12.120   3.920  -3.170  1.00  0.00     0.031 C 
ATOM     39  C   UNL     1      11.521  -0.715  -1.262  1.00  0.00     0.029 A 
ATOM     40  N   UNL     1      13.470  -0.257  -2.253  1.00  0.00    -0.354 N 
ATOM     41  C   UNL     1      14.171   3.598  -4.113  1.00  0.00     0.074 A 
ATOM     42  C   UNL     1      13.024   4.464  -3.970  1.00  0.00     0.031 C 
ATOM     43  C   UNL     1      12.285  -1.815  -1.170  1.00  0.00     0.029 A 
ATOM     44  C   UNL     1      13.563  -1.562  -1.827  1.00  0.00     0.049 A 
ATOM     45  H   UNL     1      14.193   0.204  -2.737  1.00  0.00     0.167 HD
ATOM     46  C   UNL     1      15.309   3.948  -4.757  1.00  0.00     0.031 A 
ATOM     47  C   UNL     1      14.564  -2.454  -1.956  1.00  0.00     0.031 A 
ATOM     48  C   UNL     1      16.462   3.096  -4.855  1.00  0.00     0.049 A 
ATOM     49  C   UNL     1      15.822  -2.033  -2.668  1.00  0.00     0.074 A 
ATOM     50  C   UNL     1      17.698   3.387  -5.404  1.00  0.00     0.029 A 
ATOM     51  N   UNL     1      16.523   1.791  -4.393  1.00  0.00    -0.354 N 
ATOM     52  N   UNL     1      16.119  -0.872  -3.202  1.00  0.00    -0.248 NA
ATOM     53  C   UNL     1      16.886  -3.040  -2.784  1.00  0.00     0.031 C 
ATOM     54  C   UNL     1      18.485   2.234  -5.333  1.00  0.00     0.029 A 
ATOM     55  C   UNL     1      17.764   1.250  -4.675  1.00  0.00     0.049 A 
ATOM     56  H   UNL     1      15.791   1.319  -3.933  1.00  0.00     0.167 HD
ATOM     57  C   UNL     1      17.416  -0.999  -3.687  1.00  0.00     0.074 A 
ATOM     58  C   UNL     1      17.852  -2.343  -3.366  1.00  0.00     0.031 C 
ATOM     59  C   UNL     1      18.180  -0.087  -4.337  1.00  0.00     0.031 A 
BRANCH  46  60
ATOM     60  C   UNL     1      15.366   5.306  -5.407  1.00  0.00    -0.014 A 
ATOM     61  C   UNL     1      15.396   6.486  -4.641  1.00  0.00     0.010 A 
ATOM     62  C   UNL     1      15.452   5.400  -6.808  1.00  0.00     0.010 A 
ATOM     63  C   UNL     1      15.481   7.733  -5.265  1.00  0.00     0.020 A 
ATOM     64  C   UNL     1      15.570   6.643  -7.435  1.00  0.00     0.020 A 
ATOM     65  C   UNL     1      15.571   7.803  -6.659  1.00  0.00     0.054 A 
BRANCH  65  66
ATOM     66  S   UNL     1      15.733   9.434  -7.436  1.00  0.00     0.124 S 
ATOM     67  O   UNL     1      14.401   9.998  -7.234  1.00  0.00    -0.237 OA
ATOM     68  O   UNL     1      16.802  10.053  -6.657  1.00  0.00    -0.237 OA
ATOM     69  O   UNL     1      16.074   9.125  -8.823  1.00  0.00    -0.744 OA
ENDBRANCH  65  66
ENDBRANCH  46  60
BRANCH  47  70
ATOM     70  C   UNL     1      14.433  -3.826  -1.389  1.00  0.00    -0.014 A 
ATOM     71  C   UNL     1      15.243  -4.232  -0.312  1.00  0.00     0.010 A 
ATOM     72  C   UNL     1      13.516  -4.744  -1.932  1.00  0.00     0.010 A 
ATOM     73  C   UNL     1      15.168  -5.537   0.182  1.00  0.00     0.020 A 
ATOM     74  C   UNL     1      13.413  -6.040  -1.419  1.00  0.00     0.020 A 
ATOM     75  C   UNL     1      14.254  -6.435  -0.377  1.00  0.00     0.054 A 
BRANCH  75  76
ATOM     76  S   UNL     1      14.168  -8.121   0.288  1.00  0.00     0.124 S 
ATOM     77  O   UNL     1      15.411  -8.705  -0.204  1.00  0.00    -0.237 OA
ATOM     78  O   UNL     1      14.103  -7.888   1.729  1.00  0.00    -0.237 OA
ATOM     79  O   UNL     1      12.945  -8.660  -0.304  1.00  0.00    -0.744 OA
ENDBRANCH  75  76
ENDBRANCH  47  70
BRANCH  59  80
ATOM     80  C   UNL     1      19.582  -0.492  -4.705  1.00  0.00    -0.014 A 
ATOM     81  C   UNL     1      19.830  -1.430  -5.722  1.00  0.00     0.010 A 
ATOM     82  C   UNL     1      20.669   0.128  -4.062  1.00  0.00     0.010 A 
ATOM     83  C   UNL     1      21.142  -1.766  -6.066  1.00  0.00     0.020 A 
ATOM     84  C   UNL     1      21.981  -0.180  -4.426  1.00  0.00     0.020 A 
ATOM     85  C   UNL     1      22.209  -1.137  -5.417  1.00  0.00     0.054 A 
BRANCH  85  86
ATOM     86  S   UNL     1      23.901  -1.555  -5.916  1.00  0.00     0.124 S 
ATOM     87  O   UNL     1      24.056  -2.899  -5.367  1.00  0.00    -0.237 OA
ATOM     88  O   UNL     1      23.833  -1.474  -7.373  1.00  0.00    -0.237 OA
ATOM     89  O   UNL     1      24.716  -0.524  -5.278  1.00  0.00    -0.744 OA
ENDBRANCH  85  86
ENDBRANCH  59  80
ENDBRANCH  33  34
ENDBRANCH  25  28
ENDBRANCH  23  24
ENDBRANCH  22  23
ENDBRANCH   1  22
TORSDOF 19
