REMARK SMILES O=C(NCCCCNC(=O)[C@@H](CCCCl)[P@TB4](=O)(c1ccccc1)c1ccccc1)c1ccc(-c2c3nc(c(-c4ccc(S(=O)(=O)[O-])cc4)c4ccc([nH]4)c(-c4ccc(S(=O)(=O)[O-])cc4)c4nc(c(-c5ccc(S(=O)(=O)[O-])cc5)c5ccc2[nH]5)C=C4)C=C3)cc1
REMARK SMILES IDX 5 1 4 2 3 3 1 4 2 5 30 7 31 8 89 9 32 10 88 11 33 12 34 13
REMARK SMILES IDX 35 14 82 15 36 16 87 17 81 18 83 19 37 20 86 21 80 22 79 23
REMARK SMILES IDX 38 25 68 26 49 27 67 28 50 29 53 30 66 31 84 32 51 33 52 34
REMARK SMILES IDX 65 36 85 37 54 38 39 39 40 40 48 41 41 42 47 43 42 44 43 45
REMARK SMILES IDX 44 46 45 47 46 48 69 49 70 50 78 51 71 52 77 53 72 54 73 55
REMARK SMILES IDX 74 56 75 57 76 58 55 59 56 60 64 61 57 62 63 63 58 64 59 65
REMARK SMILES IDX 60 66 61 67 62 68 6 69 7 70 8 71 9 72 10 74 11 75 12 76
REMARK SMILES IDX 13 77 14 78 15 79 16 80 17 81 18 82 19 83 23 84 20 85 22 86
REMARK SMILES IDX 21 87 24 88 25 89 29 90 26 91 28 92 27 93
REMARK H PARENT 3 6 83 24 53 35 8 73
REMARK Flexibility Score: inf
ROOT
ATOM      1  C   UNL     1       5.143   2.108   0.973  1.00  0.00       nan C 
ENDROOT
BRANCH   1   2
ATOM      2  C   UNL     1       4.692   0.721   0.539  1.00  0.00       nan C 
BRANCH   2   3
ATOM      3  N   UNL     1       3.256   0.506   0.679  1.00  0.00       nan N 
ATOM      4  O   UNL     1       1.181  -0.037  -0.050  1.00  0.00       nan OA
ATOM      5  C   UNL     1       2.384  -0.013  -0.252  1.00  0.00       nan C 
ATOM      6  H   UNL     1       2.863   0.763   1.545  1.00  0.00       nan HD
BRANCH   5   7
ATOM      7  C   UNL     1       2.956  -0.507  -1.519  1.00  0.00       nan A 
ATOM      8  C   UNL     1       4.024  -1.407  -1.479  1.00  0.00       nan A 
ATOM      9  C   UNL     1       2.509   0.027  -2.728  1.00  0.00       nan A 
ATOM     10  C   UNL     1       4.750  -1.647  -2.634  1.00  0.00       inf A 
ATOM     11  C   UNL     1       3.183  -0.299  -3.906  1.00  0.00       inf A 
ATOM     12  C   UNL     1       4.327  -1.111  -3.863  1.00  0.00    -0.014 A 
BRANCH  12  13
ATOM     13  C   UNL     1       5.055  -1.486  -5.098  1.00  0.00     0.031 A 
ATOM     14  C   UNL     1       5.779  -0.463  -5.927  1.00  0.00     0.074 A 
ATOM     15  C   UNL     1       5.064  -2.787  -5.451  1.00  0.00     0.049 A 
ATOM     16  N   UNL     1       6.436  -0.634  -7.046  1.00  0.00    -0.248 NA
ATOM     17  C   UNL     1       5.760   0.930  -5.450  1.00  0.00     0.031 C 
ATOM     18  C   UNL     1       4.390  -3.863  -4.715  1.00  0.00     0.029 A 
ATOM     19  N   UNL     1       5.667  -3.430  -6.498  1.00  0.00    -0.354 N 
ATOM     20  C   UNL     1       6.879   0.627  -7.427  1.00  0.00     0.074 A 
ATOM     21  C   UNL     1       6.413   1.558  -6.421  1.00  0.00     0.031 C 
ATOM     22  C   UNL     1       4.659  -5.035  -5.305  1.00  0.00     0.029 A 
ATOM     23  C   UNL     1       5.450  -4.787  -6.502  1.00  0.00     0.049 A 
ATOM     24  H   UNL     1       6.203  -2.966  -7.182  1.00  0.00     0.167 HD
ATOM     25  C   UNL     1       7.603   0.971  -8.519  1.00  0.00     0.031 A 
ATOM     26  C   UNL     1       5.817  -5.730  -7.388  1.00  0.00     0.031 A 
ATOM     27  C   UNL     1       8.070   0.029  -9.504  1.00  0.00     0.049 A 
ATOM     28  C   UNL     1       6.598  -5.317  -8.597  1.00  0.00     0.074 A 
ATOM     29  C   UNL     1       8.847   0.270 -10.625  1.00  0.00     0.029 A 
ATOM     30  N   UNL     1       7.802  -1.332  -9.491  1.00  0.00    -0.354 N 
ATOM     31  N   UNL     1       7.025  -4.122  -8.927  1.00  0.00    -0.248 NA
ATOM     32  C   UNL     1       6.935  -6.373  -9.558  1.00  0.00     0.031 C 
ATOM     33  C   UNL     1       9.005  -0.937 -11.315  1.00  0.00     0.029 A 
ATOM     34  C   UNL     1       8.370  -1.939 -10.598  1.00  0.00     0.049 A 
ATOM     35  H   UNL     1       7.283  -1.798  -8.796  1.00  0.00     0.167 HD
ATOM     36  C   UNL     1       7.685  -4.281 -10.138  1.00  0.00     0.074 A 
ATOM     37  C   UNL     1       7.622  -5.692 -10.466  1.00  0.00     0.031 C 
ATOM     38  C   UNL     1       8.283  -3.343 -10.911  1.00  0.00     0.031 A 
BRANCH  25  39
ATOM     39  C   UNL     1       7.908   2.430  -8.735  1.00  0.00    -0.014 A 
ATOM     40  C   UNL     1       8.874   3.100  -7.964  1.00  0.00     0.010 A 
ATOM     41  C   UNL     1       7.261   3.126  -9.774  1.00  0.00     0.010 A 
ATOM     42  C   UNL     1       9.165   4.446  -8.209  1.00  0.00     0.020 A 
ATOM     43  C   UNL     1       7.564   4.465 -10.035  1.00  0.00     0.020 A 
ATOM     44  C   UNL     1       8.505   5.122  -9.240  1.00  0.00     0.054 A 
BRANCH  44  45
ATOM     45  S   UNL     1       8.919   6.861  -9.553  1.00  0.00     0.124 S 
ATOM     46  O   UNL     1       8.255   7.533  -8.439  1.00  0.00    -0.237 OA
ATOM     47  O   UNL     1      10.379   6.858  -9.503  1.00  0.00    -0.237 OA
ATOM     48  O   UNL     1       8.345   7.123 -10.870  1.00  0.00    -0.744 OA
ENDBRANCH  44  45
ENDBRANCH  25  39
BRANCH  26  49
ATOM     49  C   UNL     1       5.399  -7.138  -7.168  1.00  0.00    -0.014 A 
ATOM     50  C   UNL     1       6.337  -8.115  -6.797  1.00  0.00     0.010 A 
ATOM     51  C   UNL     1       4.041  -7.494  -7.274  1.00  0.00     0.010 A 
ATOM     52  C   UNL     1       5.925  -9.426  -6.540  1.00  0.00     0.020 A 
ATOM     53  C   UNL     1       3.622  -8.795  -6.992  1.00  0.00     0.020 A 
ATOM     54  C   UNL     1       4.569  -9.756  -6.636  1.00  0.00     0.054 A 
BRANCH  54  55
ATOM     55  S   UNL     1       4.043 -11.444  -6.232  1.00  0.00     0.124 S 
ATOM     56  O   UNL     1       4.407 -12.172  -7.444  1.00  0.00    -0.237 OA
ATOM     57  O   UNL     1       4.838 -11.751  -5.046  1.00  0.00    -0.237 OA
ATOM     58  O   UNL     1       2.608 -11.304  -5.990  1.00  0.00    -0.744 OA
ENDBRANCH  54  55
ENDBRANCH  26  49
BRANCH  38  59
ATOM     59  C   UNL     1       8.921  -3.820 -12.184  1.00  0.00    -0.014 A 
ATOM     60  C   UNL     1       8.136  -4.162 -13.299  1.00  0.00     0.010 A 
ATOM     61  C   UNL     1      10.322  -3.887 -12.279  1.00  0.00     0.010 A 
ATOM     62  C   UNL     1       8.742  -4.590 -14.482  1.00  0.00     0.020 A 
ATOM     63  C   UNL     1      10.932  -4.292 -13.468  1.00  0.00     0.020 A 
ATOM     64  C   UNL     1      10.137  -4.653 -14.558  1.00  0.00     0.054 A 
BRANCH  64  65
ATOM     65  S   UNL     1      10.904  -5.166 -16.119  1.00  0.00     0.124 S 
ATOM     66  O   UNL     1      10.694  -6.611 -16.099  1.00  0.00    -0.237 OA
ATOM     67  O   UNL     1      10.128  -4.433 -17.116  1.00  0.00    -0.237 OA
ATOM     68  O   UNL     1      12.293  -4.735 -15.979  1.00  0.00    -0.744 OA
ENDBRANCH  64  65
ENDBRANCH  38  59
ENDBRANCH  12  13
ENDBRANCH   5   7
ENDBRANCH   2   3
ENDBRANCH   1   2
BRANCH   1  69
ATOM     69  C   UNL     1       4.785   2.467   2.407  1.00  0.00       nan C 
BRANCH  69  70
ATOM     70  C   UNL     1       5.383   1.522   3.439  1.00  0.00       nan C 
BRANCH  70  71
ATOM     71  N   UNL     1       6.707   1.926   3.852  1.00  0.00       nan N 
ATOM     72  C   UNL     1       7.259   1.899   5.093  1.00  0.00       nan C 
ATOM     73  H   UNL     1       7.290   2.268   3.135  1.00  0.00       nan HD
ATOM     74  O   UNL     1       8.485   2.059   5.149  1.00  0.00       nan OA
BRANCH  72  75
ATOM     75  C   UNL     1       6.456   1.857   6.381  1.00  0.00       nan C 
BRANCH  75  76
ATOM     76  C   UNL     1       5.760   3.220   6.673  1.00  0.00       nan C 
BRANCH  76  77
ATOM     77  C   UNL     1       4.493   3.639   5.909  1.00  0.00       nan C 
BRANCH  77  78
ATOM     78  C   UNL     1       3.215   2.831   6.122  1.00  0.00       nan C 
ATOM     79  Cl  UNL     1       2.696   2.870   7.820  1.00  0.00       nan Cl
ENDBRANCH  77  78
ENDBRANCH  76  77
ENDBRANCH  75  76
BRANCH  75  80
ATOM     80  P   UNL     1       5.404   0.446   6.881  1.00  0.00       nan P 
ATOM     81  O   UNL     1       5.695  -0.238   5.530  1.00  0.00       nan OA
BRANCH  80  82
ATOM     82  C   UNL     1       6.748  -0.157   8.172  1.00  0.00       nan A 
ATOM     83  C   UNL     1       7.421  -1.369   7.948  1.00  0.00       nan A 
ATOM     84  C   UNL     1       7.072   0.627   9.290  1.00  0.00       nan A 
ATOM     85  C   UNL     1       8.396  -1.803   8.844  1.00  0.00       nan A 
ATOM     86  C   UNL     1       8.088   0.208  10.152  1.00  0.00       nan A 
ATOM     87  C   UNL     1       8.739  -1.008   9.936  1.00  0.00       nan A 
ENDBRANCH  80  82
BRANCH  80  88
ATOM     88  C   UNL     1       4.352  -0.966   7.382  1.00  0.00       nan A 
ATOM     89  C   UNL     1       3.477  -0.751   8.463  1.00  0.00       nan A 
ATOM     90  C   UNL     1       4.349  -2.236   6.779  1.00  0.00       nan A 
ATOM     91  C   UNL     1       2.644  -1.770   8.932  1.00  0.00       nan A 
ATOM     92  C   UNL     1       3.525  -3.258   7.255  1.00  0.00       nan A 
ATOM     93  C   UNL     1       2.673  -3.025   8.331  1.00  0.00       nan A 
ENDBRANCH  80  88
ENDBRANCH  75  80
ENDBRANCH  72  75
ENDBRANCH  70  71
ENDBRANCH  69  70
ENDBRANCH   1  69
TORSDOF 20
