REMARK SMILES O=C(NCCCCNC(=O)[C@H]1CC(=O)N(Cc2cccc(Cl)c2)C1)c1ccc(-c2c3nc(c(-c4ccc(S(=O)(=O)[O-])cc4)c4ccc([nH]4)c(-c4ccc(S(=O)(=O)[O-])cc4)c4nc(c(-c5ccc(S(=O)(=O)[O-])cc5)c5ccc2[nH]5)C=C4)C=C3)cc1
REMARK SMILES IDX 5 1 4 2 3 3 1 4 2 5 25 7 26 8 84 9 27 10 83 11 28 12 29 13
REMARK SMILES IDX 30 14 77 15 31 16 82 17 76 18 78 19 32 20 81 21 75 22 74 23
REMARK SMILES IDX 33 25 63 26 44 27 62 28 45 29 48 30 61 31 79 32 46 33 47 34
REMARK SMILES IDX 60 36 80 37 49 38 34 39 35 40 43 41 36 42 42 43 37 44 38 45
REMARK SMILES IDX 39 46 40 47 41 48 64 49 65 50 73 51 66 52 72 53 67 54 68 55
REMARK SMILES IDX 69 56 70 57 71 58 50 59 51 60 59 61 52 62 58 63 53 64 54 65
REMARK SMILES IDX 55 66 56 67 57 68 6 69 7 70 8 71 9 72 10 74 11 75 12 76
REMARK SMILES IDX 24 77 13 78 15 79 14 80 16 81 17 82 18 83 23 84 19 85 21 86
REMARK SMILES IDX 20 87 22 88
REMARK H PARENT 3 6 78 24 48 35 8 73
REMARK Flexibility Score: inf
ROOT
ATOM      1  C   UNL     1       2.134   6.524  -5.035  1.00  0.00     0.023 C 
ENDROOT
BRANCH   1   2
ATOM      2  C   UNL     1       1.395   6.844  -3.754  1.00  0.00     0.116 C 
BRANCH   2   3
ATOM      3  N   UNL     1       1.807   8.089  -3.112  1.00  0.00    -0.352 N 
ATOM      4  O   UNL     1       1.442  10.021  -1.976  1.00  0.00    -0.269 OA
ATOM      5  C   UNL     1       1.005   8.960  -2.403  1.00  0.00     0.251 C 
ATOM      6  H   UNL     1       2.757   8.334  -3.195  1.00  0.00     0.163 HD
BRANCH   5   7
ATOM      7  C   UNL     1      -0.408   8.575  -2.218  1.00  0.00     0.039 A 
ATOM      8  C   UNL     1      -0.693   7.282  -1.785  1.00  0.00     0.014 A 
ATOM      9  C   UNL     1      -1.428   9.428  -2.646  1.00  0.00     0.014 A 
ATOM     10  C   UNL     1      -1.958   6.767  -1.995  1.00  0.00     0.010 A 
ATOM     11  C   UNL     1      -2.740   8.947  -2.705  1.00  0.00     0.010 A 
ATOM     12  C   UNL     1      -3.010   7.600  -2.418  1.00  0.00    -0.014 A 
BRANCH  12  13
ATOM     13  C   UNL     1      -4.380   7.025  -2.447  1.00  0.00     0.031 A 
ATOM     14  C   UNL     1      -5.196   6.954  -3.708  1.00  0.00     0.074 A 
ATOM     15  C   UNL     1      -4.847   6.487  -1.301  1.00  0.00     0.049 A 
ATOM     16  N   UNL     1      -6.378   6.418  -3.884  1.00  0.00    -0.248 NA
ATOM     17  C   UNL     1      -4.631   7.563  -4.923  1.00  0.00     0.031 C 
ATOM     18  C   UNL     1      -4.143   6.513  -0.012  1.00  0.00     0.029 A 
ATOM     19  N   UNL     1      -5.987   5.777  -1.036  1.00  0.00    -0.354 N 
ATOM     20  C   UNL     1      -6.706   6.634  -5.217  1.00  0.00     0.074 A 
ATOM     21  C   UNL     1      -5.611   7.379  -5.801  1.00  0.00     0.031 C 
ATOM     22  C   UNL     1      -4.820   5.779   0.877  1.00  0.00     0.029 A 
ATOM     23  C   UNL     1      -6.056   5.323   0.260  1.00  0.00     0.049 A 
ATOM     24  H   UNL     1      -6.688   5.609  -1.706  1.00  0.00     0.167 HD
ATOM     25  C   UNL     1      -7.816   6.242  -5.890  1.00  0.00     0.031 A 
ATOM     26  C   UNL     1      -7.021   4.641   0.902  1.00  0.00     0.031 A 
ATOM     27  C   UNL     1      -8.905   5.508  -5.291  1.00  0.00     0.049 A 
ATOM     28  C   UNL     1      -8.250   4.253   0.140  1.00  0.00     0.074 A 
ATOM     29  C   UNL     1     -10.073   5.061  -5.888  1.00  0.00     0.029 A 
ATOM     30  N   UNL     1      -8.963   5.111  -3.963  1.00  0.00    -0.354 N 
ATOM     31  N   UNL     1      -8.531   4.459  -1.125  1.00  0.00    -0.248 NA
ATOM     32  C   UNL     1      -9.290   3.541   0.889  1.00  0.00     0.031 C 
ATOM     33  C   UNL     1     -10.860   4.445  -4.909  1.00  0.00     0.029 A 
ATOM     34  C   UNL     1     -10.154   4.444  -3.717  1.00  0.00     0.049 A 
ATOM     35  H   UNL     1      -8.262   5.278  -3.293  1.00  0.00     0.167 HD
ATOM     36  C   UNL     1      -9.783   3.893  -1.326  1.00  0.00     0.074 A 
ATOM     37  C   UNL     1     -10.180   3.300  -0.064  1.00  0.00     0.031 C 
ATOM     38  C   UNL     1     -10.540   3.873  -2.450  1.00  0.00     0.031 A 
BRANCH  25  39
ATOM     39  C   UNL     1      -7.926   6.607  -7.350  1.00  0.00    -0.014 A 
ATOM     40  C   UNL     1      -7.114   5.988  -8.318  1.00  0.00     0.010 A 
ATOM     41  C   UNL     1      -8.908   7.523  -7.772  1.00  0.00     0.010 A 
ATOM     42  C   UNL     1      -7.263   6.297  -9.674  1.00  0.00     0.020 A 
ATOM     43  C   UNL     1      -9.080   7.814  -9.130  1.00  0.00     0.020 A 
ATOM     44  C   UNL     1      -8.248   7.207 -10.072  1.00  0.00     0.054 A 
BRANCH  44  45
ATOM     45  S   UNL     1      -8.445   7.553 -11.842  1.00  0.00     0.124 S 
ATOM     46  O   UNL     1      -7.228   8.305 -12.139  1.00  0.00    -0.237 OA
ATOM     47  O   UNL     1      -8.513   6.215 -12.423  1.00  0.00    -0.237 OA
ATOM     48  O   UNL     1      -9.684   8.324 -11.910  1.00  0.00    -0.744 OA
ENDBRANCH  44  45
ENDBRANCH  25  39
BRANCH  26  49
ATOM     49  C   UNL     1      -6.874   4.345   2.353  1.00  0.00    -0.014 A 
ATOM     50  C   UNL     1      -6.760   3.025   2.819  1.00  0.00     0.010 A 
ATOM     51  C   UNL     1      -6.835   5.405   3.281  1.00  0.00     0.010 A 
ATOM     52  C   UNL     1      -6.641   2.770   4.189  1.00  0.00     0.020 A 
ATOM     53  C   UNL     1      -6.673   5.156   4.643  1.00  0.00     0.020 A 
ATOM     54  C   UNL     1      -6.598   3.837   5.091  1.00  0.00     0.054 A 
BRANCH  54  55
ATOM     55  S   UNL     1      -6.417   3.485   6.860  1.00  0.00     0.124 S 
ATOM     56  O   UNL     1      -7.738   2.967   7.200  1.00  0.00    -0.237 OA
ATOM     57  O   UNL     1      -5.329   2.512   6.877  1.00  0.00    -0.237 OA
ATOM     58  O   UNL     1      -6.087   4.787   7.435  1.00  0.00    -0.744 OA
ENDBRANCH  54  55
ENDBRANCH  26  49
BRANCH  38  59
ATOM     59  C   UNL     1     -11.864   3.163  -2.360  1.00  0.00    -0.014 A 
ATOM     60  C   UNL     1     -12.920   3.682  -1.589  1.00  0.00     0.010 A 
ATOM     61  C   UNL     1     -12.053   1.956  -3.057  1.00  0.00     0.010 A 
ATOM     62  C   UNL     1     -14.120   2.977  -1.470  1.00  0.00     0.020 A 
ATOM     63  C   UNL     1     -13.264   1.266  -2.970  1.00  0.00     0.020 A 
ATOM     64  C   UNL     1     -14.282   1.771  -2.158  1.00  0.00     0.054 A 
BRANCH  64  65
ATOM     65  S   UNL     1     -15.852   0.878  -1.993  1.00  0.00     0.124 S 
ATOM     66  O   UNL     1     -15.762   0.357  -0.632  1.00  0.00    -0.237 OA
ATOM     67  O   UNL     1     -16.842   1.933  -2.199  1.00  0.00    -0.237 OA
ATOM     68  O   UNL     1     -15.791  -0.128  -3.051  1.00  0.00    -0.744 OA
ENDBRANCH  64  65
ENDBRANCH  38  59
ENDBRANCH  12  13
ENDBRANCH   5   7
ENDBRANCH   2   3
ENDBRANCH   1   2
BRANCH   1  69
ATOM     69  C   UNL     1       3.640   6.421  -4.868  1.00  0.00     0.023 C 
BRANCH  69  70
ATOM     70  C   UNL     1       4.115   5.300  -3.936  1.00  0.00     0.116 C 
BRANCH  70  71
ATOM     71  N   UNL     1       4.249   4.045  -4.650  1.00  0.00    -0.356 N 
ATOM     72  C   UNL     1       5.257   3.517  -5.392  1.00  0.00     0.225 C 
ATOM     73  H   UNL     1       3.457   3.464  -4.584  1.00  0.00     0.163 HD
ATOM     74  O   UNL     1       5.011   2.450  -5.965  1.00  0.00    -0.275 OA
BRANCH  72  75
ATOM     75  C   UNL     1       6.667   4.095  -5.457  1.00  0.00     0.107 C 
ATOM     76  C   UNL     1       7.257   3.917  -6.866  1.00  0.00     0.115 C 
ATOM     77  C   UNL     1       6.846   5.570  -5.205  1.00  0.00     0.133 C 
ATOM     78  C   UNL     1       8.186   5.098  -7.042  1.00  0.00     0.223 C 
ATOM     79  N   UNL     1       7.918   6.008  -6.043  1.00  0.00    -0.338 N 
ATOM     80  O   UNL     1       9.006   5.225  -7.939  1.00  0.00    -0.275 OA
BRANCH  79  81
ATOM     81  C   UNL     1       8.504   7.336  -5.914  1.00  0.00     0.155 C 
BRANCH  81  82
ATOM     82  C   UNL     1       7.501   8.464  -6.072  1.00  0.00    -0.027 A 
ATOM     83  C   UNL     1       6.570   8.765  -5.060  1.00  0.00     0.005 A 
ATOM     84  C   UNL     1       7.479   9.237  -7.242  1.00  0.00     0.026 A 
ATOM     85  C   UNL     1       5.612   9.768  -5.233  1.00  0.00     0.002 A 
ATOM     86  C   UNL     1       6.543  10.264  -7.395  1.00  0.00     0.041 A 
ATOM     87  C   UNL     1       5.598  10.520  -6.404  1.00  0.00     0.020 A 
ATOM     88  Cl  UNL     1       6.564  11.234  -8.817  1.00  0.00    -0.084 Cl
ENDBRANCH  81  82
ENDBRANCH  79  81
ENDBRANCH  72  75
ENDBRANCH  70  71
ENDBRANCH  69  70
ENDBRANCH   1  69
TORSDOF 16
