REMARK SMILES C[C@@H](C(=O)NCCCCNC(=O)c1ccc(-c2c3nc(c(-c4ccc(S(=O)(=O)[O-])cc4)c4ccc([nH]4)c(-c4ccc(S(=O)(=O)[O-])cc4)c4nc(c(-c5ccc(S(=O)(=O)[O-])cc5)c5ccc2[nH]5)C=C4)C=C3)cc1)[C@H](C)[S@@](=O)c1ccc(F)c(F)c1
REMARK SMILES IDX 7 1 6 2 5 3 3 4 4 5 2 7 1 8 73 9 74 10 75 11 76 12 77 13
REMARK SMILES IDX 78 14 84 15 79 16 82 17 80 18 83 19 81 20 8 21 9 22 10 23
REMARK SMILES IDX 11 24 12 26 13 27 14 28 72 29 15 30 71 31 16 32 17 33 18 34
REMARK SMILES IDX 65 35 19 36 70 37 64 38 66 39 20 40 69 41 63 42 62 43 21 45
REMARK SMILES IDX 51 46 32 47 50 48 33 49 36 50 49 51 67 52 34 53 35 54 48 56
REMARK SMILES IDX 68 57 37 58 22 59 23 60 31 61 24 62 30 63 25 64 26 65 27 66
REMARK SMILES IDX 28 67 29 68 52 69 53 70 61 71 54 72 60 73 55 74 56 75 57 76
REMARK SMILES IDX 58 77 59 78 38 79 39 80 47 81 40 82 46 83 41 84 42 85 43 86
REMARK SMILES IDX 44 87 45 88
REMARK H PARENT 5 6 10 25 66 44 36 55
REMARK Flexibility Score: inf
ROOT
ATOM      1  C   UNL     1      -1.982   4.511   0.129  1.00  0.00     0.023 C 
ENDROOT
BRANCH   1   2
ATOM      2  C   UNL     1      -2.236   3.676  -1.128  1.00  0.00     0.116 C 
BRANCH   2   3
ATOM      3  N   UNL     1      -1.018   3.066  -1.629  1.00  0.00    -0.356 N 
ATOM      4  C   UNL     1      -0.611   1.766  -1.637  1.00  0.00     0.224 C 
ATOM      5  O   UNL     1       0.483   1.526  -2.146  1.00  0.00    -0.275 OA
ATOM      6  H   UNL     1      -0.378   3.698  -2.030  1.00  0.00     0.163 HD
BRANCH   4   7
ATOM      7  C   UNL     1      -1.507   0.675  -1.049  1.00  0.00     0.091 C 
ATOM      8  C   UNL     1      -1.541   0.795   0.482  1.00  0.00     0.019 C 
BRANCH   7   9
ATOM      9  C   UNL     1      -1.093  -0.769  -1.429  1.00  0.00     0.093 C 
ATOM     10  C   UNL     1       0.389  -1.129  -1.345  1.00  0.00     0.023 C 
BRANCH   9  11
ATOM     11  S   UNL     1      -1.869  -1.412  -2.965  1.00  0.00     0.057 S 
ATOM     12  O   UNL     1      -3.338  -1.115  -2.878  1.00  0.00    -0.254 OA
BRANCH  11  13
ATOM     13  C   UNL     1      -1.229  -0.315  -4.239  1.00  0.00     0.042 A 
ATOM     14  C   UNL     1      -0.202  -0.769  -5.081  1.00  0.00     0.021 A 
ATOM     15  C   UNL     1      -1.814   0.932  -4.482  1.00  0.00     0.060 A 
ATOM     16  C   UNL     1       0.257   0.033  -6.131  1.00  0.00     0.043 A 
ATOM     17  C   UNL     1      -1.330   1.736  -5.509  1.00  0.00     0.160 A 
ATOM     18  C   UNL     1      -0.305   1.288  -6.332  1.00  0.00     0.158 A 
ATOM     19  F   UNL     1      -1.875   2.945  -5.705  1.00  0.00    -0.204 F 
ATOM     20  F   UNL     1       0.137   2.053  -7.339  1.00  0.00    -0.204 F 
ENDBRANCH  11  13
ENDBRANCH   9  11
ENDBRANCH   7   9
ENDBRANCH   4   7
ENDBRANCH   2   3
ENDBRANCH   1   2
BRANCH   1  21
ATOM     21  C   UNL     1      -1.025   5.691  -0.054  1.00  0.00     0.023 C 
BRANCH  21  22
ATOM     22  C   UNL     1      -1.412   6.686  -1.142  1.00  0.00     0.116 C 
BRANCH  22  23
ATOM     23  N   UNL     1      -2.717   7.287  -0.919  1.00  0.00    -0.352 N 
ATOM     24  C   UNL     1      -3.090   8.607  -1.015  1.00  0.00     0.251 C 
ATOM     25  H   UNL     1      -3.433   6.662  -0.665  1.00  0.00     0.163 HD
ATOM     26  O   UNL     1      -4.213   8.950  -0.657  1.00  0.00    -0.269 OA
BRANCH  24  27
ATOM     27  C   UNL     1      -2.127   9.612  -1.514  1.00  0.00     0.039 A 
ATOM     28  C   UNL     1      -1.982  10.812  -0.813  1.00  0.00     0.014 A 
ATOM     29  C   UNL     1      -1.359   9.370  -2.656  1.00  0.00     0.014 A 
ATOM     30  C   UNL     1      -1.016  11.738  -1.217  1.00  0.00     0.010 A 
ATOM     31  C   UNL     1      -0.350  10.261  -3.015  1.00  0.00     0.010 A 
ATOM     32  C   UNL     1      -0.165  11.452  -2.297  1.00  0.00    -0.014 A 
BRANCH  32  33
ATOM     33  C   UNL     1       0.932  12.378  -2.679  1.00  0.00     0.031 A 
ATOM     34  C   UNL     1       0.925  13.050  -4.026  1.00  0.00     0.074 A 
ATOM     35  C   UNL     1       1.971  12.562  -1.839  1.00  0.00     0.049 A 
ATOM     36  N   UNL     1       1.824  13.839  -4.557  1.00  0.00    -0.248 NA
ATOM     37  C   UNL     1      -0.231  12.784  -4.898  1.00  0.00     0.031 C 
ATOM     38  C   UNL     1       2.118  11.936  -0.522  1.00  0.00     0.029 A 
ATOM     39  N   UNL     1       3.106  13.324  -1.970  1.00  0.00    -0.354 N 
ATOM     40  C   UNL     1       1.353  14.149  -5.828  1.00  0.00     0.074 A 
ATOM     41  C   UNL     1       0.111  13.428  -6.005  1.00  0.00     0.031 C 
ATOM     42  C   UNL     1       3.262  12.357   0.041  1.00  0.00     0.029 A 
ATOM     43  C   UNL     1       3.951  13.248  -0.887  1.00  0.00     0.049 A 
ATOM     44  H   UNL     1       3.297  13.873  -2.764  1.00  0.00     0.167 HD
ATOM     45  C   UNL     1       1.895  14.973  -6.756  1.00  0.00     0.031 A 
ATOM     46  C   UNL     1       5.149  13.823  -0.667  1.00  0.00     0.031 A 
ATOM     47  C   UNL     1       3.124  15.699  -6.573  1.00  0.00     0.049 A 
ATOM     48  C   UNL     1       5.733  14.728  -1.717  1.00  0.00     0.074 A 
ATOM     49  C   UNL     1       3.725  16.602  -7.433  1.00  0.00     0.029 A 
ATOM     50  N   UNL     1       3.941  15.606  -5.456  1.00  0.00    -0.354 N 
ATOM     51  N   UNL     1       5.238  15.061  -2.885  1.00  0.00    -0.248 NA
ATOM     52  C   UNL     1       7.032  15.346  -1.413  1.00  0.00     0.031 C 
ATOM     53  C   UNL     1       4.931  17.017  -6.858  1.00  0.00     0.029 A 
ATOM     54  C   UNL     1       5.051  16.418  -5.614  1.00  0.00     0.049 A 
ATOM     55  H   UNL     1       3.759  15.045  -4.668  1.00  0.00     0.167 HD
ATOM     56  C   UNL     1       6.151  15.949  -3.443  1.00  0.00     0.074 A 
ATOM     57  C   UNL     1       7.219  16.113  -2.479  1.00  0.00     0.031 C 
ATOM     58  C   UNL     1       6.106  16.575  -4.645  1.00  0.00     0.031 A 
BRANCH  45  59
ATOM     59  C   UNL     1       1.161  15.134  -8.062  1.00  0.00    -0.014 A 
ATOM     60  C   UNL     1      -0.057  15.833  -8.128  1.00  0.00     0.010 A 
ATOM     61  C   UNL     1       1.724  14.627  -9.248  1.00  0.00     0.010 A 
ATOM     62  C   UNL     1      -0.717  15.993  -9.349  1.00  0.00     0.020 A 
ATOM     63  C   UNL     1       1.081  14.809 -10.476  1.00  0.00     0.020 A 
ATOM     64  C   UNL     1      -0.143  15.479 -10.516  1.00  0.00     0.054 A 
BRANCH  64  65
ATOM     65  S   UNL     1      -1.005  15.732 -12.092  1.00  0.00     0.124 S 
ATOM     66  O   UNL     1      -2.131  14.810 -11.971  1.00  0.00    -0.237 OA
ATOM     67  O   UNL     1      -1.349  17.151 -12.045  1.00  0.00    -0.237 OA
ATOM     68  O   UNL     1      -0.008  15.369 -13.096  1.00  0.00    -0.744 OA
ENDBRANCH  64  65
ENDBRANCH  45  59
BRANCH  46  69
ATOM     69  C   UNL     1       5.876  13.567   0.608  1.00  0.00    -0.014 A 
ATOM     70  C   UNL     1       6.016  14.585   1.567  1.00  0.00     0.010 A 
ATOM     71  C   UNL     1       6.433  12.302   0.869  1.00  0.00     0.010 A 
ATOM     72  C   UNL     1       6.719  14.351   2.753  1.00  0.00     0.020 A 
ATOM     73  C   UNL     1       7.112  12.055   2.065  1.00  0.00     0.020 A 
ATOM     74  C   UNL     1       7.263  13.086   2.994  1.00  0.00     0.054 A 
BRANCH  74  75
ATOM     75  S   UNL     1       8.136  12.791   4.557  1.00  0.00     0.124 S 
ATOM     76  O   UNL     1       9.395  13.496   4.339  1.00  0.00    -0.237 OA
ATOM     77  O   UNL     1       7.236  13.391   5.540  1.00  0.00    -0.237 OA
ATOM     78  O   UNL     1       8.235  11.335   4.623  1.00  0.00    -0.744 OA
ENDBRANCH  74  75
ENDBRANCH  46  69
BRANCH  58  79
ATOM     79  C   UNL     1       7.224  17.527  -4.974  1.00  0.00    -0.014 A 
ATOM     80  C   UNL     1       8.513  17.062  -5.288  1.00  0.00     0.010 A 
ATOM     81  C   UNL     1       6.963  18.909  -5.025  1.00  0.00     0.010 A 
ATOM     82  C   UNL     1       9.529  17.964  -5.616  1.00  0.00     0.020 A 
ATOM     83  C   UNL     1       7.968  19.812  -5.380  1.00  0.00     0.020 A 
ATOM     84  C   UNL     1       9.249  19.334  -5.660  1.00  0.00     0.054 A 
BRANCH  84  85
ATOM     85  S   UNL     1      10.573  20.480  -6.133  1.00  0.00     0.124 S 
ATOM     86  O   UNL     1      11.407  20.493  -4.934  1.00  0.00    -0.237 OA
ATOM     87  O   UNL     1      11.160  19.828  -7.301  1.00  0.00    -0.237 OA
ATOM     88  O   UNL     1       9.867  21.728  -6.413  1.00  0.00    -0.744 OA
ENDBRANCH  84  85
ENDBRANCH  58  79
ENDBRANCH  32  33
ENDBRANCH  24  27
ENDBRANCH  22  23
ENDBRANCH  21  22
ENDBRANCH   1  21
TORSDOF 17
