REMARK SMILES O=C(NCCCCNC(=O)[C@H]1Cc2[nH]cnc2CN1C(=O)c1ccncc1Cl)c1ccc(-c2c3nc(c(-c4ccc(S(=O)(=O)[O-])cc4)c4ccc([nH]4)c(-c4ccc(S(=O)(=O)[O-])cc4)c4nc(c(-c5ccc(S(=O)(=O)[O-])cc5)c5ccc2[nH]5)C=C4)C=C3)cc1
REMARK SMILES IDX 5 1 4 2 3 3 1 4 2 5 29 7 30 8 88 9 31 10 87 11 32 12 33 13
REMARK SMILES IDX 34 14 81 15 35 16 86 17 80 18 82 19 36 20 85 21 79 22 78 23
REMARK SMILES IDX 37 25 67 26 48 27 66 28 49 29 52 30 65 31 83 32 50 33 51 34
REMARK SMILES IDX 64 36 84 37 53 38 38 39 39 40 47 41 40 42 46 43 41 44 42 45
REMARK SMILES IDX 43 46 44 47 45 48 68 49 69 50 77 51 70 52 76 53 71 54 72 55
REMARK SMILES IDX 73 56 74 57 75 58 54 59 55 60 63 61 56 62 62 63 57 64 58 65
REMARK SMILES IDX 59 66 60 67 61 68 6 69 7 70 8 71 9 72 10 74 11 75 12 76
REMARK SMILES IDX 19 77 13 78 18 79 14 80 17 81 15 82 16 84 20 85 21 86 22 87
REMARK SMILES IDX 23 88 27 89 24 90 26 91 28 92 25 93
REMARK H PARENT 3 6 82 24 52 35 8 73 14 83
REMARK Flexibility Score: inf
ROOT
ATOM      1  C   UNL     1       4.844  -2.098   0.821  1.00  0.00     0.023 C 
ENDROOT
BRANCH   1   2
ATOM      2  C   UNL     1       4.608  -1.076  -0.292  1.00  0.00     0.116 C 
BRANCH   2   3
ATOM      3  N   UNL     1       3.228  -0.869  -0.674  1.00  0.00    -0.352 N 
ATOM      4  O   UNL     1       1.182  -0.051  -0.840  1.00  0.00    -0.269 OA
ATOM      5  C   UNL     1       2.187  -0.163  -0.134  1.00  0.00     0.251 C 
ATOM      6  H   UNL     1       2.985  -1.337  -1.505  1.00  0.00     0.163 HD
BRANCH   5   7
ATOM      7  C   UNL     1       2.171   0.401   1.242  1.00  0.00     0.039 A 
ATOM      8  C   UNL     1       3.297   0.651   2.027  1.00  0.00     0.014 A 
ATOM      9  C   UNL     1       0.901   0.692   1.774  1.00  0.00     0.014 A 
ATOM     10  C   UNL     1       3.161   1.087   3.341  1.00  0.00     0.010 A 
ATOM     11  C   UNL     1       0.759   1.159   3.076  1.00  0.00     0.010 A 
ATOM     12  C   UNL     1       1.892   1.330   3.869  1.00  0.00    -0.014 A 
BRANCH  12  13
ATOM     13  C   UNL     1       1.811   1.951   5.189  1.00  0.00     0.031 A 
ATOM     14  C   UNL     1       2.337   3.344   5.252  1.00  0.00     0.074 A 
ATOM     15  C   UNL     1       1.154   1.418   6.236  1.00  0.00     0.049 A 
ATOM     16  N   UNL     1       3.316   3.805   5.960  1.00  0.00    -0.248 NA
ATOM     17  C   UNL     1       1.757   4.324   4.318  1.00  0.00     0.031 C 
ATOM     18  C   UNL     1       0.325   0.211   6.233  1.00  0.00     0.029 A 
ATOM     19  N   UNL     1       0.977   1.919   7.495  1.00  0.00    -0.354 N 
ATOM     20  C   UNL     1       3.328   5.180   5.732  1.00  0.00     0.074 A 
ATOM     21  C   UNL     1       2.478   5.410   4.592  1.00  0.00     0.031 C 
ATOM     22  C   UNL     1      -0.446   0.204   7.341  1.00  0.00     0.029 A 
ATOM     23  C   UNL     1      -0.085   1.338   8.179  1.00  0.00     0.049 A 
ATOM     24  H   UNL     1       1.546   2.624   7.880  1.00  0.00     0.167 HD
ATOM     25  C   UNL     1       3.808   6.062   6.654  1.00  0.00     0.031 A 
ATOM     26  C   UNL     1      -0.685   1.799   9.305  1.00  0.00     0.031 A 
ATOM     27  C   UNL     1       4.641   5.423   7.640  1.00  0.00     0.049 A 
ATOM     28  C   UNL     1       0.243   2.744   9.967  1.00  0.00     0.074 A 
ATOM     29  C   UNL     1       5.784   4.650   7.614  1.00  0.00     0.029 A 
ATOM     30  N   UNL     1       4.115   5.280   8.901  1.00  0.00    -0.354 N 
ATOM     31  N   UNL     1       1.360   2.386  10.534  1.00  0.00    -0.248 NA
ATOM     32  C   UNL     1       0.114   4.166   9.692  1.00  0.00     0.031 C 
ATOM     33  C   UNL     1       5.643   3.737   8.701  1.00  0.00     0.029 A 
ATOM     34  C   UNL     1       4.443   4.030   9.350  1.00  0.00     0.049 A 
ATOM     35  H   UNL     1       3.596   5.955   9.394  1.00  0.00     0.167 HD
ATOM     36  C   UNL     1       2.230   3.440  10.300  1.00  0.00     0.074 A 
ATOM     37  C   UNL     1       1.375   4.551   9.898  1.00  0.00     0.031 C 
ATOM     38  C   UNL     1       3.575   3.226  10.183  1.00  0.00     0.031 A 
BRANCH  25  39
ATOM     39  C   UNL     1       3.145   7.401   6.926  1.00  0.00    -0.014 A 
ATOM     40  C   UNL     1       3.697   8.240   7.918  1.00  0.00     0.010 A 
ATOM     41  C   UNL     1       1.837   7.705   6.494  1.00  0.00     0.010 A 
ATOM     42  C   UNL     1       2.930   9.237   8.535  1.00  0.00     0.020 A 
ATOM     43  C   UNL     1       1.084   8.732   7.063  1.00  0.00     0.020 A 
ATOM     44  C   UNL     1       1.617   9.455   8.119  1.00  0.00     0.054 A 
BRANCH  44  45
ATOM     45  S   UNL     1       0.575  10.620   9.028  1.00  0.00     0.124 S 
ATOM     46  O   UNL     1       0.378   9.913  10.290  1.00  0.00    -0.237 OA
ATOM     47  O   UNL     1       1.419  11.809   9.089  1.00  0.00    -0.237 OA
ATOM     48  O   UNL     1      -0.611  10.744   8.183  1.00  0.00    -0.744 OA
ENDBRANCH  44  45
ENDBRANCH  25  39
BRANCH  26  49
ATOM     49  C   UNL     1      -2.113   1.677   9.696  1.00  0.00    -0.014 A 
ATOM     50  C   UNL     1      -2.543   2.021  10.992  1.00  0.00     0.010 A 
ATOM     51  C   UNL     1      -3.103   1.470   8.714  1.00  0.00     0.010 A 
ATOM     52  C   UNL     1      -3.907   2.212  11.275  1.00  0.00     0.020 A 
ATOM     53  C   UNL     1      -4.463   1.642   8.992  1.00  0.00     0.020 A 
ATOM     54  C   UNL     1      -4.858   2.039  10.265  1.00  0.00     0.054 A 
BRANCH  54  55
ATOM     55  S   UNL     1      -6.596   2.459  10.583  1.00  0.00     0.124 S 
ATOM     56  O   UNL     1      -7.020   1.379  11.469  1.00  0.00    -0.237 OA
ATOM     57  O   UNL     1      -6.499   3.780  11.197  1.00  0.00    -0.237 OA
ATOM     58  O   UNL     1      -7.203   2.442   9.253  1.00  0.00    -0.744 OA
ENDBRANCH  54  55
ENDBRANCH  26  49
BRANCH  38  59
ATOM     59  C   UNL     1       4.153   1.942  10.723  1.00  0.00    -0.014 A 
ATOM     60  C   UNL     1       3.745   0.661  10.309  1.00  0.00     0.010 A 
ATOM     61  C   UNL     1       5.239   2.047  11.611  1.00  0.00     0.010 A 
ATOM     62  C   UNL     1       4.380  -0.486  10.804  1.00  0.00     0.020 A 
ATOM     63  C   UNL     1       5.891   0.909  12.091  1.00  0.00     0.020 A 
ATOM     64  C   UNL     1       5.448  -0.353  11.695  1.00  0.00     0.054 A 
BRANCH  64  65
ATOM     65  S   UNL     1       6.290  -1.839  12.307  1.00  0.00     0.124 S 
ATOM     66  O   UNL     1       5.274  -2.445  13.170  1.00  0.00    -0.237 OA
ATOM     67  O   UNL     1       6.581  -2.574  11.074  1.00  0.00    -0.237 OA
ATOM     68  O   UNL     1       7.460  -1.320  13.000  1.00  0.00    -0.744 OA
ENDBRANCH  64  65
ENDBRANCH  38  59
ENDBRANCH  12  13
ENDBRANCH   5   7
ENDBRANCH   2   3
ENDBRANCH   1   2
BRANCH   1  69
ATOM     69  C   UNL     1       4.328  -3.516   0.566  1.00  0.00     0.023 C 
BRANCH  69  70
ATOM     70  C   UNL     1       4.651  -4.118  -0.795  1.00  0.00     0.116 C 
BRANCH  70  71
ATOM     71  N   UNL     1       6.053  -4.024  -1.172  1.00  0.00    -0.354 N 
ATOM     72  C   UNL     1       6.755  -4.876  -1.980  1.00  0.00     0.243 C 
ATOM     73  H   UNL     1       6.553  -3.260  -0.804  1.00  0.00     0.163 HD
ATOM     74  O   UNL     1       7.636  -4.386  -2.687  1.00  0.00    -0.273 OA
BRANCH  72  75
ATOM     75  C   UNL     1       6.352  -6.359  -2.047  1.00  0.00     0.181 C 
ATOM     76  C   UNL     1       5.445  -6.409  -3.321  1.00  0.00     0.091 C 
ATOM     77  N   UNL     1       7.352  -7.498  -2.067  1.00  0.00    -0.320 N 
ATOM     78  C   UNL     1       4.995  -7.795  -3.541  1.00  0.00     0.042 A 
ATOM     79  C   UNL     1       6.758  -8.864  -2.076  1.00  0.00     0.178 C 
ATOM     80  N   UNL     1       3.978  -8.248  -4.323  1.00  0.00    -0.348 N 
ATOM     81  C   UNL     1       5.585  -8.907  -2.994  1.00  0.00     0.081 A 
ATOM     82  C   UNL     1       3.975  -9.613  -4.203  1.00  0.00     0.197 A 
ATOM     83  H   UNL     1       3.365  -7.703  -4.868  1.00  0.00     0.167 HD
ATOM     84  N   UNL     1       4.931 -10.039  -3.403  1.00  0.00    -0.240 NA
BRANCH  77  85
ATOM     85  C   UNL     1       8.725  -7.477  -1.826  1.00  0.00     0.256 C 
ATOM     86  O   UNL     1       9.417  -8.495  -1.774  1.00  0.00    -0.269 OA
BRANCH  85  87
ATOM     87  C   UNL     1       9.471  -6.229  -1.681  1.00  0.00     0.061 A 
ATOM     88  C   UNL     1      10.224  -5.801  -2.779  1.00  0.00     0.035 A 
ATOM     89  C   UNL     1       9.522  -5.535  -0.476  1.00  0.00     0.072 A 
ATOM     90  C   UNL     1      10.955  -4.636  -2.644  1.00  0.00     0.112 A 
ATOM     91  C   UNL     1      10.296  -4.385  -0.446  1.00  0.00     0.132 A 
ATOM     92  Cl  UNL     1       8.662  -6.027   0.929  1.00  0.00    -0.082 Cl
ATOM     93  N   UNL     1      11.012  -3.917  -1.501  1.00  0.00    -0.263 NA
ENDBRANCH  85  87
ENDBRANCH  77  85
ENDBRANCH  72  75
ENDBRANCH  70  71
ENDBRANCH  69  70
ENDBRANCH   1  69
TORSDOF 16
