REMARK SMILES Cc1cc(Cl)c2c(c1)C=C(C(=O)NCCCCNC(=O)c1ccc(-c3c4nc(c(-c5ccc(S(=O)(=O)[O-])cc5)c5ccc([nH]5)c(-c5ccc(S(=O)(=O)[O-])cc5)c5nc(c(-c6ccc(S(=O)(=O)[O-])cc6)c6ccc3[nH]6)C=C5)C=C4)cc1)[C@@H](C(F)(F)F)O2
REMARK SMILES IDX 16 1 15 2 14 3 13 4 11 5 12 6 10 8 1 9 2 10 3 11 8 12 4 13
REMARK SMILES IDX 7 14 5 15 6 16 9 17 86 18 81 19 82 20 83 21 84 22 85 23
REMARK SMILES IDX 17 24 18 25 19 26 20 28 21 29 22 30 80 31 23 32 79 33 24 34
REMARK SMILES IDX 25 35 26 36 73 37 27 38 78 39 72 40 74 41 28 42 77 43 71 44
REMARK SMILES IDX 70 45 29 47 59 48 40 49 58 50 41 51 44 52 57 53 75 54 42 55
REMARK SMILES IDX 43 56 56 58 76 59 45 60 30 61 31 62 39 63 32 64 38 65 33 66
REMARK SMILES IDX 34 67 35 68 36 69 37 70 60 71 61 72 69 73 62 74 68 75 63 76
REMARK SMILES IDX 64 77 65 78 66 79 67 80 46 81 47 82 55 83 48 84 54 85 49 86
REMARK SMILES IDX 50 87 51 88 52 89 53 90
REMARK H PARENT 13 7 18 27 74 46 44 57
REMARK Flexibility Score: inf
ROOT
ATOM      1  C   UNL     1      -2.089  -7.230   7.846  1.00  0.00     0.023 C 
ENDROOT
BRANCH   1   2
ATOM      2  C   UNL     1      -1.521  -6.863   6.472  1.00  0.00     0.023 C 
BRANCH   2   3
ATOM      3  C   UNL     1      -2.560  -6.336   5.487  1.00  0.00     0.116 C 
BRANCH   3   4
ATOM      4  N   UNL     1      -2.769  -4.907   5.631  1.00  0.00    -0.352 N 
ATOM      5  C   UNL     1      -2.394  -3.783   4.976  1.00  0.00     0.251 C 
ATOM      6  O   UNL     1      -2.809  -2.726   5.463  1.00  0.00    -0.270 OA
ATOM      7  H   UNL     1      -3.333  -4.700   6.411  1.00  0.00     0.163 HD
BRANCH   5   8
ATOM      8  C   UNL     1      -1.545  -3.740   3.748  1.00  0.00     0.067 C 
ATOM      9  C   UNL     1       0.999   0.394  -0.105  1.00  0.00     0.044 C 
ATOM     10  C   UNL     1       0.712  -0.959   0.476  1.00  0.00    -0.049 A 
ATOM     11  C   UNL     1       1.251  -2.104  -0.124  1.00  0.00     0.028 A 
ATOM     12  C   UNL     1      -0.090  -1.100   1.616  1.00  0.00     0.015 A 
ATOM     13  C   UNL     1       0.995  -3.368   0.412  1.00  0.00     0.084 A 
ATOM     14  C   UNL     1      -0.352  -2.367   2.153  1.00  0.00     0.019 A 
ATOM     15  Cl  UNL     1       1.691  -4.745  -0.363  1.00  0.00    -0.080 Cl
ATOM     16  C   UNL     1       0.188  -3.502   1.546  1.00  0.00     0.146 A 
ATOM     17  C   UNL     1      -1.152  -2.511   3.363  1.00  0.00     0.025 C 
ATOM     18  O   UNL     1      -0.008  -4.753   2.065  1.00  0.00    -0.474 OA
ATOM     19  C   UNL     1      -1.165  -4.938   2.926  1.00  0.00     0.314 C 
BRANCH  19  20
ATOM     20  C   UNL     1      -2.338  -5.478   2.086  1.00  0.00     0.429 C 
ATOM     21  F   UNL     1      -2.055  -6.717   1.614  1.00  0.00    -0.167 F 
ATOM     22  F   UNL     1      -3.482  -5.591   2.801  1.00  0.00    -0.167 F 
ATOM     23  F   UNL     1      -2.616  -4.692   1.020  1.00  0.00    -0.167 F 
ENDBRANCH  19  20
ENDBRANCH   5   8
ENDBRANCH   3   4
ENDBRANCH   2   3
ENDBRANCH   1   2
BRANCH   1  24
ATOM     24  C   UNL     1      -3.243  -8.233   7.837  1.00  0.00     0.116 C 
BRANCH  24  25
ATOM     25  N   UNL     1      -2.969  -9.438   7.066  1.00  0.00    -0.352 N 
ATOM     26  C   UNL     1      -3.443 -10.709   7.288  1.00  0.00     0.251 C 
ATOM     27  H   UNL     1      -2.371  -9.329   6.292  1.00  0.00     0.163 HD
ATOM     28  O   UNL     1      -3.066 -11.647   6.594  1.00  0.00    -0.269 OA
BRANCH  26  29
ATOM     29  C   UNL     1      -4.377 -10.929   8.408  1.00  0.00     0.039 A 
ATOM     30  C   UNL     1      -4.036 -11.855   9.396  1.00  0.00     0.014 A 
ATOM     31  C   UNL     1      -5.541 -10.162   8.516  1.00  0.00     0.014 A 
ATOM     32  C   UNL     1      -4.829 -11.960  10.538  1.00  0.00     0.010 A 
ATOM     33  C   UNL     1      -6.298 -10.228   9.680  1.00  0.00     0.010 A 
ATOM     34  C   UNL     1      -5.943 -11.120  10.704  1.00  0.00    -0.014 A 
BRANCH  34  35
ATOM     35  C   UNL     1      -6.746 -11.156  11.949  1.00  0.00     0.031 A 
ATOM     36  C   UNL     1      -8.162 -11.653  11.914  1.00  0.00     0.074 A 
ATOM     37  C   UNL     1      -6.214 -10.698  13.099  1.00  0.00     0.049 A 
ATOM     38  N   UNL     1      -9.036 -11.718  12.885  1.00  0.00    -0.248 NA
ATOM     39  C   UNL     1      -8.669 -12.118  10.613  1.00  0.00     0.031 C 
ATOM     40  C   UNL     1      -4.857 -10.165  13.253  1.00  0.00     0.029 A 
ATOM     41  N   UNL     1      -6.750 -10.610  14.358  1.00  0.00    -0.354 N 
ATOM     42  C   UNL     1     -10.196 -12.224  12.313  1.00  0.00     0.074 A 
ATOM     43  C   UNL     1      -9.931 -12.401  10.901  1.00  0.00     0.031 C 
ATOM     44  C   UNL     1      -4.656  -9.844  14.542  1.00  0.00     0.029 A 
ATOM     45  C   UNL     1      -5.876 -10.113  15.296  1.00  0.00     0.049 A 
ATOM     46  H   UNL     1      -7.673 -10.877  14.571  1.00  0.00     0.167 HD
ATOM     47  C   UNL     1     -11.369 -12.536  12.912  1.00  0.00     0.031 A 
ATOM     48  C   UNL     1      -6.038  -9.905  16.617  1.00  0.00     0.031 A 
ATOM     49  C   UNL     1     -11.629 -12.367  14.315  1.00  0.00     0.049 A 
ATOM     50  C   UNL     1      -7.356 -10.239  17.257  1.00  0.00     0.074 A 
ATOM     51  C   UNL     1     -12.777 -12.677  15.022  1.00  0.00     0.029 A 
ATOM     52  N   UNL     1     -10.724 -11.845  15.227  1.00  0.00    -0.354 N 
ATOM     53  N   UNL     1      -8.434 -10.741  16.704  1.00  0.00    -0.248 NA
ATOM     54  C   UNL     1      -7.478  -9.982  18.699  1.00  0.00     0.031 C 
ATOM     55  C   UNL     1     -12.576 -12.314  16.359  1.00  0.00     0.029 A 
ATOM     56  C   UNL     1     -11.290 -11.814  16.489  1.00  0.00     0.049 A 
ATOM     57  H   UNL     1      -9.813 -11.541  15.008  1.00  0.00     0.167 HD
ATOM     58  C   UNL     1      -9.358 -10.875  17.733  1.00  0.00     0.074 A 
ATOM     59  C   UNL     1      -8.709 -10.412  18.943  1.00  0.00     0.031 C 
ATOM     60  C   UNL     1     -10.629 -11.341  17.679  1.00  0.00     0.031 A 
BRANCH  47  61
ATOM     61  C   UNL     1     -12.454 -13.099  12.036  1.00  0.00    -0.014 A 
ATOM     62  C   UNL     1     -12.360 -14.409  11.530  1.00  0.00     0.010 A 
ATOM     63  C   UNL     1     -13.579 -12.319  11.717  1.00  0.00     0.010 A 
ATOM     64  C   UNL     1     -13.348 -14.911  10.681  1.00  0.00     0.020 A 
ATOM     65  C   UNL     1     -14.582 -12.827  10.886  1.00  0.00     0.020 A 
ATOM     66  C   UNL     1     -14.448 -14.113  10.357  1.00  0.00     0.054 A 
BRANCH  66  67
ATOM     67  S   UNL     1     -15.716 -14.789   9.251  1.00  0.00     0.124 S 
ATOM     68  O   UNL     1     -15.054 -14.707   7.951  1.00  0.00    -0.237 OA
ATOM     69  O   UNL     1     -15.912 -16.140   9.771  1.00  0.00    -0.237 OA
ATOM     70  O   UNL     1     -16.850 -13.885   9.430  1.00  0.00    -0.744 OA
ENDBRANCH  66  67
ENDBRANCH  47  61
BRANCH  48  71
ATOM     71  C   UNL     1      -4.903  -9.389  17.426  1.00  0.00    -0.014 A 
ATOM     72  C   UNL     1      -4.186 -10.258  18.266  1.00  0.00     0.010 A 
ATOM     73  C   UNL     1      -4.506  -8.043  17.332  1.00  0.00     0.010 A 
ATOM     74  C   UNL     1      -3.092  -9.791  19.000  1.00  0.00     0.020 A 
ATOM     75  C   UNL     1      -3.401  -7.577  18.051  1.00  0.00     0.020 A 
ATOM     76  C   UNL     1      -2.704  -8.454  18.884  1.00  0.00     0.054 A 
BRANCH  76  77
ATOM     77  S   UNL     1      -1.234  -7.890  19.788  1.00  0.00     0.124 S 
ATOM     78  O   UNL     1      -1.731  -7.812  21.158  1.00  0.00    -0.237 OA
ATOM     79  O   UNL     1      -0.272  -8.957  19.523  1.00  0.00    -0.237 OA
ATOM     80  O   UNL     1      -0.919  -6.609  19.160  1.00  0.00    -0.744 OA
ENDBRANCH  76  77
ENDBRANCH  48  71
BRANCH  60  81
ATOM     81  C   UNL     1     -11.404 -11.386  18.966  1.00  0.00    -0.014 A 
ATOM     82  C   UNL     1     -11.956 -10.216  19.515  1.00  0.00     0.010 A 
ATOM     83  C   UNL     1     -11.647 -12.623  19.590  1.00  0.00     0.010 A 
ATOM     84  C   UNL     1     -12.728 -10.280  20.677  1.00  0.00     0.020 A 
ATOM     85  C   UNL     1     -12.435 -12.693  20.741  1.00  0.00     0.020 A 
ATOM     86  C   UNL     1     -12.965 -11.519  21.282  1.00  0.00     0.054 A 
BRANCH  86  87
ATOM     87  S   UNL     1     -14.026 -11.584  22.752  1.00  0.00     0.124 S 
ATOM     88  O   UNL     1     -13.139 -11.063  23.789  1.00  0.00    -0.237 OA
ATOM     89  O   UNL     1     -15.140 -10.715  22.383  1.00  0.00    -0.237 OA
ATOM     90  O   UNL     1     -14.363 -13.001  22.873  1.00  0.00    -0.744 OA
ENDBRANCH  86  87
ENDBRANCH  60  81
ENDBRANCH  34  35
ENDBRANCH  26  29
ENDBRANCH  24  25
ENDBRANCH   1  24
TORSDOF 15
