REMARK SMILES C[C@H]([NH2+]CC(C)(C)C(=O)NCCCCNC(=O)c1ccc(-c2c3nc(c(-c4ccc(S(=O)(=O)[O-])cc4)c4ccc([nH]4)c(-c4ccc(S(=O)(=O)[O-])cc4)c4nc(c(-c5ccc(S(=O)(=O)[O-])cc5)c5ccc2[nH]5)C=C4)C=C3)cc1)c1nccs1
REMARK SMILES IDX 12 1 11 2 10 3 8 4 9 5 5 7 6 8 7 9 4 10 3 11 2 14 1 15 78 16
REMARK SMILES IDX 79 17 82 18 80 19 81 20 13 21 14 22 15 23 16 24 17 26 18 27
REMARK SMILES IDX 19 28 77 29 20 30 76 31 21 32 22 33 23 34 70 35 24 36 75 37
REMARK SMILES IDX 69 38 71 39 25 40 74 41 68 42 67 43 26 45 56 46 37 47 55 48
REMARK SMILES IDX 38 49 41 50 54 51 72 52 39 53 40 54 53 56 73 57 42 58 27 59
REMARK SMILES IDX 28 60 36 61 29 62 35 63 30 64 31 65 32 66 33 67 34 68 57 69
REMARK SMILES IDX 58 70 66 71 59 72 65 73 60 74 61 75 62 76 63 77 64 78 43 79
REMARK SMILES IDX 44 80 52 81 45 82 51 83 46 84 47 85 48 86 49 87 50 88
REMARK H PARENT 10 6 3 12 3 13 15 25 71 44 41 55
REMARK Flexibility Score: inf
ROOT
ATOM      1  C   UNL     1       4.120  -0.034  -5.384  1.00  0.00     0.023 C 
ENDROOT
BRANCH   1   2
ATOM      2  C   UNL     1       3.191   0.787  -4.492  1.00  0.00     0.116 C 
BRANCH   2   3
ATOM      3  N   UNL     1       2.179  -0.044  -3.873  1.00  0.00    -0.355 N 
ATOM      4  C   UNL     1       1.977  -0.459  -2.593  1.00  0.00     0.231 C 
ATOM      5  O   UNL     1       1.135  -1.350  -2.459  1.00  0.00    -0.274 OA
ATOM      6  H   UNL     1       1.501  -0.376  -4.506  1.00  0.00     0.163 HD
BRANCH   4   7
ATOM      7  C   UNL     1       2.780   0.100  -1.397  1.00  0.00     0.092 C 
ATOM      8  C   UNL     1       2.745   1.638  -1.324  1.00  0.00     0.027 C 
ATOM      9  C   UNL     1       4.232  -0.408  -1.489  1.00  0.00     0.027 C 
BRANCH   7  10
ATOM     10  C   UNL     1       2.190  -0.476  -0.064  1.00  0.00     0.277 C 
BRANCH  10  11
ATOM     11  N   UNL     1       0.865   0.043   0.280  1.00  0.00    -0.337 N 
ATOM     12  H   UNL     1       0.930   1.056   0.375  1.00  0.00     0.346 HD
ATOM     13  H   UNL     1       0.231  -0.237  -0.469  1.00  0.00     0.346 HD
BRANCH  11  14
ATOM     14  C   UNL     1       0.321  -0.508   1.531  1.00  0.00     0.239 C 
ATOM     15  C   UNL     1       0.916   0.201   2.753  1.00  0.00     0.083 C 
BRANCH  14  16
ATOM     16  C   UNL     1      -1.198  -0.432   1.551  1.00  0.00     0.150 A 
ATOM     17  N   UNL     1      -1.979  -1.466   1.808  1.00  0.00    -0.243 NA
ATOM     18  S   UNL     1      -2.033   1.051   1.249  1.00  0.00    -0.121 S 
ATOM     19  C   UNL     1      -3.302  -1.101   1.671  1.00  0.00     0.123 A 
ATOM     20  C   UNL     1      -3.527   0.225   1.379  1.00  0.00     0.087 A 
ENDBRANCH  14  16
ENDBRANCH  11  14
ENDBRANCH  10  11
ENDBRANCH   7  10
ENDBRANCH   4   7
ENDBRANCH   2   3
ENDBRANCH   1   2
BRANCH   1  21
ATOM     21  C   UNL     1       3.456  -0.632  -6.626  1.00  0.00     0.023 C 
BRANCH  21  22
ATOM     22  C   UNL     1       2.745   0.368  -7.530  1.00  0.00     0.116 C 
BRANCH  22  23
ATOM     23  N   UNL     1       3.620   1.428  -8.013  1.00  0.00    -0.352 N 
ATOM     24  C   UNL     1       3.669   1.982  -9.271  1.00  0.00     0.251 C 
ATOM     25  H   UNL     1       4.257   1.793  -7.357  1.00  0.00     0.163 HD
ATOM     26  O   UNL     1       4.534   2.803  -9.560  1.00  0.00    -0.269 OA
BRANCH  24  27
ATOM     27  C   UNL     1       2.684   1.541 -10.278  1.00  0.00     0.039 A 
ATOM     28  C   UNL     1       3.139   1.025 -11.494  1.00  0.00     0.014 A 
ATOM     29  C   UNL     1       1.320   1.566  -9.979  1.00  0.00     0.014 A 
ATOM     30  C   UNL     1       2.226   0.454 -12.382  1.00  0.00     0.010 A 
ATOM     31  C   UNL     1       0.421   0.945 -10.838  1.00  0.00     0.010 A 
ATOM     32  C   UNL     1       0.867   0.372 -12.041  1.00  0.00    -0.014 A 
BRANCH  32  33
ATOM     33  C   UNL     1      -0.122  -0.316 -12.908  1.00  0.00     0.031 A 
ATOM     34  C   UNL     1      -1.248   0.471 -13.516  1.00  0.00     0.074 A 
ATOM     35  C   UNL     1      -0.074  -1.655 -13.052  1.00  0.00     0.049 A 
ATOM     36  N   UNL     1      -2.312   0.041 -14.142  1.00  0.00    -0.248 NA
ATOM     37  C   UNL     1      -1.182   1.935 -13.372  1.00  0.00     0.031 C 
ATOM     38  C   UNL     1       0.953  -2.536 -12.490  1.00  0.00     0.029 A 
ATOM     39  N   UNL     1      -0.929  -2.514 -13.697  1.00  0.00    -0.354 N 
ATOM     40  C   UNL     1      -3.060   1.175 -14.433  1.00  0.00     0.074 A 
ATOM     41  C   UNL     1      -2.342   2.308 -13.892  1.00  0.00     0.031 C 
ATOM     42  C   UNL     1       0.672  -3.807 -12.822  1.00  0.00     0.029 A 
ATOM     43  C   UNL     1      -0.575  -3.838 -13.578  1.00  0.00     0.049 A 
ATOM     44  H   UNL     1      -1.720  -2.211 -14.198  1.00  0.00     0.167 HD
ATOM     45  C   UNL     1      -4.236   1.264 -15.098  1.00  0.00     0.031 A 
ATOM     46  C   UNL     1      -1.197  -4.953 -14.010  1.00  0.00     0.031 A 
ATOM     47  C   UNL     1      -4.934   0.138 -15.656  1.00  0.00     0.049 A 
ATOM     48  C   UNL     1      -2.498  -4.829 -14.754  1.00  0.00     0.074 A 
ATOM     49  C   UNL     1      -6.106   0.131 -16.391  1.00  0.00     0.029 A 
ATOM     50  N   UNL     1      -4.518  -1.180 -15.549  1.00  0.00    -0.354 N 
ATOM     51  N   UNL     1      -3.174  -3.745 -15.050  1.00  0.00    -0.248 NA
ATOM     52  C   UNL     1      -3.119  -6.075 -15.224  1.00  0.00     0.031 C 
ATOM     53  C   UNL     1      -6.416  -1.197 -16.703  1.00  0.00     0.029 A 
ATOM     54  C   UNL     1      -5.415  -2.011 -16.197  1.00  0.00     0.049 A 
ATOM     55  H   UNL     1      -3.706  -1.480 -15.081  1.00  0.00     0.167 HD
ATOM     56  C   UNL     1      -4.285  -4.176 -15.765  1.00  0.00     0.074 A 
ATOM     57  C   UNL     1      -4.190  -5.619 -15.861  1.00  0.00     0.031 C 
ATOM     58  C   UNL     1      -5.293  -3.442 -16.297  1.00  0.00     0.031 A 
BRANCH  45  59
ATOM     59  C   UNL     1      -4.844   2.632 -15.245  1.00  0.00    -0.014 A 
ATOM     60  C   UNL     1      -4.284   3.583 -16.116  1.00  0.00     0.010 A 
ATOM     61  C   UNL     1      -6.001   2.964 -14.517  1.00  0.00     0.010 A 
ATOM     62  C   UNL     1      -4.842   4.859 -16.221  1.00  0.00     0.020 A 
ATOM     63  C   UNL     1      -6.577   4.231 -14.639  1.00  0.00     0.020 A 
ATOM     64  C   UNL     1      -5.981   5.178 -15.475  1.00  0.00     0.054 A 
BRANCH  64  65
ATOM     65  S   UNL     1      -6.691   6.839 -15.633  1.00  0.00     0.124 S 
ATOM     66  O   UNL     1      -5.771   7.636 -14.825  1.00  0.00    -0.237 OA
ATOM     67  O   UNL     1      -6.631   7.081 -17.072  1.00  0.00    -0.237 OA
ATOM     68  O   UNL     1      -8.037   6.694 -15.085  1.00  0.00    -0.744 OA
ENDBRANCH  64  65
ENDBRANCH  45  59
BRANCH  46  69
ATOM     69  C   UNL     1      -0.590  -6.287 -13.755  1.00  0.00    -0.014 A 
ATOM     70  C   UNL     1       0.016  -7.000 -14.804  1.00  0.00     0.010 A 
ATOM     71  C   UNL     1      -0.597  -6.843 -12.463  1.00  0.00     0.010 A 
ATOM     72  C   UNL     1       0.592  -8.252 -14.570  1.00  0.00     0.020 A 
ATOM     73  C   UNL     1      -0.003  -8.085 -12.221  1.00  0.00     0.020 A 
ATOM     74  C   UNL     1       0.579  -8.787 -13.279  1.00  0.00     0.054 A 
BRANCH  74  75
ATOM     75  S   UNL     1       1.383 -10.387 -12.984  1.00  0.00     0.124 S 
ATOM     76  O   UNL     1       0.397 -11.323 -13.515  1.00  0.00    -0.237 OA
ATOM     77  O   UNL     1       2.620 -10.268 -13.753  1.00  0.00    -0.237 OA
ATOM     78  O   UNL     1       1.561 -10.416 -11.534  1.00  0.00    -0.744 OA
ENDBRANCH  74  75
ENDBRANCH  46  69
BRANCH  58  79
ATOM     79  C   UNL     1      -6.354  -4.171 -17.073  1.00  0.00    -0.014 A 
ATOM     80  C   UNL     1      -7.375  -4.879 -16.418  1.00  0.00     0.010 A 
ATOM     81  C   UNL     1      -6.381  -4.058 -18.475  1.00  0.00     0.010 A 
ATOM     82  C   UNL     1      -8.406  -5.469 -17.154  1.00  0.00     0.020 A 
ATOM     83  C   UNL     1      -7.421  -4.630 -19.212  1.00  0.00     0.020 A 
ATOM     84  C   UNL     1      -8.425  -5.336 -18.547  1.00  0.00     0.054 A 
BRANCH  84  85
ATOM     85  S   UNL     1      -9.819  -6.035 -19.474  1.00  0.00     0.124 S 
ATOM     86  O   UNL     1      -9.495  -7.459 -19.483  1.00  0.00    -0.237 OA
ATOM     87  O   UNL     1     -10.971  -5.657 -18.660  1.00  0.00    -0.237 OA
ATOM     88  O   UNL     1      -9.738  -5.369 -20.773  1.00  0.00    -0.744 OA
ENDBRANCH  84  85
ENDBRANCH  58  79
ENDBRANCH  32  33
ENDBRANCH  24  27
ENDBRANCH  22  23
ENDBRANCH  21  22
ENDBRANCH   1  21
TORSDOF 18
