REMARK SMILES CC(C)n1cncc1[C@@H](O)[C@H](C)C(=O)NCCCCNC(=O)c1ccc(-c2c3nc(c(-c4ccc(S(=O)(=O)[O-])cc4)c4ccc([nH]4)c(-c4ccc(S(=O)(=O)[O-])cc4)c4nc(c(-c5ccc(S(=O)(=O)[O-])cc5)c5ccc2[nH]5)C=C4)C=C3)cc1
REMARK SMILES IDX 17 1 16 2 15 3 13 4 14 5 11 7 12 8 9 9 8 10 4 11 5 12 6 13
REMARK SMILES IDX 7 14 2 15 1 16 3 17 10 18 18 20 19 21 20 22 21 23 22 25
REMARK SMILES IDX 23 26 24 27 82 28 25 29 81 30 26 31 27 32 28 33 75 34 29 35
REMARK SMILES IDX 80 36 74 37 76 38 30 39 79 40 73 41 72 42 31 44 61 45 42 46
REMARK SMILES IDX 60 47 43 48 46 49 59 50 77 51 44 52 45 53 58 55 78 56 47 57
REMARK SMILES IDX 32 58 33 59 41 60 34 61 40 62 35 63 36 64 37 65 38 66 39 67
REMARK SMILES IDX 62 68 63 69 71 70 64 71 70 72 65 73 66 74 67 75 68 76 69 77
REMARK SMILES IDX 48 78 49 79 57 80 50 81 56 82 51 83 52 84 53 85 54 86 55 87
REMARK H PARENT 15 6 10 19 20 24 76 43 46 54
REMARK Flexibility Score: inf
ROOT
ATOM      1  C   UNL     1       2.093   3.830   0.853  1.00  0.00     0.023 C 
ENDROOT
BRANCH   1   2
ATOM      2  C   UNL     1       1.337   3.706   2.172  1.00  0.00     0.116 C 
BRANCH   2   3
ATOM      3  N   UNL     1       0.200   4.602   2.274  1.00  0.00    -0.356 N 
ATOM      4  C   UNL     1      -1.085   4.326   2.643  1.00  0.00     0.225 C 
ATOM      5  O   UNL     1      -1.847   5.282   2.819  1.00  0.00    -0.275 OA
ATOM      6  H   UNL     1       0.381   5.542   2.044  1.00  0.00     0.163 HD
BRANCH   4   7
ATOM      7  C   UNL     1      -1.618   2.900   2.746  1.00  0.00     0.110 C 
ATOM      8  C   UNL     1      -1.604   2.239   1.362  1.00  0.00     0.021 C 
BRANCH   7   9
ATOM      9  C   UNL     1      -1.113   2.100   3.976  1.00  0.00     0.175 C 
BRANCH   9  10
ATOM     10  C   UNL     1      -0.953   0.628   3.755  1.00  0.00     0.067 A 
ATOM     11  N   UNL     1      -1.678  -0.387   4.343  1.00  0.00    -0.330 N 
ATOM     12  C   UNL     1      -1.206  -1.573   3.832  1.00  0.00     0.199 A 
ATOM     13  N   UNL     1      -0.215  -1.391   2.995  1.00  0.00    -0.245 NA
ATOM     14  C   UNL     1      -0.029  -0.041   2.966  1.00  0.00     0.137 A 
BRANCH  11  15
ATOM     15  C   UNL     1      -2.689  -0.342   5.395  1.00  0.00     0.082 C 
ATOM     16  C   UNL     1      -2.072   0.011   6.748  1.00  0.00     0.031 C 
ATOM     17  C   UNL     1      -3.906   0.518   5.059  1.00  0.00     0.031 C 
ENDBRANCH  11  15
ENDBRANCH   9  10
BRANCH   9  18
ATOM     18  O   UNL     1       0.144   2.535   4.476  1.00  0.00    -0.386 OA
ATOM     19  H   UNL     1       0.835   2.347   3.822  1.00  0.00     0.211 HD
ENDBRANCH   9  18
ENDBRANCH   7   9
ENDBRANCH   4   7
ENDBRANCH   2   3
ENDBRANCH   1   2
BRANCH   1  20
ATOM     20  C   UNL     1       2.877   5.131   0.656  1.00  0.00     0.023 C 
BRANCH  20  21
ATOM     21  C   UNL     1       3.951   5.400   1.708  1.00  0.00     0.116 C 
BRANCH  21  22
ATOM     22  N   UNL     1       4.966   4.353   1.760  1.00  0.00    -0.352 N 
ATOM     23  C   UNL     1       5.969   4.193   2.688  1.00  0.00     0.251 C 
ATOM     24  H   UNL     1       4.930   3.680   1.042  1.00  0.00     0.163 HD
ATOM     25  O   UNL     1       6.943   3.480   2.437  1.00  0.00    -0.269 OA
BRANCH  23  26
ATOM     26  C   UNL     1       5.881   4.902   3.975  1.00  0.00     0.039 A 
ATOM     27  C   UNL     1       6.967   5.649   4.439  1.00  0.00     0.014 A 
ATOM     28  C   UNL     1       4.691   4.851   4.701  1.00  0.00     0.014 A 
ATOM     29  C   UNL     1       6.819   6.426   5.586  1.00  0.00     0.010 A 
ATOM     30  C   UNL     1       4.521   5.678   5.797  1.00  0.00     0.010 A 
ATOM     31  C   UNL     1       5.583   6.465   6.251  1.00  0.00    -0.014 A 
BRANCH  31  32
ATOM     32  C   UNL     1       5.369   7.444   7.323  1.00  0.00     0.031 A 
ATOM     33  C   UNL     1       5.570   8.877   6.950  1.00  0.00     0.074 A 
ATOM     34  C   UNL     1       4.763   7.162   8.495  1.00  0.00     0.049 A 
ATOM     35  N   UNL     1       6.406   9.730   7.447  1.00  0.00    -0.248 NA
ATOM     36  C   UNL     1       4.771   9.408   5.833  1.00  0.00     0.031 C 
ATOM     37  C   UNL     1       4.163   5.888   8.901  1.00  0.00     0.029 A 
ATOM     38  N   UNL     1       4.416   8.005   9.513  1.00  0.00    -0.354 N 
ATOM     39  C   UNL     1       6.099  10.957   6.860  1.00  0.00     0.074 A 
ATOM     40  C   UNL     1       5.204  10.667   5.767  1.00  0.00     0.031 C 
ATOM     41  C   UNL     1       3.317   6.104   9.931  1.00  0.00     0.029 A 
ATOM     42  C   UNL     1       3.439   7.488  10.355  1.00  0.00     0.049 A 
ATOM     43  H   UNL     1       4.819   8.894   9.638  1.00  0.00     0.167 HD
ATOM     44  C   UNL     1       6.404  12.146   7.454  1.00  0.00     0.031 A 
ATOM     45  C   UNL     1       2.732   8.152  11.301  1.00  0.00     0.031 A 
ATOM     46  C   UNL     1       7.346  11.994   8.533  1.00  0.00     0.049 A 
ATOM     47  C   UNL     1       3.480   9.380  11.650  1.00  0.00     0.074 A 
ATOM     48  C   UNL     1       8.613  11.463   8.669  1.00  0.00     0.029 A 
ATOM     49  N   UNL     1       6.860  12.141   9.810  1.00  0.00    -0.354 N 
ATOM     50  N   UNL     1       4.632   9.376  12.258  1.00  0.00    -0.248 NA
ATOM     51  C   UNL     1       3.116  10.637  11.016  1.00  0.00     0.031 C 
ATOM     52  C   UNL     1       8.636  10.889   9.975  1.00  0.00     0.029 A 
ATOM     53  C   UNL     1       7.399  11.139  10.572  1.00  0.00     0.049 A 
ATOM     54  H   UNL     1       6.239  12.839  10.121  1.00  0.00     0.167 HD
ATOM     55  C   UNL     1       5.315  10.461  11.732  1.00  0.00     0.074 A 
ATOM     56  C   UNL     1       4.288  11.273  11.090  1.00  0.00     0.031 C 
ATOM     57  C   UNL     1       6.677  10.447  11.620  1.00  0.00     0.031 A 
BRANCH  44  58
ATOM     58  C   UNL     1       5.535  13.386   7.343  1.00  0.00    -0.014 A 
ATOM     59  C   UNL     1       5.967  14.580   7.962  1.00  0.00     0.010 A 
ATOM     60  C   UNL     1       4.187  13.335   6.934  1.00  0.00     0.010 A 
ATOM     61  C   UNL     1       5.069  15.616   8.255  1.00  0.00     0.020 A 
ATOM     62  C   UNL     1       3.296  14.384   7.172  1.00  0.00     0.020 A 
ATOM     63  C   UNL     1       3.732  15.496   7.878  1.00  0.00     0.054 A 
BRANCH  63  64
ATOM     64  S   UNL     1       2.542  16.759   8.395  1.00  0.00     0.124 S 
ATOM     65  O   UNL     1       2.446  16.502   9.828  1.00  0.00    -0.237 OA
ATOM     66  O   UNL     1       3.215  17.998   8.016  1.00  0.00    -0.237 OA
ATOM     67  O   UNL     1       1.348  16.440   7.615  1.00  0.00    -0.744 OA
ENDBRANCH  63  64
ENDBRANCH  44  58
BRANCH  45  68
ATOM     68  C   UNL     1       1.346   7.892  11.760  1.00  0.00    -0.014 A 
ATOM     69  C   UNL     1       0.852   8.476  12.940  1.00  0.00     0.010 A 
ATOM     70  C   UNL     1       0.419   7.266  10.900  1.00  0.00     0.010 A 
ATOM     71  C   UNL     1      -0.525   8.485  13.220  1.00  0.00     0.020 A 
ATOM     72  C   UNL     1      -0.951   7.257  11.179  1.00  0.00     0.020 A 
ATOM     73  C   UNL     1      -1.420   7.889  12.327  1.00  0.00     0.054 A 
BRANCH  73  74
ATOM     74  S   UNL     1      -3.207   8.054  12.607  1.00  0.00     0.124 S 
ATOM     75  O   UNL     1      -3.422   7.191  13.765  1.00  0.00    -0.237 OA
ATOM     76  O   UNL     1      -3.361   9.486  12.847  1.00  0.00    -0.237 OA
ATOM     77  O   UNL     1      -3.797   7.572  11.359  1.00  0.00    -0.744 OA
ENDBRANCH  73  74
ENDBRANCH  45  68
BRANCH  57  78
ATOM     78  C   UNL     1       7.462   9.448  12.435  1.00  0.00    -0.014 A 
ATOM     79  C   UNL     1       7.281   8.055  12.352  1.00  0.00     0.010 A 
ATOM     80  C   UNL     1       8.516   9.940  13.227  1.00  0.00     0.010 A 
ATOM     81  C   UNL     1       8.107   7.181  13.073  1.00  0.00     0.020 A 
ATOM     82  C   UNL     1       9.355   9.075  13.931  1.00  0.00     0.020 A 
ATOM     83  C   UNL     1       9.139   7.698  13.861  1.00  0.00     0.054 A 
BRANCH  83  84
ATOM     84  S   UNL     1      10.228   6.559  14.759  1.00  0.00     0.124 S 
ATOM     85  O   UNL     1       9.349   6.033  15.800  1.00  0.00    -0.237 OA
ATOM     86  O   UNL     1      10.623   5.604  13.726  1.00  0.00    -0.237 OA
ATOM     87  O   UNL     1      11.310   7.418  15.241  1.00  0.00    -0.744 OA
ENDBRANCH  83  84
ENDBRANCH  57  78
ENDBRANCH  31  32
ENDBRANCH  23  26
ENDBRANCH  21  22
ENDBRANCH  20  21
ENDBRANCH   1  20
TORSDOF 18
