REMARK SMILES Cc1cscc1CNC(=O)N[C@@H](C)c1nc(C(=O)NCCCCNC(=O)c2ccc(-c3c4nc(c(-c5ccc(S(=O)(=O)[O-])cc5)c5ccc([nH]5)c(-c5ccc(S(=O)(=O)[O-])cc5)c5nc(c(-c6ccc(S(=O)(=O)[O-])cc6)c6ccc3[nH]6)C=C5)C=C4)cc2)cs1
REMARK SMILES IDX 21 1 20 2 19 3 17 4 18 5 16 7 14 8 15 9 88 10 87 11 12 12
REMARK SMILES IDX 13 13 11 14 8 15 9 16 10 18 7 20 6 21 1 22 2 23 3 24 4 25
REMARK SMILES IDX 5 26 22 27 23 28 24 29 25 30 26 32 27 33 28 34 86 35 29 36
REMARK SMILES IDX 85 37 30 38 31 39 32 40 79 41 33 42 84 43 78 44 80 45 34 46
REMARK SMILES IDX 83 47 77 48 76 49 35 51 65 52 46 53 64 54 47 55 50 56 63 57
REMARK SMILES IDX 81 58 48 59 49 60 62 62 82 63 51 64 36 65 37 66 45 67 38 68
REMARK SMILES IDX 44 69 39 70 40 71 41 72 42 73 43 74 66 75 67 76 75 77 68 78
REMARK SMILES IDX 74 79 69 80 70 81 71 82 72 83 73 84 52 85 53 86 61 87 54 88
REMARK SMILES IDX 60 89 55 90 56 91 57 92 58 93 59 94
REMARK H PARENT 19 6 8 17 11 19 24 31 80 50 50 61
REMARK Flexibility Score: inf
ROOT
ATOM      1  C   UNL     1      -2.682   8.429   2.030  1.00  0.00     0.023 C 
ENDROOT
BRANCH   1   2
ATOM      2  C   UNL     1      -2.275   7.836   3.377  1.00  0.00     0.116 C 
BRANCH   2   3
ATOM      3  N   UNL     1      -3.358   7.072   3.969  1.00  0.00    -0.351 N 
ATOM      4  C   UNL     1      -3.562   5.713   4.046  1.00  0.00     0.270 C 
ATOM      5  O   UNL     1      -4.569   5.318   4.628  1.00  0.00    -0.267 OA
ATOM      6  H   UNL     1      -4.065   7.618   4.384  1.00  0.00     0.163 HD
BRANCH   4   7
ATOM      7  C   UNL     1      -2.579   4.772   3.489  1.00  0.00     0.139 A 
ATOM      8  C   UNL     1      -0.729   4.110   2.433  1.00  0.00     0.116 A 
ATOM      9  N   UNL     1      -1.505   5.143   2.687  1.00  0.00    -0.234 NA
ATOM     10  S   UNL     1      -1.287   2.610   3.050  1.00  0.00    -0.124 S 
ATOM     11  C   UNL     1      -2.636   3.409   3.735  1.00  0.00     0.101 A 
BRANCH   8  12
ATOM     12  C   UNL     1       0.578   4.208   1.684  1.00  0.00     0.140 C 
ATOM     13  C   UNL     1       1.558   5.094   2.455  1.00  0.00     0.039 C 
BRANCH  12  14
ATOM     14  N   UNL     1       0.303   4.809   0.386  1.00  0.00    -0.329 N 
ATOM     15  N   UNL     1       1.087   3.349  -1.296  1.00  0.00    -0.334 N 
ATOM     16  C   UNL     1       0.481   4.463  -0.886  1.00  0.00     0.315 C 
ATOM     17  H   UNL     1       1.063   3.248  -2.275  1.00  0.00     0.165 HD
ATOM     18  O   UNL     1       0.044   5.219  -1.756  1.00  0.00    -0.249 OA
ATOM     19  H   UNL     1      -0.120   5.693   0.472  1.00  0.00     0.166 HD
BRANCH  15  20
ATOM     20  C   UNL     1       1.769   2.256  -0.648  1.00  0.00     0.154 C 
BRANCH  20  21
ATOM     21  C   UNL     1       0.835   1.105  -0.382  1.00  0.00    -0.015 A 
ATOM     22  C   UNL     1       2.715  -0.673  -0.033  1.00  0.00     0.045 C 
ATOM     23  C   UNL     1       1.284  -0.247  -0.106  1.00  0.00    -0.035 A 
ATOM     24  C   UNL     1       0.219  -1.109   0.080  1.00  0.00     0.068 A 
ATOM     25  S   UNL     1      -1.293  -0.335  -0.048  1.00  0.00    -0.152 S 
ATOM     26  C   UNL     1      -0.550   1.167  -0.365  1.00  0.00     0.070 A 
ENDBRANCH  20  21
ENDBRANCH  15  20
ENDBRANCH  12  14
ENDBRANCH   8  12
ENDBRANCH   4   7
ENDBRANCH   2   3
ENDBRANCH   1   2
BRANCH   1  27
ATOM     27  C   UNL     1      -3.638   9.623   2.141  1.00  0.00     0.023 C 
BRANCH  27  28
ATOM     28  C   UNL     1      -3.131  10.790   2.987  1.00  0.00     0.116 C 
BRANCH  28  29
ATOM     29  N   UNL     1      -1.845  11.307   2.544  1.00  0.00    -0.352 N 
ATOM     30  C   UNL     1      -1.393  12.605   2.552  1.00  0.00     0.251 C 
ATOM     31  H   UNL     1      -1.215  10.638   2.192  1.00  0.00     0.163 HD
ATOM     32  O   UNL     1      -0.313  12.884   2.040  1.00  0.00    -0.269 OA
BRANCH  30  33
ATOM     33  C   UNL     1      -2.234  13.667   3.144  1.00  0.00     0.039 A 
ATOM     34  C   UNL     1      -2.461  14.831   2.407  1.00  0.00     0.014 A 
ATOM     35  C   UNL     1      -2.819  13.503   4.402  1.00  0.00     0.014 A 
ATOM     36  C   UNL     1      -3.333  15.802   2.903  1.00  0.00     0.010 A 
ATOM     37  C   UNL     1      -3.739  14.441   4.864  1.00  0.00     0.010 A 
ATOM     38  C   UNL     1      -4.010  15.597   4.117  1.00  0.00    -0.014 A 
BRANCH  38  39
ATOM     39  C   UNL     1      -5.028  16.567   4.594  1.00  0.00     0.031 A 
ATOM     40  C   UNL     1      -4.814  17.339   5.867  1.00  0.00     0.074 A 
ATOM     41  C   UNL     1      -6.177  16.710   3.903  1.00  0.00     0.049 A 
ATOM     42  N   UNL     1      -5.597  18.221   6.435  1.00  0.00    -0.248 NA
ATOM     43  C   UNL     1      -3.573  17.070   6.609  1.00  0.00     0.031 C 
ATOM     44  C   UNL     1      -6.529  15.976   2.685  1.00  0.00     0.029 A 
ATOM     45  N   UNL     1      -7.262  17.520   4.127  1.00  0.00    -0.354 N 
ATOM     46  C   UNL     1      -4.951  18.602   7.605  1.00  0.00     0.074 A 
ATOM     47  C   UNL     1      -3.737  17.820   7.690  1.00  0.00     0.031 C 
ATOM     48  C   UNL     1      -7.729  16.394   2.252  1.00  0.00     0.029 A 
ATOM     49  C   UNL     1      -8.248  17.396   3.177  1.00  0.00     0.049 A 
ATOM     50  H   UNL     1      -7.328  18.132   4.895  1.00  0.00     0.167 HD
ATOM     51  C   UNL     1      -5.324  19.533   8.517  1.00  0.00     0.031 A 
ATOM     52  C   UNL     1      -9.437  18.018   3.060  1.00  0.00     0.031 A 
ATOM     53  C   UNL     1      -6.531  20.313   8.427  1.00  0.00     0.049 A 
ATOM     54  C   UNL     1      -9.828  19.051   4.080  1.00  0.00     0.074 A 
ATOM     55  C   UNL     1      -6.966  21.325   9.264  1.00  0.00     0.029 A 
ATOM     56  N   UNL     1      -7.500  20.163   7.446  1.00  0.00    -0.354 N 
ATOM     57  N   UNL     1      -9.164  19.457   5.136  1.00  0.00    -0.248 NA
ATOM     58  C   UNL     1     -11.122  19.718   3.885  1.00  0.00     0.031 C 
ATOM     59  C   UNL     1      -8.222  21.752   8.820  1.00  0.00     0.029 A 
ATOM     60  C   UNL     1      -8.544  21.045   7.672  1.00  0.00     0.049 A 
ATOM     61  H   UNL     1      -7.453  19.524   6.698  1.00  0.00     0.167 HD
ATOM     62  C   UNL     1      -9.951  20.442   5.721  1.00  0.00     0.074 A 
ATOM     63  C   UNL     1     -11.130  20.583   4.890  1.00  0.00     0.031 C 
ATOM     64  C   UNL     1      -9.719  21.164   6.845  1.00  0.00     0.031 A 
BRANCH  51  65
ATOM     65  C   UNL     1      -4.414  19.751   9.697  1.00  0.00    -0.014 A 
ATOM     66  C   UNL     1      -3.152  20.354   9.540  1.00  0.00     0.010 A 
ATOM     67  C   UNL     1      -4.835  19.375  10.985  1.00  0.00     0.010 A 
ATOM     68  C   UNL     1      -2.309  20.531  10.641  1.00  0.00     0.020 A 
ATOM     69  C   UNL     1      -4.007  19.576  12.094  1.00  0.00     0.020 A 
ATOM     70  C   UNL     1      -2.740  20.136  11.910  1.00  0.00     0.054 A 
BRANCH  70  71
ATOM     71  S   UNL     1      -1.630  20.385  13.323  1.00  0.00     0.124 S 
ATOM     72  O   UNL     1      -0.632  19.340  13.108  1.00  0.00    -0.237 OA
ATOM     73  O   UNL     1      -1.158  21.753  13.123  1.00  0.00    -0.237 OA
ATOM     74  O   UNL     1      -2.495  20.191  14.483  1.00  0.00    -0.744 OA
ENDBRANCH  70  71
ENDBRANCH  51  65
BRANCH  52  75
ATOM     75  C   UNL     1     -10.330  17.695   1.914  1.00  0.00    -0.014 A 
ATOM     76  C   UNL     1     -10.511  18.616   0.868  1.00  0.00     0.010 A 
ATOM     77  C   UNL     1     -10.982  16.450   1.849  1.00  0.00     0.010 A 
ATOM     78  C   UNL     1     -11.336  18.304  -0.216  1.00  0.00     0.020 A 
ATOM     79  C   UNL     1     -11.787  16.123   0.754  1.00  0.00     0.020 A 
ATOM     80  C   UNL     1     -11.966  17.057  -0.269  1.00  0.00     0.054 A 
BRANCH  80  81
ATOM     81  S   UNL     1     -12.979  16.648  -1.717  1.00  0.00     0.124 S 
ATOM     82  O   UNL     1     -14.176  17.450  -1.486  1.00  0.00    -0.237 OA
ATOM     83  O   UNL     1     -12.132  17.079  -2.827  1.00  0.00    -0.237 OA
ATOM     84  O   UNL     1     -13.161  15.203  -1.609  1.00  0.00    -0.744 OA
ENDBRANCH  80  81
ENDBRANCH  52  75
BRANCH  64  85
ATOM     85  C   UNL     1     -10.756  22.184   7.234  1.00  0.00    -0.014 A 
ATOM     86  C   UNL     1     -12.006  21.793   7.745  1.00  0.00     0.010 A 
ATOM     87  C   UNL     1     -10.460  23.555   7.120  1.00  0.00     0.010 A 
ATOM     88  C   UNL     1     -12.956  22.755   8.101  1.00  0.00     0.020 A 
ATOM     89  C   UNL     1     -11.397  24.519   7.501  1.00  0.00     0.020 A 
ATOM     90  C   UNL     1     -12.646  24.112   7.973  1.00  0.00     0.054 A 
BRANCH  90  91
ATOM     91  S   UNL     1     -13.884  25.341   8.468  1.00  0.00     0.124 S 
ATOM     92  O   UNL     1     -14.840  25.271   7.366  1.00  0.00    -0.237 OA
ATOM     93  O   UNL     1     -14.361  24.821   9.748  1.00  0.00    -0.237 OA
ATOM     94  O   UNL     1     -13.122  26.585   8.554  1.00  0.00    -0.744 OA
ENDBRANCH  90  91
ENDBRANCH  64  85
ENDBRANCH  38  39
ENDBRANCH  30  33
ENDBRANCH  28  29
ENDBRANCH  27  28
ENDBRANCH   1  27
TORSDOF 18
