REMARK SMILES CC(C)(C)C(=O)NCc1ccc(C(=O)NCCCCNC(=O)c2ccc(-c3c4nc(c(-c5ccc(S(=O)(=O)[O-])cc5)c5ccc([nH]5)c(-c5ccc(S(=O)(=O)[O-])cc5)c5nc(c(-c6ccc(S(=O)(=O)[O-])cc6)c6ccc3[nH]6)C=C5)C=C4)cc2)o1
REMARK SMILES IDX 17 1 16 2 15 3 13 4 14 5 12 7 9 8 10 9 83 10 11 11 8 12 7 13
REMARK SMILES IDX 5 14 6 15 2 17 1 18 3 19 4 20 18 21 19 22 20 23 21 24 22 26
REMARK SMILES IDX 23 27 24 28 82 29 25 30 81 31 26 32 27 33 28 34 75 35 29 36
REMARK SMILES IDX 80 37 74 38 76 39 30 40 79 41 73 42 72 43 31 45 61 46 42 47
REMARK SMILES IDX 60 48 43 49 46 50 59 51 77 52 44 53 45 54 58 56 78 57 47 58
REMARK SMILES IDX 32 59 33 60 41 61 34 62 40 63 35 64 36 65 37 66 38 67 39 68
REMARK SMILES IDX 62 69 63 70 71 71 64 72 70 73 65 74 66 75 67 76 68 77 69 78
REMARK SMILES IDX 48 79 49 80 57 81 50 82 56 83 51 84 52 85 53 86 54 87 55 88
REMARK H PARENT 15 6 7 16 20 25 76 44 46 55
REMARK Flexibility Score: inf
ROOT
ATOM      1  C   UNL     1      -5.511   1.944   7.884  1.00  0.00     0.023 C 
ENDROOT
BRANCH   1   2
ATOM      2  C   UNL     1      -5.796   2.443   6.469  1.00  0.00     0.116 C 
BRANCH   2   3
ATOM      3  N   UNL     1      -5.267   3.772   6.269  1.00  0.00    -0.349 N 
ATOM      4  C   UNL     1      -4.084   4.202   5.713  1.00  0.00     0.286 C 
ATOM      5  O   UNL     1      -3.940   5.424   5.649  1.00  0.00    -0.266 OA
ATOM      6  H   UNL     1      -5.855   4.496   6.585  1.00  0.00     0.163 HD
BRANCH   4   7
ATOM      7  C   UNL     1      -3.085   3.268   5.220  1.00  0.00     0.191 A 
ATOM      8  C   UNL     1      -1.229   2.814   4.091  1.00  0.00     0.124 A 
ATOM      9  C   UNL     1      -1.701   1.609   4.559  1.00  0.00     0.048 A 
ATOM     10  O   UNL     1      -2.062   3.816   4.478  1.00  0.00    -0.454 OA
ATOM     11  C   UNL     1      -2.860   1.905   5.314  1.00  0.00     0.056 A 
BRANCH   8  12
ATOM     12  C   UNL     1      -0.049   3.223   3.291  1.00  0.00     0.191 C 
BRANCH  12  13
ATOM     13  N   UNL     1       0.880   2.114   3.227  1.00  0.00    -0.348 N 
ATOM     14  C   UNL     1       1.098   1.158   2.290  1.00  0.00     0.225 C 
ATOM     15  O   UNL     1       1.810   0.213   2.646  1.00  0.00    -0.275 OA
ATOM     16  H   UNL     1       1.466   2.039   4.015  1.00  0.00     0.163 HD
BRANCH  14  17
ATOM     17  C   UNL     1       0.530   1.241   0.858  1.00  0.00     0.041 C 
ATOM     18  C   UNL     1       1.029   0.004   0.073  1.00  0.00     0.021 C 
ATOM     19  C   UNL     1       1.073   2.483   0.137  1.00  0.00     0.021 C 
ATOM     20  C   UNL     1      -1.003   1.198   0.832  1.00  0.00     0.021 C 
ENDBRANCH  14  17
ENDBRANCH  12  13
ENDBRANCH   8  12
ENDBRANCH   4   7
ENDBRANCH   2   3
ENDBRANCH   1   2
BRANCH   1  21
ATOM     21  C   UNL     1      -6.510   2.455   8.928  1.00  0.00     0.023 C 
BRANCH  21  22
ATOM     22  C   UNL     1      -7.968   2.087   8.661  1.00  0.00     0.116 C 
BRANCH  22  23
ATOM     23  N   UNL     1      -8.175   0.657   8.482  1.00  0.00    -0.352 N 
ATOM     24  C   UNL     1      -9.249  -0.106   8.870  1.00  0.00     0.251 C 
ATOM     25  H   UNL     1      -7.450   0.174   8.024  1.00  0.00     0.163 HD
ATOM     26  O   UNL     1      -9.211  -1.327   8.754  1.00  0.00    -0.269 OA
BRANCH  24  27
ATOM     27  C   UNL     1     -10.428   0.556   9.464  1.00  0.00     0.039 A 
ATOM     28  C   UNL     1     -10.946   0.060  10.661  1.00  0.00     0.014 A 
ATOM     29  C   UNL     1     -10.989   1.687   8.864  1.00  0.00     0.014 A 
ATOM     30  C   UNL     1     -11.986   0.742  11.293  1.00  0.00     0.010 A 
ATOM     31  C   UNL     1     -11.971   2.409   9.535  1.00  0.00     0.010 A 
ATOM     32  C   UNL     1     -12.479   1.945  10.757  1.00  0.00    -0.014 A 
BRANCH  32  33
ATOM     33  C   UNL     1     -13.507   2.735  11.482  1.00  0.00     0.031 A 
ATOM     34  C   UNL     1     -14.864   2.964  10.873  1.00  0.00     0.074 A 
ATOM     35  C   UNL     1     -13.198   3.284  12.674  1.00  0.00     0.049 A 
ATOM     36  N   UNL     1     -15.883   3.624  11.361  1.00  0.00    -0.248 NA
ATOM     37  C   UNL     1     -15.102   2.399   9.535  1.00  0.00     0.031 C 
ATOM     38  C   UNL     1     -11.899   3.178  13.344  1.00  0.00     0.029 A 
ATOM     39  N   UNL     1     -13.954   4.037  13.538  1.00  0.00    -0.354 N 
ATOM     40  C   UNL     1     -16.876   3.561  10.391  1.00  0.00     0.074 A 
ATOM     41  C   UNL     1     -16.319   2.848   9.263  1.00  0.00     0.031 C 
ATOM     42  C   UNL     1     -11.962   3.806  14.529  1.00  0.00     0.029 A 
ATOM     43  C   UNL     1     -13.287   4.395  14.686  1.00  0.00     0.049 A 
ATOM     44  H   UNL     1     -14.885   4.296  13.352  1.00  0.00     0.167 HD
ATOM     45  C   UNL     1     -18.144   4.033  10.443  1.00  0.00     0.031 A 
ATOM     46  C   UNL     1     -13.695   5.119  15.747  1.00  0.00     0.031 A 
ATOM     47  C   UNL     1     -18.694   4.741  11.570  1.00  0.00     0.049 A 
ATOM     48  C   UNL     1     -15.104   5.643  15.775  1.00  0.00     0.074 A 
ATOM     49  C   UNL     1     -19.985   5.211  11.742  1.00  0.00     0.029 A 
ATOM     50  N   UNL     1     -17.987   5.088  12.711  1.00  0.00    -0.354 N 
ATOM     51  N   UNL     1     -16.054   5.502  14.880  1.00  0.00    -0.248 NA
ATOM     52  C   UNL     1     -15.501   6.412  16.962  1.00  0.00     0.031 C 
ATOM     53  C   UNL     1     -20.040   5.897  12.960  1.00  0.00     0.029 A 
ATOM     54  C   UNL     1     -18.805   5.793  13.579  1.00  0.00     0.049 A 
ATOM     55  H   UNL     1     -17.043   4.865  12.880  1.00  0.00     0.167 HD
ATOM     56  C   UNL     1     -17.169   6.144  15.409  1.00  0.00     0.074 A 
ATOM     57  C   UNL     1     -16.780   6.651  16.709  1.00  0.00     0.031 C 
ATOM     58  C   UNL     1     -18.402   6.302  14.866  1.00  0.00     0.031 A 
BRANCH  45  59
ATOM     59  C   UNL     1     -19.025   3.804   9.242  1.00  0.00    -0.014 A 
ATOM     60  C   UNL     1     -19.468   2.513   8.898  1.00  0.00     0.010 A 
ATOM     61  C   UNL     1     -19.458   4.900   8.473  1.00  0.00     0.010 A 
ATOM     62  C   UNL     1     -20.294   2.319   7.788  1.00  0.00     0.020 A 
ATOM     63  C   UNL     1     -20.310   4.713   7.380  1.00  0.00     0.020 A 
ATOM     64  C   UNL     1     -20.710   3.421   7.036  1.00  0.00     0.054 A 
BRANCH  64  65
ATOM     65  S   UNL     1     -21.808   3.140   5.620  1.00  0.00     0.124 S 
ATOM     66  O   UNL     1     -20.910   2.492   4.667  1.00  0.00    -0.237 OA
ATOM     67  O   UNL     1     -22.846   2.283   6.186  1.00  0.00    -0.237 OA
ATOM     68  O   UNL     1     -22.246   4.483   5.247  1.00  0.00    -0.744 OA
ENDBRANCH  64  65
ENDBRANCH  45  59
BRANCH  46  69
ATOM     69  C   UNL     1     -12.759   5.378  16.877  1.00  0.00    -0.014 A 
ATOM     70  C   UNL     1     -12.975   4.793  18.138  1.00  0.00     0.010 A 
ATOM     71  C   UNL     1     -11.640   6.211  16.695  1.00  0.00     0.010 A 
ATOM     72  C   UNL     1     -12.104   5.055  19.200  1.00  0.00     0.020 A 
ATOM     73  C   UNL     1     -10.749   6.449  17.745  1.00  0.00     0.020 A 
ATOM     74  C   UNL     1     -10.994   5.880  18.995  1.00  0.00     0.054 A 
BRANCH  74  75
ATOM     75  S   UNL     1      -9.853   6.168  20.376  1.00  0.00     0.124 S 
ATOM     76  O   UNL     1     -10.639   7.041  21.242  1.00  0.00    -0.237 OA
ATOM     77  O   UNL     1      -9.620   4.817  20.879  1.00  0.00    -0.237 OA
ATOM     78  O   UNL     1      -8.697   6.795  19.738  1.00  0.00    -0.744 OA
ENDBRANCH  74  75
ENDBRANCH  46  69
BRANCH  58  79
ATOM     79  C   UNL     1     -19.430   7.031  15.691  1.00  0.00    -0.014 A 
ATOM     80  C   UNL     1     -19.324   8.412  15.941  1.00  0.00     0.010 A 
ATOM     81  C   UNL     1     -20.538   6.328  16.199  1.00  0.00     0.010 A 
ATOM     82  C   UNL     1     -20.282   9.065  16.721  1.00  0.00     0.020 A 
ATOM     83  C   UNL     1     -21.516   6.984  16.950  1.00  0.00     0.020 A 
ATOM     84  C   UNL     1     -21.371   8.345  17.223  1.00  0.00     0.054 A 
BRANCH  84  85
ATOM     85  S   UNL     1     -22.611   9.221  18.215  1.00  0.00     0.124 S 
ATOM     86  O   UNL     1     -21.892   9.455  19.464  1.00  0.00    -0.237 OA
ATOM     87  O   UNL     1     -22.880  10.412  17.412  1.00  0.00    -0.237 OA
ATOM     88  O   UNL     1     -23.719   8.272  18.302  1.00  0.00    -0.744 OA
ENDBRANCH  84  85
ENDBRANCH  58  79
ENDBRANCH  32  33
ENDBRANCH  24  27
ENDBRANCH  22  23
ENDBRANCH  21  22
ENDBRANCH   1  21
TORSDOF 17
