REMARK SMILES CCc1ccc(-c2cc(Cl)cc3c2O[C@H](C(F)(F)F)C(C(=O)NCCCCNC(=O)c2ccc(-c4c5nc(c(-c6ccc(S(=O)(=O)[O-])cc6)c6ccc([nH]6)c(-c6ccc(S(=O)(=O)[O-])cc6)c6nc(c(-c7ccc(S(=O)(=O)[O-])cc7)c7ccc4[nH]7)C=C6)C=C5)cc2)=C3)cc1
REMARK SMILES IDX 26 1 25 2 24 3 23 4 21 5 22 6 20 8 7 9 8 10 13 11 9 12 12 13
REMARK SMILES IDX 14 14 10 15 11 16 91 17 15 18 6 19 3 20 4 21 93 22 5 23
REMARK SMILES IDX 92 24 2 25 1 26 16 27 17 28 18 29 19 30 27 31 28 32 29 33
REMARK SMILES IDX 30 35 31 36 32 37 90 38 33 39 89 40 34 41 35 42 36 43 83 44
REMARK SMILES IDX 37 45 88 46 82 47 84 48 38 49 87 50 81 51 80 52 39 54 69 55
REMARK SMILES IDX 50 56 68 57 51 58 54 59 67 60 85 61 52 62 53 63 66 65 86 66
REMARK SMILES IDX 55 67 40 68 41 69 49 70 42 71 48 72 43 73 44 74 45 75 46 76
REMARK SMILES IDX 47 77 70 78 71 79 79 80 72 81 78 82 73 83 74 84 75 85 76 86
REMARK SMILES IDX 77 87 56 88 57 89 65 90 58 91 64 92 59 93 60 94 61 95 62 96
REMARK SMILES IDX 63 97
REMARK H PARENT 23 7 28 34 84 53 54 64
REMARK Flexibility Score: inf
ROOT
ATOM      1  C   UNL     1       5.129  -9.236 -11.683  1.00  0.00     0.023 C 
ENDROOT
BRANCH   1   2
ATOM      2  C   UNL     1       6.026  -8.458 -10.709  1.00  0.00     0.023 C 
BRANCH   2   3
ATOM      3  C   UNL     1       5.785  -6.943 -10.664  1.00  0.00     0.116 C 
BRANCH   3   4
ATOM      4  N   UNL     1       4.418  -6.678 -10.267  1.00  0.00    -0.352 N 
ATOM      5  C   UNL     1       3.968  -5.853  -9.295  1.00  0.00     0.251 C 
ATOM      6  O   UNL     1       2.967  -6.177  -8.664  1.00  0.00    -0.270 OA
ATOM      7  H   UNL     1       3.726  -7.164 -10.770  1.00  0.00     0.163 HD
BRANCH   5   8
ATOM      8  C   UNL     1       4.647  -4.533  -9.112  1.00  0.00     0.067 C 
ATOM      9  C   UNL     1       2.385  -3.143  -6.033  1.00  0.00     0.026 A 
ATOM     10  C   UNL     1       1.034  -3.431  -6.362  1.00  0.00     0.033 A 
ATOM     11  C   UNL     1       3.318  -3.265  -7.075  1.00  0.00     0.135 A 
ATOM     12  C   UNL     1       0.609  -3.625  -7.674  1.00  0.00     0.042 A 
ATOM     13  C   UNL     1       2.855  -3.349  -8.412  1.00  0.00     0.019 A 
ATOM     14  O   UNL     1       4.686  -3.371  -6.862  1.00  0.00    -0.475 OA
ATOM     15  Cl  UNL     1      -1.043  -3.975  -7.991  1.00  0.00    -0.084 Cl
ATOM     16  C   UNL     1       1.506  -3.504  -8.717  1.00  0.00     0.032 A 
ATOM     17  C   UNL     1       3.868  -3.496  -9.482  1.00  0.00     0.025 C 
ATOM     18  C   UNL     1       5.344  -4.366  -7.765  1.00  0.00     0.314 C 
BRANCH   9  19
ATOM     19  C   UNL     1       2.567  -2.482  -4.711  1.00  0.00    -0.015 A 
ATOM     20  C   UNL     1       1.685  -0.756  -2.621  1.00  0.00    -0.048 A 
ATOM     21  C   UNL     1       1.474  -2.137  -2.543  1.00  0.00     0.004 A 
ATOM     22  C   UNL     1       2.473  -0.270  -3.672  1.00  0.00     0.004 A 
ATOM     23  C   UNL     1       1.932  -2.991  -3.560  1.00  0.00     0.009 A 
ATOM     24  C   UNL     1       2.921  -1.122  -4.694  1.00  0.00     0.009 A 
BRANCH  20  25
ATOM     25  C   UNL     1       0.958   0.208  -1.709  1.00  0.00     0.032 C 
ATOM     26  C   UNL     1       1.154  -0.038  -0.222  1.00  0.00     0.009 C 
ENDBRANCH  20  25
ENDBRANCH   9  19
BRANCH  18  27
ATOM     27  C   UNL     1       6.825  -4.010  -8.024  1.00  0.00     0.429 C 
ATOM     28  F   UNL     1       7.131  -2.744  -7.660  1.00  0.00    -0.167 F 
ATOM     29  F   UNL     1       7.655  -4.841  -7.348  1.00  0.00    -0.167 F 
ATOM     30  F   UNL     1       7.167  -4.125  -9.335  1.00  0.00    -0.167 F 
ENDBRANCH  18  27
ENDBRANCH   5   8
ENDBRANCH   3   4
ENDBRANCH   2   3
ENDBRANCH   1   2
BRANCH   1  31
ATOM     31  C   UNL     1       5.170  -8.744 -13.124  1.00  0.00     0.116 C 
BRANCH  31  32
ATOM     32  N   UNL     1       6.477  -8.944 -13.728  1.00  0.00    -0.352 N 
ATOM     33  C   UNL     1       6.804  -9.643 -14.865  1.00  0.00     0.251 C 
ATOM     34  H   UNL     1       7.231  -8.521 -13.258  1.00  0.00     0.163 HD
ATOM     35  O   UNL     1       7.983  -9.880 -15.120  1.00  0.00    -0.269 OA
BRANCH  33  36
ATOM     36  C   UNL     1       5.734 -10.129 -15.763  1.00  0.00     0.039 A 
ATOM     37  C   UNL     1       5.778 -11.448 -16.222  1.00  0.00     0.014 A 
ATOM     38  C   UNL     1       4.683  -9.289 -16.141  1.00  0.00     0.014 A 
ATOM     39  C   UNL     1       4.732 -11.943 -17.006  1.00  0.00     0.010 A 
ATOM     40  C   UNL     1       3.608  -9.805 -16.860  1.00  0.00     0.010 A 
ATOM     41  C   UNL     1       3.619 -11.138 -17.300  1.00  0.00    -0.014 A 
BRANCH  41  42
ATOM     42  C   UNL     1       2.455 -11.668 -18.058  1.00  0.00     0.031 A 
ATOM     43  C   UNL     1       2.086 -11.070 -19.391  1.00  0.00     0.074 A 
ATOM     44  C   UNL     1       1.684 -12.634 -17.515  1.00  0.00     0.049 A 
ATOM     45  N   UNL     1       1.060 -11.336 -20.157  1.00  0.00    -0.248 NA
ATOM     46  C   UNL     1       2.972 -10.020 -19.922  1.00  0.00     0.031 C 
ATOM     47  C   UNL     1       1.911 -13.271 -16.215  1.00  0.00     0.029 A 
ATOM     48  N   UNL     1       0.544 -13.241 -17.983  1.00  0.00    -0.354 N 
ATOM     49  C   UNL     1       1.159 -10.470 -21.241  1.00  0.00     0.074 A 
ATOM     50  C   UNL     1       2.326  -9.647 -21.019  1.00  0.00     0.031 C 
ATOM     51  C   UNL     1       0.955 -14.191 -16.000  1.00  0.00     0.029 A 
ATOM     52  C   UNL     1       0.021 -14.178 -17.121  1.00  0.00     0.049 A 
ATOM     53  H   UNL     1       0.139 -13.026 -18.854  1.00  0.00     0.167 HD
ATOM     54  C   UNL     1       0.357 -10.379 -22.327  1.00  0.00     0.031 A 
ATOM     55  C   UNL     1      -1.093 -14.932 -17.213  1.00  0.00     0.031 A 
ATOM     56  C   UNL     1      -0.784 -11.222 -22.562  1.00  0.00     0.049 A 
ATOM     57  C   UNL     1      -1.968 -14.801 -18.433  1.00  0.00     0.074 A 
ATOM     58  C   UNL     1      -1.607 -11.258 -23.674  1.00  0.00     0.029 A 
ATOM     59  N   UNL     1      -1.266 -12.171 -21.676  1.00  0.00    -0.354 N 
ATOM     60  N   UNL     1      -1.806 -14.035 -19.486  1.00  0.00    -0.248 NA
ATOM     61  C   UNL     1      -3.173 -15.643 -18.482  1.00  0.00     0.031 C 
ATOM     62  C   UNL     1      -2.624 -12.186 -23.435  1.00  0.00     0.029 A 
ATOM     63  C   UNL     1      -2.395 -12.776 -22.202  1.00  0.00     0.049 A 
ATOM     64  H   UNL     1      -0.866 -12.384 -20.802  1.00  0.00     0.167 HD
ATOM     65  C   UNL     1      -2.865 -14.334 -20.337  1.00  0.00     0.074 A 
ATOM     66  C   UNL     1      -3.654 -15.357 -19.684  1.00  0.00     0.031 C 
ATOM     67  C   UNL     1      -3.158 -13.809 -21.551  1.00  0.00     0.031 A 
BRANCH  54  68
ATOM     68  C   UNL     1       0.673  -9.327 -23.359  1.00  0.00    -0.014 A 
ATOM     69  C   UNL     1       1.781  -9.454 -24.214  1.00  0.00     0.010 A 
ATOM     70  C   UNL     1      -0.214  -8.249 -23.541  1.00  0.00     0.010 A 
ATOM     71  C   UNL     1       2.006  -8.514 -25.223  1.00  0.00     0.020 A 
ATOM     72  C   UNL     1      -0.008  -7.322 -24.567  1.00  0.00     0.020 A 
ATOM     73  C   UNL     1       1.106  -7.457 -25.397  1.00  0.00     0.054 A 
BRANCH  73  74
ATOM     74  S   UNL     1       1.384  -6.296 -26.762  1.00  0.00     0.124 S 
ATOM     75  O   UNL     1       2.553  -5.556 -26.294  1.00  0.00    -0.237 OA
ATOM     76  O   UNL     1       1.617  -7.186 -27.896  1.00  0.00    -0.237 OA
ATOM     77  O   UNL     1       0.144  -5.526 -26.822  1.00  0.00    -0.744 OA
ENDBRANCH  73  74
ENDBRANCH  54  68
BRANCH  55  78
ATOM     78  C   UNL     1      -1.464 -15.876 -16.121  1.00  0.00    -0.014 A 
ATOM     79  C   UNL     1      -1.457 -17.266 -16.343  1.00  0.00     0.010 A 
ATOM     80  C   UNL     1      -1.872 -15.390 -14.866  1.00  0.00     0.010 A 
ATOM     81  C   UNL     1      -1.896 -18.146 -15.350  1.00  0.00     0.020 A 
ATOM     82  C   UNL     1      -2.279 -16.269 -13.858  1.00  0.00     0.020 A 
ATOM     83  C   UNL     1      -2.311 -17.641 -14.115  1.00  0.00     0.054 A 
BRANCH  83  84
ATOM     84  S   UNL     1      -2.880 -18.800 -12.840  1.00  0.00     0.124 S 
ATOM     85  O   UNL     1      -4.190 -19.191 -13.351  1.00  0.00    -0.237 OA
ATOM     86  O   UNL     1      -1.851 -19.837 -12.874  1.00  0.00    -0.237 OA
ATOM     87  O   UNL     1      -2.897 -17.989 -11.625  1.00  0.00    -0.744 OA
ENDBRANCH  83  84
ENDBRANCH  55  78
BRANCH  67  88
ATOM     88  C   UNL     1      -4.347 -14.366 -22.288  1.00  0.00    -0.014 A 
ATOM     89  C   UNL     1      -5.662 -14.095 -21.872  1.00  0.00     0.010 A 
ATOM     90  C   UNL     1      -4.140 -15.118 -23.460  1.00  0.00     0.010 A 
ATOM     91  C   UNL     1      -6.748 -14.588 -22.600  1.00  0.00     0.020 A 
ATOM     92  C   UNL     1      -5.223 -15.587 -24.207  1.00  0.00     0.020 A 
ATOM     93  C   UNL     1      -6.521 -15.329 -23.765  1.00  0.00     0.054 A 
BRANCH  93  94
ATOM     94  S   UNL     1      -7.948 -15.910 -24.722  1.00  0.00     0.124 S 
ATOM     95  O   UNL     1      -8.464 -16.984 -23.878  1.00  0.00    -0.237 OA
ATOM     96  O   UNL     1      -8.786 -14.716 -24.803  1.00  0.00    -0.237 OA
ATOM     97  O   UNL     1      -7.363 -16.341 -25.990  1.00  0.00    -0.744 OA
ENDBRANCH  93  94
ENDBRANCH  67  88
ENDBRANCH  41  42
ENDBRANCH  33  36
ENDBRANCH  31  32
ENDBRANCH   1  31
TORSDOF 17
