REMARK SMILES CCc1cc(OC(F)(F)F)cc2c1O[C@@H](C(F)(F)F)C(C(=O)NCCCCNC(=O)c1ccc(-c3c4nc(c(-c5ccc(S(=O)(=O)[O-])cc5)c5ccc([nH]5)c(-c5ccc(S(=O)(=O)[O-])cc5)c5nc(c(-c6ccc(S(=O)(=O)[O-])cc6)c6ccc3[nH]6)C=C5)C=C4)cc1)=C2
REMARK SMILES IDX 26 1 25 2 24 3 23 4 21 5 22 6 20 8 3 9 4 10 13 11 5 12 12 13
REMARK SMILES IDX 14 14 11 15 91 16 15 17 2 18 1 19 6 20 7 21 8 22 9 23 10 24
REMARK SMILES IDX 16 25 17 26 18 27 19 28 27 29 28 30 29 31 30 33 31 34 32 35
REMARK SMILES IDX 90 36 33 37 89 38 34 39 35 40 36 41 83 42 37 43 88 44 82 45
REMARK SMILES IDX 84 46 38 47 87 48 81 49 80 50 39 52 69 53 50 54 68 55 51 56
REMARK SMILES IDX 54 57 67 58 85 59 52 60 53 61 66 63 86 64 55 65 40 66 41 67
REMARK SMILES IDX 49 68 42 69 48 70 43 71 44 72 45 73 46 74 47 75 70 76 71 77
REMARK SMILES IDX 79 78 72 79 78 80 73 81 74 82 75 83 76 84 77 85 56 86 57 87
REMARK SMILES IDX 65 88 58 89 64 90 59 91 60 92 61 93 62 94 63 95
REMARK H PARENT 23 7 28 32 84 51 54 62
REMARK Flexibility Score: inf
ROOT
ATOM      1  C   UNL     1       2.520   6.662  -8.379  1.00  0.00     0.023 C 
ENDROOT
BRANCH   1   2
ATOM      2  C   UNL     1       2.542   5.559  -7.317  1.00  0.00     0.023 C 
BRANCH   2   3
ATOM      3  C   UNL     1       3.124   5.993  -5.965  1.00  0.00     0.116 C 
BRANCH   3   4
ATOM      4  N   UNL     1       2.149   6.771  -5.221  1.00  0.00    -0.352 N 
ATOM      5  C   UNL     1       1.182   6.422  -4.332  1.00  0.00     0.251 C 
ATOM      6  O   UNL     1       0.403   7.291  -3.947  1.00  0.00    -0.270 OA
ATOM      7  H   UNL     1       2.198   7.739  -5.394  1.00  0.00     0.163 HD
BRANCH   5   8
ATOM      8  C   UNL     1       1.066   5.056  -3.753  1.00  0.00     0.067 C 
ATOM      9  C   UNL     1       0.803   1.313  -1.826  1.00  0.00    -0.002 A 
ATOM     10  C   UNL     1       1.055   0.151  -2.585  1.00  0.00     0.054 A 
ATOM     11  C   UNL     1       0.857   2.563  -2.471  1.00  0.00     0.131 A 
ATOM     12  C   UNL     1       1.389   0.231  -3.938  1.00  0.00     0.130 A 
ATOM     13  C   UNL     1       1.182   2.647  -3.821  1.00  0.00     0.021 A 
ATOM     14  O   UNL     1       0.629   3.672  -1.709  1.00  0.00    -0.475 OA
ATOM     15  C   UNL     1       1.446   1.484  -4.549  1.00  0.00     0.058 A 
ATOM     16  C   UNL     1       1.309   3.944  -4.460  1.00  0.00     0.025 C 
ATOM     17  C   UNL     1       0.485   4.975  -2.348  1.00  0.00     0.314 C 
BRANCH   9  18
ATOM     18  C   UNL     1       0.424   1.245  -0.359  1.00  0.00     0.036 C 
ATOM     19  C   UNL     1       0.891   0.012   0.407  1.00  0.00     0.009 C 
ENDBRANCH   9  18
BRANCH  12  20
ATOM     20  O   UNL     1       1.685  -0.809  -4.771  1.00  0.00    -0.406 OA
BRANCH  20  21
ATOM     21  C   UNL     1       1.713  -2.114  -4.223  1.00  0.00     0.573 C 
ATOM     22  F   UNL     1       2.616  -2.208  -3.223  1.00  0.00    -0.132 F 
ATOM     23  F   UNL     1       0.495  -2.474  -3.766  1.00  0.00    -0.132 F 
ATOM     24  F   UNL     1       2.071  -2.985  -5.194  1.00  0.00    -0.132 F 
ENDBRANCH  20  21
ENDBRANCH  12  20
BRANCH  17  25
ATOM     25  C   UNL     1       1.003   6.030  -1.342  1.00  0.00     0.429 C 
ATOM     26  F   UNL     1       0.332   7.200  -1.411  1.00  0.00    -0.167 F 
ATOM     27  F   UNL     1       0.843   5.597  -0.061  1.00  0.00    -0.167 F 
ATOM     28  F   UNL     1       2.322   6.288  -1.500  1.00  0.00    -0.167 F 
ENDBRANCH  17  25
ENDBRANCH   5   8
ENDBRANCH   3   4
ENDBRANCH   2   3
ENDBRANCH   1   2
BRANCH   1  29
ATOM     29  C   UNL     1       3.895   7.088  -8.875  1.00  0.00     0.116 C 
BRANCH  29  30
ATOM     30  N   UNL     1       4.635   6.006  -9.506  1.00  0.00    -0.352 N 
ATOM     31  C   UNL     1       5.604   6.098 -10.480  1.00  0.00     0.251 C 
ATOM     32  H   UNL     1       4.416   5.096  -9.199  1.00  0.00     0.163 HD
ATOM     33  O   UNL     1       6.069   5.095 -10.993  1.00  0.00    -0.269 OA
BRANCH  31  34
ATOM     34  C   UNL     1       6.031   7.443 -10.924  1.00  0.00     0.039 A 
ATOM     35  C   UNL     1       5.985   7.748 -12.286  1.00  0.00     0.014 A 
ATOM     36  C   UNL     1       6.415   8.408  -9.990  1.00  0.00     0.014 A 
ATOM     37  C   UNL     1       6.259   9.051 -12.708  1.00  0.00     0.010 A 
ATOM     38  C   UNL     1       6.628   9.717 -10.405  1.00  0.00     0.010 A 
ATOM     39  C   UNL     1       6.547  10.052 -11.767  1.00  0.00    -0.014 A 
BRANCH  39  40
ATOM     40  C   UNL     1       6.775  11.460 -12.171  1.00  0.00     0.031 A 
ATOM     41  C   UNL     1       8.123  12.088 -11.951  1.00  0.00     0.074 A 
ATOM     42  C   UNL     1       5.750  12.197 -12.641  1.00  0.00     0.049 A 
ATOM     43  N   UNL     1       8.486  13.335 -12.099  1.00  0.00    -0.248 NA
ATOM     44  C   UNL     1       9.194  11.200 -11.472  1.00  0.00     0.031 C 
ATOM     45  C   UNL     1       4.386  11.711 -12.868  1.00  0.00     0.029 A 
ATOM     46  N   UNL     1       5.693  13.522 -12.996  1.00  0.00    -0.354 N 
ATOM     47  C   UNL     1       9.816  13.389 -11.701  1.00  0.00     0.074 A 
ATOM     48  C   UNL     1      10.186  12.057 -11.274  1.00  0.00     0.031 C 
ATOM     49  C   UNL     1       3.632  12.720 -13.335  1.00  0.00     0.029 A 
ATOM     50  C   UNL     1       4.445  13.931 -13.403  1.00  0.00     0.049 A 
ATOM     51  H   UNL     1       6.472  14.122 -12.962  1.00  0.00     0.167 HD
ATOM     52  C   UNL     1      10.659  14.449 -11.703  1.00  0.00     0.031 A 
ATOM     53  C   UNL     1       4.002  15.147 -13.775  1.00  0.00     0.031 A 
ATOM     54  C   UNL     1      10.295  15.766 -12.150  1.00  0.00     0.049 A 
ATOM     55  C   UNL     1       4.960  16.306 -13.787  1.00  0.00     0.074 A 
ATOM     56  C   UNL     1      11.088  16.896 -12.236  1.00  0.00     0.029 A 
ATOM     57  N   UNL     1       9.032  16.128 -12.595  1.00  0.00    -0.354 N 
ATOM     58  N   UNL     1       6.226  16.330 -13.443  1.00  0.00    -0.248 NA
ATOM     59  C   UNL     1       4.433  17.599 -14.244  1.00  0.00     0.031 C 
ATOM     60  C   UNL     1      10.297  17.950 -12.705  1.00  0.00     0.029 A 
ATOM     61  C   UNL     1       9.022  17.465 -12.952  1.00  0.00     0.049 A 
ATOM     62  H   UNL     1       8.258  15.523 -12.650  1.00  0.00     0.167 HD
ATOM     63  C   UNL     1       6.654  17.632 -13.671  1.00  0.00     0.074 A 
ATOM     64  C   UNL     1       5.515  18.365 -14.187  1.00  0.00     0.031 C 
ATOM     65  C   UNL     1       7.882  18.172 -13.475  1.00  0.00     0.031 A 
BRANCH  52  66
ATOM     66  C   UNL     1      12.056  14.220 -11.196  1.00  0.00    -0.014 A 
ATOM     67  C   UNL     1      12.984  13.472 -11.943  1.00  0.00     0.010 A 
ATOM     68  C   UNL     1      12.453  14.773  -9.965  1.00  0.00     0.010 A 
ATOM     69  C   UNL     1      14.268  13.240 -11.445  1.00  0.00     0.020 A 
ATOM     70  C   UNL     1      13.745  14.564  -9.476  1.00  0.00     0.020 A 
ATOM     71  C   UNL     1      14.638  13.780 -10.210  1.00  0.00     0.054 A 
BRANCH  71  72
ATOM     72  S   UNL     1      16.313  13.469  -9.587  1.00  0.00     0.124 S 
ATOM     73  O   UNL     1      16.204  12.091  -9.113  1.00  0.00    -0.237 OA
ATOM     74  O   UNL     1      17.140  13.659 -10.776  1.00  0.00    -0.237 OA
ATOM     75  O   UNL     1      16.486  14.476  -8.543  1.00  0.00    -0.744 OA
ENDBRANCH  71  72
ENDBRANCH  52  66
BRANCH  53  76
ATOM     76  C   UNL     1       2.584  15.326 -14.188  1.00  0.00    -0.014 A 
ATOM     77  C   UNL     1       2.258  15.508 -15.543  1.00  0.00     0.010 A 
ATOM     78  C   UNL     1       1.552  15.296 -13.233  1.00  0.00     0.010 A 
ATOM     79  C   UNL     1       0.927  15.674 -15.935  1.00  0.00     0.020 A 
ATOM     80  C   UNL     1       0.217  15.439 -13.624  1.00  0.00     0.020 A 
ATOM     81  C   UNL     1      -0.086  15.638 -14.973  1.00  0.00     0.054 A 
BRANCH  81  82
ATOM     82  S   UNL     1      -1.812  15.797 -15.509  1.00  0.00     0.124 S 
ATOM     83  O   UNL     1      -1.921  17.232 -15.755  1.00  0.00    -0.237 OA
ATOM     84  O   UNL     1      -1.856  14.946 -16.696  1.00  0.00    -0.237 OA
ATOM     85  O   UNL     1      -2.571  15.296 -14.365  1.00  0.00    -0.744 OA
ENDBRANCH  81  82
ENDBRANCH  53  76
BRANCH  65  86
ATOM     86  C   UNL     1       8.075  19.612 -13.861  1.00  0.00    -0.014 A 
ATOM     87  C   UNL     1       7.578  20.654 -13.061  1.00  0.00     0.010 A 
ATOM     88  C   UNL     1       8.829  19.923 -15.008  1.00  0.00     0.010 A 
ATOM     89  C   UNL     1       7.813  21.986 -13.413  1.00  0.00     0.020 A 
ATOM     90  C   UNL     1       9.084  21.252 -15.351  1.00  0.00     0.020 A 
ATOM     91  C   UNL     1       8.565  22.276 -14.556  1.00  0.00     0.054 A 
BRANCH  91  92
ATOM     92  S   UNL     1       8.909  24.011 -14.961  1.00  0.00     0.124 S 
ATOM     93  O   UNL     1       7.638  24.447 -15.531  1.00  0.00    -0.237 OA
ATOM     94  O   UNL     1       9.246  24.586 -13.661  1.00  0.00    -0.237 OA
ATOM     95  O   UNL     1      10.021  23.930 -15.906  1.00  0.00    -0.744 OA
ENDBRANCH  91  92
ENDBRANCH  65  86
ENDBRANCH  39  40
ENDBRANCH  31  34
ENDBRANCH  29  30
ENDBRANCH   1  29
TORSDOF 18
