REMARK SMILES Cc1ccc2c(c1)C=C(C(=O)NCCCCNC(=O)c1ccc(-c3c4nc(c(-c5ccc(S(=O)(=O)[O-])cc5)c5ccc([nH]5)c(-c5ccc(S(=O)(=O)[O-])cc5)c5nc(c(-c6ccc(S(=O)(=O)[O-])cc6)c6ccc3[nH]6)C=C5)C=C4)cc1)[C@@H](C(F)(F)F)O2
REMARK SMILES IDX 15 1 14 2 13 3 12 4 10 5 11 6 9 8 1 9 2 10 3 11 7 12 4 13
REMARK SMILES IDX 6 14 5 15 8 16 85 17 80 18 81 19 82 20 83 21 84 22 16 23
REMARK SMILES IDX 17 24 18 25 19 27 20 28 21 29 79 30 22 31 78 32 23 33 24 34
REMARK SMILES IDX 25 35 72 36 26 37 77 38 71 39 73 40 27 41 76 42 70 43 69 44
REMARK SMILES IDX 28 46 58 47 39 48 57 49 40 50 43 51 56 52 74 53 41 54 42 55
REMARK SMILES IDX 55 57 75 58 44 59 29 60 30 61 38 62 31 63 37 64 32 65 33 66
REMARK SMILES IDX 34 67 35 68 36 69 59 70 60 71 68 72 61 73 67 74 62 75 63 76
REMARK SMILES IDX 64 77 65 78 66 79 45 80 46 81 54 82 47 83 53 84 48 85 49 86
REMARK SMILES IDX 50 87 51 88 52 89
REMARK H PARENT 12 7 17 26 73 45 43 56
REMARK Flexibility Score: inf
ROOT
ATOM      1  C   UNL     1       0.069   5.164   9.797  1.00  0.00     0.023 C 
ENDROOT
BRANCH   1   2
ATOM      2  C   UNL     1      -0.214   3.979   8.869  1.00  0.00     0.023 C 
BRANCH   2   3
ATOM      3  C   UNL     1      -1.274   4.248   7.805  1.00  0.00     0.116 C 
BRANCH   3   4
ATOM      4  N   UNL     1      -0.723   4.904   6.632  1.00  0.00    -0.352 N 
ATOM      5  C   UNL     1      -0.345   4.543   5.383  1.00  0.00     0.251 C 
ATOM      6  O   UNL     1       0.082   5.464   4.678  1.00  0.00    -0.270 OA
ATOM      7  H   UNL     1      -0.588   5.866   6.787  1.00  0.00     0.163 HD
BRANCH   5   8
ATOM      8  C   UNL     1      -0.409   3.160   4.822  1.00  0.00     0.067 C 
ATOM      9  C   UNL     1       0.977   0.042  -0.342  1.00  0.00     0.044 C 
ATOM     10  C   UNL     1       0.512   0.230   1.072  1.00  0.00    -0.050 A 
ATOM     11  C   UNL     1       0.117  -0.869   1.844  1.00  0.00     0.007 A 
ATOM     12  C   UNL     1       0.529   1.507   1.655  1.00  0.00     0.015 A 
ATOM     13  C   UNL     1      -0.280  -0.692   3.170  1.00  0.00     0.047 A 
ATOM     14  C   UNL     1       0.126   1.687   2.983  1.00  0.00     0.017 A 
ATOM     15  C   UNL     1      -0.285   0.584   3.728  1.00  0.00     0.128 A 
ATOM     16  C   UNL     1       0.168   2.998   3.617  1.00  0.00     0.025 C 
ATOM     17  O   UNL     1      -0.661   0.681   5.038  1.00  0.00    -0.475 OA
ATOM     18  C   UNL     1      -1.097   1.998   5.485  1.00  0.00     0.314 C 
BRANCH  18  19
ATOM     19  C   UNL     1      -2.631   2.081   5.381  1.00  0.00     0.429 C 
ATOM     20  F   UNL     1      -3.211   1.204   6.239  1.00  0.00    -0.167 F 
ATOM     21  F   UNL     1      -3.110   3.305   5.703  1.00  0.00    -0.167 F 
ATOM     22  F   UNL     1      -3.088   1.793   4.141  1.00  0.00    -0.167 F 
ENDBRANCH  18  19
ENDBRANCH   5   8
ENDBRANCH   3   4
ENDBRANCH   2   3
ENDBRANCH   1   2
BRANCH   1  23
ATOM     23  C   UNL     1      -1.143   5.737  10.529  1.00  0.00     0.116 C 
BRANCH  23  24
ATOM     24  N   UNL     1      -1.932   4.751  11.257  1.00  0.00    -0.352 N 
ATOM     25  C   UNL     1      -2.739   4.962  12.354  1.00  0.00     0.251 C 
ATOM     26  H   UNL     1      -1.882   3.825  10.926  1.00  0.00     0.163 HD
ATOM     27  O   UNL     1      -3.305   4.024  12.907  1.00  0.00    -0.269 OA
BRANCH  25  28
ATOM     28  C   UNL     1      -2.855   6.334  12.888  1.00  0.00     0.039 A 
ATOM     29  C   UNL     1      -3.202   7.386  12.039  1.00  0.00     0.014 A 
ATOM     30  C   UNL     1      -2.486   6.578  14.213  1.00  0.00     0.014 A 
ATOM     31  C   UNL     1      -2.995   8.694  12.460  1.00  0.00     0.010 A 
ATOM     32  C   UNL     1      -2.350   7.896  14.656  1.00  0.00     0.010 A 
ATOM     33  C   UNL     1      -2.534   8.961  13.761  1.00  0.00    -0.014 A 
BRANCH  33  34
ATOM     34  C   UNL     1      -2.190  10.357  14.134  1.00  0.00     0.031 A 
ATOM     35  C   UNL     1      -0.757  10.748  14.386  1.00  0.00     0.074 A 
ATOM     36  C   UNL     1      -3.157  11.295  14.147  1.00  0.00     0.049 A 
ATOM     37  N   UNL     1      -0.264  11.931  14.655  1.00  0.00    -0.248 NA
ATOM     38  C   UNL     1       0.257   9.681  14.328  1.00  0.00     0.031 C 
ATOM     39  C   UNL     1      -4.574  11.043  13.882  1.00  0.00     0.029 A 
ATOM     40  N   UNL     1      -3.089  12.651  14.344  1.00  0.00    -0.354 N 
ATOM     41  C   UNL     1       1.105  11.749  14.812  1.00  0.00     0.074 A 
ATOM     42  C   UNL     1       1.367  10.338  14.634  1.00  0.00     0.031 C 
ATOM     43  C   UNL     1      -5.229  12.213  13.861  1.00  0.00     0.029 A 
ATOM     44  C   UNL     1      -4.293  13.291  14.168  1.00  0.00     0.049 A 
ATOM     45  H   UNL     1      -2.259  13.120  14.589  1.00  0.00     0.167 HD
ATOM     46  C   UNL     1       2.058  12.675  15.070  1.00  0.00     0.031 A 
ATOM     47  C   UNL     1      -4.614  14.598  14.238  1.00  0.00     0.031 A 
ATOM     48  C   UNL     1       1.799  14.081  15.228  1.00  0.00     0.049 A 
ATOM     49  C   UNL     1      -3.545  15.602  14.553  1.00  0.00     0.074 A 
ATOM     50  C   UNL     1       2.703  15.093  15.501  1.00  0.00     0.029 A 
ATOM     51  N   UNL     1       0.552  14.676  15.114  1.00  0.00    -0.354 N 
ATOM     52  N   UNL     1      -2.261  15.403  14.731  1.00  0.00    -0.248 NA
ATOM     53  C   UNL     1      -3.964  17.004  14.684  1.00  0.00     0.031 C 
ATOM     54  C   UNL     1       1.997  16.295  15.591  1.00  0.00     0.029 A 
ATOM     55  C   UNL     1       0.661  16.039  15.324  1.00  0.00     0.049 A 
ATOM     56  H   UNL     1      -0.286  14.200  14.914  1.00  0.00     0.167 HD
ATOM     57  C   UNL     1      -1.718  16.654  14.995  1.00  0.00     0.074 A 
ATOM     58  C   UNL     1      -2.807  17.607  14.934  1.00  0.00     0.031 C 
ATOM     59  C   UNL     1      -0.431  16.977  15.268  1.00  0.00     0.031 A 
BRANCH  46  60
ATOM     60  C   UNL     1       3.482  12.208  15.209  1.00  0.00    -0.014 A 
ATOM     61  C   UNL     1       4.097  12.209  16.474  1.00  0.00     0.010 A 
ATOM     62  C   UNL     1       4.243  11.864  14.077  1.00  0.00     0.010 A 
ATOM     63  C   UNL     1       5.451  11.891  16.606  1.00  0.00     0.020 A 
ATOM     64  C   UNL     1       5.593  11.525  14.208  1.00  0.00     0.020 A 
ATOM     65  C   UNL     1       6.193  11.559  15.470  1.00  0.00     0.054 A 
BRANCH  65  66
ATOM     66  S   UNL     1       7.951  11.145  15.654  1.00  0.00     0.124 S 
ATOM     67  O   UNL     1       8.572  12.463  15.729  1.00  0.00    -0.237 OA
ATOM     68  O   UNL     1       7.972  10.365  16.889  1.00  0.00    -0.237 OA
ATOM     69  O   UNL     1       8.245  10.380  14.443  1.00  0.00    -0.744 OA
ENDBRANCH  65  66
ENDBRANCH  46  60
BRANCH  47  70
ATOM     70  C   UNL     1      -6.018  15.007  13.974  1.00  0.00    -0.014 A 
ATOM     71  C   UNL     1      -7.035  14.681  14.891  1.00  0.00     0.010 A 
ATOM     72  C   UNL     1      -6.360  15.627  12.760  1.00  0.00     0.010 A 
ATOM     73  C   UNL     1      -8.375  14.914  14.573  1.00  0.00     0.020 A 
ATOM     74  C   UNL     1      -7.699  15.884  12.450  1.00  0.00     0.020 A 
ATOM     75  C   UNL     1      -8.699  15.496  13.345  1.00  0.00     0.054 A 
BRANCH  75  76
ATOM     76  S   UNL     1     -10.447  15.735  12.921  1.00  0.00     0.124 S 
ATOM     77  O   UNL     1     -10.819  14.408  12.438  1.00  0.00    -0.237 OA
ATOM     78  O   UNL     1     -11.039  16.129  14.197  1.00  0.00    -0.237 OA
ATOM     79  O   UNL     1     -10.408  16.785  11.906  1.00  0.00    -0.744 OA
ENDBRANCH  75  76
ENDBRANCH  47  70
BRANCH  59  80
ATOM     80  C   UNL     1      -0.106  18.421  15.535  1.00  0.00    -0.014 A 
ATOM     81  C   UNL     1       0.623  19.159  14.585  1.00  0.00     0.010 A 
ATOM     82  C   UNL     1      -0.404  19.002  16.780  1.00  0.00     0.010 A 
ATOM     83  C   UNL     1       1.076  20.445  14.886  1.00  0.00     0.020 A 
ATOM     84  C   UNL     1       0.031  20.296  17.076  1.00  0.00     0.020 A 
ATOM     85  C   UNL     1       0.789  21.000  16.136  1.00  0.00     0.054 A 
BRANCH  85  86
ATOM     86  S   UNL     1       1.412  22.658  16.527  1.00  0.00     0.124 S 
ATOM     87  O   UNL     1       2.795  22.385  16.904  1.00  0.00    -0.237 OA
ATOM     88  O   UNL     1       1.234  23.378  15.267  1.00  0.00    -0.237 OA
ATOM     89  O   UNL     1       0.542  23.101  17.614  1.00  0.00    -0.744 OA
ENDBRANCH  85  86
ENDBRANCH  59  80
ENDBRANCH  33  34
ENDBRANCH  25  28
ENDBRANCH  23  24
ENDBRANCH   1  23
TORSDOF 15
