REMARK SMILES C[C@@H](C(=O)NCCCCNC(=O)c1ccc(-c2c3nc(c(-c4ccc(S(=O)(=O)[O-])cc4)c4ccc([nH]4)c(-c4ccc(S(=O)(=O)[O-])cc4)c4nc(c(-c5ccc(S(=O)(=O)[O-])cc5)c5ccc2[nH]5)C=C4)C=C3)cc1)c1ccc2c3cc(Cl)ccc3n(C(=O)c3ccc(Cl)cc3)c2c1
REMARK SMILES IDX 7 1 6 2 5 3 3 4 4 5 2 7 1 8 73 9 74 10 95 11 75 12 94 13
REMARK SMILES IDX 76 14 84 15 77 16 83 17 78 18 82 19 79 20 81 21 80 22 85 23
REMARK SMILES IDX 86 24 87 25 88 26 93 27 89 28 92 29 90 30 91 31 8 32 9 33
REMARK SMILES IDX 10 34 11 35 12 37 13 38 14 39 72 40 15 41 71 42 16 43 17 44
REMARK SMILES IDX 18 45 65 46 19 47 70 48 64 49 66 50 20 51 69 52 63 53 62 54
REMARK SMILES IDX 21 56 51 57 32 58 50 59 33 60 36 61 49 62 67 63 34 64 35 65
REMARK SMILES IDX 48 67 68 68 37 69 22 70 23 71 31 72 24 73 30 74 25 75 26 76
REMARK SMILES IDX 27 77 28 78 29 79 52 80 53 81 61 82 54 83 60 84 55 85 56 86
REMARK SMILES IDX 57 87 58 88 59 89 38 90 39 91 47 92 40 93 46 94 41 95 42 96
REMARK SMILES IDX 43 97 44 98 45 99
REMARK H PARENT 5 6 10 36 66 55 36 66
REMARK Flexibility Score: inf
ROOT
ATOM      1  C   UNL     1       4.316   1.087  -0.109  1.00  0.00     0.023 C 
ENDROOT
BRANCH   1   2
ATOM      2  C   UNL     1       3.545   1.170   1.213  1.00  0.00     0.116 C 
BRANCH   2   3
ATOM      3  N   UNL     1       2.606   2.269   1.183  1.00  0.00    -0.356 N 
ATOM      4  C   UNL     1       1.287   2.274   0.832  1.00  0.00     0.227 C 
ATOM      5  O   UNL     1       0.836   3.368   0.495  1.00  0.00    -0.274 OA
ATOM      6  H   UNL     1       2.971   3.142   1.455  1.00  0.00     0.163 HD
BRANCH   4   7
ATOM      7  C   UNL     1       0.486   0.963   0.877  1.00  0.00     0.105 C 
ATOM      8  C   UNL     1       0.753   0.125  -0.381  1.00  0.00     0.023 C 
BRANCH   7   9
ATOM      9  C   UNL     1      -1.034   1.062   1.056  1.00  0.00    -0.034 A 
ATOM     10  C   UNL     1      -1.779   2.215   0.822  1.00  0.00     0.005 A 
ATOM     11  C   UNL     1      -1.724  -0.125   1.383  1.00  0.00     0.032 A 
ATOM     12  C   UNL     1      -3.175   2.185   0.800  1.00  0.00     0.011 A 
ATOM     13  C   UNL     1      -3.135  -0.154   1.386  1.00  0.00     0.057 A 
ATOM     14  C   UNL     1      -3.857   0.979   1.039  1.00  0.00     0.008 A 
ATOM     15  N   UNL     1      -4.040  -1.199   1.642  1.00  0.00    -0.276 N 
ATOM     16  C   UNL     1      -5.226   0.623   1.011  1.00  0.00     0.009 A 
ATOM     17  C   UNL     1      -5.341  -0.691   1.484  1.00  0.00     0.057 A 
ATOM     18  C   UNL     1      -6.377   1.360   0.661  1.00  0.00     0.031 A 
ATOM     19  C   UNL     1      -6.616  -1.218   1.768  1.00  0.00     0.029 A 
ATOM     20  C   UNL     1      -7.631   0.802   0.871  1.00  0.00     0.041 A 
ATOM     21  C   UNL     1      -7.751  -0.456   1.446  1.00  0.00     0.023 A 
ATOM     22  Cl  UNL     1      -9.037   1.702   0.454  1.00  0.00    -0.084 Cl
BRANCH  15  23
ATOM     23  C   UNL     1      -3.622  -2.502   2.033  1.00  0.00     0.262 C 
ATOM     24  O   UNL     1      -2.523  -2.568   2.591  1.00  0.00    -0.268 OA
BRANCH  23  25
ATOM     25  C   UNL     1      -4.290  -3.823   1.832  1.00  0.00     0.040 A 
ATOM     26  C   UNL     1      -3.752  -4.918   2.542  1.00  0.00     0.015 A 
ATOM     27  C   UNL     1      -5.295  -4.073   0.894  1.00  0.00     0.015 A 
ATOM     28  C   UNL     1      -4.214  -6.220   2.340  1.00  0.00     0.021 A 
ATOM     29  C   UNL     1      -5.785  -5.378   0.715  1.00  0.00     0.021 A 
ATOM     30  C   UNL     1      -5.239  -6.444   1.431  1.00  0.00     0.041 A 
ATOM     31  Cl  UNL     1      -5.809  -8.045   1.170  1.00  0.00    -0.084 Cl
ENDBRANCH  23  25
ENDBRANCH  15  23
ENDBRANCH   7   9
ENDBRANCH   4   7
ENDBRANCH   2   3
ENDBRANCH   1   2
BRANCH   1  32
ATOM     32  C   UNL     1       5.084   2.358  -0.483  1.00  0.00     0.023 C 
BRANCH  32  33
ATOM     33  C   UNL     1       6.034   2.867   0.590  1.00  0.00     0.116 C 
BRANCH  33  34
ATOM     34  N   UNL     1       7.026   1.873   0.964  1.00  0.00    -0.352 N 
ATOM     35  C   UNL     1       8.383   2.029   1.123  1.00  0.00     0.251 C 
ATOM     36  H   UNL     1       6.679   0.966   1.124  1.00  0.00     0.163 HD
ATOM     37  O   UNL     1       9.098   1.052   1.282  1.00  0.00    -0.269 OA
BRANCH  35  38
ATOM     38  C   UNL     1       8.961   3.388   1.069  1.00  0.00     0.039 A 
ATOM     39  C   UNL     1      10.091   3.607   0.280  1.00  0.00     0.014 A 
ATOM     40  C   UNL     1       8.374   4.443   1.774  1.00  0.00     0.014 A 
ATOM     41  C   UNL     1      10.599   4.901   0.152  1.00  0.00     0.010 A 
ATOM     42  C   UNL     1       8.835   5.741   1.584  1.00  0.00     0.010 A 
ATOM     43  C   UNL     1       9.956   5.982   0.776  1.00  0.00    -0.014 A 
BRANCH  43  44
ATOM     44  C   UNL     1      10.445   7.373   0.601  1.00  0.00     0.031 A 
ATOM     45  C   UNL     1      10.954   8.148   1.787  1.00  0.00     0.074 A 
ATOM     46  C   UNL     1      10.375   7.958  -0.611  1.00  0.00     0.049 A 
ATOM     47  N   UNL     1      11.371   9.386   1.844  1.00  0.00    -0.248 NA
ATOM     48  C   UNL     1      10.973   7.447   3.082  1.00  0.00     0.031 C 
ATOM     49  C   UNL     1       9.864   7.325  -1.830  1.00  0.00     0.029 A 
ATOM     50  N   UNL     1      10.730   9.220  -1.018  1.00  0.00    -0.354 N 
ATOM     51  C   UNL     1      11.686   9.617   3.178  1.00  0.00     0.074 A 
ATOM     52  C   UNL     1      11.362   8.409   3.905  1.00  0.00     0.031 C 
ATOM     53  C   UNL     1       9.965   8.191  -2.851  1.00  0.00     0.029 A 
ATOM     54  C   UNL     1      10.505   9.453  -2.355  1.00  0.00     0.049 A 
ATOM     55  H   UNL     1      11.110   9.894  -0.410  1.00  0.00     0.167 HD
ATOM     56  C   UNL     1      12.216  10.727   3.745  1.00  0.00     0.031 A 
ATOM     57  C   UNL     1      10.704  10.560  -3.096  1.00  0.00     0.031 A 
ATOM     58  C   UNL     1      12.544  11.924   3.016  1.00  0.00     0.049 A 
ATOM     59  C   UNL     1      11.278  11.787  -2.441  1.00  0.00     0.074 A 
ATOM     60  C   UNL     1      13.135  13.082   3.488  1.00  0.00     0.029 A 
ATOM     61  N   UNL     1      12.306  12.118   1.664  1.00  0.00    -0.354 N 
ATOM     62  N   UNL     1      11.634  11.963  -1.191  1.00  0.00    -0.248 NA
ATOM     63  C   UNL     1      11.490  12.960  -3.300  1.00  0.00     0.031 C 
ATOM     64  C   UNL     1      13.203  13.998   2.433  1.00  0.00     0.029 A 
ATOM     65  C   UNL     1      12.714  13.387   1.290  1.00  0.00     0.049 A 
ATOM     66  H   UNL     1      11.906  11.452   1.059  1.00  0.00     0.167 HD
ATOM     67  C   UNL     1      12.136  13.257  -1.119  1.00  0.00     0.074 A 
ATOM     68  C   UNL     1      12.054  13.812  -2.455  1.00  0.00     0.031 C 
ATOM     69  C   UNL     1      12.624  13.926  -0.045  1.00  0.00     0.031 A 
BRANCH  56  70
ATOM     70  C   UNL     1      12.467  10.699   5.230  1.00  0.00    -0.014 A 
ATOM     71  C   UNL     1      13.471   9.883   5.784  1.00  0.00     0.010 A 
ATOM     72  C   UNL     1      11.714  11.528   6.082  1.00  0.00     0.010 A 
ATOM     73  C   UNL     1      13.687   9.862   7.164  1.00  0.00     0.020 A 
ATOM     74  C   UNL     1      11.948  11.533   7.461  1.00  0.00     0.020 A 
ATOM     75  C   UNL     1      12.922  10.687   7.994  1.00  0.00     0.054 A 
BRANCH  75  76
ATOM     76  S   UNL     1      13.239  10.655   9.780  1.00  0.00     0.124 S 
ATOM     77  O   UNL     1      12.690   9.355  10.159  1.00  0.00    -0.237 OA
ATOM     78  O   UNL     1      14.694  10.765   9.848  1.00  0.00    -0.237 OA
ATOM     79  O   UNL     1      12.505  11.812  10.284  1.00  0.00    -0.744 OA
ENDBRANCH  75  76
ENDBRANCH  56  70
BRANCH  57  80
ATOM     80  C   UNL     1      10.367  10.554  -4.547  1.00  0.00    -0.014 A 
ATOM     81  C   UNL     1      11.384  10.596  -5.517  1.00  0.00     0.010 A 
ATOM     82  C   UNL     1       9.026  10.494  -4.967  1.00  0.00     0.010 A 
ATOM     83  C   UNL     1      11.067  10.597  -6.878  1.00  0.00     0.020 A 
ATOM     84  C   UNL     1       8.705  10.465  -6.327  1.00  0.00     0.020 A 
ATOM     85  C   UNL     1       9.728  10.529  -7.275  1.00  0.00     0.054 A 
BRANCH  85  86
ATOM     86  S   UNL     1       9.343  10.482  -9.047  1.00  0.00     0.124 S 
ATOM     87  O   UNL     1       9.626  11.854  -9.456  1.00  0.00    -0.237 OA
ATOM     88  O   UNL     1      10.271   9.469  -9.544  1.00  0.00    -0.237 OA
ATOM     89  O   UNL     1       7.934  10.095  -9.081  1.00  0.00    -0.744 OA
ENDBRANCH  85  86
ENDBRANCH  57  80
BRANCH  69  90
ATOM     90  C   UNL     1      13.141  15.322  -0.272  1.00  0.00    -0.014 A 
ATOM     91  C   UNL     1      12.267  16.392  -0.536  1.00  0.00     0.010 A 
ATOM     92  C   UNL     1      14.521  15.576  -0.163  1.00  0.00     0.010 A 
ATOM     93  C   UNL     1      12.767  17.684  -0.718  1.00  0.00     0.020 A 
ATOM     94  C   UNL     1      15.022  16.871  -0.314  1.00  0.00     0.020 A 
ATOM     95  C   UNL     1      14.142  17.915  -0.605  1.00  0.00     0.054 A 
BRANCH  95  96
ATOM     96  S   UNL     1      14.761  19.608  -0.802  1.00  0.00     0.124 S 
ATOM     97  O   UNL     1      14.623  19.818  -2.240  1.00  0.00    -0.237 OA
ATOM     98  O   UNL     1      13.848  20.382   0.037  1.00  0.00    -0.237 OA
ATOM     99  O   UNL     1      16.136  19.535  -0.312  1.00  0.00    -0.744 OA
ENDBRANCH  95  96
ENDBRANCH  69  90
ENDBRANCH  43  44
ENDBRANCH  35  38
ENDBRANCH  33  34
ENDBRANCH  32  33
ENDBRANCH   1  32
TORSDOF 17
