REMARK SMILES CC(C)[C@@H]1C(=O)Nc2ccccc2N1C(=O)N[C@H](Cc1ccccc1)C(=O)NCCCCNC(=O)c1ccc(-c2c3nc(c(-c4ccc(S(=O)(=O)[O-])cc4)c4ccc([nH]4)c(-c4ccc(S(=O)(=O)[O-])cc4)c4nc(c(-c5ccc(S(=O)(=O)[O-])cc5)c5ccc2[nH]5)C=C4)C=C3)cc1
REMARK SMILES IDX 30 1 29 2 28 3 26 4 27 5 18 7 17 8 15 9 16 10 14 12 4 13
REMARK SMILES IDX 5 14 6 15 7 16 13 17 8 18 12 20 9 21 11 22 10 23 2 24 1 25
REMARK SMILES IDX 3 26 19 27 20 28 21 29 25 30 22 31 24 32 23 33 31 34 32 35
REMARK SMILES IDX 33 36 34 37 35 39 36 40 37 41 95 42 38 43 94 44 39 45 40 46
REMARK SMILES IDX 41 47 88 48 42 49 93 50 87 51 89 52 43 53 92 54 86 55 85 56
REMARK SMILES IDX 44 58 74 59 55 60 73 61 56 62 59 63 72 64 90 65 57 66 58 67
REMARK SMILES IDX 71 69 91 70 60 71 45 72 46 73 54 74 47 75 53 76 48 77 49 78
REMARK SMILES IDX 50 79 51 80 52 81 75 82 76 83 84 84 77 85 83 86 78 87 79 88
REMARK SMILES IDX 80 89 81 90 82 91 61 92 62 93 70 94 63 95 69 96 64 97 65 98
REMARK SMILES IDX 66 99 67 100 68 101
REMARK H PARENT 28 6 17 11 7 19 33 38 89 57 59 68
REMARK Flexibility Score: inf
ROOT
ATOM      1  C   UNL     1       5.285   4.115  -0.112  1.00  0.00     0.023 C 
ENDROOT
BRANCH   1   2
ATOM      2  C   UNL     1       4.407   2.839   0.101  1.00  0.00     0.116 C 
BRANCH   2   3
ATOM      3  N   UNL     1       2.970   3.030   0.287  1.00  0.00    -0.354 N 
ATOM      4  C   UNL     1       1.907   2.189   0.089  1.00  0.00     0.242 C 
ATOM      5  O   UNL     1       1.071   2.201   1.007  1.00  0.00    -0.273 OA
ATOM      6  H   UNL     1       2.722   3.924   0.615  1.00  0.00     0.163 HD
BRANCH   4   7
ATOM      7  C   UNL     1       1.558   1.366  -1.209  1.00  0.00     0.177 C 
BRANCH   7   8
ATOM      8  N   UNL     1       2.551   1.208  -2.280  1.00  0.00    -0.326 N 
ATOM      9  C   UNL     1       3.132   1.911  -3.267  1.00  0.00     0.323 C 
ATOM     10  O   UNL     1       3.449   1.180  -4.220  1.00  0.00    -0.248 OA
ATOM     11  H   UNL     1       2.905   0.290  -2.272  1.00  0.00     0.166 HD
BRANCH   9  12
ATOM     12  N   UNL     1       3.594   3.197  -3.193  1.00  0.00    -0.280 N 
ATOM     13  C   UNL     1       2.985   4.509  -2.721  1.00  0.00     0.184 C 
ATOM     14  C   UNL     1       3.478   5.759  -3.474  1.00  0.00     0.247 C 
ATOM     15  O   UNL     1       2.925   6.857  -3.387  1.00  0.00    -0.272 OA
ATOM     16  N   UNL     1       4.715   5.698  -4.034  1.00  0.00    -0.322 N 
ATOM     17  C   UNL     1       5.013   3.343  -3.523  1.00  0.00     0.070 A 
ATOM     18  C   UNL     1       5.528   4.573  -3.944  1.00  0.00     0.065 A 
ATOM     19  H   UNL     1       5.050   6.483  -4.525  1.00  0.00     0.170 HD
ATOM     20  C   UNL     1       5.934   2.299  -3.297  1.00  0.00     0.028 A 
ATOM     21  C   UNL     1       6.894   4.741  -4.196  1.00  0.00     0.028 A 
ATOM     22  C   UNL     1       7.311   2.498  -3.449  1.00  0.00     0.002 A 
ATOM     23  C   UNL     1       7.790   3.717  -3.909  1.00  0.00     0.002 A 
BRANCH  13  24
ATOM     24  C   UNL     1       1.474   4.627  -2.513  1.00  0.00     0.015 C 
ATOM     25  C   UNL     1       1.031   5.442  -1.289  1.00  0.00     0.010 C 
ATOM     26  C   UNL     1       0.646   4.988  -3.740  1.00  0.00     0.010 C 
ENDBRANCH  13  24
ENDBRANCH   9  12
ENDBRANCH   7   8
BRANCH   7  27
ATOM     27  C   UNL     1       0.177   1.828  -1.796  1.00  0.00     0.070 C 
BRANCH  27  28
ATOM     28  C   UNL     1      -1.107   1.205  -2.291  1.00  0.00    -0.045 A 
ATOM     29  C   UNL     1      -2.096   2.169  -2.634  1.00  0.00     0.004 A 
ATOM     30  C   UNL     1      -1.318  -0.111  -2.678  1.00  0.00     0.004 A 
ATOM     31  C   UNL     1      -3.229   1.851  -3.371  1.00  0.00     0.000 A 
ATOM     32  C   UNL     1      -2.481  -0.439  -3.404  1.00  0.00     0.000 A 
ATOM     33  C   UNL     1      -3.420   0.537  -3.763  1.00  0.00     0.000 A 
ENDBRANCH  27  28
ENDBRANCH   7  27
ENDBRANCH   4   7
ENDBRANCH   2   3
ENDBRANCH   1   2
BRANCH   1  34
ATOM     34  C   UNL     1       4.773   5.494   0.352  1.00  0.00     0.023 C 
BRANCH  34  35
ATOM     35  C   UNL     1       5.719   6.666  -0.003  1.00  0.00     0.116 C 
BRANCH  35  36
ATOM     36  N   UNL     1       5.876   6.918  -1.440  1.00  0.00    -0.352 N 
ATOM     37  C   UNL     1       6.921   7.478  -2.155  1.00  0.00     0.251 C 
ATOM     38  H   UNL     1       5.108   6.642  -1.990  1.00  0.00     0.163 HD
ATOM     39  O   UNL     1       6.751   7.826  -3.325  1.00  0.00    -0.269 OA
BRANCH  37  40
ATOM     40  C   UNL     1       8.218   7.729  -1.498  1.00  0.00     0.039 A 
ATOM     41  C   UNL     1       8.829   8.978  -1.643  1.00  0.00     0.014 A 
ATOM     42  C   UNL     1       8.744   6.788  -0.620  1.00  0.00     0.014 A 
ATOM     43  C   UNL     1       9.827   9.355  -0.743  1.00  0.00     0.010 A 
ATOM     44  C   UNL     1       9.629   7.212   0.360  1.00  0.00     0.010 A 
ATOM     45  C   UNL     1      10.139   8.518   0.342  1.00  0.00    -0.014 A 
BRANCH  45  46
ATOM     46  C   UNL     1      10.889   9.038   1.516  1.00  0.00     0.031 A 
ATOM     47  C   UNL     1      12.151   8.367   1.981  1.00  0.00     0.074 A 
ATOM     48  C   UNL     1      10.363  10.063   2.222  1.00  0.00     0.049 A 
ATOM     49  N   UNL     1      12.927   8.683   2.985  1.00  0.00    -0.248 NA
ATOM     50  C   UNL     1      12.577   7.159   1.254  1.00  0.00     0.031 C 
ATOM     51  C   UNL     1       9.081  10.723   1.937  1.00  0.00     0.029 A 
ATOM     52  N   UNL     1      10.834  10.741   3.319  1.00  0.00    -0.354 N 
ATOM     53  C   UNL     1      13.920   7.712   3.015  1.00  0.00     0.074 A 
ATOM     54  C   UNL     1      13.605   6.752   1.982  1.00  0.00     0.031 C 
ATOM     55  C   UNL     1       8.907  11.747   2.787  1.00  0.00     0.029 A 
ATOM     56  C   UNL     1      10.037  11.797   3.705  1.00  0.00     0.049 A 
ATOM     57  H   UNL     1      11.665  10.496   3.787  1.00  0.00     0.167 HD
ATOM     58  C   UNL     1      15.017   7.645   3.805  1.00  0.00     0.031 A 
ATOM     59  C   UNL     1      10.207  12.716   4.675  1.00  0.00     0.031 A 
ATOM     60  C   UNL     1      15.326   8.616   4.820  1.00  0.00     0.049 A 
ATOM     61  C   UNL     1      11.459  12.653   5.506  1.00  0.00     0.074 A 
ATOM     62  C   UNL     1      16.438   8.683   5.640  1.00  0.00     0.029 A 
ATOM     63  N   UNL     1      14.518   9.694   5.149  1.00  0.00    -0.354 N 
ATOM     64  N   UNL     1      12.437  11.780   5.453  1.00  0.00    -0.248 NA
ATOM     65  C   UNL     1      11.643  13.708   6.510  1.00  0.00     0.031 C 
ATOM     66  C   UNL     1      16.281   9.780   6.494  1.00  0.00     0.029 A 
ATOM     67  C   UNL     1      15.099  10.428   6.167  1.00  0.00     0.049 A 
ATOM     68  H   UNL     1      13.657   9.906   4.720  1.00  0.00     0.167 HD
ATOM     69  C   UNL     1      13.369  12.198   6.396  1.00  0.00     0.074 A 
ATOM     70  C   UNL     1      12.843  13.412   6.990  1.00  0.00     0.031 C 
ATOM     71  C   UNL     1      14.553  11.633   6.739  1.00  0.00     0.031 A 
BRANCH  58  72
ATOM     72  C   UNL     1      15.960   6.491   3.582  1.00  0.00    -0.014 A 
ATOM     73  C   UNL     1      16.708   6.389   2.393  1.00  0.00     0.010 A 
ATOM     74  C   UNL     1      16.110   5.500   4.569  1.00  0.00     0.010 A 
ATOM     75  C   UNL     1      17.542   5.291   2.171  1.00  0.00     0.020 A 
ATOM     76  C   UNL     1      16.969   4.415   4.363  1.00  0.00     0.020 A 
ATOM     77  C   UNL     1      17.663   4.307   3.156  1.00  0.00     0.054 A 
BRANCH  77  78
ATOM     78  S   UNL     1      18.757   2.895   2.842  1.00  0.00     0.124 S 
ATOM     79  O   UNL     1      17.989   2.134   1.859  1.00  0.00    -0.237 OA
ATOM     80  O   UNL     1      19.967   3.535   2.333  1.00  0.00    -0.237 OA
ATOM     81  O   UNL     1      18.892   2.263   4.151  1.00  0.00    -0.744 OA
ENDBRANCH  77  78
ENDBRANCH  58  72
BRANCH  59  82
ATOM     82  C   UNL     1       9.203  13.802   4.870  1.00  0.00    -0.014 A 
ATOM     83  C   UNL     1       9.514  15.132   4.532  1.00  0.00     0.010 A 
ATOM     84  C   UNL     1       7.924  13.514   5.380  1.00  0.00     0.010 A 
ATOM     85  C   UNL     1       8.578  16.154   4.723  1.00  0.00     0.020 A 
ATOM     86  C   UNL     1       6.974  14.528   5.545  1.00  0.00     0.020 A 
ATOM     87  C   UNL     1       7.313  15.845   5.228  1.00  0.00     0.054 A 
BRANCH  87  88
ATOM     88  S   UNL     1       6.098  17.180   5.426  1.00  0.00     0.124 S 
ATOM     89  O   UNL     1       6.619  17.895   6.587  1.00  0.00    -0.237 OA
ATOM     90  O   UNL     1       6.195  17.887   4.152  1.00  0.00    -0.237 OA
ATOM     91  O   UNL     1       4.840  16.469   5.641  1.00  0.00    -0.744 OA
ENDBRANCH  87  88
ENDBRANCH  59  82
BRANCH  71  92
ATOM     92  C   UNL     1      15.376  12.344   7.778  1.00  0.00    -0.014 A 
ATOM     93  C   UNL     1      14.992  12.357   9.130  1.00  0.00     0.010 A 
ATOM     94  C   UNL     1      16.576  12.969   7.395  1.00  0.00     0.010 A 
ATOM     95  C   UNL     1      15.777  13.018  10.077  1.00  0.00     0.020 A 
ATOM     96  C   UNL     1      17.379  13.604   8.344  1.00  0.00     0.020 A 
ATOM     97  C   UNL     1      16.965  13.640   9.677  1.00  0.00     0.054 A 
BRANCH  97  98
ATOM     98  S   UNL     1      17.984  14.463  10.930  1.00  0.00     0.124 S 
ATOM     99  O   UNL     1      17.220  15.681  11.188  1.00  0.00    -0.237 OA
ATOM    100  O   UNL     1      18.003  13.490  12.019  1.00  0.00    -0.237 OA
ATOM    101  O   UNL     1      19.266  14.662  10.257  1.00  0.00    -0.744 OA
ENDBRANCH  97  98
ENDBRANCH  71  92
ENDBRANCH  45  46
ENDBRANCH  37  40
ENDBRANCH  35  36
ENDBRANCH  34  35
ENDBRANCH   1  34
TORSDOF 19
