REMARK SMILES O=C(NCCCCNC(=O)[C@@H]1CC=CC[C@H]1C(=O)N1CC[NH+](Cc2ccc3c(c2)OCO3)CC1)c1ccc(-c2c3nc(c(-c4ccc(S(=O)(=O)[O-])cc4)c4ccc([nH]4)c(-c4ccc(S(=O)(=O)[O-])cc4)c4nc(c(-c5ccc(S(=O)(=O)[O-])cc5)c5ccc2[nH]5)C=C4)C=C3)cc1
REMARK SMILES IDX 5 1 4 2 3 3 1 4 2 5 35 7 36 8 94 9 37 10 93 11 38 12 39 13
REMARK SMILES IDX 40 14 87 15 41 16 92 17 86 18 88 19 42 20 91 21 85 22 84 23
REMARK SMILES IDX 43 25 73 26 54 27 72 28 55 29 58 30 71 31 89 32 56 33 57 34
REMARK SMILES IDX 70 36 90 37 59 38 44 39 45 40 53 41 46 42 52 43 47 44 48 45
REMARK SMILES IDX 49 46 50 47 51 48 74 49 75 50 83 51 76 52 82 53 77 54 78 55
REMARK SMILES IDX 79 56 80 57 81 58 60 59 61 60 69 61 62 62 68 63 63 64 64 65
REMARK SMILES IDX 65 66 66 67 67 68 6 69 7 70 8 71 9 72 10 74 11 75 12 76
REMARK SMILES IDX 16 77 13 78 15 79 14 80 17 81 18 82 19 83 20 84 34 85 21 86
REMARK SMILES IDX 33 87 22 88 23 90 24 91 25 92 29 93 26 94 28 95 27 96 30 97
REMARK SMILES IDX 32 98 31 99
REMARK H PARENT 3 6 88 24 58 35 8 73 22 89
REMARK Flexibility Score: inf
ROOT
ATOM      1  C   UNL     1       8.599  -7.756   2.940  1.00  0.00     0.023 C 
ENDROOT
BRANCH   1   2
ATOM      2  C   UNL     1       7.882  -7.613   1.601  1.00  0.00     0.116 C 
BRANCH   2   3
ATOM      3  N   UNL     1       8.744  -7.088   0.554  1.00  0.00    -0.352 N 
ATOM      4  O   UNL     1      10.062  -7.124  -1.269  1.00  0.00    -0.269 OA
ATOM      5  C   UNL     1       9.203  -7.688  -0.593  1.00  0.00     0.251 C 
ATOM      6  H   UNL     1       9.045  -6.160   0.689  1.00  0.00     0.163 HD
BRANCH   5   7
ATOM      7  C   UNL     1       8.694  -9.016  -1.004  1.00  0.00     0.039 A 
ATOM      8  C   UNL     1       7.325  -9.297  -0.991  1.00  0.00     0.014 A 
ATOM      9  C   UNL     1       9.601  -9.987  -1.437  1.00  0.00     0.014 A 
ATOM     10  C   UNL     1       6.875 -10.585  -1.278  1.00  0.00     0.010 A 
ATOM     11  C   UNL     1       9.141 -11.256  -1.798  1.00  0.00     0.010 A 
ATOM     12  C   UNL     1       7.777 -11.576  -1.694  1.00  0.00    -0.014 A 
BRANCH  12  13
ATOM     13  C   UNL     1       7.288 -12.927  -2.073  1.00  0.00     0.031 A 
ATOM     14  C   UNL     1       7.707 -14.147  -1.299  1.00  0.00     0.074 A 
ATOM     15  C   UNL     1       6.489 -13.057  -3.150  1.00  0.00     0.049 A 
ATOM     16  N   UNL     1       7.439 -15.406  -1.537  1.00  0.00    -0.248 NA
ATOM     17  C   UNL     1       8.543 -13.924  -0.110  1.00  0.00     0.031 C 
ATOM     18  C   UNL     1       6.016 -11.951  -3.985  1.00  0.00     0.029 A 
ATOM     19  N   UNL     1       5.948 -14.174  -3.738  1.00  0.00    -0.354 N 
ATOM     20  C   UNL     1       8.095 -16.129  -0.546  1.00  0.00     0.074 A 
ATOM     21  C   UNL     1       8.791 -15.166   0.281  1.00  0.00     0.031 C 
ATOM     22  C   UNL     1       5.253 -12.443  -4.973  1.00  0.00     0.029 A 
ATOM     23  C   UNL     1       5.237 -13.899  -4.881  1.00  0.00     0.049 A 
ATOM     24  H   UNL     1       6.059 -15.082  -3.375  1.00  0.00     0.167 HD
ATOM     25  C   UNL     1       8.116 -17.470  -0.348  1.00  0.00     0.031 A 
ATOM     26  C   UNL     1       4.670 -14.720  -5.786  1.00  0.00     0.031 A 
ATOM     27  C   UNL     1       7.435 -18.420  -1.190  1.00  0.00     0.049 A 
ATOM     28  C   UNL     1       4.741 -16.204  -5.577  1.00  0.00     0.074 A 
ATOM     29  C   UNL     1       7.362 -19.795  -1.050  1.00  0.00     0.029 A 
ATOM     30  N   UNL     1       6.727 -18.098  -2.340  1.00  0.00    -0.354 N 
ATOM     31  N   UNL     1       5.323 -16.868  -4.606  1.00  0.00    -0.248 NA
ATOM     32  C   UNL     1       4.077 -17.052  -6.576  1.00  0.00     0.031 C 
ATOM     33  C   UNL     1       6.670 -20.310  -2.151  1.00  0.00     0.029 A 
ATOM     34  C   UNL     1       6.244 -19.251  -2.937  1.00  0.00     0.049 A 
ATOM     35  H   UNL     1       6.588 -17.185  -2.680  1.00  0.00     0.167 HD
ATOM     36  C   UNL     1       5.074 -18.211  -4.863  1.00  0.00     0.074 A 
ATOM     37  C   UNL     1       4.286 -18.265  -6.078  1.00  0.00     0.031 C 
ATOM     38  C   UNL     1       5.459 -19.296  -4.148  1.00  0.00     0.031 A 
BRANCH  25  39
ATOM     39  C   UNL     1       8.951 -17.991   0.795  1.00  0.00    -0.014 A 
ATOM     40  C   UNL     1       8.602 -17.745   2.136  1.00  0.00     0.010 A 
ATOM     41  C   UNL     1      10.107 -18.747   0.521  1.00  0.00     0.010 A 
ATOM     42  C   UNL     1       9.429 -18.183   3.175  1.00  0.00     0.020 A 
ATOM     43  C   UNL     1      10.918 -19.216   1.558  1.00  0.00     0.020 A 
ATOM     44  C   UNL     1      10.589 -18.905   2.878  1.00  0.00     0.054 A 
BRANCH  44  45
ATOM     45  S   UNL     1      11.664 -19.427   4.243  1.00  0.00     0.124 S 
ATOM     46  O   UNL     1      12.271 -18.160   4.647  1.00  0.00    -0.237 OA
ATOM     47  O   UNL     1      10.718 -20.000   5.196  1.00  0.00    -0.237 OA
ATOM     48  O   UNL     1      12.577 -20.383   3.622  1.00  0.00    -0.744 OA
ENDBRANCH  44  45
ENDBRANCH  25  39
BRANCH  26  49
ATOM     49  C   UNL     1       4.011 -14.127  -6.980  1.00  0.00    -0.014 A 
ATOM     50  C   UNL     1       2.611 -14.108  -7.096  1.00  0.00     0.010 A 
ATOM     51  C   UNL     1       4.789 -13.490  -7.966  1.00  0.00     0.010 A 
ATOM     52  C   UNL     1       2.002 -13.453  -8.170  1.00  0.00     0.020 A 
ATOM     53  C   UNL     1       4.183 -12.810  -9.024  1.00  0.00     0.020 A 
ATOM     54  C   UNL     1       2.791 -12.797  -9.120  1.00  0.00     0.054 A 
BRANCH  54  55
ATOM     55  S   UNL     1       1.972 -11.864 -10.443  1.00  0.00     0.124 S 
ATOM     56  O   UNL     1       1.441 -12.931 -11.284  1.00  0.00    -0.237 OA
ATOM     57  O   UNL     1       0.979 -11.083  -9.708  1.00  0.00    -0.237 OA
ATOM     58  O   UNL     1       3.056 -11.081 -11.033  1.00  0.00    -0.744 OA
ENDBRANCH  54  55
ENDBRANCH  26  49
BRANCH  38  59
ATOM     59  C   UNL     1       5.003 -20.651  -4.624  1.00  0.00    -0.014 A 
ATOM     60  C   UNL     1       5.582 -21.266  -5.747  1.00  0.00     0.010 A 
ATOM     61  C   UNL     1       4.055 -21.361  -3.864  1.00  0.00     0.010 A 
ATOM     62  C   UNL     1       5.219 -22.570  -6.102  1.00  0.00     0.020 A 
ATOM     63  C   UNL     1       3.710 -22.672  -4.200  1.00  0.00     0.020 A 
ATOM     64  C   UNL     1       4.293 -23.268  -5.319  1.00  0.00     0.054 A 
BRANCH  64  65
ATOM     65  S   UNL     1       3.915 -24.991  -5.743  1.00  0.00     0.124 S 
ATOM     66  O   UNL     1       3.124 -24.839  -6.961  1.00  0.00    -0.237 OA
ATOM     67  O   UNL     1       5.242 -25.574  -5.923  1.00  0.00    -0.237 OA
ATOM     68  O   UNL     1       3.178 -25.481  -4.579  1.00  0.00    -0.744 OA
ENDBRANCH  64  65
ENDBRANCH  38  59
ENDBRANCH  12  13
ENDBRANCH   5   7
ENDBRANCH   2   3
ENDBRANCH   1   2
BRANCH   1  69
ATOM     69  C   UNL     1       9.066  -6.449   3.582  1.00  0.00     0.023 C 
BRANCH  69  70
ATOM     70  C   UNL     1       7.985  -5.395   3.805  1.00  0.00     0.116 C 
BRANCH  70  71
ATOM     71  N   UNL     1       6.900  -5.846   4.657  1.00  0.00    -0.356 N 
ATOM     72  C   UNL     1       6.149  -5.181   5.579  1.00  0.00     0.224 C 
ATOM     73  H   UNL     1       6.665  -6.796   4.549  1.00  0.00     0.163 HD
ATOM     74  O   UNL     1       5.218  -5.799   6.100  1.00  0.00    -0.275 OA
BRANCH  72  75
ATOM     75  C   UNL     1       6.489  -3.758   6.005  1.00  0.00     0.095 C 
ATOM     76  C   UNL     1       7.126  -3.833   7.407  1.00  0.00     0.041 C 
ATOM     77  C   UNL     1       5.222  -2.884   6.025  1.00  0.00     0.095 C 
ATOM     78  C   UNL     1       7.226  -2.497   8.082  1.00  0.00    -0.030 C 
ATOM     79  C   UNL     1       5.485  -1.480   6.611  1.00  0.00     0.041 C 
ATOM     80  C   UNL     1       6.491  -1.439   7.718  1.00  0.00    -0.030 C 
BRANCH  77  81
ATOM     81  C   UNL     1       4.478  -2.668   4.700  1.00  0.00     0.227 C 
ATOM     82  O   UNL     1       3.277  -2.931   4.614  1.00  0.00    -0.275 OA
ATOM     83  N   UNL     1       5.123  -1.917   3.722  1.00  0.00    -0.331 N 
ATOM     84  C   UNL     1       4.306  -0.966   2.976  1.00  0.00     0.181 C 
ATOM     85  C   UNL     1       6.204  -2.488   2.941  1.00  0.00     0.181 C 
ATOM     86  C   UNL     1       5.145   0.049   2.163  1.00  0.00     0.284 C 
ATOM     87  C   UNL     1       7.060  -1.433   2.229  1.00  0.00     0.284 C 
ATOM     88  N   UNL     1       6.306  -0.470   1.421  1.00  0.00    -0.328 N 
ATOM     89  H   UNL     1       6.911   0.337   1.271  1.00  0.00     0.348 HD
BRANCH  88  90
ATOM     90  C   UNL     1       6.069  -0.878   0.028  1.00  0.00     0.299 C 
BRANCH  90  91
ATOM     91  C   UNL     1       5.234  -2.120  -0.187  1.00  0.00     0.010 A 
ATOM     92  C   UNL     1       3.824  -2.037  -0.143  1.00  0.00     0.013 A 
ATOM     93  C   UNL     1       5.845  -3.379  -0.345  1.00  0.00     0.060 A 
ATOM     94  C   UNL     1       3.034  -3.188  -0.124  1.00  0.00     0.051 A 
ATOM     95  C   UNL     1       5.038  -4.498  -0.328  1.00  0.00     0.166 A 
ATOM     96  C   UNL     1       3.673  -4.404  -0.200  1.00  0.00     0.165 A 
ATOM     97  O   UNL     1       5.465  -5.789  -0.368  1.00  0.00    -0.454 OA
ATOM     98  O   UNL     1       3.070  -5.619  -0.136  1.00  0.00    -0.454 OA
ATOM     99  C   UNL     1       4.208  -6.493  -0.250  1.00  0.00     0.468 C 
ENDBRANCH  90  91
ENDBRANCH  88  90
ENDBRANCH  77  81
ENDBRANCH  72  75
ENDBRANCH  70  71
ENDBRANCH  69  70
ENDBRANCH   1  69
TORSDOF 17
