REMARK SMILES C[C@@H]1SCCC[C@H]1Nc1cccc(C(=O)NCCCCNC(=O)c2ccc(-c3c4nc(c(-c5ccc(S(=O)(=O)[O-])cc5)c5ccc([nH]5)c(-c5ccc(S(=O)(=O)[O-])cc5)c5nc(c(-c6ccc(S(=O)(=O)[O-])cc6)c6ccc3[nH]6)C=C5)C=C4)cc2)c1
REMARK SMILES IDX 19 1 18 2 17 3 16 4 14 5 15 6 13 8 9 9 10 10 84 11 11 12
REMARK SMILES IDX 12 13 8 14 7 16 1 17 2 18 3 19 4 20 6 21 5 22 20 23 21 24
REMARK SMILES IDX 22 25 23 27 24 28 25 29 83 30 26 31 82 32 27 33 28 34 29 35
REMARK SMILES IDX 76 36 30 37 81 38 75 39 77 40 31 41 80 42 74 43 73 44 32 46
REMARK SMILES IDX 62 47 43 48 61 49 44 50 47 51 60 52 78 53 45 54 46 55 59 57
REMARK SMILES IDX 79 58 48 59 33 60 34 61 42 62 35 63 41 64 36 65 37 66 38 67
REMARK SMILES IDX 39 68 40 69 63 70 64 71 72 72 65 73 71 74 66 75 67 76 68 77
REMARK SMILES IDX 69 78 70 79 49 80 50 81 58 82 51 83 57 84 52 85 53 86 54 87
REMARK SMILES IDX 55 88 56 89
REMARK H PARENT 16 7 8 15 21 26 77 45 47 56
REMARK Flexibility Score: inf
ROOT
ATOM      1  C   UNL     1      -4.634   5.367   3.413  1.00  0.00     0.023 C 
ENDROOT
BRANCH   1   2
ATOM      2  C   UNL     1      -3.924   5.133   2.088  1.00  0.00     0.023 C 
BRANCH   2   3
ATOM      3  C   UNL     1      -3.992   3.726   1.513  1.00  0.00     0.116 C 
BRANCH   3   4
ATOM      4  N   UNL     1      -5.325   3.252   1.185  1.00  0.00    -0.352 N 
ATOM      5  C   UNL     1      -5.783   2.600   0.059  1.00  0.00     0.251 C 
ATOM      6  O   UNL     1      -6.970   2.289  -0.015  1.00  0.00    -0.269 OA
ATOM      7  H   UNL     1      -6.008   3.422   1.874  1.00  0.00     0.163 HD
BRANCH   5   8
ATOM      8  C   UNL     1      -4.889   2.334  -1.100  1.00  0.00     0.041 A 
ATOM      9  C   UNL     1      -2.660   1.969  -2.014  1.00  0.00     0.035 A 
ATOM     10  C   UNL     1      -3.193   2.186  -3.292  1.00  0.00     0.026 A 
ATOM     11  C   UNL     1      -3.554   1.941  -0.942  1.00  0.00     0.039 A 
ATOM     12  C   UNL     1      -4.557   2.427  -3.485  1.00  0.00     0.003 A 
ATOM     13  C   UNL     1      -5.403   2.526  -2.384  1.00  0.00     0.014 A 
BRANCH   9  14
ATOM     14  N   UNL     1      -1.301   1.770  -1.879  1.00  0.00    -0.381 N 
ATOM     15  H   UNL     1      -0.745   1.955  -2.669  1.00  0.00     0.160 HD
BRANCH  14  16
ATOM     16  C   UNL     1      -0.605   1.309  -0.674  1.00  0.00     0.092 C 
ATOM     17  C   UNL     1       1.226  -0.330   0.031  1.00  0.00     0.021 C 
ATOM     18  C   UNL     1       0.657   0.517  -1.104  1.00  0.00     0.066 C 
ATOM     19  S   UNL     1       1.962   1.593  -1.823  1.00  0.00    -0.157 SA
ATOM     20  C   UNL     1       2.101   2.817  -0.492  1.00  0.00     0.070 C 
ATOM     21  C   UNL     1      -0.306   2.481   0.280  1.00  0.00     0.027 C 
ATOM     22  C   UNL     1       0.758   3.467  -0.200  1.00  0.00     0.013 C 
ENDBRANCH  14  16
ENDBRANCH   9  14
ENDBRANCH   5   8
ENDBRANCH   3   4
ENDBRANCH   2   3
ENDBRANCH   1   2
BRANCH   1  23
ATOM     23  C   UNL     1      -4.335   4.369   4.525  1.00  0.00     0.116 C 
BRANCH  23  24
ATOM     24  N   UNL     1      -2.921   4.243   4.847  1.00  0.00    -0.352 N 
ATOM     25  C   UNL     1      -2.285   4.309   6.067  1.00  0.00     0.251 C 
ATOM     26  H   UNL     1      -2.330   4.086   4.075  1.00  0.00     0.163 HD
ATOM     27  O   UNL     1      -1.064   4.235   6.120  1.00  0.00    -0.269 OA
BRANCH  25  28
ATOM     28  C   UNL     1      -3.074   4.518   7.304  1.00  0.00     0.039 A 
ATOM     29  C   UNL     1      -2.653   5.493   8.213  1.00  0.00     0.014 A 
ATOM     30  C   UNL     1      -4.239   3.789   7.551  1.00  0.00     0.014 A 
ATOM     31  C   UNL     1      -3.452   5.801   9.318  1.00  0.00     0.010 A 
ATOM     32  C   UNL     1      -5.074   4.155   8.604  1.00  0.00     0.010 A 
ATOM     33  C   UNL     1      -4.694   5.170   9.495  1.00  0.00    -0.014 A 
BRANCH  33  34
ATOM     34  C   UNL     1      -5.618   5.570  10.589  1.00  0.00     0.031 A 
ATOM     35  C   UNL     1      -6.003   4.582  11.658  1.00  0.00     0.074 A 
ATOM     36  C   UNL     1      -6.172   6.799  10.580  1.00  0.00     0.049 A 
ATOM     37  N   UNL     1      -6.832   4.732  12.660  1.00  0.00    -0.248 NA
ATOM     38  C   UNL     1      -5.401   3.242  11.574  1.00  0.00     0.031 C 
ATOM     39  C   UNL     1      -5.923   7.836   9.574  1.00  0.00     0.029 A 
ATOM     40  N   UNL     1      -7.064   7.386  11.443  1.00  0.00    -0.354 N 
ATOM     41  C   UNL     1      -6.872   3.502  13.306  1.00  0.00     0.074 A 
ATOM     42  C   UNL     1      -6.019   2.605  12.557  1.00  0.00     0.031 C 
ATOM     43  C   UNL     1      -6.614   8.941   9.899  1.00  0.00     0.029 A 
ATOM     44  C   UNL     1      -7.385   8.682  11.111  1.00  0.00     0.049 A 
ATOM     45  H   UNL     1      -7.438   6.923  12.227  1.00  0.00     0.167 HD
ATOM     46  C   UNL     1      -7.543   3.153  14.430  1.00  0.00     0.031 A 
ATOM     47  C   UNL     1      -8.206   9.565  11.713  1.00  0.00     0.031 A 
ATOM     48  C   UNL     1      -8.373   4.052  15.187  1.00  0.00     0.049 A 
ATOM     49  C   UNL     1      -8.932   9.158  12.965  1.00  0.00     0.074 A 
ATOM     50  C   UNL     1      -9.031   3.816  16.382  1.00  0.00     0.029 A 
ATOM     51  N   UNL     1      -8.664   5.357  14.822  1.00  0.00    -0.354 N 
ATOM     52  N   UNL     1      -8.894   8.013  13.604  1.00  0.00    -0.248 NA
ATOM     53  C   UNL     1      -9.803  10.167  13.583  1.00  0.00     0.031 C 
ATOM     54  C   UNL     1      -9.757   4.964  16.715  1.00  0.00     0.029 A 
ATOM     55  C   UNL     1      -9.510   5.932  15.755  1.00  0.00     0.049 A 
ATOM     56  H   UNL     1      -8.319   5.809  14.018  1.00  0.00     0.167 HD
ATOM     57  C   UNL     1      -9.714   8.174  14.716  1.00  0.00     0.074 A 
ATOM     58  C   UNL     1     -10.224   9.529  14.667  1.00  0.00     0.031 C 
ATOM     59  C   UNL     1     -10.013   7.281  15.691  1.00  0.00     0.031 A 
BRANCH  46  60
ATOM     60  C   UNL     1      -7.411   1.728  14.900  1.00  0.00    -0.014 A 
ATOM     61  C   UNL     1      -6.202   1.246  15.434  1.00  0.00     0.010 A 
ATOM     62  C   UNL     1      -8.517   0.862  14.822  1.00  0.00     0.010 A 
ATOM     63  C   UNL     1      -6.084  -0.089  15.829  1.00  0.00     0.020 A 
ATOM     64  C   UNL     1      -8.412  -0.467  15.243  1.00  0.00     0.020 A 
ATOM     65  C   UNL     1      -7.189  -0.939  15.723  1.00  0.00     0.054 A 
BRANCH  65  66
ATOM     66  S   UNL     1      -7.010  -2.668  16.242  1.00  0.00     0.124 S 
ATOM     67  O   UNL     1      -6.245  -3.236  15.135  1.00  0.00    -0.237 OA
ATOM     68  O   UNL     1      -6.290  -2.551  17.507  1.00  0.00    -0.237 OA
ATOM     69  O   UNL     1      -8.388  -3.140  16.355  1.00  0.00    -0.744 OA
ENDBRANCH  65  66
ENDBRANCH  46  60
BRANCH  47  70
ATOM     70  C   UNL     1      -8.354  10.939  11.161  1.00  0.00    -0.014 A 
ATOM     71  C   UNL     1      -7.777  12.034  11.829  1.00  0.00     0.010 A 
ATOM     72  C   UNL     1      -9.056  11.161   9.963  1.00  0.00     0.010 A 
ATOM     73  C   UNL     1      -7.911  13.327  11.318  1.00  0.00     0.020 A 
ATOM     74  C   UNL     1      -9.171  12.451   9.435  1.00  0.00     0.020 A 
ATOM     75  C   UNL     1      -8.606  13.527  10.122  1.00  0.00     0.054 A 
BRANCH  75  76
ATOM     76  S   UNL     1      -8.717  15.208   9.446  1.00  0.00     0.124 S 
ATOM     77  O   UNL     1      -9.706  15.824  10.325  1.00  0.00    -0.237 OA
ATOM     78  O   UNL     1      -7.348  15.698   9.591  1.00  0.00    -0.237 OA
ATOM     79  O   UNL     1      -9.149  14.993   8.067  1.00  0.00    -0.744 OA
ENDBRANCH  75  76
ENDBRANCH  47  70
BRANCH  59  80
ATOM     80  C   UNL     1     -10.910   7.751  16.805  1.00  0.00    -0.014 A 
ATOM     81  C   UNL     1     -12.286   7.949  16.599  1.00  0.00     0.010 A 
ATOM     82  C   UNL     1     -10.370   7.957  18.088  1.00  0.00     0.010 A 
ATOM     83  C   UNL     1     -13.102   8.378  17.650  1.00  0.00     0.020 A 
ATOM     84  C   UNL     1     -11.188   8.361  19.147  1.00  0.00     0.020 A 
ATOM     85  C   UNL     1     -12.546   8.585  18.916  1.00  0.00     0.054 A 
BRANCH  85  86
ATOM     86  S   UNL     1     -13.630   9.107  20.274  1.00  0.00     0.124 S 
ATOM     87  O   UNL     1     -13.839  10.520  19.968  1.00  0.00    -0.237 OA
ATOM     88  O   UNL     1     -14.799   8.247  20.102  1.00  0.00    -0.237 OA
ATOM     89  O   UNL     1     -12.838   8.839  21.472  1.00  0.00    -0.744 OA
ENDBRANCH  85  86
ENDBRANCH  59  80
ENDBRANCH  33  34
ENDBRANCH  25  28
ENDBRANCH  23  24
ENDBRANCH   1  23
TORSDOF 16
