REMARK SMILES Cc1oc2c(C)c3oc(=O)c(CCC(=O)N[C@H](Cc4ccc(Cl)cc4)C(=O)NCCCCNC(=O)c4ccc(-c5c6nc(c(-c7ccc(S(=O)(=O)[O-])cc7)c7ccc([nH]7)c(-c7ccc(S(=O)(=O)[O-])cc7)c7nc(c(-c8ccc(S(=O)(=O)[O-])cc8)c8ccc5[nH]8)C=C7)C=C6)cc4)c(C)c3cc2c1C
REMARK SMILES IDX 30 1 29 2 28 3 26 4 27 5 17 7 16 8 14 9 15 10 13 12 12 13
REMARK SMILES IDX 11 14 1 15 2 16 3 17 101 18 4 19 100 20 102 21 5 22 99 23
REMARK SMILES IDX 6 24 7 25 98 26 8 27 96 28 9 29 97 30 10 31 18 32 19 33
REMARK SMILES IDX 20 34 25 35 21 36 24 37 22 38 23 39 31 40 32 41 33 42 34 43
REMARK SMILES IDX 35 45 36 46 37 47 95 48 38 49 94 50 39 51 40 52 41 53 88 54
REMARK SMILES IDX 42 55 93 56 87 57 89 58 43 59 92 60 86 61 85 62 44 64 74 65
REMARK SMILES IDX 55 66 73 67 56 68 59 69 72 70 90 71 57 72 58 73 71 75 91 76
REMARK SMILES IDX 60 77 45 78 46 79 54 80 47 81 53 82 48 83 49 84 50 85 51 86
REMARK SMILES IDX 52 87 75 88 76 89 84 90 77 91 83 92 78 93 79 94 80 95 81 96
REMARK SMILES IDX 82 97 61 98 62 99 70 100 63 101 69 102 64 103 65 104 66 105
REMARK SMILES IDX 67 106 68 107
REMARK H PARENT 28 6 16 11 33 44 89 63 59 74
REMARK Flexibility Score: inf
ROOT
ATOM      1  C   UNL     1       4.551   2.932   4.001  1.00  0.00     0.023 C 
ENDROOT
BRANCH   1   2
ATOM      2  C   UNL     1       3.210   2.546   4.857  1.00  0.00     0.116 C 
BRANCH   2   3
ATOM      3  N   UNL     1       2.154   3.635   5.610  1.00  0.00    -0.354 N 
ATOM      4  C   UNL     1       1.210   4.667   5.722  1.00  0.00     0.242 C 
ATOM      5  O   UNL     1       1.004   4.906   6.939  1.00  0.00    -0.273 OA
ATOM      6  H   UNL     1       2.281   3.394   6.556  1.00  0.00     0.163 HD
BRANCH   4   7
ATOM      7  C   UNL     1       0.153   5.627   4.706  1.00  0.00     0.175 C 
BRANCH   7   8
ATOM      8  N   UNL     1      -0.979   4.784   4.468  1.00  0.00    -0.344 N 
ATOM      9  C   UNL     1      -0.839   3.788   3.561  1.00  0.00     0.220 C 
ATOM     10  O   UNL     1      -1.843   3.365   2.966  1.00  0.00    -0.275 OA
ATOM     11  H   UNL     1      -1.828   4.924   4.946  1.00  0.00     0.164 HD
BRANCH   9  12
ATOM     12  C   UNL     1       0.553   3.175   3.385  1.00  0.00     0.105 C 
BRANCH  12  13
ATOM     13  C   UNL     1       1.882   3.974   2.892  1.00  0.00     0.053 C 
BRANCH  13  14
ATOM     14  C   UNL     1       2.910   5.237   3.409  1.00  0.00     0.042 A 
ATOM     15  C   UNL     1       3.097  13.295   1.596  1.00  0.00     0.088 C 
ATOM     16  C   UNL     1       3.306  11.877   1.914  1.00  0.00     0.105 A 
ATOM     17  O   UNL     1       3.779  11.540   3.163  1.00  0.00    -0.461 OA
ATOM     18  C   UNL     1       3.040  10.759   1.166  1.00  0.00    -0.002 A 
ATOM     19  C   UNL     1       3.769  10.167   3.232  1.00  0.00     0.141 A 
ATOM     20  C   UNL     1       3.288   9.693   2.026  1.00  0.00     0.025 A 
ATOM     21  C   UNL     1       2.551  10.547  -0.215  1.00  0.00     0.049 C 
ATOM     22  C   UNL     1       4.063   9.323   4.308  1.00  0.00     0.036 A 
ATOM     23  C   UNL     1       3.071   8.352   1.821  1.00  0.00     0.024 A 
ATOM     24  C   UNL     1       4.418   9.791   5.690  1.00  0.00     0.052 C 
ATOM     25  C   UNL     1       3.892   7.948   3.970  1.00  0.00     0.145 A 
ATOM     26  C   UNL     1       3.543   7.448   2.726  1.00  0.00     0.022 A 
ATOM     27  O   UNL     1       3.910   7.027   5.000  1.00  0.00    -0.422 OA
ATOM     28  C   UNL     1       3.299   6.044   2.404  1.00  0.00    -0.030 A 
ATOM     29  C   UNL     1       3.618   5.688   4.780  1.00  0.00     0.339 A 
ATOM     30  C   UNL     1       3.150   5.697   0.941  1.00  0.00     0.046 C 
ATOM     31  O   UNL     1       4.026   4.982   5.697  1.00  0.00    -0.246 OA
ENDBRANCH  13  14
ENDBRANCH  12  13
ENDBRANCH   9  12
ENDBRANCH   7   8
BRANCH   7  32
ATOM     32  C   UNL     1       0.335   6.449   3.351  1.00  0.00     0.070 C 
BRANCH  32  33
ATOM     33  C   UNL     1      -0.487   7.548   2.628  1.00  0.00    -0.045 A 
ATOM     34  C   UNL     1      -0.832   7.370   1.256  1.00  0.00     0.005 A 
ATOM     35  C   UNL     1      -0.549   8.856   3.125  1.00  0.00     0.005 A 
ATOM     36  C   UNL     1      -1.176   8.447   0.419  1.00  0.00     0.021 A 
ATOM     37  C   UNL     1      -0.896   9.937   2.285  1.00  0.00     0.021 A 
ATOM     38  C   UNL     1      -1.194   9.733   0.938  1.00  0.00     0.041 A 
ATOM     39  Cl  UNL     1      -1.510  11.076  -0.097  1.00  0.00    -0.084 Cl
ENDBRANCH  32  33
ENDBRANCH   7  32
ENDBRANCH   4   7
ENDBRANCH   2   3
ENDBRANCH   1   2
BRANCH   1  40
ATOM     40  C   UNL     1       5.738   1.949   3.879  1.00  0.00     0.023 C 
BRANCH  40  41
ATOM     41  C   UNL     1       5.530   0.672   3.064  1.00  0.00     0.116 C 
BRANCH  41  42
ATOM     42  N   UNL     1       5.740   0.865   1.630  1.00  0.00    -0.352 N 
ATOM     43  C   UNL     1       6.290  -0.004   0.715  1.00  0.00     0.251 C 
ATOM     44  H   UNL     1       5.449   1.734   1.270  1.00  0.00     0.163 HD
ATOM     45  O   UNL     1       6.556   0.409  -0.425  1.00  0.00    -0.269 OA
BRANCH  43  46
ATOM     46  C   UNL     1       6.587  -1.413   1.056  1.00  0.00     0.039 A 
ATOM     47  C   UNL     1       7.830  -1.956   0.706  1.00  0.00     0.014 A 
ATOM     48  C   UNL     1       5.620  -2.230   1.647  1.00  0.00     0.014 A 
ATOM     49  C   UNL     1       8.132  -3.286   1.016  1.00  0.00     0.010 A 
ATOM     50  C   UNL     1       5.921  -3.562   1.951  1.00  0.00     0.010 A 
ATOM     51  C   UNL     1       7.191  -4.092   1.673  1.00  0.00    -0.014 A 
BRANCH  51  52
ATOM     52  C   UNL     1       7.659  -5.391   2.227  1.00  0.00     0.031 A 
ATOM     53  C   UNL     1       7.255  -5.589   3.668  1.00  0.00     0.074 A 
ATOM     54  C   UNL     1       7.801  -6.491   1.451  1.00  0.00     0.049 A 
ATOM     55  N   UNL     1       6.072  -5.980   4.051  1.00  0.00    -0.248 NA
ATOM     56  C   UNL     1       8.069  -5.053   4.763  1.00  0.00     0.031 C 
ATOM     57  C   UNL     1       6.806  -6.929   0.466  1.00  0.00     0.029 A 
ATOM     58  N   UNL     1       8.675  -7.559   1.547  1.00  0.00    -0.354 N 
ATOM     59  C   UNL     1       5.969  -5.736   5.415  1.00  0.00     0.074 A 
ATOM     60  C   UNL     1       7.229  -5.146   5.807  1.00  0.00     0.031 C 
ATOM     61  C   UNL     1       7.029  -8.227   0.171  1.00  0.00     0.029 A 
ATOM     62  C   UNL     1       8.239  -8.690   0.854  1.00  0.00     0.049 A 
ATOM     63  H   UNL     1       9.518  -7.525   2.053  1.00  0.00     0.167 HD
ATOM     64  C   UNL     1       4.864  -6.055   6.148  1.00  0.00     0.031 A 
ATOM     65  C   UNL     1       8.476  -9.980   1.239  1.00  0.00     0.031 A 
ATOM     66  C   UNL     1       3.849  -6.760   5.420  1.00  0.00     0.049 A 
ATOM     67  C   UNL     1       7.406 -10.158   2.286  1.00  0.00     0.074 A 
ATOM     68  C   UNL     1       2.600  -6.539   4.885  1.00  0.00     0.029 A 
ATOM     69  N   UNL     1       4.101  -8.082   5.153  1.00  0.00    -0.354 N 
ATOM     70  N   UNL     1       6.137 -10.369   2.067  1.00  0.00    -0.248 NA
ATOM     71  C   UNL     1       7.720  -9.659   3.627  1.00  0.00     0.031 C 
ATOM     72  C   UNL     1       2.396  -7.599   3.942  1.00  0.00     0.029 A 
ATOM     73  C   UNL     1       3.543  -8.393   3.945  1.00  0.00     0.049 A 
ATOM     74  H   UNL     1       4.600  -8.702   5.733  1.00  0.00     0.167 HD
ATOM     75  C   UNL     1       5.470  -9.706   3.100  1.00  0.00     0.074 A 
ATOM     76  C   UNL     1       6.508  -9.300   4.030  1.00  0.00     0.031 C 
ATOM     77  C   UNL     1       4.148  -9.355   3.049  1.00  0.00     0.031 A 
BRANCH  64  78
ATOM     78  C   UNL     1       4.749  -5.983   7.629  1.00  0.00    -0.014 A 
ATOM     79  C   UNL     1       4.870  -7.197   8.333  1.00  0.00     0.010 A 
ATOM     80  C   UNL     1       4.292  -4.847   8.315  1.00  0.00     0.010 A 
ATOM     81  C   UNL     1       4.486  -7.301   9.668  1.00  0.00     0.020 A 
ATOM     82  C   UNL     1       3.921  -4.942   9.669  1.00  0.00     0.020 A 
ATOM     83  C   UNL     1       3.998  -6.176  10.327  1.00  0.00     0.054 A 
BRANCH  83  84
ATOM     84  S   UNL     1       3.419  -6.383  12.035  1.00  0.00     0.124 S 
ATOM     85  O   UNL     1       2.326  -7.342  11.878  1.00  0.00    -0.237 OA
ATOM     86  O   UNL     1       4.614  -6.898  12.702  1.00  0.00    -0.237 OA
ATOM     87  O   UNL     1       3.018  -5.039  12.431  1.00  0.00    -0.744 OA
ENDBRANCH  83  84
ENDBRANCH  64  78
BRANCH  65  88
ATOM     88  C   UNL     1       9.905 -10.380   1.453  1.00  0.00    -0.014 A 
ATOM     89  C   UNL     1      10.807 -10.132   0.397  1.00  0.00     0.010 A 
ATOM     90  C   UNL     1      10.425 -10.965   2.622  1.00  0.00     0.010 A 
ATOM     91  C   UNL     1      12.186 -10.291   0.561  1.00  0.00     0.020 A 
ATOM     92  C   UNL     1      11.810 -11.104   2.807  1.00  0.00     0.020 A 
ATOM     93  C   UNL     1      12.682 -10.723   1.788  1.00  0.00     0.054 A 
BRANCH  93  94
ATOM     94  S   UNL     1      14.476 -10.679   2.054  1.00  0.00     0.124 S 
ATOM     95  O   UNL     1      14.966 -11.615   1.046  1.00  0.00    -0.237 OA
ATOM     96  O   UNL     1      14.782  -9.271   1.810  1.00  0.00    -0.237 OA
ATOM     97  O   UNL     1      14.631 -11.114   3.439  1.00  0.00    -0.744 OA
ENDBRANCH  93  94
ENDBRANCH  65  88
BRANCH  77  98
ATOM     98  C   UNL     1       3.360  -9.872   1.883  1.00  0.00    -0.014 A 
ATOM     99  C   UNL     1       3.173 -11.253   1.722  1.00  0.00     0.010 A 
ATOM    100  C   UNL     1       2.731  -8.991   0.983  1.00  0.00     0.010 A 
ATOM    101  C   UNL     1       2.343 -11.745   0.714  1.00  0.00     0.020 A 
ATOM    102  C   UNL     1       1.881  -9.476  -0.017  1.00  0.00     0.020 A 
ATOM    103  C   UNL     1       1.685 -10.853  -0.137  1.00  0.00     0.054 A 
BRANCH 103 104
ATOM    104  S   UNL     1       0.529 -11.523  -1.360  1.00  0.00     0.124 S 
ATOM    105  O   UNL     1       1.407 -12.292  -2.237  1.00  0.00    -0.237 OA
ATOM    106  O   UNL     1      -0.381 -12.313  -0.534  1.00  0.00    -0.237 OA
ATOM    107  O   UNL     1      -0.067 -10.334  -1.967  1.00  0.00    -0.744 OA
ENDBRANCH 103 104
ENDBRANCH  77  98
ENDBRANCH  51  52
ENDBRANCH  43  46
ENDBRANCH  41  42
ENDBRANCH  40  41
ENDBRANCH   1  40
TORSDOF 20
