REMARK SMILES NS(=O)(=O)c1ccc(-n2nc(NC(=O)NCCCC(=O)NCCCCNC(=O)c3ccc(-c4c5nc(c(-c6ccc(S(=O)(=O)[O-])cc6)c6ccc([nH]6)c(-c6ccc(S(=O)(=O)[O-])cc6)c6nc(c(-c7ccc(S(=O)(=O)[O-])cc7)c7ccc4[nH]7)C=C6)C=C5)cc3)cc2-c2ccccc2)cc1
REMARK SMILES IDX 19 1 20 2 21 3 18 5 17 6 16 7 15 8 12 9 13 10 14 12 11 14
REMARK SMILES IDX 9 15 10 16 90 17 89 18 8 19 5 20 6 21 98 22 7 23 97 24 2 25
REMARK SMILES IDX 3 26 4 27 1 28 91 31 92 32 96 33 93 34 95 35 94 36 22 37
REMARK SMILES IDX 23 38 24 39 25 40 26 41 27 42 28 44 29 45 30 46 88 47 31 48
REMARK SMILES IDX 87 49 32 50 33 51 34 52 81 53 35 54 86 55 80 56 82 57 36 58
REMARK SMILES IDX 85 59 79 60 78 61 37 63 67 64 48 65 66 66 49 67 52 68 65 69
REMARK SMILES IDX 83 70 50 71 51 72 64 74 84 75 53 76 38 77 39 78 47 79 40 80
REMARK SMILES IDX 46 81 41 82 42 83 43 84 44 85 45 86 68 87 69 88 77 89 70 90
REMARK SMILES IDX 76 91 71 92 72 93 73 94 74 95 75 96 54 97 55 98 63 99 56 100
REMARK SMILES IDX 62 101 57 102 58 103 59 104 60 105 61 106
REMARK H PARENT 21 4 12 11 15 13 1 29 1 30 26 43 82 62 52 73
REMARK Flexibility Score: inf
ROOT
ATOM      1  C   UNL     1       4.464   3.954  -2.356  1.00  0.00     0.220 C 
ATOM      2  O   UNL     1       4.378   3.012  -1.564  1.00  0.00    -0.275 OA
ATOM      3  N   UNL     1       3.474   4.893  -2.348  1.00  0.00    -0.356 N 
ATOM      4  H   UNL     1       2.893   4.873  -1.554  1.00  0.00     0.163 HD
ENDROOT
BRANCH   1   5
ATOM      5  C   UNL     1       5.659   4.073  -3.288  1.00  0.00     0.102 C 
BRANCH   5   6
ATOM      6  C   UNL     1       5.650   3.089  -4.460  1.00  0.00     0.031 C 
BRANCH   6   7
ATOM      7  C   UNL     1       4.621   3.396  -5.539  1.00  0.00     0.118 C 
BRANCH   7   8
ATOM      8  N   UNL     1       4.769   4.686  -6.189  1.00  0.00    -0.338 N 
ATOM      9  N   UNL     1       3.254   4.547  -8.027  1.00  0.00    -0.291 N 
ATOM     10  C   UNL     1       4.182   5.199  -7.294  1.00  0.00     0.320 C 
ATOM     11  H   UNL     1       3.171   4.865  -8.955  1.00  0.00     0.173 HD
ATOM     12  O   UNL     1       4.616   6.274  -7.720  1.00  0.00    -0.248 OA
ATOM     13  H   UNL     1       5.407   5.292  -5.749  1.00  0.00     0.165 HD
BRANCH   9  14
ATOM     14  C   UNL     1       2.406   3.517  -7.703  1.00  0.00     0.157 A 
ATOM     15  N   UNL     1       1.439   2.039  -6.533  1.00  0.00    -0.231 N 
ATOM     16  N   UNL     1       1.916   3.293  -6.490  1.00  0.00    -0.149 NA
ATOM     17  C   UNL     1       1.239   1.627  -7.842  1.00  0.00     0.076 A 
ATOM     18  C   UNL     1       1.863   2.591  -8.618  1.00  0.00     0.078 A 
BRANCH  15  19
ATOM     19  C   UNL     1       1.278   1.305  -5.327  1.00  0.00     0.065 A 
ATOM     20  C   UNL     1       0.880  -0.120  -2.968  1.00  0.00     0.082 A 
ATOM     21  C   UNL     1       1.525  -0.732  -4.048  1.00  0.00     0.024 A 
ATOM     22  C   UNL     1       0.465   1.210  -3.045  1.00  0.00     0.024 A 
ATOM     23  C   UNL     1       1.715  -0.021  -5.237  1.00  0.00     0.030 A 
ATOM     24  C   UNL     1       0.681   1.923  -4.224  1.00  0.00     0.030 A 
BRANCH  20  25
ATOM     25  S   UNL     1       0.537  -1.055  -1.506  1.00  0.00     0.238 S 
ATOM     26  O   UNL     1       1.314  -2.263  -1.520  1.00  0.00    -0.207 OA
ATOM     27  O   UNL     1      -0.903  -1.060  -1.313  1.00  0.00    -0.207 OA
BRANCH  25  28
ATOM     28  N   UNL     1       1.174  -0.103  -0.287  1.00  0.00    -0.225 NA
ATOM     29  H   UNL     1       1.026  -0.559   0.613  1.00  0.00     0.137 HD
ATOM     30  H   UNL     1       0.710   0.805  -0.288  1.00  0.00     0.137 HD
ENDBRANCH  25  28
ENDBRANCH  20  25
ENDBRANCH  15  19
BRANCH  17  31
ATOM     31  C   UNL     1       0.495   0.429  -8.208  1.00  0.00     0.000 A 
ATOM     32  C   UNL     1      -0.727   0.143  -7.578  1.00  0.00     0.010 A 
ATOM     33  C   UNL     1       1.010  -0.472  -9.142  1.00  0.00     0.010 A 
ATOM     34  C   UNL     1      -1.394  -1.052  -7.835  1.00  0.00     0.001 A 
ATOM     35  C   UNL     1       0.333  -1.663  -9.408  1.00  0.00     0.001 A 
ATOM     36  C   UNL     1      -0.861  -1.957  -8.747  1.00  0.00     0.000 A 
ENDBRANCH  17  31
ENDBRANCH   9  14
ENDBRANCH   7   8
ENDBRANCH   6   7
ENDBRANCH   5   6
ENDBRANCH   1   5
BRANCH   3  37
ATOM     37  C   UNL     1       3.139   5.921  -3.325  1.00  0.00     0.116 C 
BRANCH  37  38
ATOM     38  C   UNL     1       1.969   5.473  -4.203  1.00  0.00     0.023 C 
BRANCH  38  39
ATOM     39  C   UNL     1       0.552   5.566  -3.628  1.00  0.00     0.023 C 
BRANCH  39  40
ATOM     40  C   UNL     1      -0.033   6.960  -3.598  1.00  0.00     0.116 C 
BRANCH  40  41
ATOM     41  N   UNL     1      -0.254   7.516  -4.940  1.00  0.00    -0.352 N 
ATOM     42  C   UNL     1      -0.509   8.838  -5.266  1.00  0.00     0.251 C 
ATOM     43  H   UNL     1      -0.217   6.880  -5.689  1.00  0.00     0.163 HD
ATOM     44  O   UNL     1      -1.058   9.157  -6.311  1.00  0.00    -0.269 OA
BRANCH  42  45
ATOM     45  C   UNL     1      -0.059   9.850  -4.300  1.00  0.00     0.039 A 
ATOM     46  C   UNL     1      -0.893  10.862  -3.817  1.00  0.00     0.014 A 
ATOM     47  C   UNL     1       1.205   9.629  -3.766  1.00  0.00     0.014 A 
ATOM     48  C   UNL     1      -0.470  11.593  -2.708  1.00  0.00     0.010 A 
ATOM     49  C   UNL     1       1.505  10.187  -2.558  1.00  0.00     0.010 A 
ATOM     50  C   UNL     1       0.723  11.227  -2.068  1.00  0.00    -0.014 A 
BRANCH  50  51
ATOM     51  C   UNL     1       1.173  11.848  -0.829  1.00  0.00     0.031 A 
ATOM     52  C   UNL     1       0.231  11.741   0.321  1.00  0.00     0.074 A 
ATOM     53  C   UNL     1       2.465  12.220  -0.672  1.00  0.00     0.049 A 
ATOM     54  N   UNL     1      -0.413  12.691   0.913  1.00  0.00    -0.248 NA
ATOM     55  C   UNL     1      -0.145  10.396   0.792  1.00  0.00     0.031 C 
ATOM     56  C   UNL     1       3.591  12.038  -1.605  1.00  0.00     0.029 A 
ATOM     57  N   UNL     1       3.084  12.711   0.428  1.00  0.00    -0.354 N 
ATOM     58  C   UNL     1      -1.103  12.098   1.971  1.00  0.00     0.074 A 
ATOM     59  C   UNL     1      -1.056  10.680   1.726  1.00  0.00     0.031 C 
ATOM     60  C   UNL     1       4.760  12.155  -0.939  1.00  0.00     0.029 A 
ATOM     61  C   UNL     1       4.473  12.625   0.402  1.00  0.00     0.049 A 
ATOM     62  H   UNL     1       2.591  13.099   1.186  1.00  0.00     0.167 HD
ATOM     63  C   UNL     1      -1.449  12.803   3.087  1.00  0.00     0.031 A 
ATOM     64  C   UNL     1       5.325  12.901   1.420  1.00  0.00     0.031 A 
ATOM     65  C   UNL     1      -1.259  14.218   2.888  1.00  0.00     0.049 A 
ATOM     66  C   UNL     1       4.567  13.730   2.390  1.00  0.00     0.074 A 
ATOM     67  C   UNL     1      -1.789  15.160   2.030  1.00  0.00     0.029 A 
ATOM     68  N   UNL     1      -0.088  14.756   3.372  1.00  0.00    -0.354 N 
ATOM     69  N   UNL     1       4.112  14.922   2.113  1.00  0.00    -0.248 NA
ATOM     70  C   UNL     1       3.892  13.044   3.481  1.00  0.00     0.031 C 
ATOM     71  C   UNL     1      -0.681  15.981   1.668  1.00  0.00     0.029 A 
ATOM     72  C   UNL     1       0.438  15.554   2.389  1.00  0.00     0.049 A 
ATOM     73  H   UNL     1       0.301  14.597   4.262  1.00  0.00     0.167 HD
ATOM     74  C   UNL     1       2.847  14.965   2.686  1.00  0.00     0.074 A 
ATOM     75  C   UNL     1       2.805  13.814   3.590  1.00  0.00     0.031 C 
ATOM     76  C   UNL     1       1.857  15.754   2.171  1.00  0.00     0.031 A 
BRANCH  63  77
ATOM     77  C   UNL     1      -1.576  12.220   4.477  1.00  0.00    -0.014 A 
ATOM     78  C   UNL     1      -1.928  13.081   5.541  1.00  0.00     0.010 A 
ATOM     79  C   UNL     1      -1.104  10.940   4.829  1.00  0.00     0.010 A 
ATOM     80  C   UNL     1      -1.727  12.713   6.878  1.00  0.00     0.020 A 
ATOM     81  C   UNL     1      -0.941  10.547   6.160  1.00  0.00     0.020 A 
ATOM     82  C   UNL     1      -1.216  11.451   7.177  1.00  0.00     0.054 A 
BRANCH  82  83
ATOM     83  S   UNL     1      -0.843  11.030   8.896  1.00  0.00     0.124 S 
ATOM     84  O   UNL     1       0.242  11.956   9.204  1.00  0.00    -0.237 OA
ATOM     85  O   UNL     1      -2.114  11.295   9.563  1.00  0.00    -0.237 OA
ATOM     86  O   UNL     1      -0.463   9.620   8.827  1.00  0.00    -0.744 OA
ENDBRANCH  82  83
ENDBRANCH  63  77
BRANCH  64  87
ATOM     87  C   UNL     1       6.614  12.240   1.742  1.00  0.00    -0.014 A 
ATOM     88  C   UNL     1       7.562  12.849   2.585  1.00  0.00     0.010 A 
ATOM     89  C   UNL     1       6.799  10.876   1.430  1.00  0.00     0.010 A 
ATOM     90  C   UNL     1       8.626  12.110   3.134  1.00  0.00     0.020 A 
ATOM     91  C   UNL     1       7.856  10.133   1.973  1.00  0.00     0.020 A 
ATOM     92  C   UNL     1       8.756  10.749   2.838  1.00  0.00     0.054 A 
BRANCH  92  93
ATOM     93  S   UNL     1      10.039   9.767   3.676  1.00  0.00     0.124 S 
ATOM     94  O   UNL     1      11.268  10.290   3.086  1.00  0.00    -0.237 OA
ATOM     95  O   UNL     1       9.824  10.096   5.082  1.00  0.00    -0.237 OA
ATOM     96  O   UNL     1       9.713   8.390   3.309  1.00  0.00    -0.744 OA
ENDBRANCH  92  93
ENDBRANCH  64  87
BRANCH  76  97
ATOM     97  C   UNL     1       2.217  16.787   1.124  1.00  0.00    -0.014 A 
ATOM     98  C   UNL     1       2.700  16.474  -0.163  1.00  0.00     0.010 A 
ATOM     99  C   UNL     1       1.857  18.118   1.397  1.00  0.00     0.010 A 
ATOM    100  C   UNL     1       2.825  17.473  -1.144  1.00  0.00     0.020 A 
ATOM    101  C   UNL     1       1.961  19.111   0.422  1.00  0.00     0.020 A 
ATOM    102  C   UNL     1       2.449  18.787  -0.843  1.00  0.00     0.054 A 
BRANCH 102 103
ATOM    103  S   UNL     1       2.543  20.068  -2.127  1.00  0.00     0.124 S 
ATOM    104  O   UNL     1       3.982  20.237  -2.302  1.00  0.00    -0.237 OA
ATOM    105  O   UNL     1       1.840  19.455  -3.252  1.00  0.00    -0.237 OA
ATOM    106  O   UNL     1       1.854  21.212  -1.529  1.00  0.00    -0.744 OA
ENDBRANCH 102 103
ENDBRANCH  76  97
ENDBRANCH  50  51
ENDBRANCH  42  45
ENDBRANCH  40  41
ENDBRANCH  39  40
ENDBRANCH  38  39
ENDBRANCH  37  38
ENDBRANCH   3  37
TORSDOF 22
