REMARK SMILES C[C@H]1[C@H](C(=O)NCCCCNC(=O)c2ccc(-c3c4nc(c(-c5ccc(S(=O)(=O)[O-])cc5)c5ccc([nH]5)c(-c5ccc(S(=O)(=O)[O-])cc5)c5nc(c(-c6ccc(S(=O)(=O)[O-])cc6)c6ccc3[nH]6)C=C5)C=C4)cc2)CCN1C(=O)COc1ccccc1F
REMARK SMILES IDX 8 1 7 2 6 3 4 4 5 5 3 7 1 8 2 9 76 10 74 11 75 12 77 13
REMARK SMILES IDX 78 14 79 15 80 16 81 17 82 18 86 19 83 20 85 21 87 22 84 23
REMARK SMILES IDX 9 24 10 25 11 26 12 27 13 29 14 30 15 31 73 32 16 33 72 34
REMARK SMILES IDX 17 35 18 36 19 37 66 38 20 39 71 40 65 41 67 42 21 43 70 44
REMARK SMILES IDX 64 45 63 46 22 48 52 49 33 50 51 51 34 52 37 53 50 54 68 55
REMARK SMILES IDX 35 56 36 57 49 59 69 60 38 61 23 62 24 63 32 64 25 65 31 66
REMARK SMILES IDX 26 67 27 68 28 69 29 70 30 71 53 72 54 73 62 74 55 75 61 76
REMARK SMILES IDX 56 77 57 78 58 79 59 80 60 81 39 82 40 83 48 84 41 85 47 86
REMARK SMILES IDX 42 87 43 88 44 89 45 90 46 91
REMARK H PARENT 6 6 11 28 67 47 37 58
REMARK Flexibility Score: inf
ROOT
ATOM      1  C   UNL     1       0.007  -0.082   3.917  1.00  0.00     0.023 C 
ENDROOT
BRANCH   1   2
ATOM      2  C   UNL     1      -0.982   0.578   2.960  1.00  0.00     0.116 C 
BRANCH   2   3
ATOM      3  N   UNL     1      -0.499   1.862   2.485  1.00  0.00    -0.356 N 
ATOM      4  C   UNL     1      -0.076   2.259   1.257  1.00  0.00     0.225 C 
ATOM      5  O   UNL     1       0.312   3.425   1.136  1.00  0.00    -0.275 OA
ATOM      6  H   UNL     1      -0.475   2.567   3.172  1.00  0.00     0.163 HD
BRANCH   4   7
ATOM      7  C   UNL     1      -0.074   1.337   0.051  1.00  0.00     0.102 C 
ATOM      8  C   UNL     1       1.971   0.194  -0.832  1.00  0.00     0.032 C 
ATOM      9  C   UNL     1       0.860   0.120   0.217  1.00  0.00     0.094 C 
ATOM     10  N   UNL     1      -0.026  -1.037   0.061  1.00  0.00    -0.336 N 
ATOM     11  C   UNL     1      -1.459   0.806  -0.321  1.00  0.00     0.037 C 
ATOM     12  C   UNL     1      -1.256  -0.666  -0.611  1.00  0.00     0.121 C 
BRANCH  10  13
ATOM     13  C   UNL     1       0.093  -2.301   0.603  1.00  0.00     0.260 C 
ATOM     14  O   UNL     1      -0.898  -3.023   0.766  1.00  0.00    -0.271 OA
BRANCH  13  15
ATOM     15  C   UNL     1       1.469  -2.822   1.038  1.00  0.00     0.329 C 
BRANCH  15  16
ATOM     16  O   UNL     1       2.632  -2.650   0.257  1.00  0.00    -0.481 OA
BRANCH  16  17
ATOM     17  C   UNL     1       2.759  -3.300  -0.939  1.00  0.00     0.155 A 
ATOM     18  C   UNL     1       4.087  -3.534  -1.318  1.00  0.00     0.049 A 
ATOM     19  C   UNL     1       1.751  -3.638  -1.842  1.00  0.00     0.165 A 
ATOM     20  C   UNL     1       4.395  -4.088  -2.565  1.00  0.00     0.004 A 
ATOM     21  C   UNL     1       2.052  -4.178  -3.094  1.00  0.00     0.043 A 
ATOM     22  F   UNL     1       0.460  -3.418  -1.588  1.00  0.00    -0.203 F 
ATOM     23  C   UNL     1       3.375  -4.402  -3.459  1.00  0.00     0.003 A 
ENDBRANCH  16  17
ENDBRANCH  15  16
ENDBRANCH  13  15
ENDBRANCH  10  13
ENDBRANCH   4   7
ENDBRANCH   2   3
ENDBRANCH   1   2
BRANCH   1  24
ATOM     24  C   UNL     1       0.139   0.614   5.271  1.00  0.00     0.023 C 
BRANCH  24  25
ATOM     25  C   UNL     1      -1.167   0.788   6.040  1.00  0.00     0.116 C 
BRANCH  25  26
ATOM     26  N   UNL     1      -1.868  -0.465   6.272  1.00  0.00    -0.352 N 
ATOM     27  C   UNL     1      -2.536  -0.874   7.402  1.00  0.00     0.251 C 
ATOM     28  H   UNL     1      -1.864  -1.104   5.523  1.00  0.00     0.163 HD
ATOM     29  O   UNL     1      -2.979  -2.016   7.481  1.00  0.00    -0.269 OA
BRANCH  27  30
ATOM     30  C   UNL     1      -2.679   0.063   8.534  1.00  0.00     0.039 A 
ATOM     31  C   UNL     1      -2.320  -0.365   9.814  1.00  0.00     0.014 A 
ATOM     32  C   UNL     1      -3.123   1.372   8.323  1.00  0.00     0.014 A 
ATOM     33  C   UNL     1      -2.337   0.544  10.873  1.00  0.00     0.010 A 
ATOM     34  C   UNL     1      -3.074   2.292   9.365  1.00  0.00     0.010 A 
ATOM     35  C   UNL     1      -2.678   1.889  10.649  1.00  0.00    -0.014 A 
BRANCH  35  36
ATOM     36  C   UNL     1      -2.614   2.891  11.742  1.00  0.00     0.031 A 
ATOM     37  C   UNL     1      -3.868   3.574  12.214  1.00  0.00     0.074 A 
ATOM     38  C   UNL     1      -1.418   3.237  12.259  1.00  0.00     0.049 A 
ATOM     39  N   UNL     1      -4.004   4.519  13.108  1.00  0.00    -0.248 NA
ATOM     40  C   UNL     1      -5.130   3.161  11.578  1.00  0.00     0.031 C 
ATOM     41  C   UNL     1      -0.124   2.681  11.853  1.00  0.00     0.029 A 
ATOM     42  N   UNL     1      -1.095   4.146  13.235  1.00  0.00    -0.354 N 
ATOM     43  C   UNL     1      -5.359   4.826  13.130  1.00  0.00     0.074 A 
ATOM     44  C   UNL     1      -5.995   4.001  12.126  1.00  0.00     0.031 C 
ATOM     45  C   UNL     1       0.847   3.244  12.591  1.00  0.00     0.029 A 
ATOM     46  C   UNL     1       0.253   4.223  13.495  1.00  0.00     0.049 A 
ATOM     47  H   UNL     1      -1.766   4.693  13.705  1.00  0.00     0.167 HD
ATOM     48  C   UNL     1      -6.018   5.702  13.925  1.00  0.00     0.031 A 
ATOM     49  C   UNL     1       0.936   4.997  14.360  1.00  0.00     0.031 A 
ATOM     50  C   UNL     1      -5.385   6.509  14.934  1.00  0.00     0.049 A 
ATOM     51  C   UNL     1       0.181   5.957  15.239  1.00  0.00     0.074 A 
ATOM     52  C   UNL     1      -5.974   7.383  15.831  1.00  0.00     0.029 A 
ATOM     53  N   UNL     1      -4.021   6.542  15.180  1.00  0.00    -0.354 N 
ATOM     54  N   UNL     1      -1.109   6.186  15.289  1.00  0.00    -0.248 NA
ATOM     55  C   UNL     1       0.974   6.753  16.186  1.00  0.00     0.031 C 
ATOM     56  C   UNL     1      -4.961   7.975  16.592  1.00  0.00     0.029 A 
ATOM     57  C   UNL     1      -3.746   7.433  16.202  1.00  0.00     0.049 A 
ATOM     58  H   UNL     1      -3.347   6.009  14.698  1.00  0.00     0.167 HD
ATOM     59  C   UNL     1      -1.286   7.135  16.289  1.00  0.00     0.074 A 
ATOM     60  C   UNL     1       0.028   7.426  16.826  1.00  0.00     0.031 C 
ATOM     61  C   UNL     1      -2.432   7.713  16.724  1.00  0.00     0.031 A 
BRANCH  48  62
ATOM     62  C   UNL     1      -7.505   5.831  13.730  1.00  0.00    -0.014 A 
ATOM     63  C   UNL     1      -8.378   4.795  14.112  1.00  0.00     0.010 A 
ATOM     64  C   UNL     1      -8.040   7.011  13.185  1.00  0.00     0.010 A 
ATOM     65  C   UNL     1      -9.755   4.920  13.910  1.00  0.00     0.020 A 
ATOM     66  C   UNL     1      -9.420   7.151  13.007  1.00  0.00     0.020 A 
ATOM     67  C   UNL     1     -10.266   6.096  13.353  1.00  0.00     0.054 A 
BRANCH  67  68
ATOM     68  S   UNL     1     -12.059   6.237  13.116  1.00  0.00     0.124 S 
ATOM     69  O   UNL     1     -12.276   5.378  11.954  1.00  0.00    -0.237 OA
ATOM     70  O   UNL     1     -12.592   5.733  14.378  1.00  0.00    -0.237 OA
ATOM     71  O   UNL     1     -12.266   7.665  12.882  1.00  0.00    -0.744 OA
ENDBRANCH  67  68
ENDBRANCH  48  62
BRANCH  49  72
ATOM     72  C   UNL     1       2.416   4.880  14.452  1.00  0.00    -0.014 A 
ATOM     73  C   UNL     1       3.013   4.270  15.569  1.00  0.00     0.010 A 
ATOM     74  C   UNL     1       3.236   5.362  13.416  1.00  0.00     0.010 A 
ATOM     75  C   UNL     1       4.403   4.158  15.656  1.00  0.00     0.020 A 
ATOM     76  C   UNL     1       4.625   5.230  13.488  1.00  0.00     0.020 A 
ATOM     77  C   UNL     1       5.201   4.638  14.614  1.00  0.00     0.054 A 
BRANCH  77  78
ATOM     78  S   UNL     1       7.001   4.432  14.721  1.00  0.00     0.124 S 
ATOM     79  O   UNL     1       7.367   5.465  15.684  1.00  0.00    -0.237 OA
ATOM     80  O   UNL     1       7.135   3.054  15.188  1.00  0.00    -0.237 OA
ATOM     81  O   UNL     1       7.452   4.662  13.351  1.00  0.00    -0.744 OA
ENDBRANCH  77  78
ENDBRANCH  49  72
BRANCH  61  82
ATOM     82  C   UNL     1      -2.324   8.697  17.856  1.00  0.00    -0.014 A 
ATOM     83  C   UNL     1      -1.799   9.985  17.652  1.00  0.00     0.010 A 
ATOM     84  C   UNL     1      -2.805   8.344  19.131  1.00  0.00     0.010 A 
ATOM     85  C   UNL     1      -1.732  10.895  18.711  1.00  0.00     0.020 A 
ATOM     86  C   UNL     1      -2.761   9.259  20.185  1.00  0.00     0.020 A 
ATOM     87  C   UNL     1      -2.212  10.525  19.971  1.00  0.00     0.054 A 
BRANCH  87  88
ATOM     88  S   UNL     1      -2.155  11.738  21.319  1.00  0.00     0.124 S 
ATOM     89  O   UNL     1      -0.741  11.723  21.681  1.00  0.00    -0.237 OA
ATOM     90  O   UNL     1      -2.626  12.960  20.672  1.00  0.00    -0.237 OA
ATOM     91  O   UNL     1      -3.062  11.183  22.322  1.00  0.00    -0.744 OA
ENDBRANCH  87  88
ENDBRANCH  61  82
ENDBRANCH  35  36
ENDBRANCH  27  30
ENDBRANCH  25  26
ENDBRANCH  24  25
ENDBRANCH   1  24
TORSDOF 18
