REMARK SMILES COc1c(C)cccc1C(=O)NC(=S)Nc1ccc(C(=O)NCCCCNC(=O)c2ccc(-c3c4nc(c(-c5ccc(S(=O)(=O)[O-])cc5)c5ccc([nH]5)c(-c5ccc(S(=O)(=O)[O-])cc5)c5nc(c(-c6ccc(S(=O)(=O)[O-])cc6)c6ccc3[nH]6)C=C5)C=C4)cc2)cc1C
REMARK SMILES IDX 23 1 22 2 20 3 21 4 19 6 16 7 17 8 91 9 18 10 90 11 92 12
REMARK SMILES IDX 15 13 13 15 14 16 12 17 10 18 11 19 9 21 3 22 4 23 5 24 6 25
REMARK SMILES IDX 8 26 7 27 2 28 1 29 24 30 25 31 26 32 27 33 28 34 29 36
REMARK SMILES IDX 30 37 31 38 89 39 32 40 88 41 33 42 34 43 35 44 82 45 36 46
REMARK SMILES IDX 87 47 81 48 83 49 37 50 86 51 80 52 79 53 38 55 68 56 49 57
REMARK SMILES IDX 67 58 50 59 53 60 66 61 84 62 51 63 52 64 65 66 85 67 54 68
REMARK SMILES IDX 39 69 40 70 48 71 41 72 47 73 42 74 43 75 44 76 45 77 46 78
REMARK SMILES IDX 69 79 70 80 78 81 71 82 77 83 72 84 73 85 74 86 75 87 76 88
REMARK SMILES IDX 55 89 56 90 64 91 57 92 63 93 58 94 59 95 60 96 61 97 62 98
REMARK H PARENT 22 5 15 14 12 20 27 35 83 54 53 65
REMARK Flexibility Score: inf
ROOT
ATOM      1  C   UNL     1      -0.448  -0.293  -7.457  1.00  0.00     0.116 C 
ENDROOT
BRANCH   1   2
ATOM      2  N   UNL     1       0.617  -1.242  -6.901  1.00  0.00    -0.352 N 
ATOM      3  C   UNL     1       1.180  -1.783  -5.699  1.00  0.00     0.251 C 
ATOM      4  O   UNL     1       1.772  -2.855  -5.923  1.00  0.00    -0.269 OA
ATOM      5  H   UNL     1       1.102  -1.631  -7.664  1.00  0.00     0.163 HD
BRANCH   3   6
ATOM      6  C   UNL     1       1.301  -1.230  -4.052  1.00  0.00     0.040 A 
ATOM      7  C   UNL     1       1.950  -1.102  -0.512  1.00  0.00     0.043 A 
ATOM      8  C   UNL     1       1.637   0.513  -1.271  1.00  0.00     0.027 A 
ATOM      9  C   UNL     1       2.268  -2.527  -1.489  1.00  0.00    -0.027 A 
ATOM     10  C   UNL     1       1.100   0.504  -3.040  1.00  0.00     0.016 A 
ATOM     11  C   UNL     1       1.935  -2.643  -3.171  1.00  0.00     0.019 A 
ATOM     12  C   UNL     1       3.235  -3.504  -0.863  1.00  0.00     0.046 C 
BRANCH   7  13
ATOM     13  N   UNL     1       0.802  -1.627   0.338  1.00  0.00    -0.332 N 
ATOM     14  H   UNL     1       0.930  -1.438   1.295  1.00  0.00     0.169 HD
BRANCH  13  15
ATOM     15  C   UNL     1      -0.399  -2.319   0.086  1.00  0.00     0.177 C 
ATOM     16  S   UNL     1      -1.045  -3.124   1.428  1.00  0.00    -0.040 S 
BRANCH  15  17
ATOM     17  N   UNL     1      -1.248  -2.334  -1.082  1.00  0.00    -0.299 N 
ATOM     18  C   UNL     1      -1.609  -1.849  -2.474  1.00  0.00     0.261 C 
ATOM     19  O   UNL     1      -2.674  -2.174  -2.988  1.00  0.00    -0.269 OA
ATOM     20  H   UNL     1      -1.948  -2.993  -0.865  1.00  0.00     0.172 HD
BRANCH  18  21
ATOM     21  C   UNL     1      -0.638  -0.971  -3.180  1.00  0.00     0.082 A 
ATOM     22  C   UNL     1       0.715  -1.109  -2.186  1.00  0.00     0.134 A 
ATOM     23  C   UNL     1       2.578  -0.578  -2.757  1.00  0.00    -0.008 A 
ATOM     24  C   UNL     1       3.983  -0.375  -2.092  1.00  0.00     0.048 C 
ATOM     25  C   UNL     1       2.740   0.304  -4.316  1.00  0.00     0.007 A 
ATOM     26  C   UNL     1      -0.412   0.010  -4.592  1.00  0.00     0.018 A 
ATOM     27  C   UNL     1       1.225   0.623  -5.158  1.00  0.00     0.001 A 
BRANCH  22  28
ATOM     28  O   UNL     1      -0.448   0.092  -1.494  1.00  0.00    -0.496 OA
ATOM     29  C   UNL     1      -0.696   0.572  -0.152  1.00  0.00     0.278 C 
ENDBRANCH  22  28
ENDBRANCH  18  21
ENDBRANCH  15  17
ENDBRANCH  13  15
ENDBRANCH   7  13
ENDBRANCH   3   6
ENDBRANCH   1   2
BRANCH   1  30
ATOM     30  C   UNL     1      -0.263   1.264  -7.676  1.00  0.00     0.023 C 
BRANCH  30  31
ATOM     31  C   UNL     1       0.405   1.712  -8.975  1.00  0.00     0.023 C 
BRANCH  31  32
ATOM     32  C   UNL     1      -0.530   1.507 -10.135  1.00  0.00     0.116 C 
BRANCH  32  33
ATOM     33  N   UNL     1      -1.609   2.476 -10.236  1.00  0.00    -0.352 N 
ATOM     34  C   UNL     1      -2.370   2.672 -11.385  1.00  0.00     0.251 C 
ATOM     35  H   UNL     1      -1.813   3.027  -9.446  1.00  0.00     0.163 HD
ATOM     36  O   UNL     1      -2.551   3.763 -11.905  1.00  0.00    -0.269 OA
BRANCH  34  37
ATOM     37  C   UNL     1      -3.040   1.460 -11.910  1.00  0.00     0.039 A 
ATOM     38  C   UNL     1      -4.436   1.380 -11.828  1.00  0.00     0.014 A 
ATOM     39  C   UNL     1      -2.262   0.319 -11.986  1.00  0.00     0.014 A 
ATOM     40  C   UNL     1      -5.011   0.150 -11.550  1.00  0.00     0.010 A 
ATOM     41  C   UNL     1      -2.768  -0.794 -11.396  1.00  0.00     0.010 A 
ATOM     42  C   UNL     1      -4.144  -0.872 -11.189  1.00  0.00    -0.014 A 
BRANCH  42  43
ATOM     43  C   UNL     1      -4.512  -2.230 -10.885  1.00  0.00     0.031 A 
ATOM     44  C   UNL     1      -4.559  -3.046 -12.123  1.00  0.00     0.074 A 
ATOM     45  C   UNL     1      -4.410  -2.555  -9.572  1.00  0.00     0.049 A 
ATOM     46  N   UNL     1      -5.129  -4.177 -12.249  1.00  0.00    -0.248 NA
ATOM     47  C   UNL     1      -3.975  -2.611 -13.415  1.00  0.00     0.031 C 
ATOM     48  C   UNL     1      -4.350  -3.827  -8.859  1.00  0.00     0.029 A 
ATOM     49  N   UNL     1      -4.593  -1.637  -8.527  1.00  0.00    -0.354 N 
ATOM     50  C   UNL     1      -4.531  -4.787 -13.339  1.00  0.00     0.074 A 
ATOM     51  C   UNL     1      -4.006  -3.729 -14.145  1.00  0.00     0.031 C 
ATOM     52  C   UNL     1      -4.914  -3.666  -7.641  1.00  0.00     0.029 A 
ATOM     53  C   UNL     1      -5.394  -2.292  -7.571  1.00  0.00     0.049 A 
ATOM     54  H   UNL     1      -4.236  -0.721  -8.473  1.00  0.00     0.167 HD
ATOM     55  C   UNL     1      -4.346  -6.132 -13.273  1.00  0.00     0.031 A 
ATOM     56  C   UNL     1      -6.706  -1.913  -7.515  1.00  0.00     0.031 A 
ATOM     57  C   UNL     1      -4.914  -6.610 -12.005  1.00  0.00     0.049 A 
ATOM     58  C   UNL     1      -7.579  -2.971  -8.176  1.00  0.00     0.074 A 
ATOM     59  C   UNL     1      -4.354  -6.932 -10.782  1.00  0.00     0.029 A 
ATOM     60  N   UNL     1      -6.247  -6.317 -11.750  1.00  0.00    -0.354 N 
ATOM     61  N   UNL     1      -7.167  -3.838  -9.072  1.00  0.00    -0.248 NA
ATOM     62  C   UNL     1      -8.955  -3.212  -7.774  1.00  0.00     0.031 C 
ATOM     63  C   UNL     1      -5.372  -6.766  -9.784  1.00  0.00     0.029 A 
ATOM     64  C   UNL     1      -6.529  -6.311 -10.397  1.00  0.00     0.049 A 
ATOM     65  H   UNL     1      -6.913  -6.135 -12.451  1.00  0.00     0.167 HD
ATOM     66  C   UNL     1      -8.113  -4.817  -9.259  1.00  0.00     0.074 A 
ATOM     67  C   UNL     1      -9.247  -4.314  -8.487  1.00  0.00     0.031 C 
ATOM     68  C   UNL     1      -7.893  -5.978  -9.972  1.00  0.00     0.031 A 
BRANCH  55  69
ATOM     69  C   UNL     1      -3.472  -6.983 -14.163  1.00  0.00    -0.014 A 
ATOM     70  C   UNL     1      -3.293  -8.331 -13.788  1.00  0.00     0.010 A 
ATOM     71  C   UNL     1      -2.799  -6.572 -15.334  1.00  0.00     0.010 A 
ATOM     72  C   UNL     1      -2.490  -9.216 -14.514  1.00  0.00     0.020 A 
ATOM     73  C   UNL     1      -1.988  -7.456 -16.080  1.00  0.00     0.020 A 
ATOM     74  C   UNL     1      -1.840  -8.776 -15.661  1.00  0.00     0.054 A 
BRANCH  74  75
ATOM     75  S   UNL     1      -0.832  -9.968 -16.584  1.00  0.00     0.124 S 
ATOM     76  O   UNL     1       0.186 -10.342 -15.605  1.00  0.00    -0.237 OA
ATOM     77  O   UNL     1      -1.801 -11.011 -16.911  1.00  0.00    -0.237 OA
ATOM     78  O   UNL     1      -0.339  -9.200 -17.725  1.00  0.00    -0.744 OA
ENDBRANCH  74  75
ENDBRANCH  55  69
BRANCH  56  79
ATOM     79  C   UNL     1      -6.809  -0.406  -7.560  1.00  0.00    -0.014 A 
ATOM     80  C   UNL     1      -6.118   0.295  -6.531  1.00  0.00     0.010 A 
ATOM     81  C   UNL     1      -7.087   0.292  -8.745  1.00  0.00     0.010 A 
ATOM     82  C   UNL     1      -5.541   1.552  -6.758  1.00  0.00     0.020 A 
ATOM     83  C   UNL     1      -6.547   1.581  -8.956  1.00  0.00     0.020 A 
ATOM     84  C   UNL     1      -5.727   2.172  -7.989  1.00  0.00     0.054 A 
BRANCH  84  85
ATOM     85  S   UNL     1      -4.786   3.689  -8.341  1.00  0.00     0.124 S 
ATOM     86  O   UNL     1      -5.334   4.624  -7.364  1.00  0.00    -0.237 OA
ATOM     87  O   UNL     1      -3.401   3.269  -8.105  1.00  0.00    -0.237 OA
ATOM     88  O   UNL     1      -5.115   3.974  -9.733  1.00  0.00    -0.744 OA
ENDBRANCH  84  85
ENDBRANCH  56  79
BRANCH  68  89
ATOM     89  C   UNL     1      -8.976  -6.957 -10.405  1.00  0.00    -0.014 A 
ATOM     90  C   UNL     1     -10.219  -7.080  -9.787  1.00  0.00     0.010 A 
ATOM     91  C   UNL     1      -8.752  -7.825 -11.509  1.00  0.00     0.010 A 
ATOM     92  C   UNL     1     -11.227  -7.886 -10.323  1.00  0.00     0.020 A 
ATOM     93  C   UNL     1      -9.734  -8.653 -12.046  1.00  0.00     0.020 A 
ATOM     94  C   UNL     1     -10.983  -8.654 -11.459  1.00  0.00     0.054 A 
BRANCH  94  95
ATOM     95  S   UNL     1     -12.300  -9.702 -12.091  1.00  0.00     0.124 S 
ATOM     96  O   UNL     1     -12.646 -10.496 -10.915  1.00  0.00    -0.237 OA
ATOM     97  O   UNL     1     -13.299  -8.719 -12.502  1.00  0.00    -0.237 OA
ATOM     98  O   UNL     1     -11.669 -10.443 -13.180  1.00  0.00    -0.744 OA
ENDBRANCH  94  95
ENDBRANCH  68  89
ENDBRANCH  42  43
ENDBRANCH  34  37
ENDBRANCH  32  33
ENDBRANCH  31  32
ENDBRANCH  30  31
ENDBRANCH   1  30
TORSDOF 19
