REMARK SMILES CCC[C@@](C)(Nc1cc(C)cc(C)c1)C(=O)NCCCCNC(=O)c1ccc(-c2c3nc(c(-c4ccc(S(=O)(=O)[O-])cc4)c4ccc([nH]4)c(-c4ccc(S(=O)(=O)[O-])cc4)c4nc(c(-c5ccc(S(=O)(=O)[O-])cc5)c5ccc2[nH]5)C=C4)C=C3)cc1
REMARK SMILES IDX 20 1 19 2 18 3 17 4 15 5 16 6 4 8 5 9 3 10 2 11 1 12 6 13
REMARK SMILES IDX 7 15 8 16 14 17 9 18 12 19 10 20 11 21 13 22 21 23 22 24
REMARK SMILES IDX 23 25 24 27 25 28 26 29 84 30 27 31 83 32 28 33 29 34 30 35
REMARK SMILES IDX 77 36 31 37 82 38 76 39 78 40 32 41 81 42 75 43 74 44 33 46
REMARK SMILES IDX 63 47 44 48 62 49 45 50 48 51 61 52 79 53 46 54 47 55 60 57
REMARK SMILES IDX 80 58 49 59 34 60 35 61 43 62 36 63 42 64 37 65 38 66 39 67
REMARK SMILES IDX 40 68 41 69 64 70 65 71 73 72 66 73 72 74 67 75 68 76 69 77
REMARK SMILES IDX 70 78 71 79 50 80 51 81 59 82 52 83 58 84 53 85 54 86 55 87
REMARK SMILES IDX 56 88 57 89
REMARK H PARENT 17 7 6 14 22 26 78 45 48 56
REMARK Flexibility Score: inf
ROOT
ATOM      1  C   UNL     1       0.044   6.581   0.663  1.00  0.00     0.023 C 
ENDROOT
BRANCH   1   2
ATOM      2  C   UNL     1      -0.476   5.820   1.879  1.00  0.00     0.023 C 
BRANCH   2   3
ATOM      3  C   UNL     1      -1.210   4.513   1.573  1.00  0.00     0.116 C 
BRANCH   3   4
ATOM      4  N   UNL     1      -0.551   3.667   0.596  1.00  0.00    -0.354 N 
ATOM      5  C   UNL     1       0.258   2.575   0.711  1.00  0.00     0.245 C 
ATOM      6  O   UNL     1       0.770   2.198  -0.349  1.00  0.00    -0.272 OA
ATOM      7  H   UNL     1      -0.722   3.934  -0.336  1.00  0.00     0.163 HD
BRANCH   5   8
ATOM      8  C   UNL     1       0.549   1.864   2.064  1.00  0.00     0.114 C 
ATOM      9  C   UNL     1      -0.782   1.403   2.702  1.00  0.00     0.045 C 
BRANCH   8  10
ATOM     10  C   UNL     1       1.460   0.601   1.878  1.00  0.00     0.038 C 
BRANCH  10  11
ATOM     11  C   UNL     1       0.846  -0.674   1.263  1.00  0.00    -0.000 C 
ATOM     12  C   UNL     1       0.843  -0.722  -0.255  1.00  0.00     0.004 C 
ENDBRANCH  10  11
ENDBRANCH   8  10
BRANCH   8  13
ATOM     13  N   UNL     1       1.242   2.734   3.058  1.00  0.00    -0.371 N 
ATOM     14  H   UNL     1       0.885   2.688   3.974  1.00  0.00     0.161 HD
BRANCH  13  15
ATOM     15  C   UNL     1       2.316   3.598   2.888  1.00  0.00     0.035 A 
ATOM     16  C   UNL     1       2.631   4.271   1.703  1.00  0.00     0.029 A 
ATOM     17  C   UNL     1       3.106   3.909   4.009  1.00  0.00     0.029 A 
ATOM     18  C   UNL     1       3.593   5.296   1.651  1.00  0.00    -0.049 A 
ATOM     19  C   UNL     1       4.140   4.860   3.962  1.00  0.00    -0.049 A 
ATOM     20  C   UNL     1       3.741   6.150   0.423  1.00  0.00     0.044 C 
ATOM     21  C   UNL     1       4.345   5.584   2.788  1.00  0.00     0.007 A 
ATOM     22  C   UNL     1       4.987   5.150   5.165  1.00  0.00     0.044 C 
ENDBRANCH  13  15
ENDBRANCH   8  13
ENDBRANCH   5   8
ENDBRANCH   3   4
ENDBRANCH   2   3
ENDBRANCH   1   2
BRANCH   1  23
ATOM     23  C   UNL     1      -1.028   6.982  -0.336  1.00  0.00     0.116 C 
BRANCH  23  24
ATOM     24  N   UNL     1      -1.911   8.007   0.194  1.00  0.00    -0.352 N 
ATOM     25  C   UNL     1      -2.067   9.313  -0.205  1.00  0.00     0.251 C 
ATOM     26  H   UNL     1      -2.479   7.726   0.947  1.00  0.00     0.163 HD
ATOM     27  O   UNL     1      -2.692  10.097   0.502  1.00  0.00    -0.269 OA
BRANCH  25  28
ATOM     28  C   UNL     1      -1.467   9.774  -1.478  1.00  0.00     0.039 A 
ATOM     29  C   UNL     1      -0.843  11.024  -1.527  1.00  0.00     0.014 A 
ATOM     30  C   UNL     1      -1.530   8.981  -2.626  1.00  0.00     0.014 A 
ATOM     31  C   UNL     1      -0.235  11.450  -2.712  1.00  0.00     0.010 A 
ATOM     32  C   UNL     1      -0.841   9.362  -3.772  1.00  0.00     0.010 A 
ATOM     33  C   UNL     1      -0.204  10.610  -3.836  1.00  0.00    -0.014 A 
BRANCH  33  34
ATOM     34  C   UNL     1       0.441  11.019  -5.110  1.00  0.00     0.031 A 
ATOM     35  C   UNL     1      -0.391  11.117  -6.363  1.00  0.00     0.074 A 
ATOM     36  C   UNL     1       1.773  11.219  -5.164  1.00  0.00     0.049 A 
ATOM     37  N   UNL     1      -0.007  11.317  -7.597  1.00  0.00    -0.248 NA
ATOM     38  C   UNL     1      -1.844  10.927  -6.211  1.00  0.00     0.031 C 
ATOM     39  C   UNL     1       2.695  11.123  -4.030  1.00  0.00     0.029 A 
ATOM     40  N   UNL     1       2.586  11.531  -6.226  1.00  0.00    -0.354 N 
ATOM     41  C   UNL     1      -1.162  11.239  -8.368  1.00  0.00     0.074 A 
ATOM     42  C   UNL     1      -2.252  10.927  -7.471  1.00  0.00     0.031 C 
ATOM     43  C   UNL     1       3.942  11.392  -4.452  1.00  0.00     0.029 A 
ATOM     44  C   UNL     1       3.916  11.633  -5.892  1.00  0.00     0.049 A 
ATOM     45  H   UNL     1       2.248  11.669  -7.140  1.00  0.00     0.167 HD
ATOM     46  C   UNL     1      -1.308  11.431  -9.701  1.00  0.00     0.031 A 
ATOM     47  C   UNL     1       4.996  11.879  -6.660  1.00  0.00     0.031 A 
ATOM     48  C   UNL     1      -0.228  11.778 -10.583  1.00  0.00     0.049 A 
ATOM     49  C   UNL     1       4.810  12.098  -8.137  1.00  0.00     0.074 A 
ATOM     50  C   UNL     1      -0.280  12.058 -11.937  1.00  0.00     0.029 A 
ATOM     51  N   UNL     1       1.098  11.901 -10.197  1.00  0.00    -0.354 N 
ATOM     52  N   UNL     1       3.702  12.070  -8.840  1.00  0.00    -0.248 NA
ATOM     53  C   UNL     1       6.016  12.389  -8.923  1.00  0.00     0.031 C 
ATOM     54  C   UNL     1       1.023  12.309 -12.379  1.00  0.00     0.029 A 
ATOM     55  C   UNL     1       1.878  12.238 -11.290  1.00  0.00     0.049 A 
ATOM     56  H   UNL     1       1.435  11.769  -9.282  1.00  0.00     0.167 HD
ATOM     57  C   UNL     1       4.075  12.367 -10.146  1.00  0.00     0.074 A 
ATOM     58  C   UNL     1       5.508  12.582 -10.133  1.00  0.00     0.031 C 
ATOM     59  C   UNL     1       3.301  12.457 -11.255  1.00  0.00     0.031 A 
BRANCH  46  60
ATOM     60  C   UNL     1      -2.688  11.268 -10.281  1.00  0.00    -0.014 A 
ATOM     61  C   UNL     1      -3.709  12.194 -10.002  1.00  0.00     0.010 A 
ATOM     62  C   UNL     1      -2.962  10.189 -11.142  1.00  0.00     0.010 A 
ATOM     63  C   UNL     1      -4.990  12.019 -10.532  1.00  0.00     0.020 A 
ATOM     64  C   UNL     1      -4.233  10.026 -11.699  1.00  0.00     0.020 A 
ATOM     65  C   UNL     1      -5.245  10.933 -11.374  1.00  0.00     0.054 A 
BRANCH  65  66
ATOM     66  S   UNL     1      -6.912  10.739 -12.063  1.00  0.00     0.124 S 
ATOM     67  O   UNL     1      -7.664  10.270 -10.902  1.00  0.00    -0.237 OA
ATOM     68  O   UNL     1      -7.233  12.091 -12.513  1.00  0.00    -0.237 OA
ATOM     69  O   UNL     1      -6.735   9.756 -13.129  1.00  0.00    -0.744 OA
ENDBRANCH  65  66
ENDBRANCH  46  60
BRANCH  47  70
ATOM     70  C   UNL     1       6.348  11.946  -6.041  1.00  0.00    -0.014 A 
ATOM     71  C   UNL     1       7.012  13.179  -5.915  1.00  0.00     0.010 A 
ATOM     72  C   UNL     1       6.973  10.781  -5.559  1.00  0.00     0.010 A 
ATOM     73  C   UNL     1       8.281  13.245  -5.333  1.00  0.00     0.020 A 
ATOM     74  C   UNL     1       8.231  10.847  -4.952  1.00  0.00     0.020 A 
ATOM     75  C   UNL     1       8.883  12.078  -4.853  1.00  0.00     0.054 A 
BRANCH  75  76
ATOM     76  S   UNL     1      10.506  12.195  -4.052  1.00  0.00     0.124 S 
ATOM     77  O   UNL     1      11.393  12.401  -5.192  1.00  0.00    -0.237 OA
ATOM     78  O   UNL     1      10.339  13.344  -3.164  1.00  0.00    -0.237 OA
ATOM     79  O   UNL     1      10.646  10.909  -3.372  1.00  0.00    -0.744 OA
ENDBRANCH  75  76
ENDBRANCH  47  70
BRANCH  59  80
ATOM     80  C   UNL     1       3.974  12.841 -12.544  1.00  0.00    -0.014 A 
ATOM     81  C   UNL     1       4.777  11.927 -13.248  1.00  0.00     0.010 A 
ATOM     82  C   UNL     1       3.730  14.112 -13.098  1.00  0.00     0.010 A 
ATOM     83  C   UNL     1       5.340  12.284 -14.476  1.00  0.00     0.020 A 
ATOM     84  C   UNL     1       4.270  14.463 -14.337  1.00  0.00     0.020 A 
ATOM     85  C   UNL     1       5.080  13.549 -15.014  1.00  0.00     0.054 A 
BRANCH  85  86
ATOM     86  S   UNL     1       5.768  13.964 -16.640  1.00  0.00     0.124 S 
ATOM     87  O   UNL     1       7.178  14.183 -16.327  1.00  0.00    -0.237 OA
ATOM     88  O   UNL     1       5.478  12.768 -17.427  1.00  0.00    -0.237 OA
ATOM     89  O   UNL     1       5.025  15.158 -17.036  1.00  0.00    -0.744 OA
ENDBRANCH  85  86
ENDBRANCH  59  80
ENDBRANCH  33  34
ENDBRANCH  25  28
ENDBRANCH  23  24
ENDBRANCH   1  23
TORSDOF 18
