REMARK SMILES Cc1cc(Cl)ccc1OCC(=O)Nc1ccc(CC(=O)NCCCCNC(=O)c2ccc(-c3c4nc(c(-c5ccc(S(=O)(=O)[O-])cc5)c5ccc([nH]5)c(-c5ccc(S(=O)(=O)[O-])cc5)c5nc(c(-c6ccc(S(=O)(=O)[O-])cc6)c6ccc3[nH]6)C=C5)C=C4)cc2)cc1
REMARK SMILES IDX 22 1 21 2 19 3 20 4 18 6 17 7 14 8 15 9 90 10 16 11 89 12
REMARK SMILES IDX 13 13 11 14 12 15 10 17 9 18 8 19 1 20 2 21 3 22 4 23 7 24
REMARK SMILES IDX 5 25 6 26 23 27 24 28 25 29 26 30 27 31 28 33 29 34 30 35
REMARK SMILES IDX 88 36 31 37 87 38 32 39 33 40 34 41 81 42 35 43 86 44 80 45
REMARK SMILES IDX 82 46 36 47 85 48 79 49 78 50 37 52 67 53 48 54 66 55 49 56
REMARK SMILES IDX 52 57 65 58 83 59 50 60 51 61 64 63 84 64 53 65 38 66 39 67
REMARK SMILES IDX 47 68 40 69 46 70 41 71 42 72 43 73 44 74 45 75 68 76 69 77
REMARK SMILES IDX 77 78 70 79 76 80 71 81 72 82 73 83 74 84 75 85 54 86 55 87
REMARK SMILES IDX 63 88 56 89 62 90 57 91 58 92 59 93 60 94 61 95
REMARK H PARENT 21 5 13 16 26 32 82 51 52 62
REMARK Flexibility Score: inf
ROOT
ATOM      1  C   UNL     1      -2.265  -5.655   4.258  1.00  0.00     0.116 C 
ENDROOT
BRANCH   1   2
ATOM      2  N   UNL     1      -3.347  -6.222   5.041  1.00  0.00    -0.356 N 
ATOM      3  C   UNL     1      -4.683  -6.274   4.760  1.00  0.00     0.224 C 
ATOM      4  O   UNL     1      -5.446  -6.752   5.601  1.00  0.00    -0.275 OA
ATOM      5  H   UNL     1      -3.081  -6.627   5.898  1.00  0.00     0.163 HD
BRANCH   3   6
ATOM      6  C   UNL     1      -5.201  -5.799   3.416  1.00  0.00     0.135 C 
BRANCH   6   7
ATOM      7  C   UNL     1      -5.075  -4.314   3.198  1.00  0.00    -0.039 A 
ATOM      8  C   UNL     1      -4.748  -1.552   2.786  1.00  0.00     0.041 A 
ATOM      9  C   UNL     1      -5.523  -2.018   3.851  1.00  0.00     0.026 A 
ATOM     10  C   UNL     1      -4.099  -2.473   1.976  1.00  0.00     0.026 A 
ATOM     11  C   UNL     1      -5.699  -3.392   4.047  1.00  0.00     0.006 A 
ATOM     12  C   UNL     1      -4.283  -3.838   2.152  1.00  0.00     0.006 A 
BRANCH   8  13
ATOM     13  N   UNL     1      -4.639  -0.169   2.601  1.00  0.00    -0.323 N 
ATOM     14  C   UNL     1      -4.393   0.569   1.475  1.00  0.00     0.262 C 
ATOM     15  O   UNL     1      -4.329   1.796   1.608  1.00  0.00    -0.271 OA
ATOM     16  H   UNL     1      -4.759   0.364   3.420  1.00  0.00     0.170 HD
BRANCH  14  17
ATOM     17  C   UNL     1      -4.405  -0.068   0.063  1.00  0.00     0.329 C 
BRANCH  17  18
ATOM     18  O   UNL     1      -3.334  -0.714  -0.595  1.00  0.00    -0.483 OA
BRANCH  18  19
ATOM     19  C   UNL     1      -2.040  -0.363  -0.357  1.00  0.00     0.123 A 
ATOM     20  C   UNL     1      -2.267   2.195  -0.545  1.00  0.00     0.048 C 
ATOM     21  C   UNL     1      -1.502   0.927  -0.313  1.00  0.00    -0.007 A 
ATOM     22  C   UNL     1      -0.117   1.070  -0.077  1.00  0.00     0.027 A 
ATOM     23  C   UNL     1       0.720  -0.039   0.040  1.00  0.00     0.041 A 
ATOM     24  C   UNL     1      -1.175  -1.472  -0.274  1.00  0.00     0.048 A 
ATOM     25  Cl  UNL     1       2.409   0.181   0.273  1.00  0.00    -0.084 Cl
ATOM     26  C   UNL     1       0.196  -1.317  -0.069  1.00  0.00     0.024 A 
ENDBRANCH  18  19
ENDBRANCH  17  18
ENDBRANCH  14  17
ENDBRANCH   8  13
ENDBRANCH   6   7
ENDBRANCH   3   6
ENDBRANCH   1   2
BRANCH   1  27
ATOM     27  C   UNL     1      -1.844  -4.279   4.777  1.00  0.00     0.023 C 
BRANCH  27  28
ATOM     28  C   UNL     1      -1.160  -4.302   6.147  1.00  0.00     0.023 C 
BRANCH  28  29
ATOM     29  C   UNL     1       0.084  -5.178   6.234  1.00  0.00     0.116 C 
BRANCH  29  30
ATOM     30  N   UNL     1       1.127  -4.780   5.304  1.00  0.00    -0.352 N 
ATOM     31  C   UNL     1       2.487  -4.758   5.494  1.00  0.00     0.251 C 
ATOM     32  H   UNL     1       0.817  -4.485   4.417  1.00  0.00     0.163 HD
ATOM     33  O   UNL     1       3.215  -4.266   4.634  1.00  0.00    -0.269 OA
BRANCH  31  34
ATOM     34  C   UNL     1       3.069  -5.292   6.746  1.00  0.00     0.039 A 
ATOM     35  C   UNL     1       4.066  -4.556   7.390  1.00  0.00     0.014 A 
ATOM     36  C   UNL     1       2.631  -6.503   7.291  1.00  0.00     0.014 A 
ATOM     37  C   UNL     1       4.582  -5.008   8.606  1.00  0.00     0.010 A 
ATOM     38  C   UNL     1       3.088  -6.909   8.543  1.00  0.00     0.010 A 
ATOM     39  C   UNL     1       4.074  -6.170   9.212  1.00  0.00    -0.014 A 
BRANCH  39  40
ATOM     40  C   UNL     1       4.570  -6.613  10.542  1.00  0.00     0.031 A 
ATOM     41  C   UNL     1       5.288  -7.930  10.690  1.00  0.00     0.074 A 
ATOM     42  C   UNL     1       4.359  -5.835  11.623  1.00  0.00     0.049 A 
ATOM     43  N   UNL     1       5.804  -8.469  11.765  1.00  0.00    -0.248 NA
ATOM     44  C   UNL     1       5.429  -8.757   9.480  1.00  0.00     0.031 C 
ATOM     45  C   UNL     1       3.639  -4.558  11.622  1.00  0.00     0.029 A 
ATOM     46  N   UNL     1       4.738  -5.997  12.933  1.00  0.00    -0.354 N 
ATOM     47  C   UNL     1       6.337  -9.688  11.361  1.00  0.00     0.074 A 
ATOM     48  C   UNL     1       6.017  -9.843   9.959  1.00  0.00     0.031 C 
ATOM     49  C   UNL     1       3.670  -4.034  12.858  1.00  0.00     0.029 A 
ATOM     50  C   UNL     1       4.372  -4.951  13.748  1.00  0.00     0.049 A 
ATOM     51  H   UNL     1       5.226  -6.788  13.258  1.00  0.00     0.167 HD
ATOM     52  C   UNL     1       7.056 -10.584  12.079  1.00  0.00     0.031 A 
ATOM     53  C   UNL     1       4.580  -4.751  15.064  1.00  0.00     0.031 A 
ATOM     54  C   UNL     1       7.371 -10.432  13.475  1.00  0.00     0.049 A 
ATOM     55  C   UNL     1       5.349  -5.782  15.847  1.00  0.00     0.074 A 
ATOM     56  C   UNL     1       8.111 -11.275  14.287  1.00  0.00     0.029 A 
ATOM     57  N   UNL     1       6.969  -9.367  14.267  1.00  0.00    -0.354 N 
ATOM     58  N   UNL     1       5.894  -6.901  15.430  1.00  0.00    -0.248 NA
ATOM     59  C   UNL     1       5.545  -5.514  17.279  1.00  0.00     0.031 C 
ATOM     60  C   UNL     1       8.115 -10.744  15.581  1.00  0.00     0.029 A 
ATOM     61  C   UNL     1       7.432  -9.539  15.561  1.00  0.00     0.049 A 
ATOM     62  H   UNL     1       6.433  -8.602  13.955  1.00  0.00     0.167 HD
ATOM     63  C   UNL     1       6.527  -7.450  16.540  1.00  0.00     0.074 A 
ATOM     64  C   UNL     1       6.317  -6.529  17.638  1.00  0.00     0.031 C 
ATOM     65  C   UNL     1       7.219  -8.612  16.643  1.00  0.00     0.031 A 
BRANCH  52  66
ATOM     66  C   UNL     1       7.569 -11.805  11.358  1.00  0.00    -0.014 A 
ATOM     67  C   UNL     1       8.584 -11.693  10.389  1.00  0.00     0.010 A 
ATOM     68  C   UNL     1       7.079 -13.081  11.689  1.00  0.00     0.010 A 
ATOM     69  C   UNL     1       9.074 -12.829   9.741  1.00  0.00     0.020 A 
ATOM     70  C   UNL     1       7.589 -14.224  11.064  1.00  0.00     0.020 A 
ATOM     71  C   UNL     1       8.575 -14.088  10.085  1.00  0.00     0.054 A 
BRANCH  71  72
ATOM     72  S   UNL     1       9.261 -15.547   9.254  1.00  0.00     0.124 S 
ATOM     73  O   UNL     1       8.727 -15.403   7.902  1.00  0.00    -0.237 OA
ATOM     74  O   UNL     1      10.701 -15.341   9.384  1.00  0.00    -0.237 OA
ATOM     75  O   UNL     1       8.723 -16.669  10.019  1.00  0.00    -0.744 OA
ENDBRANCH  71  72
ENDBRANCH  52  66
BRANCH  53  76
ATOM     76  C   UNL     1       4.068  -3.521  15.733  1.00  0.00    -0.014 A 
ATOM     77  C   UNL     1       4.958  -2.563  16.253  1.00  0.00     0.010 A 
ATOM     78  C   UNL     1       2.685  -3.320  15.889  1.00  0.00     0.010 A 
ATOM     79  C   UNL     1       4.477  -1.455  16.956  1.00  0.00     0.020 A 
ATOM     80  C   UNL     1       2.198  -2.194  16.559  1.00  0.00     0.020 A 
ATOM     81  C   UNL     1       3.099  -1.280  17.109  1.00  0.00     0.054 A 
BRANCH  81  82
ATOM     82  S   UNL     1       2.495   0.166  18.023  1.00  0.00     0.124 S 
ATOM     83  O   UNL     1       2.825  -0.187  19.400  1.00  0.00    -0.237 OA
ATOM     84  O   UNL     1       3.276   1.255  17.443  1.00  0.00    -0.237 OA
ATOM     85  O   UNL     1       1.068   0.197  17.708  1.00  0.00    -0.744 OA
ENDBRANCH  81  82
ENDBRANCH  53  76
BRANCH  65  86
ATOM     86  C   UNL     1       7.840  -8.928  17.980  1.00  0.00    -0.014 A 
ATOM     87  C   UNL     1       7.051  -9.256  19.097  1.00  0.00     0.010 A 
ATOM     88  C   UNL     1       9.241  -8.919  18.111  1.00  0.00     0.010 A 
ATOM     89  C   UNL     1       7.649  -9.517  20.332  1.00  0.00     0.020 A 
ATOM     90  C   UNL     1       9.845  -9.213  19.336  1.00  0.00     0.020 A 
ATOM     91  C   UNL     1       9.043  -9.490  20.445  1.00  0.00     0.054 A 
BRANCH  91  92
ATOM     92  S   UNL     1       9.795  -9.849  22.055  1.00  0.00     0.124 S 
ATOM     93  O   UNL     1       9.489  -8.638  22.811  1.00  0.00    -0.237 OA
ATOM     94  O   UNL     1       9.083 -11.052  22.480  1.00  0.00    -0.237 OA
ATOM     95  O   UNL     1      11.209 -10.048  21.742  1.00  0.00    -0.744 OA
ENDBRANCH  91  92
ENDBRANCH  65  86
ENDBRANCH  39  40
ENDBRANCH  31  34
ENDBRANCH  29  30
ENDBRANCH  28  29
ENDBRANCH  27  28
ENDBRANCH   1  27
TORSDOF 19
