REMARK SMILES C[C@@H](CCC(=O)NCCCCNC(=O)c1ccc(-c2c3nc(c(-c4ccc(S(=O)(=O)[O-])cc4)c4ccc([nH]4)c(-c4ccc(S(=O)(=O)[O-])cc4)c4nc(c(-c5ccc(S(=O)(=O)[O-])cc5)c5ccc2[nH]5)C=C4)C=C3)cc1)[C@@H]1CC[C@H]2[C@@H]3CC[C@H]4CC(=O)CC[C@@]4(C)[C@H]3CC(=O)[C@@]21C
REMARK SMILES IDX 9 1 8 2 7 3 5 4 6 5 4 7 3 8 2 9 1 10 75 11 76 12 94 13 77 14
REMARK SMILES IDX 78 15 92 16 95 17 79 18 91 19 93 20 80 21 90 22 81 23 88 24
REMARK SMILES IDX 82 25 87 26 89 27 83 28 86 29 84 30 85 31 10 32 11 33 12 34
REMARK SMILES IDX 13 35 14 37 15 38 16 39 74 40 17 41 73 42 18 43 19 44 20 45
REMARK SMILES IDX 67 46 21 47 72 48 66 49 68 50 22 51 71 52 65 53 64 54 23 56
REMARK SMILES IDX 53 57 34 58 52 59 35 60 38 61 51 62 69 63 36 64 37 65 50 67
REMARK SMILES IDX 70 68 39 69 24 70 25 71 33 72 26 73 32 74 27 75 28 76 29 77
REMARK SMILES IDX 30 78 31 79 54 80 55 81 63 82 56 83 62 84 57 85 58 86 59 87
REMARK SMILES IDX 60 88 61 89 40 90 41 91 49 92 42 93 48 94 43 95 44 96 45 97
REMARK SMILES IDX 46 98 47 99
REMARK H PARENT 7 6 12 36 68 55 38 66
REMARK Flexibility Score: inf
ROOT
ATOM      1  C   UNL     1       0.099   1.086  -2.069  1.00  0.00     0.023 C 
ENDROOT
BRANCH   1   2
ATOM      2  C   UNL     1       1.497   0.430  -1.992  1.00  0.00     0.116 C 
BRANCH   2   3
ATOM      3  N   UNL     1       1.664  -0.607  -0.977  1.00  0.00    -0.356 N 
ATOM      4  C   UNL     1       1.790  -1.964  -0.987  1.00  0.00     0.220 C 
ATOM      5  O   UNL     1       2.100  -2.568   0.045  1.00  0.00    -0.275 OA
ATOM      6  H   UNL     1       1.693  -0.237  -0.065  1.00  0.00     0.163 HD
BRANCH   4   7
ATOM      7  C   UNL     1       1.494  -2.765  -2.212  1.00  0.00     0.100 C 
BRANCH   7   8
ATOM      8  C   UNL     1       0.234  -3.595  -1.988  1.00  0.00     0.013 C 
BRANCH   8   9
ATOM      9  C   UNL     1      -1.095  -2.846  -1.737  1.00  0.00    -0.010 C 
ATOM     10  C   UNL     1      -1.403  -1.826  -2.835  1.00  0.00     0.008 C 
BRANCH   9  11
ATOM     11  C   UNL     1      -1.592  -2.688  -0.224  1.00  0.00     0.005 C 
ATOM     12  C   UNL     1      -3.163  -2.934  -0.361  1.00  0.00     0.005 C 
ATOM     13  C   UNL     1      -1.576  -1.558   0.943  1.00  0.00     0.032 C 
ATOM     14  C   UNL     1      -3.889  -1.899   0.467  1.00  0.00     0.005 C 
ATOM     15  C   UNL     1      -2.856  -0.796   0.572  1.00  0.00     0.006 C 
ATOM     16  C   UNL     1      -0.553  -0.497   1.411  1.00  0.00     0.139 C 
ATOM     17  C   UNL     1      -1.650  -2.388   2.273  1.00  0.00     0.020 C 
ATOM     18  C   UNL     1      -3.378   0.384   1.394  1.00  0.00    -0.003 C 
ATOM     19  C   UNL     1      -1.049   0.594   2.381  1.00  0.00     0.080 C 
ATOM     20  O   UNL     1       0.661  -0.577   1.256  1.00  0.00    -0.299 OA
ATOM     21  C   UNL     1      -4.339   1.142   0.453  1.00  0.00     0.004 C 
ATOM     22  C   UNL     1      -2.265   1.330   1.840  1.00  0.00     0.006 C 
ATOM     23  C   UNL     1      -4.819   2.465   0.972  1.00  0.00     0.005 C 
ATOM     24  C   UNL     1      -2.807   2.556   2.650  1.00  0.00    -0.025 C 
ATOM     25  C   UNL     1      -3.730   3.316   1.642  1.00  0.00     0.002 C 
ATOM     26  C   UNL     1      -3.544   2.265   3.993  1.00  0.00     0.015 C 
ATOM     27  C   UNL     1      -1.577   3.410   3.057  1.00  0.00     0.012 C 
ATOM     28  C   UNL     1      -4.426   4.474   2.303  1.00  0.00     0.079 C 
ATOM     29  C   UNL     1      -5.000   2.732   4.133  1.00  0.00     0.076 C 
ATOM     30  C   UNL     1      -5.392   3.961   3.336  1.00  0.00     0.133 C 
ATOM     31  O   UNL     1      -6.485   4.508   3.485  1.00  0.00    -0.300 OA
ENDBRANCH   9  11
ENDBRANCH   8   9
ENDBRANCH   7   8
ENDBRANCH   4   7
ENDBRANCH   2   3
ENDBRANCH   1   2
BRANCH   1  32
ATOM     32  C   UNL     1      -0.351   2.088  -0.999  1.00  0.00     0.023 C 
BRANCH  32  33
ATOM     33  C   UNL     1       0.013   3.576  -1.100  1.00  0.00     0.116 C 
BRANCH  33  34
ATOM     34  N   UNL     1      -1.085   4.426  -1.588  1.00  0.00    -0.352 N 
ATOM     35  C   UNL     1      -1.816   5.515  -1.137  1.00  0.00     0.251 C 
ATOM     36  H   UNL     1      -1.383   4.143  -2.483  1.00  0.00     0.163 HD
ATOM     37  O   UNL     1      -2.655   5.949  -1.935  1.00  0.00    -0.269 OA
BRANCH  35  38
ATOM     38  C   UNL     1      -1.749   6.169   0.220  1.00  0.00     0.039 A 
ATOM     39  C   UNL     1      -2.835   6.974   0.644  1.00  0.00     0.014 A 
ATOM     40  C   UNL     1      -0.711   6.024   1.123  1.00  0.00     0.014 A 
ATOM     41  C   UNL     1      -2.940   7.492   1.966  1.00  0.00     0.010 A 
ATOM     42  C   UNL     1      -0.850   6.472   2.457  1.00  0.00     0.010 A 
ATOM     43  C   UNL     1      -1.978   7.183   2.929  1.00  0.00    -0.014 A 
BRANCH  43  44
ATOM     44  C   UNL     1      -2.052   7.564   4.398  1.00  0.00     0.031 A 
ATOM     45  C   UNL     1      -0.923   8.366   4.992  1.00  0.00     0.074 A 
ATOM     46  C   UNL     1      -2.993   7.125   5.276  1.00  0.00     0.049 A 
ATOM     47  N   UNL     1      -0.754   8.744   6.234  1.00  0.00    -0.248 NA
ATOM     48  C   UNL     1       0.144   8.803   4.078  1.00  0.00     0.031 C 
ATOM     49  C   UNL     1      -4.214   6.420   4.938  1.00  0.00     0.029 A 
ATOM     50  N   UNL     1      -3.051   7.159   6.661  1.00  0.00    -0.354 N 
ATOM     51  C   UNL     1       0.400   9.508   6.231  1.00  0.00     0.074 A 
ATOM     52  C   UNL     1       0.984   9.391   4.913  1.00  0.00     0.031 C 
ATOM     53  C   UNL     1      -4.795   5.919   6.042  1.00  0.00     0.029 A 
ATOM     54  C   UNL     1      -4.069   6.395   7.208  1.00  0.00     0.049 A 
ATOM     55  H   UNL     1      -2.423   7.682   7.209  1.00  0.00     0.167 HD
ATOM     56  C   UNL     1       0.877  10.332   7.191  1.00  0.00     0.031 A 
ATOM     57  C   UNL     1      -4.449   6.148   8.482  1.00  0.00     0.031 A 
ATOM     58  C   UNL     1       0.318  10.471   8.504  1.00  0.00     0.049 A 
ATOM     59  C   UNL     1      -3.822   6.954   9.588  1.00  0.00     0.074 A 
ATOM     60  C   UNL     1       0.678  11.360   9.501  1.00  0.00     0.029 A 
ATOM     61  N   UNL     1      -0.702   9.686   9.016  1.00  0.00    -0.354 N 
ATOM     62  N   UNL     1      -2.844   7.821   9.509  1.00  0.00    -0.248 NA
ATOM     63  C   UNL     1      -4.413   6.831  10.930  1.00  0.00     0.031 C 
ATOM     64  C   UNL     1      -0.084  11.071  10.638  1.00  0.00     0.029 A 
ATOM     65  C   UNL     1      -0.957  10.040  10.329  1.00  0.00     0.049 A 
ATOM     66  H   UNL     1      -1.175   8.980   8.519  1.00  0.00     0.167 HD
ATOM     67  C   UNL     1      -2.761   8.409  10.765  1.00  0.00     0.074 A 
ATOM     68  C   UNL     1      -3.764   7.778  11.596  1.00  0.00     0.031 C 
ATOM     69  C   UNL     1      -1.948   9.415  11.169  1.00  0.00     0.031 A 
BRANCH  56  70
ATOM     70  C   UNL     1       2.034  11.196   6.787  1.00  0.00    -0.014 A 
ATOM     71  C   UNL     1       1.852  12.204   5.817  1.00  0.00     0.010 A 
ATOM     72  C   UNL     1       3.311  10.973   7.321  1.00  0.00     0.010 A 
ATOM     73  C   UNL     1       2.943  12.918   5.330  1.00  0.00     0.020 A 
ATOM     74  C   UNL     1       4.402  11.712   6.860  1.00  0.00     0.020 A 
ATOM     75  C   UNL     1       4.214  12.659   5.849  1.00  0.00     0.054 A 
BRANCH  75  76
ATOM     76  S   UNL     1       5.617  13.587   5.176  1.00  0.00     0.124 S 
ATOM     77  O   UNL     1       5.780  12.973   3.862  1.00  0.00    -0.237 OA
ATOM     78  O   UNL     1       5.122  14.959   5.174  1.00  0.00    -0.237 OA
ATOM     79  O   UNL     1       6.696  13.317   6.129  1.00  0.00    -0.744 OA
ENDBRANCH  75  76
ENDBRANCH  56  70
BRANCH  57  80
ATOM     80  C   UNL     1      -5.563   5.197   8.801  1.00  0.00    -0.014 A 
ATOM     81  C   UNL     1      -6.842   5.669   9.154  1.00  0.00     0.010 A 
ATOM     82  C   UNL     1      -5.332   3.808   8.818  1.00  0.00     0.010 A 
ATOM     83  C   UNL     1      -7.854   4.780   9.545  1.00  0.00     0.020 A 
ATOM     84  C   UNL     1      -6.347   2.914   9.193  1.00  0.00     0.020 A 
ATOM     85  C   UNL     1      -7.599   3.407   9.565  1.00  0.00     0.054 A 
BRANCH  85  86
ATOM     86  S   UNL     1      -8.932   2.274  10.063  1.00  0.00     0.124 S 
ATOM     87  O   UNL     1      -9.062   2.559  11.489  1.00  0.00    -0.237 OA
ATOM     88  O   UNL     1     -10.047   2.711   9.228  1.00  0.00    -0.237 OA
ATOM     89  O   UNL     1      -8.400   0.952   9.737  1.00  0.00    -0.744 OA
ENDBRANCH  85  86
ENDBRANCH  57  80
BRANCH  69  90
ATOM     90  C   UNL     1      -2.127   9.946  12.564  1.00  0.00    -0.014 A 
ATOM     91  C   UNL     1      -1.739   9.201  13.690  1.00  0.00     0.010 A 
ATOM     92  C   UNL     1      -2.633  11.248  12.743  1.00  0.00     0.010 A 
ATOM     93  C   UNL     1      -1.867   9.743  14.972  1.00  0.00     0.020 A 
ATOM     94  C   UNL     1      -2.735  11.803  14.020  1.00  0.00     0.020 A 
ATOM     95  C   UNL     1      -2.359  11.043  15.128  1.00  0.00     0.054 A 
BRANCH  95  96
ATOM     96  S   UNL     1      -2.444  11.751  16.796  1.00  0.00     0.124 S 
ATOM     97  O   UNL     1      -3.582  11.039  17.371  1.00  0.00    -0.237 OA
ATOM     98  O   UNL     1      -1.139  11.408  17.355  1.00  0.00    -0.237 OA
ATOM     99  O   UNL     1      -2.657  13.177  16.557  1.00  0.00    -0.744 OA
ENDBRANCH  95  96
ENDBRANCH  69  90
ENDBRANCH  43  44
ENDBRANCH  35  38
ENDBRANCH  33  34
ENDBRANCH  32  33
ENDBRANCH   1  32
TORSDOF 17
