REMARK SMILES C=CCN1C(=O)/C(=C/c2ccccc2[N+](=O)[O-])S/C1=[NH+]\c1ccc(O)cc1C(=O)NCCCCNC(=O)c1ccc(-c2c3nc(c(-c4ccc(S(=O)(=O)[O-])cc4)c4ccc([nH]4)c(-c4ccc(S(=O)(=O)[O-])cc4)c4nc(c(-c5ccc(S(=O)(=O)[O-])cc5)c5ccc2[nH]5)C=C4)C=C3)cc1
REMARK SMILES IDX 32 1 31 2 30 3 28 4 29 5 27 7 21 8 22 9 23 10 26 11 24 12
REMARK SMILES IDX 20 13 4 14 5 15 19 16 6 17 7 18 18 19 8 20 3 22 2 23 1 24
REMARK SMILES IDX 9 25 10 26 14 27 11 28 13 29 12 30 15 31 16 32 17 33 25 34
REMARK SMILES IDX 33 36 34 37 35 38 36 39 37 41 38 42 39 43 97 44 40 45 96 46
REMARK SMILES IDX 41 47 42 48 43 49 90 50 44 51 95 52 89 53 91 54 45 55 94 56
REMARK SMILES IDX 88 57 87 58 46 60 76 61 57 62 75 63 58 64 61 65 74 66 92 67
REMARK SMILES IDX 59 68 60 69 73 71 93 72 62 73 47 74 48 75 56 76 49 77 55 78
REMARK SMILES IDX 50 79 51 80 52 81 53 82 54 83 77 84 78 85 86 86 79 87 85 88
REMARK SMILES IDX 80 89 81 90 82 91 83 92 84 93 63 94 64 95 72 96 65 97 71 98
REMARK SMILES IDX 66 99 67 100 68 101 69 102 70 103
REMARK H PARENT 30 6 20 21 25 35 35 40 91 59 61 70
REMARK Flexibility Score: inf
ROOT
ATOM      1  C   UNL     1       1.735  -1.519  -2.486  1.00  0.00     0.023 C 
ENDROOT
BRANCH   1   2
ATOM      2  C   UNL     1       0.437  -2.221  -2.868  1.00  0.00     0.116 C 
BRANCH   2   3
ATOM      3  N   UNL     1       0.287  -2.577  -4.255  1.00  0.00    -0.352 N 
ATOM      4  C   UNL     1      -0.420  -3.593  -4.859  1.00  0.00     0.255 C 
ATOM      5  O   UNL     1      -0.392  -3.595  -6.096  1.00  0.00    -0.269 OA
ATOM      6  H   UNL     1       0.775  -1.994  -4.880  1.00  0.00     0.163 HD
BRANCH   4   7
ATOM      7  C   UNL     1      -1.170  -4.712  -4.181  1.00  0.00     0.090 A 
ATOM      8  C   UNL     1      -1.900  -4.704  -2.969  1.00  0.00     0.138 A 
ATOM      9  C   UNL     1      -2.557  -5.882  -2.552  1.00  0.00     0.056 A 
ATOM     10  C   UNL     1      -2.563  -7.038  -3.324  1.00  0.00     0.050 A 
ATOM     11  C   UNL     1      -1.204  -5.901  -4.956  1.00  0.00     0.064 A 
ATOM     12  C   UNL     1      -1.896  -7.034  -4.532  1.00  0.00     0.116 A 
BRANCH   8  13
ATOM     13  N   UNL     1      -2.031  -3.654  -2.052  1.00  0.00    -0.234 N 
ATOM     14  N   UNL     1      -2.702  -1.513  -1.442  1.00  0.00    -0.182 N 
ATOM     15  C   UNL     1      -3.134  -0.314  -1.974  1.00  0.00     0.348 C 
ATOM     16  C   UNL     1      -2.650  -2.559  -2.329  1.00  0.00     0.324 C 
ATOM     17  O   UNL     1      -3.283   0.748  -1.386  1.00  0.00    -0.240 OA
ATOM     18  C   UNL     1      -3.417  -0.473  -3.429  1.00  0.00     0.110 C 
ATOM     19  S   UNL     1      -3.401  -2.136  -3.843  1.00  0.00     0.007 SA
ATOM     20  C   UNL     1      -3.616   0.559  -4.261  1.00  0.00     0.039 C 
ATOM     21  H   UNL     1      -1.634  -3.758  -1.157  1.00  0.00     0.313 HD
BRANCH  14  22
ATOM     22  C   UNL     1      -2.436  -1.658  -0.008  1.00  0.00     0.275 C 
BRANCH  22  23
ATOM     23  C   UNL     1      -1.013  -2.062   0.298  1.00  0.00     0.011 C 
ATOM     24  C   UNL     1      -0.183  -1.422   1.133  1.00  0.00     0.008 C 
ENDBRANCH  22  23
ENDBRANCH  14  22
BRANCH  20  25
ATOM     25  C   UNL     1      -3.931   0.428  -5.694  1.00  0.00     0.054 A 
ATOM     26  C   UNL     1      -2.934   0.767  -6.623  1.00  0.00     0.015 A 
ATOM     27  C   UNL     1      -5.157  -0.048  -6.196  1.00  0.00     0.276 A 
ATOM     28  C   UNL     1      -3.159   0.629  -7.999  1.00  0.00     0.001 A 
ATOM     29  C   UNL     1      -5.385  -0.195  -7.573  1.00  0.00     0.086 A 
ATOM     30  C   UNL     1      -4.379   0.149  -8.473  1.00  0.00     0.007 A 
BRANCH  27  31
ATOM     31  N   UNL     1      -6.246  -0.415  -5.298  1.00  0.00     0.063 N 
ATOM     32  O   UNL     1      -6.822  -1.490  -5.519  1.00  0.00    -0.258 OA
ATOM     33  O   UNL     1      -6.538   0.373  -4.390  1.00  0.00    -0.258 OA
ENDBRANCH  27  31
ENDBRANCH  20  25
ENDBRANCH   8  13
BRANCH  12  34
ATOM     34  O   UNL     1      -1.947  -8.167  -5.287  1.00  0.00    -0.508 OA
ATOM     35  H   UNL     1      -2.419  -8.915  -4.979  1.00  0.00     0.293 HD
ENDBRANCH  12  34
ENDBRANCH   4   7
ENDBRANCH   2   3
ENDBRANCH   1   2
BRANCH   1  36
ATOM     36  C   UNL     1       1.890  -0.030  -2.822  1.00  0.00     0.023 C 
BRANCH  36  37
ATOM     37  C   UNL     1       0.701   0.918  -2.643  1.00  0.00     0.116 C 
BRANCH  37  38
ATOM     38  N   UNL     1       0.056   0.870  -1.340  1.00  0.00    -0.352 N 
ATOM     39  C   UNL     1      -0.403   1.881  -0.521  1.00  0.00     0.251 C 
ATOM     40  H   UNL     1      -0.075  -0.038  -0.982  1.00  0.00     0.163 HD
ATOM     41  O   UNL     1      -0.915   1.621   0.564  1.00  0.00    -0.269 OA
BRANCH  39  42
ATOM     42  C   UNL     1      -0.183   3.290  -0.888  1.00  0.00     0.039 A 
ATOM     43  C   UNL     1       0.396   4.130   0.069  1.00  0.00     0.014 A 
ATOM     44  C   UNL     1      -0.450   3.756  -2.174  1.00  0.00     0.014 A 
ATOM     45  C   UNL     1       0.853   5.390  -0.308  1.00  0.00     0.010 A 
ATOM     46  C   UNL     1       0.074   4.980  -2.569  1.00  0.00     0.010 A 
ATOM     47  C   UNL     1       0.769   5.784  -1.651  1.00  0.00    -0.014 A 
BRANCH  47  48
ATOM     48  C   UNL     1       1.481   6.987  -2.142  1.00  0.00     0.031 A 
ATOM     49  C   UNL     1       0.707   8.127  -2.733  1.00  0.00     0.074 A 
ATOM     50  C   UNL     1       2.830   6.979  -2.166  1.00  0.00     0.049 A 
ATOM     51  N   UNL     1       1.152   9.191  -3.347  1.00  0.00    -0.248 NA
ATOM     52  C   UNL     1      -0.760   8.040  -2.659  1.00  0.00     0.031 C 
ATOM     53  C   UNL     1       3.682   5.890  -1.672  1.00  0.00     0.029 A 
ATOM     54  N   UNL     1       3.724   7.902  -2.643  1.00  0.00    -0.354 N 
ATOM     55  C   UNL     1       0.022   9.883  -3.763  1.00  0.00     0.074 A 
ATOM     56  C   UNL     1      -1.127   9.102  -3.361  1.00  0.00     0.031 C 
ATOM     57  C   UNL     1       4.971   6.216  -1.860  1.00  0.00     0.029 A 
ATOM     58  C   UNL     1       5.038   7.513  -2.523  1.00  0.00     0.049 A 
ATOM     59  H   UNL     1       3.452   8.763  -3.036  1.00  0.00     0.167 HD
ATOM     60  C   UNL     1      -0.046  11.068  -4.414  1.00  0.00     0.031 A 
ATOM     61  C   UNL     1       6.172   8.126  -2.914  1.00  0.00     0.031 A 
ATOM     62  C   UNL     1       1.107  11.843  -4.784  1.00  0.00     0.049 A 
ATOM     63  C   UNL     1       6.068   9.463  -3.591  1.00  0.00     0.074 A 
ATOM     64  C   UNL     1       1.152  13.090  -5.383  1.00  0.00     0.029 A 
ATOM     65  N   UNL     1       2.422  11.446  -4.585  1.00  0.00    -0.354 N 
ATOM     66  N   UNL     1       4.990  10.136  -3.918  1.00  0.00    -0.248 NA
ATOM     67  C   UNL     1       7.328  10.130  -3.941  1.00  0.00     0.031 C 
ATOM     68  C   UNL     1       2.495  13.430  -5.578  1.00  0.00     0.029 A 
ATOM     69  C   UNL     1       3.286  12.417  -5.060  1.00  0.00     0.049 A 
ATOM     70  H   UNL     1       2.699  10.598  -4.168  1.00  0.00     0.167 HD
ATOM     71  C   UNL     1       5.442  11.317  -4.491  1.00  0.00     0.074 A 
ATOM     72  C   UNL     1       6.890  11.273  -4.453  1.00  0.00     0.031 C 
ATOM     73  C   UNL     1       4.724  12.347  -5.005  1.00  0.00     0.031 A 
BRANCH  60  74
ATOM     74  C   UNL     1      -1.413  11.587  -4.770  1.00  0.00    -0.014 A 
ATOM     75  C   UNL     1      -2.296  12.053  -3.778  1.00  0.00     0.010 A 
ATOM     76  C   UNL     1      -1.815  11.631  -6.117  1.00  0.00     0.010 A 
ATOM     77  C   UNL     1      -3.570  12.511  -4.122  1.00  0.00     0.020 A 
ATOM     78  C   UNL     1      -3.079  12.114  -6.469  1.00  0.00     0.020 A 
ATOM     79  C   UNL     1      -3.956  12.533  -5.466  1.00  0.00     0.054 A 
BRANCH  79  80
ATOM     80  S   UNL     1      -5.609  13.149  -5.888  1.00  0.00     0.124 S 
ATOM     81  O   UNL     1      -6.458  12.032  -5.482  1.00  0.00    -0.237 OA
ATOM     82  O   UNL     1      -5.722  14.354  -5.069  1.00  0.00    -0.237 OA
ATOM     83  O   UNL     1      -5.534  13.384  -7.328  1.00  0.00    -0.744 OA
ENDBRANCH  79  80
ENDBRANCH  60  74
BRANCH  61  84
ATOM     84  C   UNL     1       7.493   7.489  -2.660  1.00  0.00    -0.014 A 
ATOM     85  C   UNL     1       8.351   8.000  -1.671  1.00  0.00     0.010 A 
ATOM     86  C   UNL     1       7.891   6.353  -3.390  1.00  0.00     0.010 A 
ATOM     87  C   UNL     1       9.590   7.399  -1.428  1.00  0.00     0.020 A 
ATOM     88  C   UNL     1       9.119   5.735  -3.132  1.00  0.00     0.020 A 
ATOM     89  C   UNL     1       9.966   6.270  -2.160  1.00  0.00     0.054 A 
BRANCH  89  90
ATOM     90  S   UNL     1      11.555   5.473  -1.791  1.00  0.00     0.124 S 
ATOM     91  O   UNL     1      12.504   6.381  -2.427  1.00  0.00    -0.237 OA
ATOM     92  O   UNL     1      11.572   5.461  -0.330  1.00  0.00    -0.237 OA
ATOM     93  O   UNL     1      11.429   4.158  -2.415  1.00  0.00    -0.744 OA
ENDBRANCH  89  90
ENDBRANCH  61  84
BRANCH  73  94
ATOM     94  C   UNL     1       5.496  13.521  -5.535  1.00  0.00    -0.014 A 
ATOM     95  C   UNL     1       6.171  13.449  -6.766  1.00  0.00     0.010 A 
ATOM     96  C   UNL     1       5.495  14.731  -4.818  1.00  0.00     0.010 A 
ATOM     97  C   UNL     1       6.856  14.562  -7.259  1.00  0.00     0.020 A 
ATOM     98  C   UNL     1       6.158  15.852  -5.319  1.00  0.00     0.020 A 
ATOM     99  C   UNL     1       6.845  15.757  -6.531  1.00  0.00     0.054 A 
BRANCH  99 100
ATOM    100  S   UNL     1       7.698  17.204  -7.215  1.00  0.00     0.124 S 
ATOM    101  O   UNL     1       9.097  16.887  -6.944  1.00  0.00    -0.237 OA
ATOM    102  O   UNL     1       7.307  17.173  -8.623  1.00  0.00    -0.237 OA
ATOM    103  O   UNL     1       7.151  18.321  -6.448  1.00  0.00    -0.744 OA
ENDBRANCH  99 100
ENDBRANCH  73  94
ENDBRANCH  47  48
ENDBRANCH  39  42
ENDBRANCH  37  38
ENDBRANCH  36  37
ENDBRANCH   1  36
TORSDOF 20
