REMARK SMILES C[C@@H](c1ccccc1)[C@@H](CC(=O)Nc1ccccc1I)C(=O)NCCCCNC(=O)c1ccc(-c2c3nc(c(-c4ccc(S(=O)(=O)[O-])cc4)c4ccc([nH]4)c(-c4ccc(S(=O)(=O)[O-])cc4)c4nc(c(-c5ccc(S(=O)(=O)[O-])cc5)c5ccc2[nH]5)C=C4)C=C3)cc1
REMARK SMILES IDX 25 1 24 2 23 3 21 4 22 5 9 7 2 8 1 9 3 10 4 11 8 12 5 13
REMARK SMILES IDX 7 14 6 15 10 16 11 17 12 18 13 19 14 21 15 22 19 23 16 24
REMARK SMILES IDX 18 25 20 26 17 27 26 28 27 29 28 30 29 31 30 33 31 34 32 35
REMARK SMILES IDX 90 36 33 37 89 38 34 39 35 40 36 41 83 42 37 43 88 44 82 45
REMARK SMILES IDX 84 46 38 47 87 48 81 49 80 50 39 52 69 53 50 54 68 55 51 56
REMARK SMILES IDX 54 57 67 58 85 59 52 60 53 61 66 63 86 64 55 65 40 66 41 67
REMARK SMILES IDX 49 68 42 69 48 70 43 71 44 72 45 73 46 74 47 75 70 76 71 77
REMARK SMILES IDX 79 78 72 79 78 80 73 81 74 82 75 83 76 84 77 85 56 86 57 87
REMARK SMILES IDX 65 88 58 89 64 90 59 91 60 92 61 93 62 94 63 95
REMARK H PARENT 23 6 13 20 28 32 84 51 54 62
REMARK Flexibility Score: inf
ROOT
ATOM      1  C   UNL     1       0.630   3.219   4.045  1.00  0.00     0.023 C 
ENDROOT
BRANCH   1   2
ATOM      2  C   UNL     1      -0.490   2.536   3.298  1.00  0.00     0.116 C 
BRANCH   2   3
ATOM      3  N   UNL     1      -1.267   3.198   2.304  1.00  0.00    -0.356 N 
ATOM      4  C   UNL     1      -1.797   2.567   1.206  1.00  0.00     0.224 C 
ATOM      5  O   UNL     1      -2.791   3.098   0.694  1.00  0.00    -0.275 OA
ATOM      6  H   UNL     1      -1.434   4.162   2.411  1.00  0.00     0.163 HD
BRANCH   4   7
ATOM      7  C   UNL     1      -1.200   1.273   0.559  1.00  0.00     0.095 C 
BRANCH   7   8
ATOM      8  C   UNL     1       0.068   1.371  -0.336  1.00  0.00     0.029 C 
ATOM      9  C   UNL     1       0.288   0.018  -1.070  1.00  0.00     0.013 C 
BRANCH   8  10
ATOM     10  C   UNL     1       0.421   2.563  -1.245  1.00  0.00    -0.044 A 
ATOM     11  C   UNL     1       1.522   2.453  -2.129  1.00  0.00     0.004 A 
ATOM     12  C   UNL     1      -0.104   3.851  -1.083  1.00  0.00     0.004 A 
ATOM     13  C   UNL     1       2.112   3.564  -2.739  1.00  0.00     0.000 A 
ATOM     14  C   UNL     1       0.490   4.970  -1.687  1.00  0.00     0.000 A 
ATOM     15  C   UNL     1       1.611   4.831  -2.495  1.00  0.00     0.000 A 
ENDBRANCH   8  10
ENDBRANCH   7   8
BRANCH   7  16
ATOM     16  C   UNL     1      -1.168   0.040   1.518  1.00  0.00     0.114 C 
BRANCH  16  17
ATOM     17  C   UNL     1      -0.074  -0.355   2.563  1.00  0.00     0.225 C 
ATOM     18  O   UNL     1      -0.445  -1.058   3.518  1.00  0.00    -0.275 OA
ATOM     19  N   UNL     1       1.216   0.130   2.664  1.00  0.00    -0.325 N 
ATOM     20  H   UNL     1       1.393   0.713   3.437  1.00  0.00     0.169 HD
BRANCH  19  21
ATOM     21  C   UNL     1       2.321  -0.101   1.801  1.00  0.00     0.054 A 
ATOM     22  C   UNL     1       2.839  -1.401   1.812  1.00  0.00     0.027 A 
ATOM     23  C   UNL     1       3.094   0.892   1.153  1.00  0.00     0.037 A 
ATOM     24  C   UNL     1       3.988  -1.725   1.085  1.00  0.00     0.002 A 
ATOM     25  C   UNL     1       4.153   0.532   0.310  1.00  0.00     0.017 A 
ATOM     26  I   UNL     1       3.058   2.975   1.413  1.00  0.00    -0.042 I 
ATOM     27  C   UNL     1       4.604  -0.774   0.282  1.00  0.00     0.001 A 
ENDBRANCH  19  21
ENDBRANCH  16  17
ENDBRANCH   7  16
ENDBRANCH   4   7
ENDBRANCH   2   3
ENDBRANCH   1   2
BRANCH   1  28
ATOM     28  C   UNL     1       0.303   4.374   4.940  1.00  0.00     0.023 C 
BRANCH  28  29
ATOM     29  C   UNL     1      -0.469   3.962   6.168  1.00  0.00     0.116 C 
BRANCH  29  30
ATOM     30  N   UNL     1       0.255   2.995   6.996  1.00  0.00    -0.352 N 
ATOM     31  C   UNL     1       0.753   3.137   8.269  1.00  0.00     0.251 C 
ATOM     32  H   UNL     1       0.407   2.116   6.581  1.00  0.00     0.163 HD
ATOM     33  O   UNL     1       1.533   2.305   8.731  1.00  0.00    -0.269 OA
BRANCH  31  34
ATOM     34  C   UNL     1       0.347   4.310   9.063  1.00  0.00     0.039 A 
ATOM     35  C   UNL     1       1.286   4.993   9.834  1.00  0.00     0.014 A 
ATOM     36  C   UNL     1      -0.969   4.767   8.976  1.00  0.00     0.014 A 
ATOM     37  C   UNL     1       0.913   6.186  10.450  1.00  0.00     0.010 A 
ATOM     38  C   UNL     1      -1.285   6.028   9.442  1.00  0.00     0.010 A 
ATOM     39  C   UNL     1      -0.361   6.735  10.216  1.00  0.00    -0.014 A 
BRANCH  39  40
ATOM     40  C   UNL     1      -0.754   8.039  10.793  1.00  0.00     0.031 A 
ATOM     41  C   UNL     1      -1.939   8.121  11.718  1.00  0.00     0.074 A 
ATOM     42  C   UNL     1      -0.070   9.144  10.440  1.00  0.00     0.049 A 
ATOM     43  N   UNL     1      -2.410   9.161  12.355  1.00  0.00    -0.248 NA
ATOM     44  C   UNL     1      -2.720   6.889  11.929  1.00  0.00     0.031 C 
ATOM     45  C   UNL     1       1.035   9.187   9.477  1.00  0.00     0.029 A 
ATOM     46  N   UNL     1      -0.192  10.441  10.861  1.00  0.00    -0.354 N 
ATOM     47  C   UNL     1      -3.543   8.709  13.023  1.00  0.00     0.074 A 
ATOM     48  C   UNL     1      -3.736   7.328  12.654  1.00  0.00     0.031 C 
ATOM     49  C   UNL     1       1.531  10.433   9.433  1.00  0.00     0.029 A 
ATOM     50  C   UNL     1       0.756  11.282  10.328  1.00  0.00     0.049 A 
ATOM     51  H   UNL     1      -0.891  10.743  11.485  1.00  0.00     0.167 HD
ATOM     52  C   UNL     1      -4.332   9.378  13.895  1.00  0.00     0.031 A 
ATOM     53  C   UNL     1       0.982  12.590  10.552  1.00  0.00     0.031 A 
ATOM     54  C   UNL     1      -4.117  10.751  14.260  1.00  0.00     0.049 A 
ATOM     55  C   UNL     1       0.117  13.304  11.552  1.00  0.00     0.074 A 
ATOM     56  C   UNL     1      -4.808  11.515  15.182  1.00  0.00     0.029 A 
ATOM     57  N   UNL     1      -3.136  11.566  13.714  1.00  0.00    -0.354 N 
ATOM     58  N   UNL     1      -0.893  12.837  12.250  1.00  0.00    -0.248 NA
ATOM     59  C   UNL     1       0.436  14.711  11.813  1.00  0.00     0.031 C 
ATOM     60  C   UNL     1      -4.284  12.812  15.147  1.00  0.00     0.029 A 
ATOM     61  C   UNL     1      -3.219  12.835  14.259  1.00  0.00     0.049 A 
ATOM     62  H   UNL     1      -2.478  11.283  13.039  1.00  0.00     0.167 HD
ATOM     63  C   UNL     1      -1.316  13.890  13.052  1.00  0.00     0.074 A 
ATOM     64  C   UNL     1      -0.434  15.005  12.769  1.00  0.00     0.031 C 
ATOM     65  C   UNL     1      -2.340  13.933  13.943  1.00  0.00     0.031 A 
BRANCH  52  66
ATOM     66  C   UNL     1      -5.495   8.630  14.497  1.00  0.00    -0.014 A 
ATOM     67  C   UNL     1      -5.295   7.550  15.378  1.00  0.00     0.010 A 
ATOM     68  C   UNL     1      -6.809   9.024  14.190  1.00  0.00     0.010 A 
ATOM     69  C   UNL     1      -6.385   6.850  15.902  1.00  0.00     0.020 A 
ATOM     70  C   UNL     1      -7.903   8.348  14.740  1.00  0.00     0.020 A 
ATOM     71  C   UNL     1      -7.683   7.255  15.579  1.00  0.00     0.054 A 
BRANCH  71  72
ATOM     72  S   UNL     1      -9.079   6.346  16.296  1.00  0.00     0.124 S 
ATOM     73  O   UNL     1      -9.019   5.079  15.570  1.00  0.00    -0.237 OA
ATOM     74  O   UNL     1      -8.722   6.276  17.710  1.00  0.00    -0.237 OA
ATOM     75  O   UNL     1     -10.235   7.185  15.989  1.00  0.00    -0.744 OA
ENDBRANCH  71  72
ENDBRANCH  52  66
BRANCH  53  76
ATOM     76  C   UNL     1       2.094  13.281   9.844  1.00  0.00    -0.014 A 
ATOM     77  C   UNL     1       3.244  13.695  10.539  1.00  0.00     0.010 A 
ATOM     78  C   UNL     1       2.025  13.492   8.454  1.00  0.00     0.010 A 
ATOM     79  C   UNL     1       4.295  14.322   9.862  1.00  0.00     0.020 A 
ATOM     80  C   UNL     1       3.086  14.090   7.769  1.00  0.00     0.020 A 
ATOM     81  C   UNL     1       4.211  14.510   8.479  1.00  0.00     0.054 A 
BRANCH  81  82
ATOM     82  S   UNL     1       5.612  15.271   7.612  1.00  0.00     0.124 S 
ATOM     83  O   UNL     1       5.521  16.660   8.047  1.00  0.00    -0.237 OA
ATOM     84  O   UNL     1       6.750  14.516   8.132  1.00  0.00    -0.237 OA
ATOM     85  O   UNL     1       5.310  15.034   6.202  1.00  0.00    -0.744 OA
ENDBRANCH  81  82
ENDBRANCH  53  76
BRANCH  65  86
ATOM     86  C   UNL     1      -2.535  15.225  14.691  1.00  0.00    -0.014 A 
ATOM     87  C   UNL     1      -2.980  16.389  14.041  1.00  0.00     0.010 A 
ATOM     88  C   UNL     1      -2.282  15.264  16.075  1.00  0.00     0.010 A 
ATOM     89  C   UNL     1      -3.107  17.586  14.748  1.00  0.00     0.020 A 
ATOM     90  C   UNL     1      -2.444  16.450  16.793  1.00  0.00     0.020 A 
ATOM     91  C   UNL     1      -2.830  17.610  16.119  1.00  0.00     0.054 A 
BRANCH  91  92
ATOM     92  S   UNL     1      -2.997  19.176  17.015  1.00  0.00     0.124 S 
ATOM     93  O   UNL     1      -1.830  19.918  16.546  1.00  0.00    -0.237 OA
ATOM     94  O   UNL     1      -4.288  19.675  16.550  1.00  0.00    -0.237 OA
ATOM     95  O   UNL     1      -2.958  18.778  18.420  1.00  0.00    -0.744 OA
ENDBRANCH  91  92
ENDBRANCH  65  86
ENDBRANCH  39  40
ENDBRANCH  31  34
ENDBRANCH  29  30
ENDBRANCH  28  29
ENDBRANCH   1  28
TORSDOF 19
