REMARK SMILES C[C@@H]1C[N@H+](Cc2ccccc2)CC[C@@H]1CC(=O)NCCCCNC(=O)c1ccc(-c2c3nc(c(-c4ccc(S(=O)(=O)[O-])cc4)c4ccc([nH]4)c(-c4ccc(S(=O)(=O)[O-])cc4)c4nc(c(-c5ccc(S(=O)(=O)[O-])cc5)c5ccc2[nH]5)C=C4)C=C3)cc1
REMARK SMILES IDX 20 1 19 2 18 3 16 4 17 5 15 7 14 8 1 9 2 10 3 11 4 12 13 13
REMARK SMILES IDX 12 14 5 16 6 17 7 18 11 19 8 20 10 21 9 22 21 23 22 24 23 25
REMARK SMILES IDX 24 26 25 28 26 29 27 30 85 31 28 32 84 33 29 34 30 35 31 36
REMARK SMILES IDX 78 37 32 38 83 39 77 40 79 41 33 42 82 43 76 44 75 45 34 47
REMARK SMILES IDX 64 48 45 49 63 50 46 51 49 52 62 53 80 54 47 55 48 56 61 58
REMARK SMILES IDX 81 59 50 60 35 61 36 62 44 63 37 64 43 65 38 66 39 67 40 68
REMARK SMILES IDX 41 69 42 70 65 71 66 72 74 73 67 74 73 75 68 76 69 77 70 78
REMARK SMILES IDX 71 79 72 80 51 81 52 82 60 83 53 84 59 85 54 86 55 87 56 88
REMARK SMILES IDX 57 89 58 90
REMARK H PARENT 18 6 4 15 23 27 79 46 49 57
REMARK Flexibility Score: inf
ROOT
ATOM      1  C   UNL     1       1.117   0.421  -3.674  1.00  0.00     0.023 C 
ENDROOT
BRANCH   1   2
ATOM      2  C   UNL     1       1.930  -0.866  -3.534  1.00  0.00     0.116 C 
BRANCH   2   3
ATOM      3  N   UNL     1       2.861  -0.908  -2.429  1.00  0.00    -0.356 N 
ATOM      4  C   UNL     1       2.751  -1.486  -1.208  1.00  0.00     0.220 C 
ATOM      5  O   UNL     1       3.790  -1.674  -0.569  1.00  0.00    -0.275 OA
ATOM      6  H   UNL     1       3.713  -0.441  -2.589  1.00  0.00     0.163 HD
BRANCH   4   7
ATOM      7  C   UNL     1       1.412  -1.907  -0.642  1.00  0.00     0.104 C 
BRANCH   7   8
ATOM      8  C   UNL     1       0.323  -0.834  -0.409  1.00  0.00     0.012 C 
ATOM      9  C   UNL     1       2.150   0.742   0.661  1.00  0.00     0.014 C 
ATOM     10  C   UNL     1       0.770   0.595   0.018  1.00  0.00     0.045 C 
ATOM     11  C   UNL     1      -0.311   1.448   0.719  1.00  0.00     0.265 C 
ATOM     12  N   UNL     1      -1.273   0.765   1.561  1.00  0.00    -0.331 N 
ATOM     13  C   UNL     1      -0.754  -1.435   0.512  1.00  0.00     0.066 C 
ATOM     14  C   UNL     1      -1.817  -0.434   0.953  1.00  0.00     0.262 C 
ATOM     15  H   UNL     1      -2.077   1.393   1.583  1.00  0.00     0.348 HD
BRANCH  12  16
ATOM     16  C   UNL     1      -1.038   0.771   3.005  1.00  0.00     0.299 C 
BRANCH  16  17
ATOM     17  C   UNL     1      -0.119  -0.295   3.552  1.00  0.00     0.006 A 
ATOM     18  C   UNL     1      -0.626  -1.543   3.945  1.00  0.00     0.009 A 
ATOM     19  C   UNL     1       1.261  -0.084   3.622  1.00  0.00     0.009 A 
ATOM     20  C   UNL     1       0.238  -2.585   4.289  1.00  0.00     0.001 A 
ATOM     21  C   UNL     1       2.127  -1.131   3.942  1.00  0.00     0.001 A 
ATOM     22  C   UNL     1       1.616  -2.386   4.258  1.00  0.00     0.000 A 
ENDBRANCH  16  17
ENDBRANCH  12  16
ENDBRANCH   7   8
ENDBRANCH   4   7
ENDBRANCH   2   3
ENDBRANCH   1   2
BRANCH   1  23
ATOM     23  C   UNL     1       1.831   1.725  -3.321  1.00  0.00     0.023 C 
BRANCH  23  24
ATOM     24  C   UNL     1       3.052   2.046  -4.154  1.00  0.00     0.116 C 
BRANCH  24  25
ATOM     25  N   UNL     1       2.702   2.361  -5.522  1.00  0.00    -0.352 N 
ATOM     26  C   UNL     1       2.901   3.527  -6.219  1.00  0.00     0.251 C 
ATOM     27  H   UNL     1       2.259   1.639  -6.023  1.00  0.00     0.163 HD
ATOM     28  O   UNL     1       2.325   3.692  -7.290  1.00  0.00    -0.269 OA
BRANCH  26  29
ATOM     29  C   UNL     1       3.795   4.582  -5.682  1.00  0.00     0.039 A 
ATOM     30  C   UNL     1       3.452   5.922  -5.883  1.00  0.00     0.014 A 
ATOM     31  C   UNL     1       4.991   4.262  -5.030  1.00  0.00     0.014 A 
ATOM     32  C   UNL     1       4.296   6.934  -5.418  1.00  0.00     0.010 A 
ATOM     33  C   UNL     1       5.784   5.268  -4.488  1.00  0.00     0.010 A 
ATOM     34  C   UNL     1       5.465   6.614  -4.711  1.00  0.00    -0.014 A 
BRANCH  34  35
ATOM     35  C   UNL     1       6.421   7.666  -4.281  1.00  0.00     0.031 A 
ATOM     36  C   UNL     1       7.801   7.699  -4.889  1.00  0.00     0.074 A 
ATOM     37  C   UNL     1       6.069   8.561  -3.338  1.00  0.00     0.049 A 
ATOM     38  N   UNL     1       8.811   8.480  -4.604  1.00  0.00    -0.248 NA
ATOM     39  C   UNL     1       8.092   6.704  -5.937  1.00  0.00     0.031 C 
ATOM     40  C   UNL     1       4.772   8.616  -2.659  1.00  0.00     0.029 A 
ATOM     41  N   UNL     1       6.776   9.599  -2.787  1.00  0.00    -0.354 N 
ATOM     42  C   UNL     1       9.855   8.059  -5.421  1.00  0.00     0.074 A 
ATOM     43  C   UNL     1       9.377   6.921  -6.171  1.00  0.00     0.031 C 
ATOM     44  C   UNL     1       4.767   9.653  -1.804  1.00  0.00     0.029 A 
ATOM     45  C   UNL     1       6.068  10.313  -1.849  1.00  0.00     0.049 A 
ATOM     46  H   UNL     1       7.703   9.813  -3.040  1.00  0.00     0.167 HD
ATOM     47  C   UNL     1      11.093   8.590  -5.558  1.00  0.00     0.031 A 
ATOM     48  C   UNL     1       6.431  11.379  -1.109  1.00  0.00     0.031 A 
ATOM     49  C   UNL     1      11.556   9.742  -4.834  1.00  0.00     0.049 A 
ATOM     50  C   UNL     1       7.812  11.951  -1.282  1.00  0.00     0.074 A 
ATOM     51  C   UNL     1      12.783  10.376  -4.916  1.00  0.00     0.029 A 
ATOM     52  N   UNL     1      10.800  10.445  -3.909  1.00  0.00    -0.354 N 
ATOM     53  N   UNL     1       8.777  11.552  -2.077  1.00  0.00    -0.248 NA
ATOM     54  C   UNL     1       8.150  13.127  -0.467  1.00  0.00     0.031 C 
ATOM     55  C   UNL     1      12.778  11.450  -4.020  1.00  0.00     0.029 A 
ATOM     56  C   UNL     1      11.533  11.508  -3.413  1.00  0.00     0.049 A 
ATOM     57  H   UNL     1       9.879  10.221  -3.644  1.00  0.00     0.167 HD
ATOM     58  C   UNL     1       9.823  12.445  -1.878  1.00  0.00     0.074 A 
ATOM     59  C   UNL     1       9.370  13.412  -0.900  1.00  0.00     0.031 C 
ATOM     60  C   UNL     1      11.052  12.464  -2.451  1.00  0.00     0.031 A 
BRANCH  47  61
ATOM     61  C   UNL     1      12.024   7.939  -6.545  1.00  0.00    -0.014 A 
ATOM     62  C   UNL     1      11.808   8.068  -7.929  1.00  0.00     0.010 A 
ATOM     63  C   UNL     1      13.147   7.224  -6.091  1.00  0.00     0.010 A 
ATOM     64  C   UNL     1      12.678   7.466  -8.841  1.00  0.00     0.020 A 
ATOM     65  C   UNL     1      14.035   6.642  -7.002  1.00  0.00     0.020 A 
ATOM     66  C   UNL     1      13.785   6.754  -8.372  1.00  0.00     0.054 A 
BRANCH  66  67
ATOM     67  S   UNL     1      14.917   6.012  -9.579  1.00  0.00     0.124 S 
ATOM     68  O   UNL     1      14.146   4.862 -10.046  1.00  0.00    -0.237 OA
ATOM     69  O   UNL     1      15.096   7.084 -10.555  1.00  0.00    -0.237 OA
ATOM     70  O   UNL     1      16.102   5.687  -8.790  1.00  0.00    -0.744 OA
ENDBRANCH  66  67
ENDBRANCH  47  61
BRANCH  48  71
ATOM     71  C   UNL     1       5.473  11.991  -0.149  1.00  0.00    -0.014 A 
ATOM     72  C   UNL     1       4.917  13.257  -0.409  1.00  0.00     0.010 A 
ATOM     73  C   UNL     1       5.128  11.325   1.040  1.00  0.00     0.010 A 
ATOM     74  C   UNL     1       4.063  13.861   0.519  1.00  0.00     0.020 A 
ATOM     75  C   UNL     1       4.254  11.914   1.958  1.00  0.00     0.020 A 
ATOM     76  C   UNL     1       3.743  13.188   1.700  1.00  0.00     0.054 A 
BRANCH  76  77
ATOM     77  S   UNL     1       2.620  13.979   2.886  1.00  0.00     0.124 S 
ATOM     78  O   UNL     1       3.502  14.939   3.542  1.00  0.00    -0.237 OA
ATOM     79  O   UNL     1       1.592  14.551   2.021  1.00  0.00    -0.237 OA
ATOM     80  O   UNL     1       2.171  12.867   3.721  1.00  0.00    -0.744 OA
ENDBRANCH  76  77
ENDBRANCH  48  71
BRANCH  60  81
ATOM     81  C   UNL     1      11.972  13.590  -2.070  1.00  0.00    -0.014 A 
ATOM     82  C   UNL     1      12.618  13.608  -0.822  1.00  0.00     0.010 A 
ATOM     83  C   UNL     1      12.233  14.614  -2.998  1.00  0.00     0.010 A 
ATOM     84  C   UNL     1      13.489  14.650  -0.497  1.00  0.00     0.020 A 
ATOM     85  C   UNL     1      13.122  15.645  -2.685  1.00  0.00     0.020 A 
ATOM     86  C   UNL     1      13.734  15.663  -1.430  1.00  0.00     0.054 A 
BRANCH  86  87
ATOM     87  S   UNL     1      14.904  16.981  -1.003  1.00  0.00     0.124 S 
ATOM     88  O   UNL     1      14.108  17.815  -0.108  1.00  0.00    -0.237 OA
ATOM     89  O   UNL     1      16.000  16.249  -0.373  1.00  0.00    -0.237 OA
ATOM     90  O   UNL     1      15.229  17.585  -2.294  1.00  0.00    -0.744 OA
ENDBRANCH  86  87
ENDBRANCH  60  81
ENDBRANCH  34  35
ENDBRANCH  26  29
ENDBRANCH  24  25
ENDBRANCH  23  24
ENDBRANCH   1  23
TORSDOF 17
