REMARK SMILES Nc1ccc(C(=O)N2Cc3nc[nH]c3C[C@H]2C(=O)NCCCCNC(=O)c2ccc(-c3c4nc(c(-c5ccc(S(=O)(=O)[O-])cc5)c5ccc([nH]5)c(-c5ccc(S(=O)(=O)[O-])cc5)c5nc(c(-c6ccc(S(=O)(=O)[O-])cc6)c6ccc3[nH]6)C=C5)C=C4)cc2)cc1
REMARK SMILES IDX 21 1 20 2 19 3 17 4 18 5 16 7 8 8 9 9 10 10 15 11 11 12
REMARK SMILES IDX 14 13 12 14 13 15 6 17 7 18 5 19 2 20 3 21 88 22 4 23 87 24
REMARK SMILES IDX 1 25 22 28 23 29 24 30 25 31 26 33 27 34 28 35 86 36 29 37
REMARK SMILES IDX 85 38 30 39 31 40 32 41 79 42 33 43 84 44 78 45 80 46 34 47
REMARK SMILES IDX 83 48 77 49 76 50 35 52 65 53 46 54 64 55 47 56 50 57 63 58
REMARK SMILES IDX 81 59 48 60 49 61 62 63 82 64 51 65 36 66 37 67 45 68 38 69
REMARK SMILES IDX 44 70 39 71 40 72 41 73 42 74 43 75 66 76 67 77 75 78 68 79
REMARK SMILES IDX 74 80 69 81 70 82 71 83 72 84 73 85 52 86 53 87 61 88 54 89
REMARK SMILES IDX 60 90 55 91 56 92 57 93 58 94 59 95
REMARK H PARENT 19 6 13 16 1 26 1 27 24 32 80 51 50 62
REMARK Flexibility Score: inf
ROOT
ATOM      1  C   UNL     1      -4.613   4.302   2.128  1.00  0.00     0.023 C 
ENDROOT
BRANCH   1   2
ATOM      2  C   UNL     1      -4.544   4.620   0.635  1.00  0.00     0.116 C 
BRANCH   2   3
ATOM      3  N   UNL     1      -3.296   4.274  -0.010  1.00  0.00    -0.354 N 
ATOM      4  C   UNL     1      -2.999   3.339  -0.953  1.00  0.00     0.243 C 
ATOM      5  O   UNL     1      -2.007   3.596  -1.649  1.00  0.00    -0.273 OA
ATOM      6  H   UNL     1      -2.525   4.811   0.286  1.00  0.00     0.163 HD
BRANCH   4   7
ATOM      7  C   UNL     1      -3.804   2.040  -1.250  1.00  0.00     0.181 C 
ATOM      8  N   UNL     1      -4.116   1.105  -0.110  1.00  0.00    -0.320 N 
ATOM      9  C   UNL     1      -5.430   1.149   0.570  1.00  0.00     0.178 C 
ATOM     10  C   UNL     1      -6.432   1.952  -0.171  1.00  0.00     0.081 A 
ATOM     11  C   UNL     1      -4.999   2.323  -2.213  1.00  0.00     0.091 C 
ATOM     12  N   UNL     1      -7.575   2.465   0.386  1.00  0.00    -0.240 NA
ATOM     13  C   UNL     1      -6.240   2.474  -1.427  1.00  0.00     0.042 A 
ATOM     14  C   UNL     1      -8.075   3.269  -0.529  1.00  0.00     0.197 A 
ATOM     15  N   UNL     1      -7.316   3.277  -1.672  1.00  0.00    -0.348 N 
ATOM     16  H   UNL     1      -7.510   3.765  -2.505  1.00  0.00     0.167 HD
BRANCH   8  17
ATOM     17  C   UNL     1      -3.291   0.047   0.304  1.00  0.00     0.254 C 
ATOM     18  O   UNL     1      -3.738  -0.918   0.928  1.00  0.00    -0.269 OA
BRANCH  17  19
ATOM     19  C   UNL     1      -1.821   0.046   0.078  1.00  0.00     0.040 A 
ATOM     20  C   UNL     1       1.002  -0.080  -0.037  1.00  0.00     0.031 A 
ATOM     21  C   UNL     1       0.233  -1.238  -0.167  1.00  0.00     0.026 A 
ATOM     22  C   UNL     1       0.347   1.125   0.216  1.00  0.00     0.026 A 
ATOM     23  C   UNL     1      -1.167  -1.176  -0.131  1.00  0.00     0.016 A 
ATOM     24  C   UNL     1      -1.048   1.184   0.298  1.00  0.00     0.016 A 
BRANCH  20  25
ATOM     25  N   UNL     1       2.386  -0.147   0.023  1.00  0.00    -0.399 N 
ATOM     26  H   UNL     1       2.846  -0.999  -0.156  1.00  0.00     0.156 HD
ATOM     27  H   UNL     1       2.908   0.658   0.244  1.00  0.00     0.156 HD
ENDBRANCH  20  25
ENDBRANCH  17  19
ENDBRANCH   8  17
ENDBRANCH   4   7
ENDBRANCH   2   3
ENDBRANCH   1   2
BRANCH   1  28
ATOM     28  C   UNL     1      -4.255   5.456   3.075  1.00  0.00     0.023 C 
BRANCH  28  29
ATOM     29  C   UNL     1      -5.121   6.709   2.957  1.00  0.00     0.116 C 
BRANCH  29  30
ATOM     30  N   UNL     1      -6.531   6.508   3.297  1.00  0.00    -0.352 N 
ATOM     31  C   UNL     1      -7.560   7.415   3.096  1.00  0.00     0.251 C 
ATOM     32  H   UNL     1      -6.772   5.647   3.708  1.00  0.00     0.163 HD
ATOM     33  O   UNL     1      -8.586   7.391   3.771  1.00  0.00    -0.269 OA
BRANCH  31  34
ATOM     34  C   UNL     1      -7.394   8.400   2.015  1.00  0.00     0.039 A 
ATOM     35  C   UNL     1      -7.601   9.767   2.205  1.00  0.00     0.014 A 
ATOM     36  C   UNL     1      -6.900   7.905   0.810  1.00  0.00     0.014 A 
ATOM     37  C   UNL     1      -7.203  10.645   1.198  1.00  0.00     0.010 A 
ATOM     38  C   UNL     1      -6.366   8.777  -0.104  1.00  0.00     0.010 A 
ATOM     39  C   UNL     1      -6.552  10.146   0.056  1.00  0.00    -0.014 A 
BRANCH  39  40
ATOM     40  C   UNL     1      -5.950  11.049  -0.922  1.00  0.00     0.031 A 
ATOM     41  C   UNL     1      -5.072  12.107  -0.351  1.00  0.00     0.074 A 
ATOM     42  C   UNL     1      -6.005  10.851  -2.258  1.00  0.00     0.049 A 
ATOM     43  N   UNL     1      -5.333  13.368  -0.260  1.00  0.00    -0.248 NA
ATOM     44  C   UNL     1      -3.824  11.711   0.322  1.00  0.00     0.031 C 
ATOM     45  C   UNL     1      -6.560   9.712  -3.001  1.00  0.00     0.029 A 
ATOM     46  N   UNL     1      -5.461  11.605  -3.249  1.00  0.00    -0.354 N 
ATOM     47  C   UNL     1      -4.194  13.965   0.270  1.00  0.00     0.074 A 
ATOM     48  C   UNL     1      -3.380  12.887   0.774  1.00  0.00     0.031 C 
ATOM     49  C   UNL     1      -6.102   9.730  -4.272  1.00  0.00     0.029 A 
ATOM     50  C   UNL     1      -5.390  10.975  -4.486  1.00  0.00     0.049 A 
ATOM     51  H   UNL     1      -5.143  12.525  -3.103  1.00  0.00     0.167 HD
ATOM     52  C   UNL     1      -3.906  15.278   0.036  1.00  0.00     0.031 A 
ATOM     53  C   UNL     1      -4.780  11.439  -5.606  1.00  0.00     0.031 A 
ATOM     54  C   UNL     1      -5.034  15.975  -0.530  1.00  0.00     0.049 A 
ATOM     55  C   UNL     1      -4.684  12.913  -5.457  1.00  0.00     0.074 A 
ATOM     56  C   UNL     1      -6.337  16.196  -0.129  1.00  0.00     0.029 A 
ATOM     57  N   UNL     1      -5.018  16.194  -1.890  1.00  0.00    -0.354 N 
ATOM     58  N   UNL     1      -5.731  13.691  -5.414  1.00  0.00    -0.248 NA
ATOM     59  C   UNL     1      -3.474  13.461  -4.864  1.00  0.00     0.031 C 
ATOM     60  C   UNL     1      -7.114  16.019  -1.312  1.00  0.00     0.029 A 
ATOM     61  C   UNL     1      -6.238  15.798  -2.377  1.00  0.00     0.049 A 
ATOM     62  H   UNL     1      -4.272  16.566  -2.414  1.00  0.00     0.167 HD
ATOM     63  C   UNL     1      -5.446  14.614  -4.418  1.00  0.00     0.074 A 
ATOM     64  C   UNL     1      -4.008  14.476  -4.178  1.00  0.00     0.031 C 
ATOM     65  C   UNL     1      -6.437  15.204  -3.684  1.00  0.00     0.031 A 
BRANCH  52  66
ATOM     66  C   UNL     1      -2.506  15.834  -0.058  1.00  0.00    -0.014 A 
ATOM     67  C   UNL     1      -2.339  17.222  -0.254  1.00  0.00     0.010 A 
ATOM     68  C   UNL     1      -1.369  15.022  -0.241  1.00  0.00     0.010 A 
ATOM     69  C   UNL     1      -1.117  17.754  -0.688  1.00  0.00     0.020 A 
ATOM     70  C   UNL     1      -0.136  15.547  -0.630  1.00  0.00     0.020 A 
ATOM     71  C   UNL     1      -0.027  16.908  -0.886  1.00  0.00     0.054 A 
BRANCH  71  72
ATOM     72  S   UNL     1       1.514  17.588  -1.546  1.00  0.00     0.124 S 
ATOM     73  O   UNL     1       1.112  17.995  -2.888  1.00  0.00    -0.237 OA
ATOM     74  O   UNL     1       1.796  18.674  -0.610  1.00  0.00    -0.237 OA
ATOM     75  O   UNL     1       2.440  16.460  -1.482  1.00  0.00    -0.744 OA
ENDBRANCH  71  72
ENDBRANCH  52  66
BRANCH  53  76
ATOM     76  C   UNL     1      -3.996  10.663  -6.601  1.00  0.00    -0.014 A 
ATOM     77  C   UNL     1      -3.577  11.241  -7.815  1.00  0.00     0.010 A 
ATOM     78  C   UNL     1      -3.411   9.433  -6.230  1.00  0.00     0.010 A 
ATOM     79  C   UNL     1      -2.564  10.647  -8.591  1.00  0.00     0.020 A 
ATOM     80  C   UNL     1      -2.406   8.833  -7.000  1.00  0.00     0.020 A 
ATOM     81  C   UNL     1      -1.968   9.457  -8.165  1.00  0.00     0.054 A 
BRANCH  81  82
ATOM     82  S   UNL     1      -0.534   8.795  -9.067  1.00  0.00     0.124 S 
ATOM     83  O   UNL     1      -1.139   8.326 -10.311  1.00  0.00    -0.237 OA
ATOM     84  O   UNL     1       0.334   9.963  -9.186  1.00  0.00    -0.237 OA
ATOM     85  O   UNL     1      -0.032   7.741  -8.187  1.00  0.00    -0.744 OA
ENDBRANCH  81  82
ENDBRANCH  53  76
BRANCH  65  86
ATOM     86  C   UNL     1      -7.875  15.048  -4.132  1.00  0.00    -0.014 A 
ATOM     87  C   UNL     1      -8.536  13.810  -4.256  1.00  0.00     0.010 A 
ATOM     88  C   UNL     1      -8.635  16.224  -4.269  1.00  0.00     0.010 A 
ATOM     89  C   UNL     1      -9.913  13.754  -4.535  1.00  0.00     0.020 A 
ATOM     90  C   UNL     1     -10.007  16.177  -4.527  1.00  0.00     0.020 A 
ATOM     91  C   UNL     1     -10.639  14.942  -4.669  1.00  0.00     0.054 A 
BRANCH  91  92
ATOM     92  S   UNL     1     -12.425  14.872  -4.991  1.00  0.00     0.124 S 
ATOM     93  O   UNL     1     -12.482  14.327  -6.344  1.00  0.00    -0.237 OA
ATOM     94  O   UNL     1     -12.911  13.986  -3.935  1.00  0.00    -0.237 OA
ATOM     95  O   UNL     1     -12.857  16.264  -4.866  1.00  0.00    -0.744 OA
ENDBRANCH  91  92
ENDBRANCH  65  86
ENDBRANCH  39  40
ENDBRANCH  31  34
ENDBRANCH  29  30
ENDBRANCH  28  29
ENDBRANCH   1  28
TORSDOF 17
