REMARK SMILES C[C@]1(Cn2c(=O)[nH]c3cc(C(=O)NCCCCNC(=O)c4ccc(-c5c6nc(c(-c7ccc(S(=O)(=O)[O-])cc7)c7ccc([nH]7)c(-c7ccc(S(=O)(=O)[O-])cc7)c7nc(c(-c8ccc(S(=O)(=O)[O-])cc8)c8ccc5[nH]8)C=C7)C=C6)cc4)ccc32)CCCO1
REMARK SMILES IDX 16 1 15 2 14 3 13 4 11 5 12 6 10 8 4 9 5 10 83 11 6 12 7 13
REMARK SMILES IDX 8 14 82 15 9 17 81 18 3 19 2 20 1 21 84 22 87 23 85 24 86 25
REMARK SMILES IDX 17 26 18 27 19 28 20 30 21 31 22 32 80 33 23 34 79 35 24 36
REMARK SMILES IDX 25 37 26 38 73 39 27 40 78 41 72 42 74 43 28 44 77 45 71 46
REMARK SMILES IDX 70 47 29 49 59 50 40 51 58 52 41 53 44 54 57 55 75 56 42 57
REMARK SMILES IDX 43 58 56 60 76 61 45 62 30 63 31 64 39 65 32 66 38 67 33 68
REMARK SMILES IDX 34 69 35 70 36 71 37 72 60 73 61 74 69 75 62 76 68 77 63 78
REMARK SMILES IDX 64 79 65 80 66 81 67 82 46 83 47 84 55 85 48 86 54 87 49 88
REMARK SMILES IDX 50 89 51 90 52 91 53 92
REMARK H PARENT 13 7 7 16 18 29 74 48 44 59
REMARK Flexibility Score: inf
ROOT
ATOM      1  C   UNL     1       0.680   5.637  -7.526  1.00  0.00     0.023 C 
ENDROOT
BRANCH   1   2
ATOM      2  C   UNL     1       0.611   4.684  -6.321  1.00  0.00     0.023 C 
BRANCH   2   3
ATOM      3  C   UNL     1       1.818   3.750  -6.199  1.00  0.00     0.116 C 
BRANCH   3   4
ATOM      4  N   UNL     1       2.945   4.432  -5.592  1.00  0.00    -0.352 N 
ATOM      5  C   UNL     1       3.539   4.321  -4.363  1.00  0.00     0.251 C 
ATOM      6  O   UNL     1       4.569   4.966  -4.165  1.00  0.00    -0.269 OA
ATOM      7  H   UNL     1       3.363   5.105  -6.176  1.00  0.00     0.163 HD
BRANCH   5   8
ATOM      8  C   UNL     1       3.042   3.413  -3.288  1.00  0.00     0.042 A 
ATOM      9  N   UNL     1       2.166   0.723  -0.242  1.00  0.00    -0.289 N 
ATOM     10  C   UNL     1       3.401   0.733   0.448  1.00  0.00     0.326 A 
ATOM     11  C   UNL     1       2.257   1.609  -1.326  1.00  0.00     0.069 A 
ATOM     12  O   UNL     1       3.690   0.149   1.470  1.00  0.00    -0.248 OA
ATOM     13  N   UNL     1       4.249   1.594  -0.276  1.00  0.00    -0.306 N 
ATOM     14  C   UNL     1       3.555   2.113  -1.361  1.00  0.00     0.067 A 
ATOM     15  C   UNL     1       1.303   2.051  -2.210  1.00  0.00     0.029 A 
ATOM     16  H   UNL     1       5.185   1.796  -0.048  1.00  0.00     0.171 HD
ATOM     17  C   UNL     1       3.980   3.001  -2.324  1.00  0.00     0.042 A 
ATOM     18  C   UNL     1       1.700   2.987  -3.173  1.00  0.00     0.016 A 
BRANCH   9  19
ATOM     19  C   UNL     1       0.956   0.086   0.223  1.00  0.00     0.162 C 
BRANCH  19  20
ATOM     20  C   UNL     1       0.589  -1.295  -0.374  1.00  0.00     0.083 C 
ATOM     21  C   UNL     1       0.411  -1.278  -1.898  1.00  0.00     0.044 C 
ATOM     22  C   UNL     1       1.523  -2.429   0.056  1.00  0.00     0.039 C 
ATOM     23  O   UNL     1      -0.715  -1.648   0.169  1.00  0.00    -0.373 OA
ATOM     24  C   UNL     1       0.591  -3.619   0.126  1.00  0.00     0.031 C 
ATOM     25  C   UNL     1      -0.674  -2.992   0.664  1.00  0.00     0.161 C 
ENDBRANCH  19  20
ENDBRANCH   9  19
ENDBRANCH   5   8
ENDBRANCH   3   4
ENDBRANCH   2   3
ENDBRANCH   1   2
BRANCH   1  26
ATOM     26  C   UNL     1       0.923   4.928  -8.860  1.00  0.00     0.116 C 
BRANCH  26  27
ATOM     27  N   UNL     1      -0.045   3.884  -9.133  1.00  0.00    -0.352 N 
ATOM     28  C   UNL     1      -1.170   3.781  -9.901  1.00  0.00     0.251 C 
ATOM     29  H   UNL     1       0.156   3.050  -8.650  1.00  0.00     0.163 HD
ATOM     30  O   UNL     1      -1.662   2.652  -9.984  1.00  0.00    -0.269 OA
BRANCH  28  31
ATOM     31  C   UNL     1      -1.868   4.920 -10.549  1.00  0.00     0.039 A 
ATOM     32  C   UNL     1      -1.431   6.243 -10.544  1.00  0.00     0.014 A 
ATOM     33  C   UNL     1      -3.127   4.627 -11.108  1.00  0.00     0.014 A 
ATOM     34  C   UNL     1      -2.286   7.263 -10.926  1.00  0.00     0.010 A 
ATOM     35  C   UNL     1      -3.976   5.642 -11.523  1.00  0.00     0.010 A 
ATOM     36  C   UNL     1      -3.581   6.961 -11.346  1.00  0.00    -0.014 A 
BRANCH  36  37
ATOM     37  C   UNL     1      -4.471   8.081 -11.612  1.00  0.00     0.031 A 
ATOM     38  C   UNL     1      -3.978   9.042 -12.639  1.00  0.00     0.074 A 
ATOM     39  C   UNL     1      -5.664   8.216 -11.001  1.00  0.00     0.049 A 
ATOM     40  N   UNL     1      -3.694  10.295 -12.492  1.00  0.00    -0.248 NA
ATOM     41  C   UNL     1      -3.629   8.498 -13.960  1.00  0.00     0.031 C 
ATOM     42  C   UNL     1      -6.384   7.256 -10.158  1.00  0.00     0.029 A 
ATOM     43  N   UNL     1      -6.545   9.243 -11.103  1.00  0.00    -0.354 N 
ATOM     44  C   UNL     1      -3.277  10.747 -13.743  1.00  0.00     0.074 A 
ATOM     45  C   UNL     1      -3.140   9.576 -14.572  1.00  0.00     0.031 C 
ATOM     46  C   UNL     1      -7.679   7.637 -10.053  1.00  0.00     0.029 A 
ATOM     47  C   UNL     1      -7.829   8.943 -10.669  1.00  0.00     0.049 A 
ATOM     48  H   UNL     1      -6.294  10.128 -11.454  1.00  0.00     0.167 HD
ATOM     49  C   UNL     1      -3.221  12.069 -14.066  1.00  0.00     0.031 A 
ATOM     50  C   UNL     1      -8.941   9.695 -10.871  1.00  0.00     0.031 A 
ATOM     51  C   UNL     1      -3.224  12.910 -12.903  1.00  0.00     0.049 A 
ATOM     52  C   UNL     1      -8.472  11.079 -11.138  1.00  0.00     0.074 A 
ATOM     53  C   UNL     1      -2.339  13.125 -11.867  1.00  0.00     0.029 A 
ATOM     54  N   UNL     1      -4.431  13.414 -12.481  1.00  0.00    -0.354 N 
ATOM     55  N   UNL     1      -7.846  11.808 -10.255  1.00  0.00    -0.248 NA
ATOM     56  C   UNL     1      -8.284  11.473 -12.526  1.00  0.00     0.031 C 
ATOM     57  C   UNL     1      -3.160  13.279 -10.714  1.00  0.00     0.029 A 
ATOM     58  C   UNL     1      -4.495  13.221 -11.124  1.00  0.00     0.049 A 
ATOM     59  H   UNL     1      -5.119  13.835 -13.045  1.00  0.00     0.167 HD
ATOM     60  C   UNL     1      -6.870  12.481 -10.976  1.00  0.00     0.074 A 
ATOM     61  C   UNL     1      -7.235  12.287 -12.380  1.00  0.00     0.031 C 
ATOM     62  C   UNL     1      -5.710  12.904 -10.395  1.00  0.00     0.031 A 
BRANCH  49  63
ATOM     63  C   UNL     1      -3.449  12.602 -15.455  1.00  0.00    -0.014 A 
ATOM     64  C   UNL     1      -4.061  11.835 -16.468  1.00  0.00     0.010 A 
ATOM     65  C   UNL     1      -3.280  13.978 -15.710  1.00  0.00     0.010 A 
ATOM     66  C   UNL     1      -4.463  12.395 -17.681  1.00  0.00     0.020 A 
ATOM     67  C   UNL     1      -3.719  14.560 -16.909  1.00  0.00     0.020 A 
ATOM     68  C   UNL     1      -4.303  13.760 -17.890  1.00  0.00     0.054 A 
BRANCH  68  69
ATOM     69  S   UNL     1      -4.939  14.463 -19.431  1.00  0.00     0.124 S 
ATOM     70  O   UNL     1      -4.042  13.873 -20.422  1.00  0.00    -0.237 OA
ATOM     71  O   UNL     1      -6.314  13.973 -19.454  1.00  0.00    -0.237 OA
ATOM     72  O   UNL     1      -4.794  15.903 -19.237  1.00  0.00    -0.744 OA
ENDBRANCH  68  69
ENDBRANCH  49  63
BRANCH  50  73
ATOM     73  C   UNL     1     -10.242   9.192 -11.395  1.00  0.00    -0.014 A 
ATOM     74  C   UNL     1     -10.274   8.030 -12.197  1.00  0.00     0.010 A 
ATOM     75  C   UNL     1     -11.386  10.013 -11.386  1.00  0.00     0.010 A 
ATOM     76  C   UNL     1     -11.368   7.742 -13.020  1.00  0.00     0.020 A 
ATOM     77  C   UNL     1     -12.490   9.727 -12.209  1.00  0.00     0.020 A 
ATOM     78  C   UNL     1     -12.456   8.613 -13.050  1.00  0.00     0.054 A 
BRANCH  78  79
ATOM     79  S   UNL     1     -13.766   8.308 -14.271  1.00  0.00     0.124 S 
ATOM     80  O   UNL     1     -13.070   8.552 -15.531  1.00  0.00    -0.237 OA
ATOM     81  O   UNL     1     -14.122   6.915 -14.011  1.00  0.00    -0.237 OA
ATOM     82  O   UNL     1     -14.796   9.284 -13.927  1.00  0.00    -0.744 OA
ENDBRANCH  78  79
ENDBRANCH  50  73
BRANCH  62  83
ATOM     83  C   UNL     1      -5.553  12.803  -8.890  1.00  0.00    -0.014 A 
ATOM     84  C   UNL     1      -5.164  13.967  -8.203  1.00  0.00     0.010 A 
ATOM     85  C   UNL     1      -5.513  11.573  -8.199  1.00  0.00     0.010 A 
ATOM     86  C   UNL     1      -4.683  13.905  -6.893  1.00  0.00     0.020 A 
ATOM     87  C   UNL     1      -5.053  11.507  -6.872  1.00  0.00     0.020 A 
ATOM     88  C   UNL     1      -4.608  12.672  -6.242  1.00  0.00     0.054 A 
BRANCH  88  89
ATOM     89  S   UNL     1      -3.862  12.627  -4.587  1.00  0.00     0.124 S 
ATOM     90  O   UNL     1      -2.454  12.896  -4.875  1.00  0.00    -0.237 OA
ATOM     91  O   UNL     1      -4.569  13.696  -3.885  1.00  0.00    -0.237 OA
ATOM     92  O   UNL     1      -4.147  11.277  -4.105  1.00  0.00    -0.744 OA
ENDBRANCH  88  89
ENDBRANCH  62  83
ENDBRANCH  36  37
ENDBRANCH  28  31
ENDBRANCH  26  27
ENDBRANCH   1  26
TORSDOF 16
