REMARK SMILES COc1cccc([C@@H]2CC(c3cccc(C)c3)=NN2C(=O)CCC(=O)NCCCCNC(=O)c2ccc(-c3c4nc(c(-c5ccc(S(=O)(=O)[O-])cc5)c5ccc([nH]5)c(-c5ccc(S(=O)(=O)[O-])cc5)c5nc(c(-c6ccc(S(=O)(=O)[O-])cc6)c6ccc3[nH]6)C=C5)C=C4)cc2)c1
REMARK SMILES IDX 27 1 26 2 24 3 25 4 23 6 22 7 20 8 21 9 19 10 8 11 9 12
REMARK SMILES IDX 10 13 18 14 7 15 3 16 4 17 94 18 5 19 6 20 2 21 1 22 11 23
REMARK SMILES IDX 12 24 17 25 13 26 15 27 14 28 16 29 28 30 29 31 30 32 31 33
REMARK SMILES IDX 32 34 33 36 34 37 35 38 93 39 36 40 92 41 37 42 38 43 39 44
REMARK SMILES IDX 86 45 40 46 91 47 85 48 87 49 41 50 90 51 84 52 83 53 42 55
REMARK SMILES IDX 72 56 53 57 71 58 54 59 57 60 70 61 88 62 55 63 56 64 69 66
REMARK SMILES IDX 89 67 58 68 43 69 44 70 52 71 45 72 51 73 46 74 47 75 48 76
REMARK SMILES IDX 49 77 50 78 73 79 74 80 82 81 75 82 81 83 76 84 77 85 78 86
REMARK SMILES IDX 79 87 80 88 59 89 60 90 68 91 61 92 67 93 62 94 63 95 64 96
REMARK SMILES IDX 65 97 66 98
REMARK H PARENT 26 5 31 35 87 54 57 65
REMARK Flexibility Score: inf
ROOT
ATOM      1  C   UNL     1       4.803  -1.322   2.665  1.00  0.00     0.116 C 
ENDROOT
BRANCH   1   2
ATOM      2  N   UNL     1       3.483  -0.613   3.223  1.00  0.00    -0.356 N 
ATOM      3  C   UNL     1       3.085  -0.161   4.439  1.00  0.00     0.220 C 
ATOM      4  O   UNL     1       1.927   0.260   4.517  1.00  0.00    -0.275 OA
ATOM      5  H   UNL     1       2.804  -0.471   2.524  1.00  0.00     0.163 HD
BRANCH   3   6
ATOM      6  C   UNL     1       4.004  -0.161   5.637  1.00  0.00     0.110 C 
BRANCH   6   7
ATOM      7  C   UNL     1       4.719  -1.451   6.046  1.00  0.00     0.112 C 
BRANCH   7   8
ATOM      8  C   UNL     1       5.946  -1.774   5.186  1.00  0.00     0.243 C 
ATOM      9  O   UNL     1       7.043  -1.287   5.447  1.00  0.00    -0.273 OA
BRANCH   8  10
ATOM     10  N   UNL     1       5.638  -2.498   4.011  1.00  0.00    -0.225 N 
ATOM     11  C   UNL     1       3.865  -2.936   3.607  1.00  0.00     0.147 C 
ATOM     12  C   UNL     1       3.769  -2.443   1.618  1.00  0.00     0.091 C 
ATOM     13  C   UNL     1       5.838  -2.123   1.188  1.00  0.00     0.071 C 
ATOM     14  N   UNL     1       6.647  -2.113   2.526  1.00  0.00    -0.174 NA
BRANCH  11  15
ATOM     15  C   UNL     1       3.734  -4.338   4.404  1.00  0.00    -0.019 A 
ATOM     16  C   UNL     1       2.494  -5.812   5.893  1.00  0.00     0.119 A 
ATOM     17  C   UNL     1       3.671  -6.484   6.245  1.00  0.00     0.046 A 
ATOM     18  C   UNL     1       2.516  -4.754   4.961  1.00  0.00     0.052 A 
ATOM     19  C   UNL     1       4.876  -6.126   5.674  1.00  0.00     0.004 A 
ATOM     20  C   UNL     1       4.904  -5.067   4.775  1.00  0.00     0.006 A 
BRANCH  16  21
ATOM     21  O   UNL     1       1.404  -6.260   6.588  1.00  0.00    -0.497 OA
ATOM     22  C   UNL     1       0.141  -5.762   6.190  1.00  0.00     0.278 C 
ENDBRANCH  16  21
ENDBRANCH  11  15
BRANCH  13  23
ATOM     23  C   UNL     1       6.887  -2.547  -0.139  1.00  0.00    -0.002 A 
ATOM     24  C   UNL     1       8.237  -2.630   0.132  1.00  0.00     0.010 A 
ATOM     25  C   UNL     1       6.562  -3.021  -1.500  1.00  0.00     0.013 A 
ATOM     26  C   UNL     1       9.075  -3.169  -0.855  1.00  0.00     0.001 A 
ATOM     27  C   UNL     1       7.308  -2.942  -2.765  1.00  0.00    -0.050 A 
ATOM     28  C   UNL     1       8.636  -3.357  -2.216  1.00  0.00     0.003 A 
ATOM     29  C   UNL     1       6.793  -1.802  -4.502  1.00  0.00     0.044 C 
ENDBRANCH  13  23
ENDBRANCH   8  10
ENDBRANCH   7   8
ENDBRANCH   6   7
ENDBRANCH   3   6
ENDBRANCH   1   2
BRANCH   1  30
ATOM     30  C   UNL     1       5.142  -3.474   2.192  1.00  0.00     0.023 C 
BRANCH  30  31
ATOM     31  C   UNL     1       4.725  -3.971   0.390  1.00  0.00     0.023 C 
BRANCH  31  32
ATOM     32  C   UNL     1       4.024  -2.733  -0.756  1.00  0.00     0.116 C 
BRANCH  32  33
ATOM     33  N   UNL     1       4.557  -1.187  -0.859  1.00  0.00    -0.352 N 
ATOM     34  C   UNL     1       5.575  -0.413  -1.526  1.00  0.00     0.251 C 
ATOM     35  H   UNL     1       4.010  -0.602  -0.285  1.00  0.00     0.163 HD
ATOM     36  O   UNL     1       5.848   0.720  -1.145  1.00  0.00    -0.269 OA
BRANCH  34  37
ATOM     37  C   UNL     1       6.306  -1.005  -2.683  1.00  0.00     0.039 A 
ATOM     38  C   UNL     1       8.097  -1.030  -3.184  1.00  0.00     0.014 A 
ATOM     39  C   UNL     1       5.192  -2.267  -3.327  1.00  0.00     0.014 A 
ATOM     40  C   UNL     1       8.698  -2.386  -4.328  1.00  0.00     0.010 A 
ATOM     41  C   UNL     1       5.803  -3.646  -4.266  1.00  0.00     0.010 A 
ATOM     42  C   UNL     1       7.507  -3.715  -4.831  1.00  0.00    -0.014 A 
BRANCH  42  43
ATOM     43  C   UNL     1       7.436  -4.735  -5.974  1.00  0.00     0.031 A 
ATOM     44  C   UNL     1       6.617  -4.382  -7.245  1.00  0.00     0.074 A 
ATOM     45  C   UNL     1       7.435  -6.051  -5.639  1.00  0.00     0.049 A 
ATOM     46  N   UNL     1       5.924  -5.160  -8.055  1.00  0.00    -0.248 NA
ATOM     47  C   UNL     1       6.476  -2.959  -7.581  1.00  0.00     0.031 C 
ATOM     48  C   UNL     1       7.903  -6.603  -4.368  1.00  0.00     0.029 A 
ATOM     49  N   UNL     1       6.927  -7.157  -6.303  1.00  0.00    -0.354 N 
ATOM     50  C   UNL     1       5.267  -4.311  -8.955  1.00  0.00     0.074 A 
ATOM     51  C   UNL     1       5.545  -2.966  -8.522  1.00  0.00     0.031 C 
ATOM     52  C   UNL     1       7.663  -7.928  -4.341  1.00  0.00     0.029 A 
ATOM     53  C   UNL     1       6.995  -8.332  -5.579  1.00  0.00     0.049 A 
ATOM     54  H   UNL     1       6.549  -7.109  -7.211  1.00  0.00     0.167 HD
ATOM     55  C   UNL     1       4.551  -4.577 -10.080  1.00  0.00     0.031 A 
ATOM     56  C   UNL     1       6.574  -9.588  -5.858  1.00  0.00     0.031 A 
ATOM     57  C   UNL     1       4.261  -5.893 -10.574  1.00  0.00     0.049 A 
ATOM     58  C   UNL     1       5.859  -9.903  -7.155  1.00  0.00     0.074 A 
ATOM     59  C   UNL     1       3.648  -6.255 -11.763  1.00  0.00     0.029 A 
ATOM     60  N   UNL     1       4.567  -7.062  -9.908  1.00  0.00    -0.354 N 
ATOM     61  N   UNL     1       5.433  -9.083  -8.083  1.00  0.00    -0.248 NA
ATOM     62  C   UNL     1       5.589 -11.323  -7.451  1.00  0.00     0.031 C 
ATOM     63  C   UNL     1       3.561  -7.650 -11.803  1.00  0.00     0.029 A 
ATOM     64  C   UNL     1       4.162  -8.148 -10.661  1.00  0.00     0.049 A 
ATOM     65  H   UNL     1       5.007  -7.114  -9.029  1.00  0.00     0.167 HD
ATOM     66  C   UNL     1       4.905  -9.890  -9.091  1.00  0.00     0.074 A 
ATOM     67  C   UNL     1       5.051 -11.260  -8.662  1.00  0.00     0.031 C 
ATOM     68  C   UNL     1       4.357  -9.517 -10.272  1.00  0.00     0.031 A 
BRANCH  55  69
ATOM     69  C   UNL     1       4.109  -3.404 -10.933  1.00  0.00    -0.014 A 
ATOM     70  C   UNL     1       5.073  -2.630 -11.609  1.00  0.00     0.010 A 
ATOM     71  C   UNL     1       2.747  -3.117 -11.138  1.00  0.00     0.010 A 
ATOM     72  C   UNL     1       4.691  -1.563 -12.423  1.00  0.00     0.020 A 
ATOM     73  C   UNL     1       2.357  -2.067 -11.981  1.00  0.00     0.020 A 
ATOM     74  C   UNL     1       3.335  -1.285 -12.602  1.00  0.00     0.054 A 
BRANCH  74  75
ATOM     75  S   UNL     1       2.876   0.093 -13.691  1.00  0.00     0.124 S 
ATOM     76  O   UNL     1       3.227   1.251 -12.872  1.00  0.00    -0.237 OA
ATOM     77  O   UNL     1       3.721  -0.127 -14.861  1.00  0.00    -0.237 OA
ATOM     78  O   UNL     1       1.445  -0.102 -13.912  1.00  0.00    -0.744 OA
ENDBRANCH  74  75
ENDBRANCH  55  69
BRANCH  56  79
ATOM     79  C   UNL     1       6.891 -10.714  -4.928  1.00  0.00    -0.014 A 
ATOM     80  C   UNL     1       7.904 -11.630  -5.275  1.00  0.00     0.010 A 
ATOM     81  C   UNL     1       6.171 -10.917  -3.738  1.00  0.00     0.010 A 
ATOM     82  C   UNL     1       8.165 -12.745  -4.476  1.00  0.00     0.020 A 
ATOM     83  C   UNL     1       6.450 -12.019  -2.918  1.00  0.00     0.020 A 
ATOM     84  C   UNL     1       7.433 -12.936  -3.303  1.00  0.00     0.054 A 
BRANCH  84  85
ATOM     85  S   UNL     1       7.806 -14.380  -2.267  1.00  0.00     0.124 S 
ATOM     86  O   UNL     1       7.165 -15.460  -3.011  1.00  0.00    -0.237 OA
ATOM     87  O   UNL     1       9.267 -14.397  -2.260  1.00  0.00    -0.237 OA
ATOM     88  O   UNL     1       7.187 -14.047  -0.986  1.00  0.00    -0.744 OA
ENDBRANCH  84  85
ENDBRANCH  56  79
BRANCH  68  89
ATOM     89  C   UNL     1       3.955 -10.577 -11.262  1.00  0.00    -0.014 A 
ATOM     90  C   UNL     1       2.771 -11.317 -11.112  1.00  0.00     0.010 A 
ATOM     91  C   UNL     1       4.714 -10.730 -12.438  1.00  0.00     0.010 A 
ATOM     92  C   UNL     1       2.352 -12.190 -12.122  1.00  0.00     0.020 A 
ATOM     93  C   UNL     1       4.290 -11.586 -13.457  1.00  0.00     0.020 A 
ATOM     94  C   UNL     1       3.110 -12.313 -13.292  1.00  0.00     0.054 A 
BRANCH  94  95
ATOM     95  S   UNL     1       2.493 -13.372 -14.631  1.00  0.00     0.124 S 
ATOM     96  O   UNL     1       2.768 -14.709 -14.114  1.00  0.00    -0.237 OA
ATOM     97  O   UNL     1       1.080 -13.006 -14.705  1.00  0.00    -0.237 OA
ATOM     98  O   UNL     1       3.293 -12.973 -15.786  1.00  0.00    -0.744 OA
ENDBRANCH  94  95
ENDBRANCH  68  89
ENDBRANCH  42  43
ENDBRANCH  34  37
ENDBRANCH  32  33
ENDBRANCH  31  32
ENDBRANCH  30  31
ENDBRANCH   1  30
TORSDOF 20
