REMARK SMILES CCCCNC(=O)[C@@H](C)Oc1ccc(N)cc1C(=O)NCCCCNC(=O)c1ccc(-c2c3nc(c(-c4ccc(S(=O)(=O)[O-])cc4)c4ccc([nH]4)c(-c4ccc(S(=O)(=O)[O-])cc4)c4nc(c(-c5ccc(S(=O)(=O)[O-])cc5)c5ccc2[nH]5)C=C4)C=C3)cc1
REMARK SMILES IDX 21 1 20 2 18 3 19 4 17 6 11 7 12 8 13 9 16 10 14 11 10 12
REMARK SMILES IDX 8 13 9 14 6 15 5 16 7 18 4 19 3 20 2 21 1 22 15 23 22 26
REMARK SMILES IDX 23 27 24 28 25 29 26 30 27 32 28 33 29 34 87 35 30 36 86 37
REMARK SMILES IDX 31 38 32 39 33 40 80 41 34 42 85 43 79 44 81 45 35 46 84 47
REMARK SMILES IDX 78 48 77 49 36 51 66 52 47 53 65 54 48 55 51 56 64 57 82 58
REMARK SMILES IDX 49 59 50 60 63 62 83 63 52 64 37 65 38 66 46 67 39 68 45 69
REMARK SMILES IDX 40 70 41 71 42 72 43 73 44 74 67 75 68 76 76 77 69 78 75 79
REMARK SMILES IDX 70 80 71 81 72 82 73 83 74 84 53 85 54 86 62 87 55 88 61 89
REMARK SMILES IDX 56 90 57 91 58 92 59 93 60 94
REMARK H PARENT 20 5 5 17 15 24 15 25 25 31 81 50 51 61
REMARK Flexibility Score: inf
ROOT
ATOM      1  C   UNL     1       0.457   7.816   1.637  1.00  0.00     0.116 C 
ENDROOT
BRANCH   1   2
ATOM      2  N   UNL     1       1.864   7.526   1.483  1.00  0.00    -0.352 N 
ATOM      3  C   UNL     1       2.618   6.454   1.105  1.00  0.00     0.255 C 
ATOM      4  O   UNL     1       3.822   6.580   1.364  1.00  0.00    -0.269 OA
ATOM      5  H   UNL     1       2.424   8.303   1.710  1.00  0.00     0.163 HD
BRANCH   3   6
ATOM      6  C   UNL     1       2.187   5.223   0.361  1.00  0.00     0.083 A 
ATOM      7  C   UNL     1       0.913   4.685   0.150  1.00  0.00     0.133 A 
ATOM      8  C   UNL     1       0.741   3.688  -0.824  1.00  0.00     0.049 A 
ATOM      9  C   UNL     1       1.840   3.053  -1.410  1.00  0.00     0.029 A 
ATOM     10  C   UNL     1       3.279   4.528  -0.221  1.00  0.00     0.043 A 
ATOM     11  C   UNL     1       3.126   3.405  -1.033  1.00  0.00     0.032 A 
BRANCH   7  12
ATOM     12  O   UNL     1      -0.210   5.123   0.772  1.00  0.00    -0.480 OA
BRANCH  12  13
ATOM     13  C   UNL     1      -0.763   4.326   1.826  1.00  0.00     0.258 C 
ATOM     14  C   UNL     1       0.093   4.287   3.098  1.00  0.00     0.064 C 
BRANCH  13  15
ATOM     15  C   UNL     1      -1.509   2.994   1.542  1.00  0.00     0.260 C 
ATOM     16  N   UNL     1      -0.875   1.787   1.512  1.00  0.00    -0.353 N 
ATOM     17  H   UNL     1      -1.464   1.000   1.563  1.00  0.00     0.163 HD
ATOM     18  O   UNL     1      -2.732   2.983   1.360  1.00  0.00    -0.271 OA
BRANCH  16  19
ATOM     19  C   UNL     1       0.539   1.498   1.416  1.00  0.00     0.116 C 
BRANCH  19  20
ATOM     20  C   UNL     1       0.962   0.277   2.219  1.00  0.00     0.021 C 
BRANCH  20  21
ATOM     21  C   UNL     1       0.566  -1.060   1.584  1.00  0.00    -0.002 C 
ATOM     22  C   UNL     1       1.088  -1.240   0.163  1.00  0.00     0.004 C 
ENDBRANCH  20  21
ENDBRANCH  19  20
ENDBRANCH  16  19
ENDBRANCH  13  15
ENDBRANCH  12  13
ENDBRANCH   7  12
BRANCH  11  23
ATOM     23  N   UNL     1       4.233   2.762  -1.558  1.00  0.00    -0.399 N 
ATOM     24  H   UNL     1       4.117   1.970  -2.131  1.00  0.00     0.156 HD
ATOM     25  H   UNL     1       5.137   3.096  -1.358  1.00  0.00     0.156 HD
ENDBRANCH  11  23
ENDBRANCH   3   6
ENDBRANCH   1   2
BRANCH   1  26
ATOM     26  C   UNL     1       0.056   7.582   3.097  1.00  0.00     0.023 C 
BRANCH  26  27
ATOM     27  C   UNL     1      -0.166   8.860   3.898  1.00  0.00     0.023 C 
BRANCH  27  28
ATOM     28  C   UNL     1      -1.300   9.727   3.379  1.00  0.00     0.116 C 
BRANCH  28  29
ATOM     29  N   UNL     1      -2.578   9.037   3.277  1.00  0.00    -0.352 N 
ATOM     30  C   UNL     1      -3.838   9.580   3.426  1.00  0.00     0.251 C 
ATOM     31  H   UNL     1      -2.539   8.073   3.080  1.00  0.00     0.163 HD
ATOM     32  O   UNL     1      -4.836   8.888   3.387  1.00  0.00    -0.269 OA
BRANCH  30  33
ATOM     33  C   UNL     1      -3.921  11.031   3.691  1.00  0.00     0.039 A 
ATOM     34  C   UNL     1      -4.561  11.469   4.850  1.00  0.00     0.014 A 
ATOM     35  C   UNL     1      -3.232  11.924   2.868  1.00  0.00     0.014 A 
ATOM     36  C   UNL     1      -4.441  12.806   5.226  1.00  0.00     0.010 A 
ATOM     37  C   UNL     1      -3.026  13.225   3.302  1.00  0.00     0.010 A 
ATOM     38  C   UNL     1      -3.635  13.683   4.480  1.00  0.00    -0.014 A 
BRANCH  38  39
ATOM     39  C   UNL     1      -3.438  15.094   4.894  1.00  0.00     0.031 A 
ATOM     40  C   UNL     1      -3.876  16.202   3.972  1.00  0.00     0.074 A 
ATOM     41  C   UNL     1      -2.814  15.379   6.055  1.00  0.00     0.049 A 
ATOM     42  N   UNL     1      -3.730  17.494   4.109  1.00  0.00    -0.248 NA
ATOM     43  C   UNL     1      -4.526  15.803   2.711  1.00  0.00     0.031 C 
ATOM     44  C   UNL     1      -2.284  14.395   7.004  1.00  0.00     0.029 A 
ATOM     45  N   UNL     1      -2.519  16.586   6.636  1.00  0.00    -0.354 N 
ATOM     46  C   UNL     1      -4.241  18.054   2.944  1.00  0.00     0.074 A 
ATOM     47  C   UNL     1      -4.639  16.963   2.085  1.00  0.00     0.031 C 
ATOM     48  C   UNL     1      -1.768  15.038   8.065  1.00  0.00     0.029 A 
ATOM     49  C   UNL     1      -1.898  16.476   7.859  1.00  0.00     0.049 A 
ATOM     50  H   UNL     1      -2.732  17.451   6.216  1.00  0.00     0.167 HD
ATOM     51  C   UNL     1      -4.401  19.360   2.630  1.00  0.00     0.031 A 
ATOM     52  C   UNL     1      -1.489  17.429   8.718  1.00  0.00     0.031 A 
ATOM     53  C   UNL     1      -4.052  20.442   3.508  1.00  0.00     0.049 A 
ATOM     54  C   UNL     1      -1.716  18.875   8.365  1.00  0.00     0.074 A 
ATOM     55  C   UNL     1      -4.235  21.800   3.315  1.00  0.00     0.029 A 
ATOM     56  N   UNL     1      -3.465  20.287   4.754  1.00  0.00    -0.354 N 
ATOM     57  N   UNL     1      -2.260  19.383   7.284  1.00  0.00    -0.248 NA
ATOM     58  C   UNL     1      -1.289  19.874   9.353  1.00  0.00     0.031 C 
ATOM     59  C   UNL     1      -3.731  22.468   4.436  1.00  0.00     0.029 A 
ATOM     60  C   UNL     1      -3.273  21.524   5.341  1.00  0.00     0.049 A 
ATOM     61  H   UNL     1      -3.221  19.424   5.160  1.00  0.00     0.167 HD
ATOM     62  C   UNL     1      -2.264  20.760   7.475  1.00  0.00     0.074 A 
ATOM     63  C   UNL     1      -1.684  21.003   8.781  1.00  0.00     0.031 C 
ATOM     64  C   UNL     1      -2.703  21.738   6.646  1.00  0.00     0.031 A 
BRANCH  51  65
ATOM     65  C   UNL     1      -5.003  19.680   1.289  1.00  0.00    -0.014 A 
ATOM     66  C   UNL     1      -6.360  19.416   1.027  1.00  0.00     0.010 A 
ATOM     67  C   UNL     1      -4.215  20.273   0.287  1.00  0.00     0.010 A 
ATOM     68  C   UNL     1      -6.907  19.697  -0.226  1.00  0.00     0.020 A 
ATOM     69  C   UNL     1      -4.766  20.583  -0.959  1.00  0.00     0.020 A 
ATOM     70  C   UNL     1      -6.105  20.277  -1.213  1.00  0.00     0.054 A 
BRANCH  70  71
ATOM     71  S   UNL     1      -6.849  20.659  -2.822  1.00  0.00     0.124 S 
ATOM     72  O   UNL     1      -6.947  19.334  -3.430  1.00  0.00    -0.237 OA
ATOM     73  O   UNL     1      -8.120  21.275  -2.451  1.00  0.00    -0.237 OA
ATOM     74  O   UNL     1      -5.882  21.560  -3.445  1.00  0.00    -0.744 OA
ENDBRANCH  70  71
ENDBRANCH  51  65
BRANCH  52  75
ATOM     75  C   UNL     1      -0.852  17.056  10.011  1.00  0.00    -0.014 A 
ATOM     76  C   UNL     1      -1.543  17.240  11.222  1.00  0.00     0.010 A 
ATOM     77  C   UNL     1       0.452  16.529  10.041  1.00  0.00     0.010 A 
ATOM     78  C   UNL     1      -0.931  16.936  12.442  1.00  0.00     0.020 A 
ATOM     79  C   UNL     1       1.058  16.200  11.258  1.00  0.00     0.020 A 
ATOM     80  C   UNL     1       0.368  16.422  12.452  1.00  0.00     0.054 A 
BRANCH  80  81
ATOM     81  S   UNL     1       1.136  16.009  14.044  1.00  0.00     0.124 S 
ATOM     82  O   UNL     1       1.501  17.326  14.555  1.00  0.00    -0.237 OA
ATOM     83  O   UNL     1       0.054  15.332  14.753  1.00  0.00    -0.237 OA
ATOM     84  O   UNL     1       2.256  15.149  13.668  1.00  0.00    -0.744 OA
ENDBRANCH  80  81
ENDBRANCH  52  75
BRANCH  64  85
ATOM     85  C   UNL     1      -2.607  23.155   7.138  1.00  0.00    -0.014 A 
ATOM     86  C   UNL     1      -1.371  23.819   7.198  1.00  0.00     0.010 A 
ATOM     87  C   UNL     1      -3.780  23.846   7.492  1.00  0.00     0.010 A 
ATOM     88  C   UNL     1      -1.305  25.145   7.633  1.00  0.00     0.020 A 
ATOM     89  C   UNL     1      -3.721  25.179   7.903  1.00  0.00     0.020 A 
ATOM     90  C   UNL     1      -2.481  25.816   7.984  1.00  0.00     0.054 A 
BRANCH  90  91
ATOM     91  S   UNL     1      -2.375  27.550   8.504  1.00  0.00     0.124 S 
ATOM     92  O   UNL     1      -1.867  27.427   9.868  1.00  0.00    -0.237 OA
ATOM     93  O   UNL     1      -1.443  28.121   7.535  1.00  0.00    -0.237 OA
ATOM     94  O   UNL     1      -3.751  28.028   8.392  1.00  0.00    -0.744 OA
ENDBRANCH  90  91
ENDBRANCH  64  85
ENDBRANCH  38  39
ENDBRANCH  30  33
ENDBRANCH  28  29
ENDBRANCH  27  28
ENDBRANCH  26  27
ENDBRANCH   1  26
TORSDOF 21
