REMARK SMILES CC(C)c1cc2c(cc1Cl)C=C(C(=O)NCCCCNC(=O)c1ccc(-c3c4nc(c(-c5ccc(S(=O)(=O)[O-])cc5)c5ccc([nH]5)c(-c5ccc(S(=O)(=O)[O-])cc5)c5nc(c(-c6ccc(S(=O)(=O)[O-])cc6)c6ccc3[nH]6)C=C5)C=C4)cc1)[C@@H](C(F)(F)F)O2
REMARK SMILES IDX 18 1 17 2 16 3 15 4 13 5 14 6 12 8 4 9 5 10 9 11 6 12 8 13
REMARK SMILES IDX 10 14 7 15 88 16 11 17 83 18 2 19 1 20 3 21 84 22 85 23
REMARK SMILES IDX 86 24 87 25 19 26 20 27 21 28 22 30 23 31 24 32 82 33 25 34
REMARK SMILES IDX 81 35 26 36 27 37 28 38 75 39 29 40 80 41 74 42 76 43 30 44
REMARK SMILES IDX 79 45 73 46 72 47 31 49 61 50 42 51 60 52 43 53 46 54 59 55
REMARK SMILES IDX 77 56 44 57 45 58 58 60 78 61 47 62 32 63 33 64 41 65 34 66
REMARK SMILES IDX 40 67 35 68 36 69 37 70 38 71 39 72 62 73 63 74 71 75 64 76
REMARK SMILES IDX 70 77 65 78 66 79 67 80 68 81 69 82 48 83 49 84 57 85 50 86
REMARK SMILES IDX 56 87 51 88 52 89 53 90 54 91 55 92
REMARK H PARENT 15 7 20 29 76 48 46 59
REMARK Flexibility Score: inf
ROOT
ATOM      1  C   UNL     1      -9.290  -4.638   0.275  1.00  0.00     0.023 C 
ENDROOT
BRANCH   1   2
ATOM      2  C   UNL     1      -7.886  -4.257  -0.205  1.00  0.00     0.023 C 
BRANCH   2   3
ATOM      3  C   UNL     1      -7.851  -3.576  -1.571  1.00  0.00     0.116 C 
BRANCH   3   4
ATOM      4  N   UNL     1      -8.043  -2.140  -1.474  1.00  0.00    -0.352 N 
ATOM      5  C   UNL     1      -7.255  -1.039  -1.448  1.00  0.00     0.251 C 
ATOM      6  O   UNL     1      -7.854   0.038  -1.360  1.00  0.00    -0.270 OA
ATOM      7  H   UNL     1      -8.997  -1.905  -1.411  1.00  0.00     0.163 HD
BRANCH   5   8
ATOM      8  C   UNL     1      -5.764  -1.044  -1.515  1.00  0.00     0.067 C 
ATOM      9  C   UNL     1      -0.880   0.301  -1.466  1.00  0.00    -0.023 A 
ATOM     10  C   UNL     1      -1.579  -0.917  -1.382  1.00  0.00     0.052 A 
ATOM     11  C   UNL     1      -1.640   1.488  -1.504  1.00  0.00     0.045 A 
ATOM     12  C   UNL     1      -2.972  -0.948  -1.378  1.00  0.00     0.128 A 
ATOM     13  C   UNL     1      -3.042   1.450  -1.479  1.00  0.00     0.032 A 
ATOM     14  Cl  UNL     1      -0.904   3.053  -1.555  1.00  0.00    -0.084 Cl
ATOM     15  C   UNL     1      -3.713   0.229  -1.419  1.00  0.00     0.019 A 
ATOM     16  O   UNL     1      -3.558  -2.179  -1.286  1.00  0.00    -0.475 OA
ATOM     17  C   UNL     1      -5.168   0.153  -1.350  1.00  0.00     0.025 C 
ATOM     18  C   UNL     1      -4.925  -2.262  -1.784  1.00  0.00     0.314 C 
BRANCH   9  19
ATOM     19  C   UNL     1       0.643   0.300  -1.460  1.00  0.00     0.014 C 
ATOM     20  C   UNL     1       1.164   0.121  -0.032  1.00  0.00     0.012 C 
ATOM     21  C   UNL     1       1.253  -0.757  -2.390  1.00  0.00     0.012 C 
ENDBRANCH   9  19
BRANCH  18  22
ATOM     22  C   UNL     1      -4.902  -2.645  -3.276  1.00  0.00     0.429 C 
ATOM     23  F   UNL     1      -4.397  -3.895  -3.436  1.00  0.00    -0.167 F 
ATOM     24  F   UNL     1      -6.136  -2.654  -3.830  1.00  0.00    -0.167 F 
ATOM     25  F   UNL     1      -4.143  -1.807  -4.019  1.00  0.00    -0.167 F 
ENDBRANCH  18  22
ENDBRANCH   5   8
ENDBRANCH   3   4
ENDBRANCH   2   3
ENDBRANCH   1   2
BRANCH   1  26
ATOM     26  C   UNL     1     -10.090  -5.530  -0.672  1.00  0.00     0.116 C 
BRANCH  26  27
ATOM     27  N   UNL     1      -9.396  -6.742  -1.089  1.00  0.00    -0.352 N 
ATOM     28  C   UNL     1      -9.960  -7.915  -1.540  1.00  0.00     0.251 C 
ATOM     29  H   UNL     1      -8.413  -6.720  -1.043  1.00  0.00     0.163 HD
ATOM     30  O   UNL     1      -9.263  -8.891  -1.800  1.00  0.00    -0.269 OA
BRANCH  28  31
ATOM     31  C   UNL     1     -11.431  -7.988  -1.641  1.00  0.00     0.039 A 
ATOM     32  C   UNL     1     -12.127  -7.021  -2.368  1.00  0.00     0.014 A 
ATOM     33  C   UNL     1     -12.115  -8.952  -0.896  1.00  0.00     0.014 A 
ATOM     34  C   UNL     1     -13.502  -6.909  -2.206  1.00  0.00     0.010 A 
ATOM     35  C   UNL     1     -13.505  -8.879  -0.794  1.00  0.00     0.010 A 
ATOM     36  C   UNL     1     -14.202  -7.821  -1.397  1.00  0.00    -0.014 A 
BRANCH  36  37
ATOM     37  C   UNL     1     -15.655  -7.620  -1.167  1.00  0.00     0.031 A 
ATOM     38  C   UNL     1     -16.169  -7.236   0.195  1.00  0.00     0.074 A 
ATOM     39  C   UNL     1     -16.502  -7.700  -2.211  1.00  0.00     0.049 A 
ATOM     40  N   UNL     1     -17.398  -6.973   0.563  1.00  0.00    -0.248 NA
ATOM     41  C   UNL     1     -15.184  -7.128   1.285  1.00  0.00     0.031 C 
ATOM     42  C   UNL     1     -16.111  -8.028  -3.583  1.00  0.00     0.029 A 
ATOM     43  N   UNL     1     -17.852  -7.473  -2.291  1.00  0.00    -0.354 N 
ATOM     44  C   UNL     1     -17.337  -6.690   1.922  1.00  0.00     0.074 A 
ATOM     45  C   UNL     1     -15.955  -6.831   2.323  1.00  0.00     0.031 C 
ATOM     46  C   UNL     1     -17.182  -7.910  -4.381  1.00  0.00     0.029 A 
ATOM     47  C   UNL     1     -18.346  -7.563  -3.570  1.00  0.00     0.049 A 
ATOM     48  H   UNL     1     -18.412  -7.266  -1.509  1.00  0.00     0.167 HD
ATOM     49  C   UNL     1     -18.342  -6.336   2.758  1.00  0.00     0.031 A 
ATOM     50  C   UNL     1     -19.595  -7.389  -4.045  1.00  0.00     0.031 A 
ATOM     51  C   UNL     1     -19.714  -6.180   2.352  1.00  0.00     0.049 A 
ATOM     52  C   UNL     1     -20.699  -7.037  -3.094  1.00  0.00     0.074 A 
ATOM     53  C   UNL     1     -20.802  -5.820   3.129  1.00  0.00     0.029 A 
ATOM     54  N   UNL     1     -20.187  -6.367   1.062  1.00  0.00    -0.354 N 
ATOM     55  N   UNL     1     -20.625  -6.802  -1.807  1.00  0.00    -0.248 NA
ATOM     56  C   UNL     1     -22.055  -6.942  -3.652  1.00  0.00     0.031 C 
ATOM     57  C   UNL     1     -21.940  -5.833   2.318  1.00  0.00     0.029 A 
ATOM     58  C   UNL     1     -21.554  -6.151   1.026  1.00  0.00     0.049 A 
ATOM     59  H   UNL     1     -19.633  -6.616   0.287  1.00  0.00     0.167 HD
ATOM     60  C   UNL     1     -21.925  -6.535  -1.396  1.00  0.00     0.074 A 
ATOM     61  C   UNL     1     -22.763  -6.616  -2.576  1.00  0.00     0.031 C 
ATOM     62  C   UNL     1     -22.380  -6.255  -0.151  1.00  0.00     0.031 A 
BRANCH  49  63
ATOM     63  C   UNL     1     -18.010  -6.102   4.207  1.00  0.00    -0.014 A 
ATOM     64  C   UNL     1     -18.435  -7.029   5.177  1.00  0.00     0.010 A 
ATOM     65  C   UNL     1     -17.359  -4.926   4.621  1.00  0.00     0.010 A 
ATOM     66  C   UNL     1     -18.228  -6.779   6.536  1.00  0.00     0.020 A 
ATOM     67  C   UNL     1     -17.132  -4.684   5.979  1.00  0.00     0.020 A 
ATOM     68  C   UNL     1     -17.584  -5.604   6.929  1.00  0.00     0.054 A 
BRANCH  68  69
ATOM     69  S   UNL     1     -17.309  -5.297   8.697  1.00  0.00     0.124 S 
ATOM     70  O   UNL     1     -18.601  -4.768   9.122  1.00  0.00    -0.237 OA
ATOM     71  O   UNL     1     -16.969  -6.623   9.207  1.00  0.00    -0.237 OA
ATOM     72  O   UNL     1     -16.205  -4.338   8.704  1.00  0.00    -0.744 OA
ENDBRANCH  68  69
ENDBRANCH  49  63
BRANCH  50  73
ATOM     73  C   UNL     1     -19.829  -7.535  -5.505  1.00  0.00    -0.014 A 
ATOM     74  C   UNL     1     -19.742  -8.802  -6.113  1.00  0.00     0.010 A 
ATOM     75  C   UNL     1     -20.011  -6.398  -6.310  1.00  0.00     0.010 A 
ATOM     76  C   UNL     1     -19.763  -8.922  -7.504  1.00  0.00     0.020 A 
ATOM     77  C   UNL     1     -20.057  -6.518  -7.702  1.00  0.00     0.020 A 
ATOM     78  C   UNL     1     -19.897  -7.775  -8.290  1.00  0.00     0.054 A 
BRANCH  78  79
ATOM     79  S   UNL     1     -19.839  -7.938 -10.096  1.00  0.00     0.124 S 
ATOM     80  O   UNL     1     -18.401  -8.009 -10.341  1.00  0.00    -0.237 OA
ATOM     81  O   UNL     1     -20.579  -9.175 -10.333  1.00  0.00    -0.237 OA
ATOM     82  O   UNL     1     -20.497  -6.723 -10.567  1.00  0.00    -0.744 OA
ENDBRANCH  78  79
ENDBRANCH  50  73
BRANCH  62  83
ATOM     83  C   UNL     1     -23.856  -6.032   0.026  1.00  0.00    -0.014 A 
ATOM     84  C   UNL     1     -24.342  -4.738   0.288  1.00  0.00     0.010 A 
ATOM     85  C   UNL     1     -24.742  -7.122   0.057  1.00  0.00     0.010 A 
ATOM     86  C   UNL     1     -25.687  -4.541   0.608  1.00  0.00     0.020 A 
ATOM     87  C   UNL     1     -26.093  -6.925   0.357  1.00  0.00     0.020 A 
ATOM     88  C   UNL     1     -26.551  -5.639   0.654  1.00  0.00     0.054 A 
BRANCH  88  89
ATOM     89  S   UNL     1     -28.290  -5.372   1.099  1.00  0.00     0.124 S 
ATOM     90  O   UNL     1     -28.224  -5.291   2.555  1.00  0.00    -0.237 OA
ATOM     91  O   UNL     1     -28.613  -4.123   0.413  1.00  0.00    -0.237 OA
ATOM     92  O   UNL     1     -28.962  -6.556   0.568  1.00  0.00    -0.744 OA
ENDBRANCH  88  89
ENDBRANCH  62  83
ENDBRANCH  36  37
ENDBRANCH  28  31
ENDBRANCH  26  27
ENDBRANCH   1  26
TORSDOF 16
