REMARK SMILES COc1ccccc1[C@H](C)Nc1nc(C)c(C(=O)NCCCCNC(=O)c2ccc(-c3c4nc(c(-c5ccc(S(=O)(=O)[O-])cc5)c5ccc([nH]5)c(-c5ccc(S(=O)(=O)[O-])cc5)c5nc(c(-c6ccc(S(=O)(=O)[O-])cc6)c6ccc3[nH]6)C=C5)C=C4)cc2)s1
REMARK SMILES IDX 21 1 20 2 19 3 17 4 18 5 16 7 12 8 13 9 87 10 14 11 15 12
REMARK SMILES IDX 11 13 9 15 10 16 8 17 3 18 4 19 5 20 7 21 6 22 2 23 1 24
REMARK SMILES IDX 22 25 23 26 24 27 25 28 26 30 27 31 28 32 86 33 29 34 85 35
REMARK SMILES IDX 30 36 31 37 32 38 79 39 33 40 84 41 78 42 80 43 34 44 83 45
REMARK SMILES IDX 77 46 76 47 35 49 65 50 46 51 64 52 47 53 50 54 63 55 81 56
REMARK SMILES IDX 48 57 49 58 62 60 82 61 51 62 36 63 37 64 45 65 38 66 44 67
REMARK SMILES IDX 39 68 40 69 41 70 42 71 43 72 66 73 67 74 75 75 68 76 74 77
REMARK SMILES IDX 69 78 70 79 71 80 72 81 73 82 52 83 53 84 61 85 54 86 60 87
REMARK SMILES IDX 55 88 56 89 57 90 58 91 59 92
REMARK H PARENT 19 6 11 14 24 29 80 48 50 59
REMARK Flexibility Score: inf
ROOT
ATOM      1  C   UNL     1       1.621   3.444  -6.027  1.00  0.00     0.023 C 
ENDROOT
BRANCH   1   2
ATOM      2  C   UNL     1       3.124   3.410  -5.757  1.00  0.00     0.116 C 
BRANCH   2   3
ATOM      3  N   UNL     1       3.393   3.763  -4.390  1.00  0.00    -0.351 N 
ATOM      4  C   UNL     1       3.491   3.042  -3.232  1.00  0.00     0.263 C 
ATOM      5  O   UNL     1       3.684   3.768  -2.247  1.00  0.00    -0.268 OA
ATOM      6  H   UNL     1       3.538   4.728  -4.260  1.00  0.00     0.163 HD
BRANCH   4   7
ATOM      7  C   UNL     1       3.412   1.585  -3.121  1.00  0.00     0.117 A 
ATOM      8  C   UNL     1       3.523  -0.609  -1.989  1.00  0.00     0.184 A 
ATOM      9  N   UNL     1       3.169  -0.752  -3.235  1.00  0.00    -0.225 NA
ATOM     10  S   UNL     1       3.911   0.989  -1.557  1.00  0.00    -0.092 S 
ATOM     11  C   UNL     1       3.020   0.477  -3.872  1.00  0.00     0.063 A 
ATOM     12  C   UNL     1       2.412   0.332  -5.217  1.00  0.00     0.068 C 
BRANCH   8  13
ATOM     13  N   UNL     1       3.572  -1.671  -1.163  1.00  0.00    -0.355 N 
ATOM     14  H   UNL     1       3.885  -2.534  -1.519  1.00  0.00     0.163 HD
BRANCH  13  15
ATOM     15  C   UNL     1       3.183  -1.592   0.236  1.00  0.00     0.112 C 
ATOM     16  C   UNL     1       1.743  -2.097   0.391  1.00  0.00     0.036 C 
BRANCH  15  17
ATOM     17  C   UNL     1       4.284  -2.216   1.072  1.00  0.00     0.016 A 
ATOM     18  C   UNL     1       4.354  -3.552   1.488  1.00  0.00     0.124 A 
ATOM     19  C   UNL     1       5.427  -4.008   2.267  1.00  0.00     0.047 A 
ATOM     20  C   UNL     1       6.479  -3.156   2.595  1.00  0.00     0.004 A 
ATOM     21  C   UNL     1       5.374  -1.379   1.404  1.00  0.00     0.010 A 
ATOM     22  C   UNL     1       6.457  -1.839   2.154  1.00  0.00     0.001 A 
BRANCH  18  23
ATOM     23  O   UNL     1       3.361  -4.457   1.228  1.00  0.00    -0.496 OA
ATOM     24  C   UNL     1       3.629  -5.174   0.022  1.00  0.00     0.278 C 
ENDBRANCH  18  23
ENDBRANCH  15  17
ENDBRANCH  13  15
ENDBRANCH   8  13
ENDBRANCH   4   7
ENDBRANCH   2   3
ENDBRANCH   1   2
BRANCH   1  25
ATOM     25  C   UNL     1       1.086   4.806  -6.465  1.00  0.00     0.023 C 
BRANCH  25  26
ATOM     26  C   UNL     1       1.618   5.286  -7.809  1.00  0.00     0.116 C 
BRANCH  26  27
ATOM     27  N   UNL     1       1.399   4.341  -8.896  1.00  0.00    -0.352 N 
ATOM     28  C   UNL     1       1.292   4.610 -10.241  1.00  0.00     0.251 C 
ATOM     29  H   UNL     1       1.319   3.395  -8.636  1.00  0.00     0.163 HD
ATOM     30  O   UNL     1       1.027   3.722 -11.037  1.00  0.00    -0.269 OA
BRANCH  28  31
ATOM     31  C   UNL     1       1.449   6.008 -10.686  1.00  0.00     0.039 A 
ATOM     32  C   UNL     1       0.422   6.596 -11.426  1.00  0.00     0.014 A 
ATOM     33  C   UNL     1       2.563   6.751 -10.289  1.00  0.00     0.014 A 
ATOM     34  C   UNL     1       0.478   7.961 -11.706  1.00  0.00     0.010 A 
ATOM     35  C   UNL     1       2.580   8.122 -10.504  1.00  0.00     0.010 A 
ATOM     36  C   UNL     1       1.537   8.741 -11.210  1.00  0.00    -0.014 A 
BRANCH  36  37
ATOM     37  C   UNL     1       1.580  10.208 -11.418  1.00  0.00     0.031 A 
ATOM     38  C   UNL     1       2.691  10.812 -12.229  1.00  0.00     0.074 A 
ATOM     39  C   UNL     1       0.673  10.996 -10.808  1.00  0.00     0.049 A 
ATOM     40  N   UNL     1       2.963  12.072 -12.444  1.00  0.00    -0.248 NA
ATOM     41  C   UNL     1       3.639   9.876 -12.856  1.00  0.00     0.031 C 
ATOM     42  C   UNL     1      -0.426  10.529  -9.958  1.00  0.00     0.029 A 
ATOM     43  N   UNL     1       0.538  12.361 -10.802  1.00  0.00    -0.354 N 
ATOM     44  C   UNL     1       4.124  12.082 -13.207  1.00  0.00     0.074 A 
ATOM     45  C   UNL     1       4.531  10.704 -13.379  1.00  0.00     0.031 C 
ATOM     46  C   UNL     1      -1.134  11.588  -9.532  1.00  0.00     0.029 A 
ATOM     47  C   UNL     1      -0.520  12.808 -10.045  1.00  0.00     0.049 A 
ATOM     48  H   UNL     1       1.142  12.964 -11.292  1.00  0.00     0.167 HD
ATOM     49  C   UNL     1       4.782  13.141 -13.734  1.00  0.00     0.031 A 
ATOM     50  C   UNL     1      -0.943  14.061  -9.789  1.00  0.00     0.031 A 
ATOM     51  C   UNL     1       4.360  14.506 -13.580  1.00  0.00     0.049 A 
ATOM     52  C   UNL     1      -0.204  15.221 -10.398  1.00  0.00     0.074 A 
ATOM     53  C   UNL     1       4.925  15.648 -14.120  1.00  0.00     0.029 A 
ATOM     54  N   UNL     1       3.265  14.915 -12.834  1.00  0.00    -0.354 N 
ATOM     55  N   UNL     1       0.861  15.207 -11.164  1.00  0.00    -0.248 NA
ATOM     56  C   UNL     1      -0.731  16.564 -10.118  1.00  0.00     0.031 C 
ATOM     57  C   UNL     1       4.192  16.751 -13.670  1.00  0.00     0.029 A 
ATOM     58  C   UNL     1       3.144  16.292 -12.889  1.00  0.00     0.049 A 
ATOM     59  H   UNL     1       2.663  14.314 -12.338  1.00  0.00     0.167 HD
ATOM     60  C   UNL     1       1.115  16.537 -11.480  1.00  0.00     0.074 A 
ATOM     61  C   UNL     1       0.087  17.326 -10.832  1.00  0.00     0.031 C 
ATOM     62  C   UNL     1       2.109  17.057 -12.242  1.00  0.00     0.031 A 
BRANCH  49  63
ATOM     63  C   UNL     1       6.028  12.855 -14.527  1.00  0.00    -0.014 A 
ATOM     64  C   UNL     1       5.958  12.239 -15.790  1.00  0.00     0.010 A 
ATOM     65  C   UNL     1       7.284  13.226 -14.014  1.00  0.00     0.010 A 
ATOM     66  C   UNL     1       7.124  11.957 -16.505  1.00  0.00     0.020 A 
ATOM     67  C   UNL     1       8.452  12.970 -14.740  1.00  0.00     0.020 A 
ATOM     68  C   UNL     1       8.364  12.319 -15.972  1.00  0.00     0.054 A 
BRANCH  68  69
ATOM     69  S   UNL     1       9.862  11.954 -16.928  1.00  0.00     0.124 S 
ATOM     70  O   UNL     1      10.000  10.514 -16.729  1.00  0.00    -0.237 OA
ATOM     71  O   UNL     1       9.491  12.368 -18.279  1.00  0.00    -0.237 OA
ATOM     72  O   UNL     1      10.889  12.773 -16.289  1.00  0.00    -0.744 OA
ENDBRANCH  68  69
ENDBRANCH  49  63
BRANCH  50  73
ATOM     73  C   UNL     1      -2.140  14.282  -8.934  1.00  0.00    -0.014 A 
ATOM     74  C   UNL     1      -3.352  14.709  -9.504  1.00  0.00     0.010 A 
ATOM     75  C   UNL     1      -2.079  14.053  -7.547  1.00  0.00     0.010 A 
ATOM     76  C   UNL     1      -4.477  14.921  -8.702  1.00  0.00     0.020 A 
ATOM     77  C   UNL     1      -3.209  14.240  -6.745  1.00  0.00     0.020 A 
ATOM     78  C   UNL     1      -4.398  14.685  -7.327  1.00  0.00     0.054 A 
BRANCH  78  79
ATOM     79  S   UNL     1      -5.884  14.917  -6.312  1.00  0.00     0.124 S 
ATOM     80  O   UNL     1      -5.961  16.371  -6.214  1.00  0.00    -0.237 OA
ATOM     81  O   UNL     1      -6.922  14.281  -7.120  1.00  0.00    -0.237 OA
ATOM     82  O   UNL     1      -5.559  14.220  -5.069  1.00  0.00    -0.744 OA
ENDBRANCH  78  79
ENDBRANCH  50  73
BRANCH  62  83
ATOM     83  C   UNL     1       2.112  18.547 -12.451  1.00  0.00    -0.014 A 
ATOM     84  C   UNL     1       2.508  19.425 -11.427  1.00  0.00     0.010 A 
ATOM     85  C   UNL     1       1.774  19.068 -13.713  1.00  0.00     0.010 A 
ATOM     86  C   UNL     1       2.541  20.803 -11.656  1.00  0.00     0.020 A 
ATOM     87  C   UNL     1       1.830  20.442 -13.952  1.00  0.00     0.020 A 
ATOM     88  C   UNL     1       2.201  21.303 -12.917  1.00  0.00     0.054 A 
BRANCH  88  89
ATOM     89  S   UNL     1       2.302  23.090 -13.206  1.00  0.00     0.124 S 
ATOM     90  O   UNL     1       1.106  23.576 -12.522  1.00  0.00    -0.237 OA
ATOM     91  O   UNL     1       3.573  23.447 -12.579  1.00  0.00    -0.237 OA
ATOM     92  O   UNL     1       2.279  23.207 -14.662  1.00  0.00    -0.744 OA
ENDBRANCH  88  89
ENDBRANCH  62  83
ENDBRANCH  36  37
ENDBRANCH  28  31
ENDBRANCH  26  27
ENDBRANCH  25  26
ENDBRANCH   1  25
TORSDOF 18
