REMARK SMILES O=C(NCCCCNC(=O)[C@@H]1CC=CC[C@@H]1C(=O)Nc1ccc(O)cc1)c1ccc(-c2c3nc(c(-c4ccc(S(=O)(=O)[O-])cc4)c4ccc([nH]4)c(-c4ccc(S(=O)(=O)[O-])cc4)c4nc(c(-c5ccc(S(=O)(=O)[O-])cc5)c5ccc2[nH]5)C=C4)C=C3)cc1
REMARK SMILES IDX 5 1 4 2 3 3 1 4 2 5 27 7 28 8 86 9 29 10 85 11 30 12 31 13
REMARK SMILES IDX 32 14 79 15 33 16 84 17 78 18 80 19 34 20 83 21 77 22 76 23
REMARK SMILES IDX 35 25 65 26 46 27 64 28 47 29 50 30 63 31 81 32 48 33 49 34
REMARK SMILES IDX 62 36 82 37 51 38 36 39 37 40 45 41 38 42 44 43 39 44 40 45
REMARK SMILES IDX 41 46 42 47 43 48 66 49 67 50 75 51 68 52 74 53 69 54 70 55
REMARK SMILES IDX 71 56 72 57 73 58 52 59 53 60 61 61 54 62 60 63 55 64 56 65
REMARK SMILES IDX 57 66 58 67 59 68 6 69 7 70 8 71 9 72 10 74 11 75 12 76
REMARK SMILES IDX 16 77 13 78 15 79 14 80 17 81 18 82 19 83 20 85 21 86 26 87
REMARK SMILES IDX 22 88 25 89 23 90 24 91
REMARK H PARENT 3 6 80 24 50 35 8 73 19 84 24 92
REMARK Flexibility Score: inf
ROOT
ATOM      1  C   UNL     1       3.235   8.108  -3.704  1.00  0.00     0.023 C 
ENDROOT
BRANCH   1   2
ATOM      2  C   UNL     1       2.700   8.497  -2.334  1.00  0.00     0.116 C 
BRANCH   2   3
ATOM      3  N   UNL     1       3.322   9.676  -1.750  1.00  0.00    -0.352 N 
ATOM      4  O   UNL     1       3.442  11.527  -0.461  1.00  0.00    -0.269 OA
ATOM      5  C   UNL     1       2.786  10.565  -0.846  1.00  0.00     0.251 C 
ATOM      6  H   UNL     1       4.246   9.860  -2.037  1.00  0.00     0.163 HD
BRANCH   5   7
ATOM      7  C   UNL     1       1.391  10.378  -0.394  1.00  0.00     0.039 A 
ATOM      8  C   UNL     1       0.939   9.122   0.010  1.00  0.00     0.014 A 
ATOM      9  C   UNL     1       0.510  11.463  -0.440  1.00  0.00     0.014 A 
ATOM     10  C   UNL     1      -0.419   8.911   0.196  1.00  0.00     0.010 A 
ATOM     11  C   UNL     1      -0.846  11.268  -0.156  1.00  0.00     0.010 A 
ATOM     12  C   UNL     1      -1.328   9.981   0.122  1.00  0.00    -0.014 A 
BRANCH  12  13
ATOM     13  C   UNL     1      -2.762   9.712   0.395  1.00  0.00     0.031 A 
ATOM     14  C   UNL     1      -3.809   9.866  -0.674  1.00  0.00     0.074 A 
ATOM     15  C   UNL     1      -3.097   9.241   1.613  1.00  0.00     0.049 A 
ATOM     16  N   UNL     1      -5.085   9.579  -0.615  1.00  0.00    -0.248 NA
ATOM     17  C   UNL     1      -3.380  10.414  -1.970  1.00  0.00     0.031 C 
ATOM     18  C   UNL     1      -2.165   9.067   2.732  1.00  0.00     0.029 A 
ATOM     19  N   UNL     1      -4.290   8.781   2.102  1.00  0.00    -0.354 N 
ATOM     20  C   UNL     1      -5.614   9.924  -1.853  1.00  0.00     0.074 A 
ATOM     21  C   UNL     1      -4.525  10.462  -2.639  1.00  0.00     0.031 C 
ATOM     22  C   UNL     1      -2.805   8.473   3.749  1.00  0.00     0.029 A 
ATOM     23  C   UNL     1      -4.201   8.281   3.379  1.00  0.00     0.049 A 
ATOM     24  H   UNL     1      -5.130   8.806   1.589  1.00  0.00     0.167 HD
ATOM     25  C   UNL     1      -6.890   9.797  -2.294  1.00  0.00     0.031 A 
ATOM     26  C   UNL     1      -5.138   7.731   4.173  1.00  0.00     0.031 A 
ATOM     27  C   UNL     1      -7.970   9.259  -1.507  1.00  0.00     0.049 A 
ATOM     28  C   UNL     1      -6.537   7.590   3.652  1.00  0.00     0.074 A 
ATOM     29  C   UNL     1      -9.298   9.094  -1.863  1.00  0.00     0.029 A 
ATOM     30  N   UNL     1      -7.846   8.792  -0.207  1.00  0.00    -0.354 N 
ATOM     31  N   UNL     1      -7.012   7.923   2.475  1.00  0.00    -0.248 NA
ATOM     32  C   UNL     1      -7.525   7.002   4.564  1.00  0.00     0.031 C 
ATOM     33  C   UNL     1      -9.984   8.558  -0.767  1.00  0.00     0.029 A 
ATOM     34  C   UNL     1      -9.074   8.348   0.257  1.00  0.00     0.049 A 
ATOM     35  H   UNL     1      -7.009   8.778   0.311  1.00  0.00     0.167 HD
ATOM     36  C   UNL     1      -8.360   7.592   2.509  1.00  0.00     0.074 A 
ATOM     37  C   UNL     1      -8.612   6.995   3.806  1.00  0.00     0.031 C 
ATOM     38  C   UNL     1      -9.308   7.778   1.558  1.00  0.00     0.031 A 
BRANCH  25  39
ATOM     39  C   UNL     1      -7.198  10.264  -3.693  1.00  0.00    -0.014 A 
ATOM     40  C   UNL     1      -6.798   9.511  -4.812  1.00  0.00     0.010 A 
ATOM     41  C   UNL     1      -7.954  11.434  -3.891  1.00  0.00     0.010 A 
ATOM     42  C   UNL     1      -7.129   9.933  -6.104  1.00  0.00     0.020 A 
ATOM     43  C   UNL     1      -8.304  11.848  -5.180  1.00  0.00     0.020 A 
ATOM     44  C   UNL     1      -7.878  11.100  -6.280  1.00  0.00     0.054 A 
BRANCH  44  45
ATOM     45  S   UNL     1      -8.328  11.603  -7.965  1.00  0.00     0.124 S 
ATOM     46  O   UNL     1      -7.060  12.125  -8.470  1.00  0.00    -0.237 OA
ATOM     47  O   UNL     1      -8.774  10.350  -8.567  1.00  0.00    -0.237 OA
ATOM     48  O   UNL     1      -9.376  12.600  -7.761  1.00  0.00    -0.744 OA
ENDBRANCH  44  45
ENDBRANCH  25  39
BRANCH  26  49
ATOM     49  C   UNL     1      -4.776   7.300   5.548  1.00  0.00    -0.014 A 
ATOM     50  C   UNL     1      -4.715   5.938   5.885  1.00  0.00     0.010 A 
ATOM     51  C   UNL     1      -4.455   8.264   6.521  1.00  0.00     0.010 A 
ATOM     52  C   UNL     1      -4.352   5.547   7.177  1.00  0.00     0.020 A 
ATOM     53  C   UNL     1      -4.064   7.877   7.804  1.00  0.00     0.020 A 
ATOM     54  C   UNL     1      -4.028   6.520   8.128  1.00  0.00     0.054 A 
BRANCH  54  55
ATOM     55  S   UNL     1      -3.498   5.998   9.783  1.00  0.00     0.124 S 
ATOM     56  O   UNL     1      -4.774   5.719  10.433  1.00  0.00    -0.237 OA
ATOM     57  O   UNL     1      -2.663   4.833   9.499  1.00  0.00    -0.237 OA
ATOM     58  O   UNL     1      -2.775   7.162  10.288  1.00  0.00    -0.744 OA
ENDBRANCH  54  55
ENDBRANCH  26  49
BRANCH  38  59
ATOM     59  C   UNL     1     -10.701   7.330   1.901  1.00  0.00    -0.014 A 
ATOM     60  C   UNL     1     -11.487   8.059   2.812  1.00  0.00     0.010 A 
ATOM     61  C   UNL     1     -11.228   6.169   1.310  1.00  0.00     0.010 A 
ATOM     62  C   UNL     1     -12.760   7.607   3.164  1.00  0.00     0.020 A 
ATOM     63  C   UNL     1     -12.511   5.726   1.643  1.00  0.00     0.020 A 
ATOM     64  C   UNL     1     -13.259   6.437   2.585  1.00  0.00     0.054 A 
BRANCH  64  65
ATOM     65  S   UNL     1     -14.915   5.865   3.054  1.00  0.00     0.124 S 
ATOM     66  O   UNL     1     -14.663   5.241   4.350  1.00  0.00    -0.237 OA
ATOM     67  O   UNL     1     -15.688   7.104   3.092  1.00  0.00    -0.237 OA
ATOM     68  O   UNL     1     -15.279   4.945   1.979  1.00  0.00    -0.744 OA
ENDBRANCH  64  65
ENDBRANCH  38  59
ENDBRANCH  12  13
ENDBRANCH   5   7
ENDBRANCH   2   3
ENDBRANCH   1   2
BRANCH   1  69
ATOM     69  C   UNL     1       4.755   8.045  -3.835  1.00  0.00     0.023 C 
BRANCH  69  70
ATOM     70  C   UNL     1       5.495   7.277  -2.746  1.00  0.00     0.116 C 
BRANCH  70  71
ATOM     71  N   UNL     1       5.337   5.843  -2.821  1.00  0.00    -0.356 N 
ATOM     72  C   UNL     1       6.062   4.886  -3.443  1.00  0.00     0.224 C 
ATOM     73  H   UNL     1       4.557   5.499  -2.329  1.00  0.00     0.163 HD
ATOM     74  O   UNL     1       5.836   3.724  -3.078  1.00  0.00    -0.275 OA
BRANCH  72  75
ATOM     75  C   UNL     1       7.043   5.114  -4.585  1.00  0.00     0.095 C 
ATOM     76  C   UNL     1       7.761   6.449  -4.755  1.00  0.00     0.041 C 
ATOM     77  C   UNL     1       6.513   4.529  -5.913  1.00  0.00     0.095 C 
ATOM     78  C   UNL     1       8.741   6.418  -5.893  1.00  0.00    -0.030 C 
ATOM     79  C   UNL     1       7.704   4.363  -6.896  1.00  0.00     0.041 C 
ATOM     80  C   UNL     1       8.726   5.472  -6.843  1.00  0.00    -0.030 C 
BRANCH  77  81
ATOM     81  C   UNL     1       5.439   5.358  -6.644  1.00  0.00     0.228 C 
ATOM     82  O   UNL     1       5.636   6.522  -6.997  1.00  0.00    -0.274 OA
ATOM     83  N   UNL     1       4.328   4.707  -7.129  1.00  0.00    -0.326 N 
ATOM     84  H   UNL     1       4.001   5.019  -8.004  1.00  0.00     0.169 HD
BRANCH  83  85
ATOM     85  C   UNL     1       3.598   3.660  -6.548  1.00  0.00     0.041 A 
ATOM     86  C   UNL     1       3.456   3.559  -5.165  1.00  0.00     0.030 A 
ATOM     87  C   UNL     1       2.909   2.764  -7.366  1.00  0.00     0.030 A 
ATOM     88  C   UNL     1       2.724   2.523  -4.587  1.00  0.00     0.048 A 
ATOM     89  C   UNL     1       2.180   1.715  -6.793  1.00  0.00     0.048 A 
ATOM     90  C   UNL     1       2.106   1.594  -5.410  1.00  0.00     0.115 A 
BRANCH  90  91
ATOM     91  O   UNL     1       1.401   0.551  -4.890  1.00  0.00    -0.508 OA
ATOM     92  H   UNL     1       1.335   0.446  -3.961  1.00  0.00     0.293 HD
ENDBRANCH  90  91
ENDBRANCH  83  85
ENDBRANCH  77  81
ENDBRANCH  72  75
ENDBRANCH  70  71
ENDBRANCH  69  70
ENDBRANCH   1  69
TORSDOF 17
