REMARK SMILES Cc1ccc(S(=O)(=O)n2cc(C(=O)C(=O)N[C@@H](Cc3cnc[nH]3)C(=O)NCCCCNC(=O)c3ccc(-c4c5nc(c(-c6ccc(S(=O)(=O)[O-])cc6)c6ccc([nH]6)c(-c6ccc(S(=O)(=O)[O-])cc6)c6nc(c(-c7ccc(S(=O)(=O)[O-])cc7)c7ccc4[nH]7)C=C6)C=C5)cc3)c3ccccc32)cc1
REMARK SMILES IDX 27 1 26 2 24 3 25 4 17 6 16 7 14 8 15 9 12 11 13 12 11 13
REMARK SMILES IDX 9 14 10 15 99 16 94 17 98 18 95 19 97 20 96 21 6 22 7 23
REMARK SMILES IDX 8 24 5 25 1 26 2 27 3 28 101 29 4 30 100 31 18 32 19 33
REMARK SMILES IDX 20 34 23 35 21 36 22 37 28 39 29 40 30 41 31 42 32 43 33 45
REMARK SMILES IDX 34 46 35 47 93 48 36 49 92 50 37 51 38 52 39 53 86 54 40 55
REMARK SMILES IDX 91 56 85 57 87 58 41 59 90 60 84 61 83 62 42 64 72 65 53 66
REMARK SMILES IDX 71 67 54 68 57 69 70 70 88 71 55 72 56 73 69 75 89 76 58 77
REMARK SMILES IDX 43 78 44 79 52 80 45 81 51 82 46 83 47 84 48 85 49 86 50 87
REMARK SMILES IDX 73 88 74 89 82 90 75 91 81 92 76 93 77 94 78 95 79 96 80 97
REMARK SMILES IDX 59 98 60 99 68 100 61 101 67 102 62 103 63 104 64 105 65 106
REMARK SMILES IDX 66 107
REMARK H PARENT 26 5 16 10 23 38 31 44 87 63 57 74
REMARK Flexibility Score: inf
ROOT
ATOM      1  C   UNL     1      -8.342   5.947   6.075  1.00  0.00     0.116 C 
ENDROOT
BRANCH   1   2
ATOM      2  N   UNL     1      -7.382   6.832   5.435  1.00  0.00    -0.354 N 
ATOM      3  C   UNL     1      -7.243   7.184   4.123  1.00  0.00     0.242 C 
ATOM      4  O   UNL     1      -6.696   8.272   3.898  1.00  0.00    -0.273 OA
ATOM      5  H   UNL     1      -6.727   7.243   6.045  1.00  0.00     0.163 HD
BRANCH   3   6
ATOM      6  C   UNL     1      -7.801   6.353   2.941  1.00  0.00     0.177 C 
BRANCH   6   7
ATOM      7  N   UNL     1      -7.596   4.907   3.111  1.00  0.00    -0.337 N 
ATOM      8  C   UNL     1      -6.767   4.022   2.464  1.00  0.00     0.293 C 
ATOM      9  O   UNL     1      -6.616   2.907   2.955  1.00  0.00    -0.265 OA
ATOM     10  H   UNL     1      -8.151   4.500   3.816  1.00  0.00     0.164 HD
BRANCH   8  11
ATOM     11  C   UNL     1      -6.073   4.384   1.127  1.00  0.00     0.252 C 
ATOM     12  O   UNL     1      -6.304   5.476   0.619  1.00  0.00    -0.283 OA
BRANCH  11  13
ATOM     13  C   UNL     1      -5.198   3.430   0.421  1.00  0.00     0.054 A 
ATOM     14  N   UNL     1      -4.126   1.578  -0.219  1.00  0.00    -0.240 N 
ATOM     15  C   UNL     1      -4.900   2.125   0.771  1.00  0.00     0.117 A 
ATOM     16  C   UNL     1      -3.866   2.495  -1.215  1.00  0.00     0.065 A 
ATOM     17  C   UNL     1      -4.494   3.682  -0.813  1.00  0.00     0.012 A 
ATOM     18  C   UNL     1      -3.133   2.413  -2.414  1.00  0.00     0.028 A 
ATOM     19  C   UNL     1      -4.355   4.824  -1.633  1.00  0.00     0.011 A 
ATOM     20  C   UNL     1      -3.010   3.563  -3.196  1.00  0.00     0.002 A 
ATOM     21  C   UNL     1      -3.606   4.757  -2.810  1.00  0.00     0.001 A 
BRANCH  14  22
ATOM     22  S   UNL     1      -3.537  -0.018  -0.187  1.00  0.00     0.268 S 
ATOM     23  O   UNL     1      -3.831  -0.563  -1.493  1.00  0.00    -0.201 OA
ATOM     24  O   UNL     1      -4.057  -0.617   1.034  1.00  0.00    -0.201 OA
BRANCH  22  25
ATOM     25  C   UNL     1      -1.772   0.047  -0.019  1.00  0.00     0.088 A 
ATOM     26  C   UNL     1       2.526  -0.039   0.047  1.00  0.00     0.044 C 
ATOM     27  C   UNL     1       1.026  -0.004   0.048  1.00  0.00    -0.051 A 
ATOM     28  C   UNL     1       0.302  -1.197  -0.059  1.00  0.00     0.005 A 
ATOM     29  C   UNL     1       0.335   1.209   0.160  1.00  0.00     0.005 A 
ATOM     30  C   UNL     1      -1.092  -1.173  -0.098  1.00  0.00     0.022 A 
ATOM     31  C   UNL     1      -1.063   1.238   0.140  1.00  0.00     0.022 A 
ENDBRANCH  22  25
ENDBRANCH  14  22
ENDBRANCH  11  13
ENDBRANCH   8  11
ENDBRANCH   6   7
BRANCH   6  32
ATOM     32  C   UNL     1      -9.230   6.743   2.506  1.00  0.00     0.090 C 
BRANCH  32  33
ATOM     33  C   UNL     1     -10.306   6.274   3.417  1.00  0.00     0.037 A 
ATOM     34  C   UNL     1     -10.904   5.040   3.568  1.00  0.00     0.134 A 
ATOM     35  N   UNL     1     -10.898   7.068   4.372  1.00  0.00    -0.348 N 
ATOM     36  N   UNL     1     -11.714   5.030   4.665  1.00  0.00    -0.245 NA
ATOM     37  C   UNL     1     -11.642   6.242   5.164  1.00  0.00     0.196 A 
ATOM     38  H   UNL     1     -10.804   8.043   4.465  1.00  0.00     0.167 HD
ENDBRANCH  32  33
ENDBRANCH   6  32
ENDBRANCH   3   6
ENDBRANCH   1   2
BRANCH   1  39
ATOM     39  C   UNL     1      -7.755   4.966   7.086  1.00  0.00     0.023 C 
BRANCH  39  40
ATOM     40  C   UNL     1      -7.217   5.580   8.373  1.00  0.00     0.023 C 
BRANCH  40  41
ATOM     41  C   UNL     1      -8.224   6.385   9.180  1.00  0.00     0.116 C 
BRANCH  41  42
ATOM     42  N   UNL     1      -9.141   5.645  10.030  1.00  0.00    -0.352 N 
ATOM     43  C   UNL     1      -9.748   6.229  11.144  1.00  0.00     0.251 C 
ATOM     44  H   UNL     1      -9.340   4.705   9.816  1.00  0.00     0.163 HD
ATOM     45  O   UNL     1      -9.741   5.735  12.263  1.00  0.00    -0.269 OA
BRANCH  43  46
ATOM     46  C   UNL     1     -10.496   7.482  10.878  1.00  0.00     0.039 A 
ATOM     47  C   UNL     1     -11.888   7.511  11.021  1.00  0.00     0.014 A 
ATOM     48  C   UNL     1      -9.824   8.550  10.290  1.00  0.00     0.014 A 
ATOM     49  C   UNL     1     -12.615   8.531  10.408  1.00  0.00     0.010 A 
ATOM     50  C   UNL     1     -10.537   9.467   9.567  1.00  0.00     0.010 A 
ATOM     51  C   UNL     1     -11.931   9.444   9.610  1.00  0.00    -0.014 A 
BRANCH  51  52
ATOM     52  C   UNL     1     -12.542  10.463   8.781  1.00  0.00     0.031 A 
ATOM     53  C   UNL     1     -12.611  11.840   9.303  1.00  0.00     0.074 A 
ATOM     54  C   UNL     1     -12.816  10.163   7.493  1.00  0.00     0.049 A 
ATOM     55  N   UNL     1     -13.466  12.716   8.909  1.00  0.00    -0.248 NA
ATOM     56  C   UNL     1     -11.723  12.334  10.358  1.00  0.00     0.031 C 
ATOM     57  C   UNL     1     -13.080  11.088   6.397  1.00  0.00     0.029 A 
ATOM     58  N   UNL     1     -13.097   8.906   6.949  1.00  0.00    -0.354 N 
ATOM     59  C   UNL     1     -13.046  13.933   9.402  1.00  0.00     0.074 A 
ATOM     60  C   UNL     1     -12.030  13.634  10.380  1.00  0.00     0.031 C 
ATOM     61  C   UNL     1     -13.754  10.430   5.436  1.00  0.00     0.029 A 
ATOM     62  C   UNL     1     -14.080   9.112   5.969  1.00  0.00     0.049 A 
ATOM     63  H   UNL     1     -12.687   8.048   7.203  1.00  0.00     0.167 HD
ATOM     64  C   UNL     1     -13.465  15.078   8.799  1.00  0.00     0.031 A 
ATOM     65  C   UNL     1     -15.341   8.588   6.050  1.00  0.00     0.031 A 
ATOM     66  C   UNL     1     -14.341  14.780   7.673  1.00  0.00     0.049 A 
ATOM     67  C   UNL     1     -16.394   9.674   6.085  1.00  0.00     0.074 A 
ATOM     68  C   UNL     1     -14.090  14.675   6.315  1.00  0.00     0.029 A 
ATOM     69  N   UNL     1     -15.572  14.183   7.901  1.00  0.00    -0.354 N 
ATOM     70  N   UNL     1     -16.157  10.900   6.463  1.00  0.00    -0.248 NA
ATOM     71  C   UNL     1     -17.790   9.461   5.718  1.00  0.00     0.031 C 
ATOM     72  C   UNL     1     -15.156  13.947   5.733  1.00  0.00     0.029 A 
ATOM     73  C   UNL     1     -16.061  13.634   6.732  1.00  0.00     0.049 A 
ATOM     74  H   UNL     1     -16.032  14.156   8.772  1.00  0.00     0.167 HD
ATOM     75  C   UNL     1     -17.312  11.633   6.388  1.00  0.00     0.074 A 
ATOM     76  C   UNL     1     -18.308  10.686   5.921  1.00  0.00     0.031 C 
ATOM     77  C   UNL     1     -17.349  12.959   6.714  1.00  0.00     0.031 A 
BRANCH  64  78
ATOM     78  C   UNL     1     -12.820  16.423   9.017  1.00  0.00    -0.014 A 
ATOM     79  C   UNL     1     -12.768  17.332   7.940  1.00  0.00     0.010 A 
ATOM     80  C   UNL     1     -12.241  16.847  10.228  1.00  0.00     0.010 A 
ATOM     81  C   UNL     1     -12.119  18.567   8.037  1.00  0.00     0.020 A 
ATOM     82  C   UNL     1     -11.562  18.075  10.332  1.00  0.00     0.020 A 
ATOM     83  C   UNL     1     -11.506  18.927   9.232  1.00  0.00     0.054 A 
BRANCH  83  84
ATOM     84  S   UNL     1     -10.660  20.526   9.317  1.00  0.00     0.124 S 
ATOM     85  O   UNL     1      -9.685  20.425   8.233  1.00  0.00    -0.237 OA
ATOM     86  O   UNL     1     -11.752  21.469   9.095  1.00  0.00    -0.237 OA
ATOM     87  O   UNL     1     -10.087  20.544  10.662  1.00  0.00    -0.744 OA
ENDBRANCH  83  84
ENDBRANCH  64  78
BRANCH  65  88
ATOM     88  C   UNL     1     -15.436   7.311   6.821  1.00  0.00    -0.014 A 
ATOM     89  C   UNL     1     -14.916   6.140   6.231  1.00  0.00     0.010 A 
ATOM     90  C   UNL     1     -15.584   7.353   8.220  1.00  0.00     0.010 A 
ATOM     91  C   UNL     1     -14.357   5.131   7.026  1.00  0.00     0.020 A 
ATOM     92  C   UNL     1     -15.027   6.340   9.016  1.00  0.00     0.020 A 
ATOM     93  C   UNL     1     -14.339   5.284   8.411  1.00  0.00     0.054 A 
BRANCH  93  94
ATOM     94  S   UNL     1     -13.235   4.216   9.390  1.00  0.00     0.124 S 
ATOM     95  O   UNL     1     -13.647   2.876   8.988  1.00  0.00    -0.237 OA
ATOM     96  O   UNL     1     -11.908   4.643   8.936  1.00  0.00    -0.237 OA
ATOM     97  O   UNL     1     -13.557   4.582  10.766  1.00  0.00    -0.744 OA
ENDBRANCH  93  94
ENDBRANCH  65  88
BRANCH  77  98
ATOM     98  C   UNL     1     -18.588  13.788   6.953  1.00  0.00    -0.014 A 
ATOM     99  C   UNL     1     -19.861  13.252   7.195  1.00  0.00     0.010 A 
ATOM    100  C   UNL     1     -18.456  15.196   7.071  1.00  0.00     0.010 A 
ATOM    101  C   UNL     1     -20.958  14.080   7.468  1.00  0.00     0.020 A 
ATOM    102  C   UNL     1     -19.530  16.025   7.400  1.00  0.00     0.020 A 
ATOM    103  C   UNL     1     -20.786  15.461   7.564  1.00  0.00     0.054 A 
BRANCH 103 104
ATOM    104  S   UNL     1     -22.208  16.509   7.949  1.00  0.00     0.124 S 
ATOM    105  O   UNL     1     -22.842  16.642   6.641  1.00  0.00    -0.237 OA
ATOM    106  O   UNL     1     -22.945  15.708   8.924  1.00  0.00    -0.237 OA
ATOM    107  O   UNL     1     -21.605  17.727   8.483  1.00  0.00    -0.744 OA
ENDBRANCH 103 104
ENDBRANCH  77  98
ENDBRANCH  51  52
ENDBRANCH  43  46
ENDBRANCH  41  42
ENDBRANCH  40  41
ENDBRANCH  39  40
ENDBRANCH   1  39
TORSDOF 21
