REMARK SMILES C[N@@H+](CC(=O)NCCCCNC(=O)c1ccc(-c2c3nc(c(-c4ccc(S(=O)(=O)[O-])cc4)c4ccc([nH]4)c(-c4ccc(S(=O)(=O)[O-])cc4)c4nc(c(-c5ccc(S(=O)(=O)[O-])cc5)c5ccc2[nH]5)C=C4)C=C3)cc1)Cc1csc(-c2ccco2)n1
REMARK SMILES IDX 8 1 7 2 6 3 4 4 5 5 3 7 2 8 1 9 74 11 75 12 76 13 84 14
REMARK SMILES IDX 77 15 78 16 79 17 80 18 83 19 81 20 82 21 9 22 10 23 11 24
REMARK SMILES IDX 12 25 13 27 14 28 15 29 73 30 16 31 72 32 17 33 18 34 19 35
REMARK SMILES IDX 66 36 20 37 71 38 65 39 67 40 21 41 70 42 64 43 63 44 22 46
REMARK SMILES IDX 52 47 33 48 51 49 34 50 37 51 50 52 68 53 35 54 36 55 49 57
REMARK SMILES IDX 69 58 38 59 23 60 24 61 32 62 25 63 31 64 26 65 27 66 28 67
REMARK SMILES IDX 29 68 30 69 53 70 54 71 62 72 55 73 61 74 56 75 57 76 58 77
REMARK SMILES IDX 59 78 60 79 39 80 40 81 48 82 41 83 47 84 42 85 43 86 44 87
REMARK SMILES IDX 45 88 46 89
REMARK H PARENT 6 6 2 10 11 26 67 45 37 56
REMARK Flexibility Score: inf
ROOT
ATOM      1  C   UNL     1       0.675   2.302  -0.506  1.00  0.00     0.023 C 
ENDROOT
BRANCH   1   2
ATOM      2  C   UNL     1      -0.590   1.679   0.078  1.00  0.00     0.116 C 
BRANCH   2   3
ATOM      3  N   UNL     1      -1.341   0.913  -0.893  1.00  0.00    -0.351 N 
ATOM      4  C   UNL     1      -1.493  -0.438  -1.006  1.00  0.00     0.275 C 
ATOM      5  O   UNL     1      -2.300  -0.862  -1.839  1.00  0.00    -0.269 OA
ATOM      6  H   UNL     1      -1.813   1.446  -1.573  1.00  0.00     0.163 HD
BRANCH   4   7
ATOM      7  C   UNL     1      -0.756  -1.403  -0.075  1.00  0.00     0.363 C 
BRANCH   7   8
ATOM      8  N   UNL     1       0.649  -1.640  -0.385  1.00  0.00    -0.325 N 
ATOM      9  C   UNL     1       1.671  -0.949   0.356  1.00  0.00     0.333 C 
ATOM     10  H   UNL     1       0.553  -2.505   0.147  1.00  0.00     0.348 HD
BRANCH   8  11
ATOM     11  C   UNL     1       1.054  -2.254  -1.642  1.00  0.00     0.320 C 
BRANCH  11  12
ATOM     12  C   UNL     1       0.639  -1.511  -2.880  1.00  0.00     0.106 A 
ATOM     13  C   UNL     1      -0.187  -2.031  -3.863  1.00  0.00     0.097 A 
ATOM     14  N   UNL     1       1.091  -0.214  -3.138  1.00  0.00    -0.232 NA
ATOM     15  S   UNL     1      -0.507  -0.859  -5.062  1.00  0.00    -0.119 S 
ATOM     16  C   UNL     1       0.498   0.252  -4.224  1.00  0.00     0.159 A 
BRANCH  16  17
ATOM     17  C   UNL     1       0.635   1.602  -4.696  1.00  0.00     0.162 A 
ATOM     18  C   UNL     1       1.764   2.407  -4.732  1.00  0.00     0.053 A 
ATOM     19  O   UNL     1      -0.429   2.335  -5.172  1.00  0.00    -0.462 OA
ATOM     20  C   UNL     1       1.369   3.668  -5.249  1.00  0.00     0.043 A 
ATOM     21  C   UNL     1       0.022   3.573  -5.494  1.00  0.00     0.196 A 
ENDBRANCH  16  17
ENDBRANCH  11  12
ENDBRANCH   8  11
ENDBRANCH   7   8
ENDBRANCH   4   7
ENDBRANCH   2   3
ENDBRANCH   1   2
BRANCH   1  22
ATOM     22  C   UNL     1       0.435   3.348  -1.585  1.00  0.00     0.023 C 
BRANCH  22  23
ATOM     23  C   UNL     1      -0.311   4.591  -1.140  1.00  0.00     0.116 C 
BRANCH  23  24
ATOM     24  N   UNL     1       0.449   5.399  -0.199  1.00  0.00    -0.352 N 
ATOM     25  C   UNL     1       0.907   6.692  -0.326  1.00  0.00     0.251 C 
ATOM     26  H   UNL     1       0.668   4.958   0.653  1.00  0.00     0.163 HD
ATOM     27  O   UNL     1       1.668   7.160   0.511  1.00  0.00    -0.269 OA
BRANCH  25  28
ATOM     28  C   UNL     1       0.504   7.497  -1.502  1.00  0.00     0.039 A 
ATOM     29  C   UNL     1       1.477   8.219  -2.198  1.00  0.00     0.014 A 
ATOM     30  C   UNL     1      -0.821   7.504  -1.941  1.00  0.00     0.014 A 
ATOM     31  C   UNL     1       1.137   8.866  -3.390  1.00  0.00     0.010 A 
ATOM     32  C   UNL     1      -1.136   8.063  -3.174  1.00  0.00     0.010 A 
ATOM     33  C   UNL     1      -0.160   8.747  -3.915  1.00  0.00    -0.014 A 
BRANCH  33  34
ATOM     34  C   UNL     1      -0.529   9.318  -5.236  1.00  0.00     0.031 A 
ATOM     35  C   UNL     1      -1.609  10.362  -5.325  1.00  0.00     0.074 A 
ATOM     36  C   UNL     1       0.038   8.833  -6.359  1.00  0.00     0.049 A 
ATOM     37  N   UNL     1      -2.155  10.896  -6.388  1.00  0.00    -0.248 NA
ATOM     38  C   UNL     1      -2.169  10.847  -4.053  1.00  0.00     0.031 C 
ATOM     39  C   UNL     1       1.076   7.800  -6.410  1.00  0.00     0.029 A 
ATOM     40  N   UNL     1      -0.187   9.139  -7.678  1.00  0.00    -0.354 N 
ATOM     41  C   UNL     1      -3.133  11.762  -5.913  1.00  0.00     0.074 A 
ATOM     42  C   UNL     1      -3.144  11.639  -4.472  1.00  0.00     0.031 C 
ATOM     43  C   UNL     1       1.419   7.582  -7.690  1.00  0.00     0.029 A 
ATOM     44  C   UNL     1       0.592   8.419  -8.553  1.00  0.00     0.049 A 
ATOM     45  H   UNL     1      -0.845   9.810  -7.970  1.00  0.00     0.167 HD
ATOM     46  C   UNL     1      -3.936  12.600  -6.611  1.00  0.00     0.031 A 
ATOM     47  C   UNL     1       0.631   8.425  -9.900  1.00  0.00     0.031 A 
ATOM     48  C   UNL     1      -3.917  12.726  -8.043  1.00  0.00     0.049 A 
ATOM     49  C   UNL     1      -0.298   9.334 -10.657  1.00  0.00     0.074 A 
ATOM     50  C   UNL     1      -4.652  13.583  -8.841  1.00  0.00     0.029 A 
ATOM     51  N   UNL     1      -3.121  11.971  -8.891  1.00  0.00    -0.354 N 
ATOM     52  N   UNL     1      -1.177  10.187 -10.188  1.00  0.00    -0.248 NA
ATOM     53  C   UNL     1      -0.229   9.282 -12.124  1.00  0.00     0.031 C 
ATOM     54  C   UNL     1      -4.339  13.310 -10.177  1.00  0.00     0.029 A 
ATOM     55  C   UNL     1      -3.368  12.321 -10.207  1.00  0.00     0.049 A 
ATOM     56  H   UNL     1      -2.475  11.287  -8.600  1.00  0.00     0.167 HD
ATOM     57  C   UNL     1      -1.753  10.788 -11.302  1.00  0.00     0.074 A 
ATOM     58  C   UNL     1      -1.113  10.211 -12.467  1.00  0.00     0.031 C 
ATOM     59  C   UNL     1      -2.724  11.733 -11.355  1.00  0.00     0.031 A 
BRANCH  46  60
ATOM     60  C   UNL     1      -4.908  13.439  -5.822  1.00  0.00    -0.014 A 
ATOM     61  C   UNL     1      -4.456  14.480  -4.989  1.00  0.00     0.010 A 
ATOM     62  C   UNL     1      -6.289  13.191  -5.918  1.00  0.00     0.010 A 
ATOM     63  C   UNL     1      -5.362  15.217  -4.222  1.00  0.00     0.020 A 
ATOM     64  C   UNL     1      -7.201  13.947  -5.176  1.00  0.00     0.020 A 
ATOM     65  C   UNL     1      -6.729  14.939  -4.314  1.00  0.00     0.054 A 
BRANCH  65  66
ATOM     66  S   UNL     1      -7.882  15.907  -3.302  1.00  0.00     0.124 S 
ATOM     67  O   UNL     1      -7.653  15.350  -1.971  1.00  0.00    -0.237 OA
ATOM     68  O   UNL     1      -7.411  17.276  -3.498  1.00  0.00    -0.237 OA
ATOM     69  O   UNL     1      -9.188  15.611  -3.885  1.00  0.00    -0.744 OA
ENDBRANCH  65  66
ENDBRANCH  46  60
BRANCH  47  70
ATOM     70  C   UNL     1       1.599   7.551 -10.618  1.00  0.00    -0.014 A 
ATOM     71  C   UNL     1       2.714   8.113 -11.265  1.00  0.00     0.010 A 
ATOM     72  C   UNL     1       1.430   6.154 -10.637  1.00  0.00     0.010 A 
ATOM     73  C   UNL     1       3.638   7.297 -11.923  1.00  0.00     0.020 A 
ATOM     74  C   UNL     1       2.366   5.332 -11.273  1.00  0.00     0.020 A 
ATOM     75  C   UNL     1       3.461   5.910 -11.919  1.00  0.00     0.054 A 
BRANCH  75  76
ATOM     76  S   UNL     1       4.710   4.868 -12.723  1.00  0.00     0.124 S 
ATOM     77  O   UNL     1       4.439   5.105 -14.137  1.00  0.00    -0.237 OA
ATOM     78  O   UNL     1       5.960   5.428 -12.215  1.00  0.00    -0.237 OA
ATOM     79  O   UNL     1       4.397   3.526 -12.239  1.00  0.00    -0.744 OA
ENDBRANCH  75  76
ENDBRANCH  47  70
BRANCH  59  80
ATOM     80  C   UNL     1      -3.146  12.221 -12.714  1.00  0.00    -0.014 A 
ATOM     81  C   UNL     1      -3.948  11.426 -13.551  1.00  0.00     0.010 A 
ATOM     82  C   UNL     1      -2.805  13.523 -13.122  1.00  0.00     0.010 A 
ATOM     83  C   UNL     1      -4.392  11.921 -14.780  1.00  0.00     0.020 A 
ATOM     84  C   UNL     1      -3.268  14.031 -14.338  1.00  0.00     0.020 A 
ATOM     85  C   UNL     1      -4.053  13.223 -15.163  1.00  0.00     0.054 A 
BRANCH  85  86
ATOM     86  S   UNL     1      -4.704  13.868 -16.729  1.00  0.00     0.124 S 
ATOM     87  O   UNL     1      -3.898  13.150 -17.712  1.00  0.00    -0.237 OA
ATOM     88  O   UNL     1      -6.113  13.486 -16.671  1.00  0.00    -0.237 OA
ATOM     89  O   UNL     1      -4.450  15.304 -16.644  1.00  0.00    -0.744 OA
ENDBRANCH  85  86
ENDBRANCH  59  80
ENDBRANCH  33  34
ENDBRANCH  25  28
ENDBRANCH  23  24
ENDBRANCH  22  23
ENDBRANCH   1  22
TORSDOF 18
