REMARK SMILES Cc1cc(O[C@@H](C)C(=O)NCCCCNC(=O)c2ccc(-c3c4nc(c(-c5ccc(S(=O)(=O)[O-])cc5)c5ccc([nH]5)c(-c5ccc(S(=O)(=O)[O-])cc5)c5nc(c(-c6ccc(S(=O)(=O)[O-])cc6)c6ccc3[nH]6)C=C5)C=C4)cc2)n(C)n1
REMARK SMILES IDX 13 1 12 2 11 3 10 4 8 5 9 6 6 8 7 9 5 10 4 11 1 12 2 13 3 14
REMARK SMILES IDX 80 15 78 16 79 17 14 18 15 19 16 20 17 22 18 23 19 24 77 25
REMARK SMILES IDX 20 26 76 27 21 28 22 29 23 30 70 31 24 32 75 33 69 34 71 35
REMARK SMILES IDX 25 36 74 37 68 38 67 39 26 41 56 42 37 43 55 44 38 45 41 46
REMARK SMILES IDX 54 47 72 48 39 49 40 50 53 52 73 53 42 54 27 55 28 56 36 57
REMARK SMILES IDX 29 58 35 59 30 60 31 61 32 62 33 63 34 64 57 65 58 66 66 67
REMARK SMILES IDX 59 68 65 69 60 70 61 71 62 72 63 73 64 74 43 75 44 76 52 77
REMARK SMILES IDX 45 78 51 79 46 80 47 81 48 82 49 83 50 84
REMARK H PARENT 10 7 15 21 71 40 41 51
REMARK Flexibility Score: inf
ROOT
ATOM      1  C   UNL     1      -2.344  -0.708  -2.979  1.00  0.00     0.023 C 
ENDROOT
BRANCH   1   2
ATOM      2  C   UNL     1      -1.359  -1.044  -1.862  1.00  0.00     0.023 C 
BRANCH   2   3
ATOM      3  C   UNL     1      -1.530  -2.437  -1.260  1.00  0.00     0.116 C 
BRANCH   3   4
ATOM      4  N   UNL     1      -0.523  -3.352  -1.748  1.00  0.00    -0.353 N 
ATOM      5  C   UNL     1       0.653  -3.764  -1.206  1.00  0.00     0.260 C 
ATOM      6  O   UNL     1       1.353  -4.499  -1.916  1.00  0.00    -0.271 OA
ATOM      7  H   UNL     1      -0.725  -3.746  -2.628  1.00  0.00     0.163 HD
BRANCH   5   8
ATOM      8  C   UNL     1       1.122  -3.406   0.231  1.00  0.00     0.260 C 
ATOM      9  C   UNL     1       0.255  -4.002   1.337  1.00  0.00     0.064 C 
BRANCH   8  10
ATOM     10  O   UNL     1       1.686  -2.122   0.466  1.00  0.00    -0.465 OA
BRANCH  10  11
ATOM     11  C   UNL     1       0.944  -1.058   0.769  1.00  0.00     0.212 A 
ATOM     12  C   UNL     1      -1.725   1.297   1.686  1.00  0.00     0.069 C 
ATOM     13  C   UNL     1      -0.499   0.554   1.305  1.00  0.00     0.063 A 
ATOM     14  C   UNL     1      -0.227  -0.827   1.461  1.00  0.00     0.093 A 
ATOM     15  N   UNL     1       0.501   1.180   0.680  1.00  0.00    -0.175 NA
ATOM     16  N   UNL     1       1.385   0.198   0.415  1.00  0.00    -0.237 N 
ATOM     17  C   UNL     1       2.634   0.543  -0.220  1.00  0.00     0.178 C 
ENDBRANCH  10  11
ENDBRANCH   8  10
ENDBRANCH   5   8
ENDBRANCH   3   4
ENDBRANCH   2   3
ENDBRANCH   1   2
BRANCH   1  18
ATOM     18  C   UNL     1      -3.815  -0.715  -2.570  1.00  0.00     0.116 C 
BRANCH  18  19
ATOM     19  N   UNL     1      -4.132   0.147  -1.437  1.00  0.00    -0.352 N 
ATOM     20  C   UNL     1      -5.292   0.852  -1.205  1.00  0.00     0.251 C 
ATOM     21  H   UNL     1      -3.430   0.235  -0.753  1.00  0.00     0.163 HD
ATOM     22  O   UNL     1      -5.399   1.576  -0.220  1.00  0.00    -0.269 OA
BRANCH  20  23
ATOM     23  C   UNL     1      -6.384   0.761  -2.197  1.00  0.00     0.039 A 
ATOM     24  C   UNL     1      -6.866   1.933  -2.784  1.00  0.00     0.014 A 
ATOM     25  C   UNL     1      -6.835  -0.488  -2.627  1.00  0.00     0.014 A 
ATOM     26  C   UNL     1      -7.728   1.846  -3.880  1.00  0.00     0.010 A 
ATOM     27  C   UNL     1      -7.626  -0.572  -3.766  1.00  0.00     0.010 A 
ATOM     28  C   UNL     1      -8.068   0.593  -4.415  1.00  0.00    -0.014 A 
BRANCH  28  29
ATOM     29  C   UNL     1      -8.852   0.463  -5.670  1.00  0.00     0.031 A 
ATOM     30  C   UNL     1     -10.174  -0.254  -5.657  1.00  0.00     0.074 A 
ATOM     31  C   UNL     1      -8.321   0.880  -6.837  1.00  0.00     0.049 A 
ATOM     32  N   UNL     1     -10.939  -0.593  -6.662  1.00  0.00    -0.248 NA
ATOM     33  C   UNL     1     -10.681  -0.683  -4.343  1.00  0.00     0.031 C 
ATOM     34  C   UNL     1      -7.016   1.529  -6.995  1.00  0.00     0.029 A 
ATOM     35  N   UNL     1      -8.807   0.803  -8.119  1.00  0.00    -0.354 N 
ATOM     36  C   UNL     1     -11.991  -1.312  -6.109  1.00  0.00     0.074 A 
ATOM     37  C   UNL     1     -11.746  -1.391  -4.685  1.00  0.00     0.031 C 
ATOM     38  C   UNL     1      -6.816   1.807  -8.294  1.00  0.00     0.029 A 
ATOM     39  C   UNL     1      -7.957   1.325  -9.065  1.00  0.00     0.049 A 
ATOM     40  H   UNL     1      -9.682   0.409  -8.340  1.00  0.00     0.167 HD
ATOM     41  C   UNL     1     -13.073  -1.845  -6.726  1.00  0.00     0.031 A 
ATOM     42  C   UNL     1      -8.077   1.403 -10.405  1.00  0.00     0.031 A 
ATOM     43  C   UNL     1     -13.333  -1.729  -8.135  1.00  0.00     0.049 A 
ATOM     44  C   UNL     1      -9.315   0.862 -11.063  1.00  0.00     0.074 A 
ATOM     45  C   UNL     1     -14.440  -2.160  -8.845  1.00  0.00     0.029 A 
ATOM     46  N   UNL     1     -12.478  -1.131  -9.049  1.00  0.00    -0.354 N 
ATOM     47  N   UNL     1     -10.334   0.246 -10.513  1.00  0.00    -0.248 NA
ATOM     48  C   UNL     1      -9.426   1.036 -12.517  1.00  0.00     0.031 C 
ATOM     49  C   UNL     1     -14.240  -1.849 -10.195  1.00  0.00     0.029 A 
ATOM     50  C   UNL     1     -13.027  -1.190 -10.318  1.00  0.00     0.049 A 
ATOM     51  H   UNL     1     -11.610  -0.724  -8.828  1.00  0.00     0.167 HD
ATOM     52  C   UNL     1     -11.217  -0.023 -11.552  1.00  0.00     0.074 A 
ATOM     53  C   UNL     1     -10.618   0.508 -12.760  1.00  0.00     0.031 C 
ATOM     54  C   UNL     1     -12.417  -0.654 -11.508  1.00  0.00     0.031 A 
BRANCH  41  55
ATOM     55  C   UNL     1     -14.049  -2.606  -5.869  1.00  0.00    -0.014 A 
ATOM     56  C   UNL     1     -14.869  -1.943  -4.938  1.00  0.00     0.010 A 
ATOM     57  C   UNL     1     -14.147  -4.003  -5.996  1.00  0.00     0.010 A 
ATOM     58  C   UNL     1     -15.725  -2.669  -4.107  1.00  0.00     0.020 A 
ATOM     59  C   UNL     1     -15.024  -4.730  -5.186  1.00  0.00     0.020 A 
ATOM     60  C   UNL     1     -15.789  -4.060  -4.229  1.00  0.00     0.054 A 
BRANCH  60  61
ATOM     61  S   UNL     1     -16.901  -4.982  -3.132  1.00  0.00     0.124 S 
ATOM     62  O   UNL     1     -16.142  -4.999  -1.883  1.00  0.00    -0.237 OA
ATOM     63  O   UNL     1     -18.105  -4.156  -3.123  1.00  0.00    -0.237 OA
ATOM     64  O   UNL     1     -17.043  -6.277  -3.793  1.00  0.00    -0.744 OA
ENDBRANCH  60  61
ENDBRANCH  41  55
BRANCH  42  65
ATOM     65  C   UNL     1      -7.002   2.048 -11.205  1.00  0.00    -0.014 A 
ATOM     66  C   UNL     1      -7.186   3.340 -11.728  1.00  0.00     0.010 A 
ATOM     67  C   UNL     1      -5.774   1.393 -11.414  1.00  0.00     0.010 A 
ATOM     68  C   UNL     1      -6.165   3.965 -12.450  1.00  0.00     0.020 A 
ATOM     69  C   UNL     1      -4.743   2.024 -12.117  1.00  0.00     0.020 A 
ATOM     70  C   UNL     1      -4.948   3.304 -12.637  1.00  0.00     0.054 A 
BRANCH  70  71
ATOM     71  S   UNL     1      -3.609   4.164 -13.509  1.00  0.00     0.124 S 
ATOM     72  O   UNL     1      -4.031   4.050 -14.902  1.00  0.00    -0.237 OA
ATOM     73  O   UNL     1      -3.668   5.507 -12.937  1.00  0.00    -0.237 OA
ATOM     74  O   UNL     1      -2.420   3.395 -13.149  1.00  0.00    -0.744 OA
ENDBRANCH  70  71
ENDBRANCH  42  65
BRANCH  54  75
ATOM     75  C   UNL     1     -13.177  -0.782 -12.798  1.00  0.00    -0.014 A 
ATOM     76  C   UNL     1     -12.801  -1.725 -13.770  1.00  0.00     0.010 A 
ATOM     77  C   UNL     1     -14.322   0.007 -13.010  1.00  0.00     0.010 A 
ATOM     78  C   UNL     1     -13.547  -1.863 -14.943  1.00  0.00     0.020 A 
ATOM     79  C   UNL     1     -15.082  -0.143 -14.172  1.00  0.00     0.020 A 
ATOM     80  C   UNL     1     -14.683  -1.070 -15.137  1.00  0.00     0.054 A 
BRANCH  80  81
ATOM     81  S   UNL     1     -15.669  -1.306 -16.641  1.00  0.00     0.124 S 
ATOM     82  O   UNL     1     -14.863  -0.613 -17.643  1.00  0.00    -0.237 OA
ATOM     83  O   UNL     1     -15.720  -2.760 -16.770  1.00  0.00    -0.237 OA
ATOM     84  O   UNL     1     -16.945  -0.671 -16.319  1.00  0.00    -0.744 OA
ENDBRANCH  80  81
ENDBRANCH  54  75
ENDBRANCH  28  29
ENDBRANCH  20  23
ENDBRANCH  18  19
ENDBRANCH   1  18
TORSDOF 16
