REMARK SMILES Cc1c(C(=O)NCCCCNC(=O)c2ccc(-c3c4nc(c(-c5ccc(S(=O)(=O)[O-])cc5)c5ccc([nH]5)c(-c5ccc(S(=O)(=O)[O-])cc5)c5nc(c(-c6ccc(S(=O)(=O)[O-])cc6)c6ccc3[nH]6)C=C5)C=C4)cc2)cccc1-n1c(C)cc(/C=C2/C(=O)NC(=S)N=C2O)c1C
REMARK SMILES IDX 8 1 7 2 6 3 4 4 5 5 3 7 1 8 2 9 77 10 74 11 76 12 75 13
REMARK SMILES IDX 78 14 79 15 93 16 80 17 81 18 82 19 94 20 83 21 84 22 85 23
REMARK SMILES IDX 91 24 86 25 87 26 90 27 88 28 89 30 92 31 9 33 10 34 11 35
REMARK SMILES IDX 12 36 13 38 14 39 15 40 73 41 16 42 72 43 17 44 18 45 19 46
REMARK SMILES IDX 66 47 20 48 71 49 65 50 67 51 21 52 70 53 64 54 63 55 22 57
REMARK SMILES IDX 52 58 33 59 51 60 34 61 37 62 50 63 68 64 35 65 36 66 49 68
REMARK SMILES IDX 69 69 38 70 23 71 24 72 32 73 25 74 31 75 26 76 27 77 28 78
REMARK SMILES IDX 29 79 30 80 53 81 54 82 62 83 55 84 61 85 56 86 57 87 58 88
REMARK SMILES IDX 59 89 60 90 39 91 40 92 48 93 41 94 47 95 42 96 43 97 44 98
REMARK SMILES IDX 45 99 46 100
REMARK H PARENT 6 6 87 29 92 32 11 37 67 56 37 67
REMARK Flexibility Score: inf
ROOT
ATOM      1  C   UNL     1       4.194  -1.793   1.424  1.00  0.00     0.023 C 
ENDROOT
BRANCH   1   2
ATOM      2  C   UNL     1       3.500  -2.302   0.143  1.00  0.00     0.116 C 
BRANCH   2   3
ATOM      3  N   UNL     1       2.184  -2.834   0.439  1.00  0.00    -0.352 N 
ATOM      4  C   UNL     1       0.891  -2.394   0.386  1.00  0.00     0.251 C 
ATOM      5  O   UNL     1       0.068  -3.251   0.740  1.00  0.00    -0.269 OA
ATOM      6  H   UNL     1       2.235  -3.761   0.767  1.00  0.00     0.163 HD
BRANCH   4   7
ATOM      7  C   UNL     1       0.345  -1.055  -0.057  1.00  0.00     0.044 A 
ATOM      8  C   UNL     1       2.316   0.521   0.446  1.00  0.00     0.047 C 
ATOM      9  C   UNL     1       0.921   0.235  -0.012  1.00  0.00    -0.014 A 
ATOM     10  C   UNL     1       0.105   1.349  -0.365  1.00  0.00     0.049 A 
ATOM     11  C   UNL     1      -1.025  -1.141  -0.436  1.00  0.00     0.014 A 
ATOM     12  C   UNL     1      -1.242   1.231  -0.713  1.00  0.00     0.027 A 
ATOM     13  C   UNL     1      -1.810  -0.027  -0.747  1.00  0.00     0.003 A 
BRANCH  10  14
ATOM     14  N   UNL     1       0.603   2.668  -0.240  1.00  0.00    -0.318 N 
ATOM     15  C   UNL     1       1.329   3.338  -1.206  1.00  0.00     0.020 A 
ATOM     16  C   UNL     1       0.628   3.395   0.949  1.00  0.00     0.027 A 
ATOM     17  C   UNL     1       1.706   2.736  -2.516  1.00  0.00     0.065 C 
ATOM     18  C   UNL     1       1.658   4.572  -0.684  1.00  0.00     0.031 A 
ATOM     19  C   UNL     1       1.207   4.623   0.664  1.00  0.00    -0.003 A 
ATOM     20  C   UNL     1       0.168   2.778   2.231  1.00  0.00     0.065 C 
BRANCH  19  21
ATOM     21  C   UNL     1       1.534   5.698   1.547  1.00  0.00     0.029 C 
ATOM     22  C   UNL     1       0.893   6.225   2.605  1.00  0.00     0.102 C 
ATOM     23  C   UNL     1       1.641   7.252   3.374  1.00  0.00     0.262 C 
ATOM     24  C   UNL     1      -0.407   5.897   3.189  1.00  0.00     0.226 C 
ATOM     25  O   UNL     1       2.598   7.886   2.946  1.00  0.00    -0.269 OA
ATOM     26  N   UNL     1       1.171   7.439   4.646  1.00  0.00    -0.297 N 
ATOM     27  N   UNL     1      -0.814   6.185   4.372  1.00  0.00    -0.184 NA
ATOM     28  C   UNL     1       0.031   6.895   5.183  1.00  0.00     0.203 C 
ATOM     29  H   UNL     1       1.703   8.022   5.235  1.00  0.00     0.172 HD
ATOM     30  S   UNL     1      -0.292   7.204   6.800  1.00  0.00    -0.038 S 
BRANCH  24  31
ATOM     31  O   UNL     1      -1.290   5.301   2.384  1.00  0.00    -0.493 OA
ATOM     32  H   UNL     1      -1.044   5.069   1.510  1.00  0.00     0.295 HD
ENDBRANCH  24  31
ENDBRANCH  19  21
ENDBRANCH  10  14
ENDBRANCH   4   7
ENDBRANCH   2   3
ENDBRANCH   1   2
BRANCH   1  33
ATOM     33  C   UNL     1       5.053  -2.821   2.156  1.00  0.00     0.023 C 
BRANCH  33  34
ATOM     34  C   UNL     1       6.302  -3.176   1.376  1.00  0.00     0.116 C 
BRANCH  34  35
ATOM     35  N   UNL     1       7.502  -2.444   1.734  1.00  0.00    -0.352 N 
ATOM     36  C   UNL     1       8.772  -2.772   1.260  1.00  0.00     0.251 C 
ATOM     37  H   UNL     1       7.415  -1.676   2.344  1.00  0.00     0.163 HD
ATOM     38  O   UNL     1       9.784  -2.685   1.921  1.00  0.00    -0.269 OA
BRANCH  36  39
ATOM     39  C   UNL     1       8.833  -3.098  -0.188  1.00  0.00     0.039 A 
ATOM     40  C   UNL     1       9.377  -2.144  -1.054  1.00  0.00     0.014 A 
ATOM     41  C   UNL     1       8.101  -4.175  -0.680  1.00  0.00     0.014 A 
ATOM     42  C   UNL     1       9.042  -2.182  -2.408  1.00  0.00     0.010 A 
ATOM     43  C   UNL     1       7.668  -4.135  -1.988  1.00  0.00     0.010 A 
ATOM     44  C   UNL     1       8.114  -3.124  -2.849  1.00  0.00    -0.014 A 
BRANCH  44  45
ATOM     45  C   UNL     1       7.536  -3.157  -4.189  1.00  0.00     0.031 A 
ATOM     46  C   UNL     1       7.956  -4.231  -5.122  1.00  0.00     0.074 A 
ATOM     47  C   UNL     1       6.585  -2.276  -4.568  1.00  0.00     0.049 A 
ATOM     48  N   UNL     1       7.748  -4.222  -6.395  1.00  0.00    -0.248 NA
ATOM     49  C   UNL     1       8.707  -5.402  -4.678  1.00  0.00     0.031 C 
ATOM     50  C   UNL     1       5.715  -2.361  -5.741  1.00  0.00     0.029 A 
ATOM     51  N   UNL     1       6.284  -1.026  -4.066  1.00  0.00    -0.354 N 
ATOM     52  C   UNL     1       8.079  -5.464  -6.886  1.00  0.00     0.074 A 
ATOM     53  C   UNL     1       8.723  -6.143  -5.788  1.00  0.00     0.031 C 
ATOM     54  C   UNL     1       5.231  -1.137  -6.012  1.00  0.00     0.029 A 
ATOM     55  C   UNL     1       5.901  -0.201  -5.126  1.00  0.00     0.049 A 
ATOM     56  H   UNL     1       6.331  -0.760  -3.120  1.00  0.00     0.167 HD
ATOM     57  C   UNL     1       7.678  -5.816  -8.141  1.00  0.00     0.031 A 
ATOM     58  C   UNL     1       6.676   0.847  -5.551  1.00  0.00     0.031 A 
ATOM     59  C   UNL     1       7.090  -4.684  -8.860  1.00  0.00     0.049 A 
ATOM     60  C   UNL     1       7.249   0.666  -6.955  1.00  0.00     0.074 A 
ATOM     61  C   UNL     1       5.804  -4.292  -9.190  1.00  0.00     0.029 A 
ATOM     62  N   UNL     1       7.898  -3.585  -9.107  1.00  0.00    -0.354 N 
ATOM     63  N   UNL     1       7.037  -0.372  -7.719  1.00  0.00    -0.248 NA
ATOM     64  C   UNL     1       8.176   1.619  -7.576  1.00  0.00     0.031 C 
ATOM     65  C   UNL     1       5.850  -2.925  -9.604  1.00  0.00     0.029 A 
ATOM     66  C   UNL     1       7.165  -2.500  -9.544  1.00  0.00     0.049 A 
ATOM     67  H   UNL     1       8.875  -3.579  -8.986  1.00  0.00     0.167 HD
ATOM     68  C   UNL     1       7.798  -0.276  -8.853  1.00  0.00     0.074 A 
ATOM     69  C   UNL     1       8.481   0.999  -8.729  1.00  0.00     0.031 C 
ATOM     70  C   UNL     1       7.864  -1.254  -9.802  1.00  0.00     0.031 A 
BRANCH  57  71
ATOM     71  C   UNL     1       7.650  -7.242  -8.642  1.00  0.00    -0.014 A 
ATOM     72  C   UNL     1       6.753  -7.604  -9.668  1.00  0.00     0.010 A 
ATOM     73  C   UNL     1       8.432  -8.287  -8.113  1.00  0.00     0.010 A 
ATOM     74  C   UNL     1       6.581  -8.939 -10.071  1.00  0.00     0.020 A 
ATOM     75  C   UNL     1       8.245  -9.628  -8.475  1.00  0.00     0.020 A 
ATOM     76  C   UNL     1       7.309  -9.949  -9.448  1.00  0.00     0.054 A 
BRANCH  76  77
ATOM     77  S   UNL     1       7.022 -11.675  -9.914  1.00  0.00     0.124 S 
ATOM     78  O   UNL     1       5.589 -11.832  -9.674  1.00  0.00    -0.237 OA
ATOM     79  O   UNL     1       7.435 -11.695 -11.314  1.00  0.00    -0.237 OA
ATOM     80  O   UNL     1       7.882 -12.428  -9.002  1.00  0.00    -0.744 OA
ENDBRANCH  76  77
ENDBRANCH  57  71
BRANCH  58  81
ATOM     81  C   UNL     1       7.345   1.567  -4.426  1.00  0.00    -0.014 A 
ATOM     82  C   UNL     1       6.504   2.223  -3.499  1.00  0.00     0.010 A 
ATOM     83  C   UNL     1       8.652   1.233  -4.037  1.00  0.00     0.010 A 
ATOM     84  C   UNL     1       6.874   2.330  -2.157  1.00  0.00     0.020 A 
ATOM     85  C   UNL     1       9.035   1.364  -2.693  1.00  0.00     0.020 A 
ATOM     86  C   UNL     1       8.108   1.824  -1.752  1.00  0.00     0.054 A 
BRANCH  86  87
ATOM     87  S   UNL     1       8.400   1.597   0.030  1.00  0.00     0.124 S 
ATOM     88  O   UNL     1       8.106   2.921   0.568  1.00  0.00    -0.237 OA
ATOM     89  O   UNL     1       7.432   0.551   0.369  1.00  0.00    -0.237 OA
ATOM     90  O   UNL     1       9.799   1.188   0.092  1.00  0.00    -0.744 OA
ENDBRANCH  86  87
ENDBRANCH  58  81
BRANCH  70  91
ATOM     91  C   UNL     1       8.658  -1.101 -11.067  1.00  0.00    -0.014 A 
ATOM     92  C   UNL     1       8.557   0.053 -11.862  1.00  0.00     0.010 A 
ATOM     93  C   UNL     1       9.437  -2.170 -11.558  1.00  0.00     0.010 A 
ATOM     94  C   UNL     1       9.257   0.159 -13.070  1.00  0.00     0.020 A 
ATOM     95  C   UNL     1      10.123  -2.082 -12.772  1.00  0.00     0.020 A 
ATOM     96  C   UNL     1      10.046  -0.906 -13.512  1.00  0.00     0.054 A 
BRANCH  96  97
ATOM     97  S   UNL     1      10.932  -0.760 -15.085  1.00  0.00     0.124 S 
ATOM     98  O   UNL     1       9.957  -0.093 -15.945  1.00  0.00    -0.237 OA
ATOM     99  O   UNL     1      12.087   0.049 -14.703  1.00  0.00    -0.237 OA
ATOM    100  O   UNL     1      11.229  -2.144 -15.446  1.00  0.00    -0.744 OA
ENDBRANCH  96  97
ENDBRANCH  70  91
ENDBRANCH  44  45
ENDBRANCH  36  39
ENDBRANCH  34  35
ENDBRANCH  33  34
ENDBRANCH   1  33
TORSDOF 17
