REMARK SMILES CC[C@@H](C(=O)NCCCCNC(=O)c1ccc(-c2c3nc(c(-c4ccc(S(=O)(=O)[O-])cc4)c4ccc([nH]4)c(-c4ccc(S(=O)(=O)[O-])cc4)c4nc(c(-c5ccc(S(=O)(=O)[O-])cc5)c5ccc2[nH]5)C=C4)C=C3)cc1)N1C(=O)/C(=C/C(C)=C/c2ccccc2)SC1=S
REMARK SMILES IDX 8 1 7 2 6 3 4 4 5 5 3 7 2 8 1 9 74 10 75 11 89 12 76 13
REMARK SMILES IDX 77 14 88 15 90 16 78 17 79 18 80 19 81 20 82 21 83 22 87 23
REMARK SMILES IDX 84 24 86 25 85 26 9 27 10 28 11 29 12 30 13 32 14 33 15 34
REMARK SMILES IDX 73 35 16 36 72 37 17 38 18 39 19 40 66 41 20 42 71 43 65 44
REMARK SMILES IDX 67 45 21 46 70 47 64 48 63 49 22 51 52 52 33 53 51 54 34 55
REMARK SMILES IDX 37 56 50 57 68 58 35 59 36 60 49 62 69 63 38 64 23 65 24 66
REMARK SMILES IDX 32 67 25 68 31 69 26 70 27 71 28 72 29 73 30 74 53 75 54 76
REMARK SMILES IDX 62 77 55 78 61 79 56 80 57 81 58 82 59 83 60 84 39 85 40 86
REMARK SMILES IDX 48 87 41 88 47 89 42 90 43 91 44 92 45 93 46 94
REMARK H PARENT 6 6 11 31 67 50 37 61
REMARK Flexibility Score: inf
ROOT
ATOM      1  C   UNL     1       1.046   0.530  -2.272  1.00  0.00     0.023 C 
ENDROOT
BRANCH   1   2
ATOM      2  C   UNL     1       1.523   1.627  -1.320  1.00  0.00     0.116 C 
BRANCH   2   3
ATOM      3  N   UNL     1       0.394   2.254  -0.657  1.00  0.00    -0.354 N 
ATOM      4  C   UNL     1      -0.004   2.208   0.649  1.00  0.00     0.243 C 
ATOM      5  O   UNL     1      -1.049   2.790   0.948  1.00  0.00    -0.273 OA
ATOM      6  H   UNL     1      -0.177   2.802  -1.243  1.00  0.00     0.163 HD
BRANCH   4   7
ATOM      7  C   UNL     1       0.856   1.483   1.710  1.00  0.00     0.181 C 
BRANCH   7   8
ATOM      8  C   UNL     1       0.489  -0.007   1.873  1.00  0.00     0.032 C 
ATOM      9  C   UNL     1       1.030  -0.962   0.826  1.00  0.00     0.006 C 
ENDBRANCH   7   8
BRANCH   7  10
ATOM     10  N   UNL     1       0.706   2.265   2.974  1.00  0.00    -0.280 N 
ATOM     11  C   UNL     1      -0.261   1.935   3.910  1.00  0.00     0.266 C 
ATOM     12  C   UNL     1       1.416   3.421   3.243  1.00  0.00     0.149 C 
ATOM     13  O   UNL     1      -1.059   1.008   3.855  1.00  0.00    -0.268 OA
ATOM     14  C   UNL     1      -0.193   2.837   5.093  1.00  0.00     0.080 C 
ATOM     15  S   UNL     1       0.991   4.042   4.837  1.00  0.00    -0.054 SA
ATOM     16  S   UNL     1       2.550   4.186   2.284  1.00  0.00    -0.052 S 
ATOM     17  C   UNL     1      -0.977   2.586   6.150  1.00  0.00     0.024 C 
BRANCH  17  18
ATOM     18  C   UNL     1      -1.118   3.234   7.451  1.00  0.00    -0.049 C 
ATOM     19  C   UNL     1      -1.618   2.304   8.538  1.00  0.00     0.044 C 
ATOM     20  C   UNL     1      -0.968   4.561   7.633  1.00  0.00     0.011 C 
BRANCH  20  21
ATOM     21  C   UNL     1      -1.170   5.311   8.884  1.00  0.00    -0.025 A 
ATOM     22  C   UNL     1      -1.918   6.494   8.835  1.00  0.00     0.008 A 
ATOM     23  C   UNL     1      -0.600   4.921  10.102  1.00  0.00     0.008 A 
ATOM     24  C   UNL     1      -2.123   7.254   9.987  1.00  0.00     0.001 A 
ATOM     25  C   UNL     1      -0.815   5.676  11.259  1.00  0.00     0.001 A 
ATOM     26  C   UNL     1      -1.577   6.841  11.201  1.00  0.00     0.000 A 
ENDBRANCH  20  21
ENDBRANCH  17  18
ENDBRANCH   7  10
ENDBRANCH   4   7
ENDBRANCH   2   3
ENDBRANCH   1   2
BRANCH   1  27
ATOM     27  C   UNL     1       0.648   1.027  -3.657  1.00  0.00     0.023 C 
BRANCH  27  28
ATOM     28  C   UNL     1       1.808   1.534  -4.502  1.00  0.00     0.116 C 
BRANCH  28  29
ATOM     29  N   UNL     1       2.804   0.505  -4.783  1.00  0.00    -0.352 N 
ATOM     30  C   UNL     1       3.284   0.076  -5.999  1.00  0.00     0.251 C 
ATOM     31  H   UNL     1       3.184   0.056  -3.994  1.00  0.00     0.163 HD
ATOM     32  O   UNL     1       4.034  -0.893  -6.066  1.00  0.00    -0.269 OA
BRANCH  30  33
ATOM     33  C   UNL     1       2.849   0.775  -7.224  1.00  0.00     0.039 A 
ATOM     34  C   UNL     1       2.289   0.034  -8.268  1.00  0.00     0.014 A 
ATOM     35  C   UNL     1       2.904   2.169  -7.290  1.00  0.00     0.014 A 
ATOM     36  C   UNL     1       1.683   0.703  -9.332  1.00  0.00     0.010 A 
ATOM     37  C   UNL     1       2.228   2.830  -8.306  1.00  0.00     0.010 A 
ATOM     38  C   UNL     1       1.594   2.105  -9.327  1.00  0.00    -0.014 A 
BRANCH  38  39
ATOM     39  C   UNL     1       0.808   2.841 -10.349  1.00  0.00     0.031 A 
ATOM     40  C   UNL     1       1.490   3.837 -11.245  1.00  0.00     0.074 A 
ATOM     41  C   UNL     1      -0.532   2.697 -10.391  1.00  0.00     0.049 A 
ATOM     42  N   UNL     1       0.961   4.671 -12.101  1.00  0.00    -0.248 NA
ATOM     43  C   UNL     1       2.956   3.929 -11.141  1.00  0.00     0.031 C 
ATOM     44  C   UNL     1      -1.319   1.803  -9.536  1.00  0.00     0.029 A 
ATOM     45  N   UNL     1      -1.474   3.316 -11.174  1.00  0.00    -0.354 N 
ATOM     46  C   UNL     1       2.022   5.407 -12.615  1.00  0.00     0.074 A 
ATOM     47  C   UNL     1       3.220   4.948 -11.946  1.00  0.00     0.031 C 
ATOM     48  C   UNL     1      -2.618   1.918  -9.855  1.00  0.00     0.029 A 
ATOM     49  C   UNL     1      -2.764   2.923 -10.902  1.00  0.00     0.049 A 
ATOM     50  H   UNL     1      -1.248   3.978 -11.866  1.00  0.00     0.167 HD
ATOM     51  C   UNL     1       2.003   6.366 -13.570  1.00  0.00     0.031 A 
ATOM     52  C   UNL     1      -3.936   3.336 -11.423  1.00  0.00     0.031 A 
ATOM     53  C   UNL     1       0.815   6.798 -14.254  1.00  0.00     0.049 A 
ATOM     54  C   UNL     1      -3.930   4.401 -12.485  1.00  0.00     0.074 A 
ATOM     55  C   UNL     1       0.704   7.702 -15.295  1.00  0.00     0.029 A 
ATOM     56  N   UNL     1      -0.468   6.359 -13.964  1.00  0.00    -0.354 N 
ATOM     57  N   UNL     1      -2.908   5.031 -13.011  1.00  0.00    -0.248 NA
ATOM     58  C   UNL     1      -5.236   4.809 -13.023  1.00  0.00     0.031 C 
ATOM     59  C   UNL     1      -0.653   7.843 -15.606  1.00  0.00     0.029 A 
ATOM     60  C   UNL     1      -1.381   6.995 -14.787  1.00  0.00     0.049 A 
ATOM     61  H   UNL     1      -0.696   5.694 -13.275  1.00  0.00     0.167 HD
ATOM     62  C   UNL     1      -3.445   5.904 -13.950  1.00  0.00     0.074 A 
ATOM     63  C   UNL     1      -4.880   5.707 -13.933  1.00  0.00     0.031 C 
ATOM     64  C   UNL     1      -2.807   6.790 -14.751  1.00  0.00     0.031 A 
BRANCH  51  65
ATOM     65  C   UNL     1       3.313   7.011 -13.931  1.00  0.00    -0.014 A 
ATOM     66  C   UNL     1       4.293   6.305 -14.652  1.00  0.00     0.010 A 
ATOM     67  C   UNL     1       3.556   8.348 -13.571  1.00  0.00     0.010 A 
ATOM     68  C   UNL     1       5.510   6.912 -14.970  1.00  0.00     0.020 A 
ATOM     69  C   UNL     1       4.763   8.967 -13.909  1.00  0.00     0.020 A 
ATOM     70  C   UNL     1       5.739   8.238 -14.591  1.00  0.00     0.054 A 
BRANCH  70  71
ATOM     71  S   UNL     1       7.321   9.008 -15.032  1.00  0.00     0.124 S 
ATOM     72  O   UNL     1       8.232   8.396 -14.067  1.00  0.00    -0.237 OA
ATOM     73  O   UNL     1       7.506   8.591 -16.420  1.00  0.00    -0.237 OA
ATOM     74  O   UNL     1       7.078  10.435 -14.840  1.00  0.00    -0.744 OA
ENDBRANCH  70  71
ENDBRANCH  51  65
BRANCH  52  75
ATOM     75  C   UNL     1      -5.213   2.741 -10.947  1.00  0.00    -0.014 A 
ATOM     76  C   UNL     1      -5.926   1.845 -11.762  1.00  0.00     0.010 A 
ATOM     77  C   UNL     1      -5.713   3.052  -9.669  1.00  0.00     0.010 A 
ATOM     78  C   UNL     1      -7.123   1.279 -11.313  1.00  0.00     0.020 A 
ATOM     79  C   UNL     1      -6.898   2.470  -9.208  1.00  0.00     0.020 A 
ATOM     80  C   UNL     1      -7.601   1.595 -10.038  1.00  0.00     0.054 A 
BRANCH  80  81
ATOM     81  S   UNL     1      -9.126   0.804  -9.453  1.00  0.00     0.124 S 
ATOM     82  O   UNL     1     -10.151   1.556 -10.168  1.00  0.00    -0.237 OA
ATOM     83  O   UNL     1      -8.947  -0.583  -9.876  1.00  0.00    -0.237 OA
ATOM     84  O   UNL     1      -9.084   1.015  -8.007  1.00  0.00    -0.744 OA
ENDBRANCH  80  81
ENDBRANCH  52  75
BRANCH  64  85
ATOM     85  C   UNL     1      -3.651   7.613 -15.684  1.00  0.00    -0.014 A 
ATOM     86  C   UNL     1      -4.404   8.698 -15.204  1.00  0.00     0.010 A 
ATOM     87  C   UNL     1      -3.632   7.343 -17.064  1.00  0.00     0.010 A 
ATOM     88  C   UNL     1      -5.136   9.493 -16.088  1.00  0.00     0.020 A 
ATOM     89  C   UNL     1      -4.346   8.150 -17.954  1.00  0.00     0.020 A 
ATOM     90  C   UNL     1      -5.101   9.215 -17.458  1.00  0.00     0.054 A 
BRANCH  90  91
ATOM     91  S   UNL     1      -6.005  10.303 -18.594  1.00  0.00     0.124 S 
ATOM     92  O   UNL     1      -7.386   9.877 -18.386  1.00  0.00    -0.237 OA
ATOM     93  O   UNL     1      -5.676  11.636 -18.094  1.00  0.00    -0.237 OA
ATOM     94  O   UNL     1      -5.443   9.979 -19.903  1.00  0.00    -0.744 OA
ENDBRANCH  90  91
ENDBRANCH  64  85
ENDBRANCH  38  39
ENDBRANCH  30  33
ENDBRANCH  28  29
ENDBRANCH  27  28
ENDBRANCH   1  27
TORSDOF 18
