REMARK SMILES Cc1ccccc1CSCC(=O)Nc1ccc(C)c(C(=O)NCCCCNC(=O)c2ccc(-c3c4nc(c(-c5ccc(S(=O)(=O)[O-])cc5)c5ccc([nH]5)c(-c5ccc(S(=O)(=O)[O-])cc5)c5nc(c(-c6ccc(S(=O)(=O)[O-])cc6)c6ccc3[nH]6)C=C5)C=C4)cc2)c1
REMARK SMILES IDX 23 1 22 2 20 3 21 4 19 6 14 7 15 8 90 9 16 10 17 11 18 12
REMARK SMILES IDX 13 13 11 14 12 15 10 17 9 18 8 19 7 20 1 21 2 22 3 23 4 24
REMARK SMILES IDX 6 25 5 26 24 27 25 28 26 29 27 30 28 31 29 33 30 34 31 35
REMARK SMILES IDX 89 36 32 37 88 38 33 39 34 40 35 41 82 42 36 43 87 44 81 45
REMARK SMILES IDX 83 46 37 47 86 48 80 49 79 50 38 52 68 53 49 54 67 55 50 56
REMARK SMILES IDX 53 57 66 58 84 59 51 60 52 61 65 63 85 64 54 65 39 66 40 67
REMARK SMILES IDX 48 68 41 69 47 70 42 71 43 72 44 73 45 74 46 75 69 76 70 77
REMARK SMILES IDX 78 78 71 79 77 80 72 81 73 82 74 83 75 84 76 85 55 86 56 87
REMARK SMILES IDX 64 88 57 89 63 90 58 91 59 92 60 93 61 94 62 95
REMARK H PARENT 22 5 13 16 27 32 83 51 53 62
REMARK Flexibility Score: inf
ROOT
ATOM      1  C   UNL     1       3.434  10.139  -3.811  1.00  0.00     0.116 C 
ENDROOT
BRANCH   1   2
ATOM      2  N   UNL     1       4.163   8.913  -4.151  1.00  0.00    -0.352 N 
ATOM      3  C   UNL     1       3.560   7.741  -4.586  1.00  0.00     0.251 C 
ATOM      4  O   UNL     1       3.801   7.299  -5.711  1.00  0.00    -0.269 OA
ATOM      5  H   UNL     1       5.144   8.922  -4.066  1.00  0.00     0.163 HD
BRANCH   3   6
ATOM      6  C   UNL     1       2.975   6.824  -3.582  1.00  0.00     0.044 A 
ATOM      7  C   UNL     1       3.137   4.612  -2.640  1.00  0.00     0.042 A 
ATOM      8  C   UNL     1       2.434   5.056  -1.532  1.00  0.00     0.026 A 
ATOM      9  C   UNL     1       3.523   5.529  -3.600  1.00  0.00     0.040 A 
ATOM     10  C   UNL     1       1.803   6.287  -1.559  1.00  0.00     0.006 A 
ATOM     11  C   UNL     1       1.963   7.124  -2.662  1.00  0.00    -0.038 A 
ATOM     12  C   UNL     1       0.947   8.200  -2.834  1.00  0.00     0.045 C 
BRANCH   7  13
ATOM     13  N   UNL     1       3.488   3.271  -2.777  1.00  0.00    -0.325 N 
ATOM     14  C   UNL     1       2.654   2.182  -2.712  1.00  0.00     0.234 C 
ATOM     15  O   UNL     1       3.178   1.065  -2.631  1.00  0.00    -0.274 OA
ATOM     16  H   UNL     1       4.441   3.083  -2.939  1.00  0.00     0.169 HD
BRANCH  14  17
ATOM     17  C   UNL     1       1.155   2.310  -2.991  1.00  0.00     0.170 C 
BRANCH  17  18
ATOM     18  S   UNL     1       0.073   3.042  -1.739  1.00  0.00    -0.147 SA
BRANCH  18  19
ATOM     19  C   UNL     1       0.686   2.264  -0.210  1.00  0.00     0.105 C 
BRANCH  19  20
ATOM     20  C   UNL     1       0.109   0.891  -0.002  1.00  0.00    -0.035 A 
ATOM     21  C   UNL     1       2.387  -0.319   0.031  1.00  0.00     0.044 C 
ATOM     22  C   UNL     1       0.883  -0.283   0.059  1.00  0.00    -0.047 A 
ATOM     23  C   UNL     1       0.221  -1.521   0.139  1.00  0.00     0.004 A 
ATOM     24  C   UNL     1      -1.170  -1.600   0.205  1.00  0.00     0.000 A 
ATOM     25  C   UNL     1      -1.294   0.793   0.119  1.00  0.00     0.005 A 
ATOM     26  C   UNL     1      -1.929  -0.439   0.215  1.00  0.00     0.000 A 
ENDBRANCH  19  20
ENDBRANCH  18  19
ENDBRANCH  17  18
ENDBRANCH  14  17
ENDBRANCH   7  13
ENDBRANCH   3   6
ENDBRANCH   1   2
BRANCH   1  27
ATOM     27  C   UNL     1       3.512  10.928  -2.433  1.00  0.00     0.023 C 
BRANCH  27  28
ATOM     28  C   UNL     1       3.176  12.598  -2.275  1.00  0.00     0.023 C 
BRANCH  28  29
ATOM     29  C   UNL     1       1.685  13.297  -2.159  1.00  0.00     0.116 C 
BRANCH  29  30
ATOM     30  N   UNL     1       1.299  14.883  -2.412  1.00  0.00    -0.352 N 
ATOM     31  C   UNL     1       0.559  15.858  -3.228  1.00  0.00     0.251 C 
ATOM     32  H   UNL     1       1.767  15.399  -1.716  1.00  0.00     0.163 HD
ATOM     33  O   UNL     1       0.075  16.776  -2.533  1.00  0.00    -0.269 OA
BRANCH  31  34
ATOM     34  C   UNL     1       0.167  16.022  -4.768  1.00  0.00     0.039 A 
ATOM     35  C   UNL     1      -1.176  16.170  -5.196  1.00  0.00     0.014 A 
ATOM     36  C   UNL     1       1.048  16.021  -5.842  1.00  0.00     0.014 A 
ATOM     37  C   UNL     1      -1.604  15.588  -6.439  1.00  0.00     0.010 A 
ATOM     38  C   UNL     1       0.644  15.446  -7.083  1.00  0.00     0.010 A 
ATOM     39  C   UNL     1      -0.669  15.017  -7.306  1.00  0.00    -0.014 A 
BRANCH  39  40
ATOM     40  C   UNL     1      -0.983  13.925  -8.302  1.00  0.00     0.031 A 
ATOM     41  C   UNL     1      -1.006  14.175  -9.739  1.00  0.00     0.074 A 
ATOM     42  C   UNL     1      -1.180  12.599  -8.049  1.00  0.00     0.049 A 
ATOM     43  N   UNL     1      -2.016  13.909 -10.504  1.00  0.00    -0.248 NA
ATOM     44  C   UNL     1       0.189  14.624 -10.436  1.00  0.00     0.031 C 
ATOM     45  C   UNL     1      -1.366  11.425  -8.922  1.00  0.00     0.029 A 
ATOM     46  N   UNL     1      -1.200  11.986  -6.817  1.00  0.00    -0.354 N 
ATOM     47  C   UNL     1      -1.497  13.842 -11.777  1.00  0.00     0.074 A 
ATOM     48  C   UNL     1      -0.194  14.478 -11.708  1.00  0.00     0.031 C 
ATOM     49  C   UNL     1      -1.824  10.383  -8.191  1.00  0.00     0.029 A 
ATOM     50  C   UNL     1      -1.979  10.832  -6.823  1.00  0.00     0.049 A 
ATOM     51  H   UNL     1      -0.722  12.323  -6.026  1.00  0.00     0.167 HD
ATOM     52  C   UNL     1      -2.010  13.003 -12.724  1.00  0.00     0.031 A 
ATOM     53  C   UNL     1      -3.064  10.773  -5.992  1.00  0.00     0.031 A 
ATOM     54  C   UNL     1      -2.933  12.010 -12.160  1.00  0.00     0.049 A 
ATOM     55  C   UNL     1      -4.322  10.922  -6.790  1.00  0.00     0.074 A 
ATOM     56  C   UNL     1      -2.814  10.638 -11.978  1.00  0.00     0.029 A 
ATOM     57  N   UNL     1      -4.036  12.399 -11.408  1.00  0.00    -0.354 N 
ATOM     58  N   UNL     1      -4.308  11.122  -8.073  1.00  0.00    -0.248 NA
ATOM     59  C   UNL     1      -5.678  10.874  -6.260  1.00  0.00     0.031 C 
ATOM     60  C   UNL     1      -3.826  10.214 -11.081  1.00  0.00     0.029 A 
ATOM     61  C   UNL     1      -4.579  11.320 -10.732  1.00  0.00     0.049 A 
ATOM     62  H   UNL     1      -4.384  13.319 -11.362  1.00  0.00     0.167 HD
ATOM     63  C   UNL     1      -5.570  11.245  -8.556  1.00  0.00     0.074 A 
ATOM     64  C   UNL     1      -6.403  11.065  -7.380  1.00  0.00     0.031 C 
ATOM     65  C   UNL     1      -5.765  11.478  -9.887  1.00  0.00     0.031 A 
BRANCH  52  66
ATOM     66  C   UNL     1      -1.388  12.877 -14.101  1.00  0.00    -0.014 A 
ATOM     67  C   UNL     1      -1.512  11.690 -14.848  1.00  0.00     0.010 A 
ATOM     68  C   UNL     1      -0.705  13.940 -14.731  1.00  0.00     0.010 A 
ATOM     69  C   UNL     1      -0.916  11.536 -16.107  1.00  0.00     0.020 A 
ATOM     70  C   UNL     1      -0.068  13.789 -15.972  1.00  0.00     0.020 A 
ATOM     71  C   UNL     1      -0.180  12.583 -16.655  1.00  0.00     0.054 A 
BRANCH  71  72
ATOM     72  S   UNL     1       0.577  12.362 -18.286  1.00  0.00     0.124 S 
ATOM     73  O   UNL     1       1.422  11.187 -18.089  1.00  0.00    -0.237 OA
ATOM     74  O   UNL     1      -0.587  12.163 -19.145  1.00  0.00    -0.237 OA
ATOM     75  O   UNL     1       1.302  13.612 -18.506  1.00  0.00    -0.744 OA
ENDBRANCH  71  72
ENDBRANCH  52  66
BRANCH  53  76
ATOM     76  C   UNL     1      -2.799  11.314  -4.591  1.00  0.00    -0.014 A 
ATOM     77  C   UNL     1      -1.800  10.590  -3.925  1.00  0.00     0.010 A 
ATOM     78  C   UNL     1      -2.712  12.698  -4.452  1.00  0.00     0.010 A 
ATOM     79  C   UNL     1      -0.517  11.141  -3.914  1.00  0.00     0.020 A 
ATOM     80  C   UNL     1      -1.433  13.254  -4.277  1.00  0.00     0.020 A 
ATOM     81  C   UNL     1      -0.314  12.455  -4.325  1.00  0.00     0.054 A 
BRANCH  81  82
ATOM     82  S   UNL     1       1.349  12.809  -5.178  1.00  0.00     0.124 S 
ATOM     83  O   UNL     1       2.050  11.707  -4.628  1.00  0.00    -0.237 OA
ATOM     84  O   UNL     1       1.185  12.638  -6.607  1.00  0.00    -0.237 OA
ATOM     85  O   UNL     1       1.963  14.038  -4.734  1.00  0.00    -0.744 OA
ENDBRANCH  81  82
ENDBRANCH  53  76
BRANCH  65  86
ATOM     86  C   UNL     1      -7.075  11.764 -10.568  1.00  0.00    -0.014 A 
ATOM     87  C   UNL     1      -8.264  12.094  -9.908  1.00  0.00     0.010 A 
ATOM     88  C   UNL     1      -7.105  11.771 -11.986  1.00  0.00     0.010 A 
ATOM     89  C   UNL     1      -9.439  12.356 -10.625  1.00  0.00     0.020 A 
ATOM     90  C   UNL     1      -8.253  12.081 -12.710  1.00  0.00     0.020 A 
ATOM     91  C   UNL     1      -9.425  12.345 -12.020  1.00  0.00     0.054 A 
BRANCH  91  92
ATOM     92  S   UNL     1     -10.945  12.717 -12.921  1.00  0.00     0.124 S 
ATOM     93  O   UNL     1     -11.688  11.468 -12.785  1.00  0.00    -0.237 OA
ATOM     94  O   UNL     1     -11.487  13.853 -12.178  1.00  0.00    -0.237 OA
ATOM     95  O   UNL     1     -10.483  13.028 -14.271  1.00  0.00    -0.744 OA
ENDBRANCH  91  92
ENDBRANCH  65  86
ENDBRANCH  39  40
ENDBRANCH  31  34
ENDBRANCH  29  30
ENDBRANCH  28  29
ENDBRANCH  27  28
ENDBRANCH   1  27
TORSDOF 19
