REMARK SMILES CCC(=O)N1CCC[C@](C[C@H]2CC(c3ccc(C)cc3)=NO2)(C(=O)NCCCCNC(=O)c2ccc(-c3c4nc(c(-c5ccc(S(=O)(=O)[O-])cc5)c5ccc([nH]5)c(-c5ccc(S(=O)(=O)[O-])cc5)c5nc(c(-c6ccc(S(=O)(=O)[O-])cc6)c6ccc3[nH]6)C=C5)C=C4)cc2)C1
REMARK SMILES IDX 27 1 26 2 25 3 23 4 24 5 9 7 5 8 6 9 93 10 7 11 8 12 3 13
REMARK SMILES IDX 4 14 2 15 1 16 10 17 11 18 12 19 22 20 13 21 21 22 14 23
REMARK SMILES IDX 15 24 20 25 16 26 19 27 17 28 18 29 28 30 29 31 30 32 31 33
REMARK SMILES IDX 32 35 33 36 34 37 92 38 35 39 91 40 36 41 37 42 38 43 85 44
REMARK SMILES IDX 39 45 90 46 84 47 86 48 40 49 89 50 83 51 82 52 41 54 71 55
REMARK SMILES IDX 52 56 70 57 53 58 56 59 69 60 87 61 54 62 55 63 68 65 88 66
REMARK SMILES IDX 57 67 42 68 43 69 51 70 44 71 50 72 45 73 46 74 47 75 48 76
REMARK SMILES IDX 49 77 72 78 73 79 81 80 74 81 80 82 75 83 76 84 77 85 78 86
REMARK SMILES IDX 79 87 58 88 59 89 67 90 60 91 66 92 61 93 62 94 63 95 64 96
REMARK SMILES IDX 65 97
REMARK H PARENT 25 6 30 34 86 53 56 64
REMARK Flexibility Score: inf
ROOT
ATOM      1  C   UNL     1       1.264   3.668   4.013  1.00  0.00     0.023 C 
ENDROOT
BRANCH   1   2
ATOM      2  C   UNL     1       1.454   3.252   2.548  1.00  0.00     0.116 C 
BRANCH   2   3
ATOM      3  N   UNL     1       2.535   3.932   1.846  1.00  0.00    -0.356 N 
ATOM      4  C   UNL     1       3.711   3.581   1.271  1.00  0.00     0.228 C 
ATOM      5  O   UNL     1       4.101   4.436   0.455  1.00  0.00    -0.274 OA
ATOM      6  H   UNL     1       2.367   4.899   1.770  1.00  0.00     0.163 HD
BRANCH   4   7
ATOM      7  C   UNL     1       4.658   2.367   1.617  1.00  0.00     0.070 C 
ATOM      8  N   UNL     1       3.219   0.566   2.610  1.00  0.00    -0.342 N 
ATOM      9  C   UNL     1       3.872   0.674   3.914  1.00  0.00     0.119 C 
ATOM     10  C   UNL     1       4.022   0.982   1.486  1.00  0.00     0.136 C 
ATOM     11  C   UNL     1       4.387   2.080   4.171  1.00  0.00     0.023 C 
ATOM     12  C   UNL     1       5.235   2.609   3.027  1.00  0.00     0.021 C 
BRANCH   8  13
ATOM     13  C   UNL     1       2.034  -0.134   2.542  1.00  0.00     0.222 C 
ATOM     14  O   UNL     1       1.550  -0.590   3.583  1.00  0.00    -0.275 OA
BRANCH  13  15
ATOM     15  C   UNL     1       1.271  -0.400   1.250  1.00  0.00     0.097 C 
ATOM     16  C   UNL     1       1.316   0.479   0.015  1.00  0.00     0.014 C 
ENDBRANCH  13  15
ENDBRANCH   8  13
BRANCH   7  17
ATOM     17  C   UNL     1       5.830   2.470   0.538  1.00  0.00     0.067 C 
BRANCH  17  18
ATOM     18  C   UNL     1       6.939   1.418   0.304  1.00  0.00     0.211 C 
ATOM     19  C   UNL     1       7.928   1.126   1.406  1.00  0.00     0.108 C 
ATOM     20  O   UNL     1       6.434   0.152  -0.138  1.00  0.00    -0.392 OA
ATOM     21  C   UNL     1       7.605  -0.302   1.656  1.00  0.00     0.091 C 
ATOM     22  N   UNL     1       6.850  -0.857   0.766  1.00  0.00    -0.090 NA
BRANCH  21  23
ATOM     23  C   UNL     1       8.223  -1.040   2.773  1.00  0.00    -0.001 A 
ATOM     24  C   UNL     1       8.372  -0.449   4.029  1.00  0.00     0.010 A 
ATOM     25  C   UNL     1       8.692  -2.337   2.549  1.00  0.00     0.010 A 
ATOM     26  C   UNL     1       9.028  -1.143   5.050  1.00  0.00     0.004 A 
ATOM     27  C   UNL     1       9.362  -3.020   3.567  1.00  0.00     0.004 A 
ATOM     28  C   UNL     1       9.543  -2.425   4.822  1.00  0.00    -0.051 A 
ATOM     29  C   UNL     1      10.305  -3.151   5.891  1.00  0.00     0.044 C 
ENDBRANCH  21  23
ENDBRANCH  17  18
ENDBRANCH   7  17
ENDBRANCH   4   7
ENDBRANCH   2   3
ENDBRANCH   1   2
BRANCH   1  30
ATOM     30  C   UNL     1      -0.109   4.254   4.342  1.00  0.00     0.023 C 
BRANCH  30  31
ATOM     31  C   UNL     1      -1.292   3.354   4.000  1.00  0.00     0.116 C 
BRANCH  31  32
ATOM     32  N   UNL     1      -1.906   2.648   5.106  1.00  0.00    -0.352 N 
ATOM     33  C   UNL     1      -3.216   2.158   5.129  1.00  0.00     0.251 C 
ATOM     34  H   UNL     1      -1.355   2.500   5.909  1.00  0.00     0.163 HD
ATOM     35  O   UNL     1      -3.877   2.096   6.136  1.00  0.00    -0.269 OA
BRANCH  33  36
ATOM     36  C   UNL     1      -3.727   1.581   3.855  1.00  0.00     0.039 A 
ATOM     37  C   UNL     1      -4.038   0.215   3.818  1.00  0.00     0.014 A 
ATOM     38  C   UNL     1      -3.716   2.331   2.685  1.00  0.00     0.014 A 
ATOM     39  C   UNL     1      -4.184  -0.425   2.586  1.00  0.00     0.010 A 
ATOM     40  C   UNL     1      -3.723   1.680   1.474  1.00  0.00     0.010 A 
ATOM     41  C   UNL     1      -3.939   0.301   1.421  1.00  0.00    -0.014 A 
BRANCH  41  42
ATOM     42  C   UNL     1      -3.819  -0.271   0.089  1.00  0.00     0.031 A 
ATOM     43  C   UNL     1      -4.882  -0.050  -0.911  1.00  0.00     0.074 A 
ATOM     44  C   UNL     1      -2.642  -0.822  -0.275  1.00  0.00     0.049 A 
ATOM     45  N   UNL     1      -5.047  -0.774  -1.964  1.00  0.00    -0.248 NA
ATOM     46  C   UNL     1      -5.879   1.008  -0.777  1.00  0.00     0.031 C 
ATOM     47  C   UNL     1      -2.162  -1.102  -1.624  1.00  0.00     0.029 A 
ATOM     48  N   UNL     1      -1.691  -1.412   0.548  1.00  0.00    -0.354 N 
ATOM     49  C   UNL     1      -5.954  -0.125  -2.772  1.00  0.00     0.074 A 
ATOM     50  C   UNL     1      -6.498   0.936  -1.958  1.00  0.00     0.031 C 
ATOM     51  C   UNL     1      -1.189  -2.026  -1.549  1.00  0.00     0.029 A 
ATOM     52  C   UNL     1      -1.130  -2.475  -0.164  1.00  0.00     0.049 A 
ATOM     53  H   UNL     1      -1.457  -1.134   1.463  1.00  0.00     0.167 HD
ATOM     54  C   UNL     1      -6.043  -0.459  -4.090  1.00  0.00     0.031 A 
ATOM     55  C   UNL     1      -1.185  -3.771   0.258  1.00  0.00     0.031 A 
ATOM     56  C   UNL     1      -5.118  -1.541  -4.428  1.00  0.00     0.049 A 
ATOM     57  C   UNL     1      -1.929  -4.623  -0.746  1.00  0.00     0.074 A 
ATOM     58  C   UNL     1      -3.864  -1.544  -5.015  1.00  0.00     0.029 A 
ATOM     59  N   UNL     1      -5.291  -2.799  -3.858  1.00  0.00    -0.354 N 
ATOM     60  N   UNL     1      -2.741  -4.133  -1.644  1.00  0.00    -0.248 NA
ATOM     61  C   UNL     1      -1.824  -6.076  -0.825  1.00  0.00     0.031 C 
ATOM     62  C   UNL     1      -3.242  -2.783  -4.710  1.00  0.00     0.029 A 
ATOM     63  C   UNL     1      -4.134  -3.546  -3.976  1.00  0.00     0.049 A 
ATOM     64  H   UNL     1      -6.121  -3.112  -3.432  1.00  0.00     0.167 HD
ATOM     65  C   UNL     1      -3.230  -5.142  -2.422  1.00  0.00     0.074 A 
ATOM     66  C   UNL     1      -2.640  -6.346  -1.861  1.00  0.00     0.031 C 
ATOM     67  C   UNL     1      -4.075  -4.911  -3.468  1.00  0.00     0.031 A 
BRANCH  54  68
ATOM     68  C   UNL     1      -6.745   0.401  -5.119  1.00  0.00    -0.014 A 
ATOM     69  C   UNL     1      -6.300   0.394  -6.457  1.00  0.00     0.010 A 
ATOM     70  C   UNL     1      -7.820   1.264  -4.829  1.00  0.00     0.010 A 
ATOM     71  C   UNL     1      -6.827   1.265  -7.423  1.00  0.00     0.020 A 
ATOM     72  C   UNL     1      -8.330   2.170  -5.773  1.00  0.00     0.020 A 
ATOM     73  C   UNL     1      -7.823   2.170  -7.067  1.00  0.00     0.054 A 
BRANCH  73  74
ATOM     74  S   UNL     1      -8.446   3.333  -8.309  1.00  0.00     0.124 S 
ATOM     75  O   UNL     1      -7.227   4.009  -8.749  1.00  0.00    -0.237 OA
ATOM     76  O   UNL     1      -9.062   2.445  -9.289  1.00  0.00    -0.237 OA
ATOM     77  O   UNL     1      -9.378   4.175  -7.561  1.00  0.00    -0.744 OA
ENDBRANCH  73  74
ENDBRANCH  54  68
BRANCH  55  78
ATOM     78  C   UNL     1      -1.224  -3.934   1.744  1.00  0.00    -0.014 A 
ATOM     79  C   UNL     1      -0.039  -3.669   2.464  1.00  0.00     0.010 A 
ATOM     80  C   UNL     1      -2.449  -3.880   2.432  1.00  0.00     0.010 A 
ATOM     81  C   UNL     1      -0.089  -3.184   3.779  1.00  0.00     0.020 A 
ATOM     82  C   UNL     1      -2.499  -3.386   3.747  1.00  0.00     0.020 A 
ATOM     83  C   UNL     1      -1.326  -2.965   4.381  1.00  0.00     0.054 A 
BRANCH  83  84
ATOM     84  S   UNL     1      -1.403  -2.027   5.943  1.00  0.00     0.124 S 
ATOM     85  O   UNL     1      -0.321  -2.610   6.732  1.00  0.00    -0.237 OA
ATOM     86  O   UNL     1      -1.200  -0.647   5.503  1.00  0.00    -0.237 OA
ATOM     87  O   UNL     1      -2.749  -2.320   6.431  1.00  0.00    -0.744 OA
ENDBRANCH  83  84
ENDBRANCH  55  78
BRANCH  67  88
ATOM     88  C   UNL     1      -4.874  -5.969  -4.180  1.00  0.00    -0.014 A 
ATOM     89  C   UNL     1      -5.258  -7.178  -3.582  1.00  0.00     0.010 A 
ATOM     90  C   UNL     1      -5.413  -5.676  -5.455  1.00  0.00     0.010 A 
ATOM     91  C   UNL     1      -6.101  -8.078  -4.245  1.00  0.00     0.020 A 
ATOM     92  C   UNL     1      -6.293  -6.544  -6.104  1.00  0.00     0.020 A 
ATOM     93  C   UNL     1      -6.615  -7.754  -5.501  1.00  0.00     0.054 A 
BRANCH  93  94
ATOM     94  S   UNL     1      -7.777  -8.881  -6.308  1.00  0.00     0.124 S 
ATOM     95  O   UNL     1      -6.875  -9.773  -7.032  1.00  0.00    -0.237 OA
ATOM     96  O   UNL     1      -8.484  -9.486  -5.181  1.00  0.00    -0.237 OA
ATOM     97  O   UNL     1      -8.589  -7.997  -7.140  1.00  0.00    -0.744 OA
ENDBRANCH  93  94
ENDBRANCH  67  88
ENDBRANCH  41  42
ENDBRANCH  33  36
ENDBRANCH  31  32
ENDBRANCH  30  31
ENDBRANCH   1  30
TORSDOF 19
