REMARK SMILES Cc1cccc(-n2ncc(C(=O)Nc3cccc(C(=O)NCCCCNC(=O)c4ccc(-c5c6nc(c(-c7ccc(S(=O)(=O)[O-])cc7)c7ccc([nH]7)c(-c7ccc(S(=O)(=O)[O-])cc7)c7nc(c(-c8ccc(S(=O)(=O)[O-])cc8)c8ccc5[nH]8)C=C7)C=C6)cc4)c3C)c2C)c1
REMARK SMILES IDX 23 1 22 2 21 3 19 4 20 5 18 7 14 8 15 9 89 10 16 11 90 12
REMARK SMILES IDX 17 13 13 14 11 15 12 16 10 18 7 19 8 20 91 21 9 22 92 23
REMARK SMILES IDX 6 24 1 25 2 26 3 27 93 28 4 29 5 30 24 31 25 32 26 33 27 34
REMARK SMILES IDX 28 36 29 37 30 38 88 39 31 40 87 41 32 42 33 43 34 44 81 45
REMARK SMILES IDX 35 46 86 47 80 48 82 49 36 50 85 51 79 52 78 53 37 55 67 56
REMARK SMILES IDX 48 57 66 58 49 59 52 60 65 61 83 62 50 63 51 64 64 66 84 67
REMARK SMILES IDX 53 68 38 69 39 70 47 71 40 72 46 73 41 74 42 75 43 76 44 77
REMARK SMILES IDX 45 78 68 79 69 80 77 81 70 82 76 83 71 84 72 85 73 86 74 87
REMARK SMILES IDX 75 88 54 89 55 90 63 91 56 92 62 93 57 94 58 95 59 96 60 97
REMARK SMILES IDX 61 98
REMARK H PARENT 21 6 13 17 26 35 82 54 52 65
REMARK Flexibility Score: inf
ROOT
ATOM      1  C   UNL     1      -2.796  10.231  -5.327  1.00  0.00     0.023 C 
ENDROOT
BRANCH   1   2
ATOM      2  C   UNL     1      -1.743   9.491  -4.501  1.00  0.00     0.116 C 
BRANCH   2   3
ATOM      3  N   UNL     1      -1.721   9.868  -3.089  1.00  0.00    -0.352 N 
ATOM      4  C   UNL     1      -2.151   9.351  -1.891  1.00  0.00     0.251 C 
ATOM      5  O   UNL     1      -1.807   9.994  -0.895  1.00  0.00    -0.269 OA
ATOM      6  H   UNL     1      -1.272  10.735  -2.960  1.00  0.00     0.163 HD
BRANCH   4   7
ATOM      7  C   UNL     1      -2.972   8.101  -1.704  1.00  0.00     0.044 A 
ATOM      8  C   UNL     1      -4.180   6.541  -0.265  1.00  0.00     0.045 A 
ATOM      9  C   UNL     1      -4.290   5.633  -1.321  1.00  0.00     0.026 A 
ATOM     10  C   UNL     1      -3.655   7.840  -0.475  1.00  0.00    -0.015 A 
ATOM     11  C   UNL     1      -3.679   5.905  -2.526  1.00  0.00     0.003 A 
ATOM     12  C   UNL     1      -3.690   8.840   0.658  1.00  0.00     0.047 C 
ATOM     13  C   UNL     1      -2.959   7.087  -2.671  1.00  0.00     0.014 A 
BRANCH   8  14
ATOM     14  N   UNL     1      -4.496   6.093   1.032  1.00  0.00    -0.322 N 
ATOM     15  C   UNL     1      -4.183   4.866   1.599  1.00  0.00     0.259 C 
ATOM     16  O   UNL     1      -4.803   4.512   2.603  1.00  0.00    -0.269 OA
ATOM     17  H   UNL     1      -4.995   6.721   1.601  1.00  0.00     0.170 HD
BRANCH  15  18
ATOM     18  C   UNL     1      -3.065   4.077   1.064  1.00  0.00     0.081 A 
ATOM     19  N   UNL     1      -1.655   2.412   0.564  1.00  0.00    -0.237 N 
ATOM     20  N   UNL     1      -1.077   3.529   0.066  1.00  0.00    -0.175 NA
ATOM     21  C   UNL     1      -2.796   2.727   1.299  1.00  0.00     0.054 A 
ATOM     22  C   UNL     1      -1.928   4.508   0.345  1.00  0.00     0.149 A 
ATOM     23  C   UNL     1      -3.472   1.802   2.249  1.00  0.00     0.068 C 
BRANCH  19  24
ATOM     24  C   UNL     1      -1.031   1.154   0.327  1.00  0.00     0.065 A 
ATOM     25  C   UNL     1       2.520  -0.125  -0.225  1.00  0.00     0.044 C 
ATOM     26  C   UNL     1       1.028  -0.092  -0.072  1.00  0.00    -0.049 A 
ATOM     27  C   UNL     1       0.292  -1.282  -0.055  1.00  0.00     0.003 A 
ATOM     28  C   UNL     1       0.355   1.125   0.093  1.00  0.00     0.031 A 
ATOM     29  C   UNL     1      -1.093  -1.255   0.118  1.00  0.00     0.002 A 
ATOM     30  C   UNL     1      -1.757  -0.041   0.311  1.00  0.00     0.028 A 
ENDBRANCH  19  24
ENDBRANCH  15  18
ENDBRANCH   8  14
ENDBRANCH   4   7
ENDBRANCH   2   3
ENDBRANCH   1   2
BRANCH   1  31
ATOM     31  C   UNL     1      -2.548  11.729  -5.492  1.00  0.00     0.023 C 
BRANCH  31  32
ATOM     32  C   UNL     1      -1.237  12.084  -6.185  1.00  0.00     0.116 C 
BRANCH  32  33
ATOM     33  N   UNL     1      -1.305  12.180  -7.632  1.00  0.00    -0.352 N 
ATOM     34  C   UNL     1      -0.291  12.574  -8.500  1.00  0.00     0.251 C 
ATOM     35  H   UNL     1      -2.166  11.940  -8.046  1.00  0.00     0.163 HD
ATOM     36  O   UNL     1      -0.506  12.875  -9.652  1.00  0.00    -0.269 OA
BRANCH  34  37
ATOM     37  C   UNL     1       1.099  12.498  -7.983  1.00  0.00     0.039 A 
ATOM     38  C   UNL     1       1.943  11.542  -8.561  1.00  0.00     0.014 A 
ATOM     39  C   UNL     1       1.455  13.142  -6.802  1.00  0.00     0.014 A 
ATOM     40  C   UNL     1       3.050  11.085  -7.849  1.00  0.00     0.010 A 
ATOM     41  C   UNL     1       2.497  12.623  -6.057  1.00  0.00     0.010 A 
ATOM     42  C   UNL     1       3.260  11.557  -6.556  1.00  0.00    -0.014 A 
BRANCH  42  43
ATOM     43  C   UNL     1       4.204  10.963  -5.616  1.00  0.00     0.031 A 
ATOM     44  C   UNL     1       5.452  11.682  -5.269  1.00  0.00     0.074 A 
ATOM     45  C   UNL     1       3.907   9.810  -4.973  1.00  0.00     0.049 A 
ATOM     46  N   UNL     1       6.466  11.130  -4.691  1.00  0.00    -0.248 NA
ATOM     47  C   UNL     1       5.695  13.080  -5.626  1.00  0.00     0.031 C 
ATOM     48  C   UNL     1       4.552   9.291  -3.767  1.00  0.00     0.029 A 
ATOM     49  N   UNL     1       3.113   8.746  -5.406  1.00  0.00    -0.354 N 
ATOM     50  C   UNL     1       7.291  12.144  -4.272  1.00  0.00     0.074 A 
ATOM     51  C   UNL     1       6.867  13.299  -5.023  1.00  0.00     0.031 C 
ATOM     52  C   UNL     1       4.386   7.961  -3.731  1.00  0.00     0.029 A 
ATOM     53  C   UNL     1       3.777   7.575  -4.990  1.00  0.00     0.049 A 
ATOM     54  H   UNL     1       2.264   8.802  -5.900  1.00  0.00     0.167 HD
ATOM     55  C   UNL     1       8.122  11.932  -3.213  1.00  0.00     0.031 A 
ATOM     56  C   UNL     1       4.269   6.631  -5.847  1.00  0.00     0.031 A 
ATOM     57  C   UNL     1       8.246  10.510  -2.880  1.00  0.00     0.049 A 
ATOM     58  C   UNL     1       5.764   6.384  -5.705  1.00  0.00     0.074 A 
ATOM     59  C   UNL     1       7.941   9.719  -1.786  1.00  0.00     0.029 A 
ATOM     60  N   UNL     1       8.595   9.629  -3.894  1.00  0.00    -0.354 N 
ATOM     61  N   UNL     1       6.535   6.980  -4.838  1.00  0.00    -0.248 NA
ATOM     62  C   UNL     1       6.527   5.523  -6.612  1.00  0.00     0.031 C 
ATOM     63  C   UNL     1       8.098   8.350  -2.168  1.00  0.00     0.029 A 
ATOM     64  C   UNL     1       8.526   8.316  -3.481  1.00  0.00     0.049 A 
ATOM     65  H   UNL     1       8.860   9.909  -4.800  1.00  0.00     0.167 HD
ATOM     66  C   UNL     1       7.847   6.682  -5.101  1.00  0.00     0.074 A 
ATOM     67  C   UNL     1       7.791   5.744  -6.208  1.00  0.00     0.031 C 
ATOM     68  C   UNL     1       8.882   7.278  -4.439  1.00  0.00     0.031 A 
BRANCH  55  69
ATOM     69  C   UNL     1       8.690  13.046  -2.352  1.00  0.00    -0.014 A 
ATOM     70  C   UNL     1       9.515  12.736  -1.250  1.00  0.00     0.010 A 
ATOM     71  C   UNL     1       8.352  14.408  -2.499  1.00  0.00     0.010 A 
ATOM     72  C   UNL     1       9.943  13.719  -0.338  1.00  0.00     0.020 A 
ATOM     73  C   UNL     1       8.800  15.403  -1.621  1.00  0.00     0.020 A 
ATOM     74  C   UNL     1       9.574  15.050  -0.527  1.00  0.00     0.054 A 
BRANCH  74  75
ATOM     75  S   UNL     1      10.074  16.310   0.674  1.00  0.00     0.124 S 
ATOM     76  O   UNL     1       9.304  15.934   1.856  1.00  0.00    -0.237 OA
ATOM     77  O   UNL     1      11.517  16.111   0.768  1.00  0.00    -0.237 OA
ATOM     78  O   UNL     1       9.666  17.567   0.047  1.00  0.00    -0.744 OA
ENDBRANCH  74  75
ENDBRANCH  55  69
BRANCH  56  79
ATOM     79  C   UNL     1       3.498   6.515  -7.117  1.00  0.00    -0.014 A 
ATOM     80  C   UNL     1       2.189   5.993  -7.030  1.00  0.00     0.010 A 
ATOM     81  C   UNL     1       3.852   7.288  -8.237  1.00  0.00     0.010 A 
ATOM     82  C   UNL     1       1.206   6.393  -7.936  1.00  0.00     0.020 A 
ATOM     83  C   UNL     1       2.868   7.681  -9.155  1.00  0.00     0.020 A 
ATOM     84  C   UNL     1       1.541   7.291  -8.950  1.00  0.00     0.054 A 
BRANCH  84  85
ATOM     85  S   UNL     1       0.182   8.111  -9.837  1.00  0.00     0.124 S 
ATOM     86  O   UNL     1      -0.544   6.983 -10.412  1.00  0.00    -0.237 OA
ATOM     87  O   UNL     1      -0.500   8.810  -8.747  1.00  0.00    -0.237 OA
ATOM     88  O   UNL     1       0.876   8.969 -10.792  1.00  0.00    -0.744 OA
ENDBRANCH  84  85
ENDBRANCH  56  79
BRANCH  68  89
ATOM     89  C   UNL     1      10.344   6.998  -4.692  1.00  0.00    -0.014 A 
ATOM     90  C   UNL     1      10.847   5.717  -4.973  1.00  0.00     0.010 A 
ATOM     91  C   UNL     1      11.292   8.036  -4.525  1.00  0.00     0.010 A 
ATOM     92  C   UNL     1      12.225   5.499  -5.137  1.00  0.00     0.020 A 
ATOM     93  C   UNL     1      12.666   7.826  -4.667  1.00  0.00     0.020 A 
ATOM     94  C   UNL     1      13.125   6.557  -4.989  1.00  0.00     0.054 A 
BRANCH  94  95
ATOM     95  S   UNL     1      14.901   6.245  -5.164  1.00  0.00     0.124 S 
ATOM     96  O   UNL     1      15.101   5.066  -4.324  1.00  0.00    -0.237 OA
ATOM     97  O   UNL     1      15.029   6.019  -6.601  1.00  0.00    -0.237 OA
ATOM     98  O   UNL     1      15.524   7.470  -4.668  1.00  0.00    -0.744 OA
ENDBRANCH  94  95
ENDBRANCH  68  89
ENDBRANCH  42  43
ENDBRANCH  34  37
ENDBRANCH  32  33
ENDBRANCH  31  32
ENDBRANCH   1  31
TORSDOF 17
