REMARK SMILES CCc1n[nH]c2cc(CCC(=O)NCCCCNC(=O)c3ccc(-c4c5nc(c(-c6ccc(S(=O)(=O)[O-])cc6)c6ccc([nH]6)c(-c6ccc(S(=O)(=O)[O-])cc6)c6nc(c(-c7ccc(S(=O)(=O)[O-])cc7)c7ccc4[nH]7)C=C6)C=C5)cc3)ccc12
REMARK SMILES IDX 15 1 14 2 13 3 11 4 12 5 10 7 9 8 8 9 3 10 4 11 83 12 5 13
REMARK SMILES IDX 6 14 82 15 7 17 81 18 2 19 1 20 16 21 17 22 18 23 19 24
REMARK SMILES IDX 20 26 21 27 22 28 80 29 23 30 79 31 24 32 25 33 26 34 73 35
REMARK SMILES IDX 27 36 78 37 72 38 74 39 28 40 77 41 71 42 70 43 29 45 59 46
REMARK SMILES IDX 40 47 58 48 41 49 44 50 57 51 75 52 42 53 43 54 56 56 76 57
REMARK SMILES IDX 45 58 30 59 31 60 39 61 32 62 38 63 33 64 34 65 35 66 36 67
REMARK SMILES IDX 37 68 60 69 61 70 69 71 62 72 68 73 63 74 64 75 65 76 66 77
REMARK SMILES IDX 67 78 46 79 47 80 55 81 48 82 54 83 49 84 50 85 51 86 52 87
REMARK SMILES IDX 53 88
REMARK H PARENT 13 6 5 16 18 25 74 44 44 55
REMARK Flexibility Score: inf
ROOT
ATOM      1  C   UNL     1       1.483   5.370  -1.584  1.00  0.00     0.023 C 
ENDROOT
BRANCH   1   2
ATOM      2  C   UNL     1       1.234   5.523  -3.076  1.00  0.00     0.116 C 
BRANCH   2   3
ATOM      3  N   UNL     1       2.110   6.549  -3.609  1.00  0.00    -0.356 N 
ATOM      4  C   UNL     1       3.424   6.438  -3.959  1.00  0.00     0.220 C 
ATOM      5  O   UNL     1       4.083   7.470  -4.102  1.00  0.00    -0.275 OA
ATOM      6  H   UNL     1       1.705   7.438  -3.733  1.00  0.00     0.163 HD
BRANCH   4   7
ATOM      7  C   UNL     1       4.047   5.076  -4.218  1.00  0.00     0.105 C 
BRANCH   7   8
ATOM      8  C   UNL     1       5.026   4.616  -3.127  1.00  0.00     0.045 C 
BRANCH   8   9
ATOM      9  C   UNL     1       4.412   3.689  -2.096  1.00  0.00    -0.045 A 
ATOM     10  C   UNL     1       2.132   1.719   0.842  1.00  0.00     0.070 A 
ATOM     11  N   UNL     1       2.249   2.601   1.847  1.00  0.00    -0.180 NA
ATOM     12  C   UNL     1       2.917   2.115  -0.286  1.00  0.00     0.023 A 
ATOM     13  N   UNL     1       3.071   3.543   1.372  1.00  0.00    -0.278 N 
ATOM     14  C   UNL     1       3.513   3.313   0.098  1.00  0.00     0.066 A 
ATOM     15  C   UNL     1       3.168   1.644  -1.589  1.00  0.00     0.012 A 
ATOM     16  H   UNL     1       3.336   4.334   1.895  1.00  0.00     0.190 HD
ATOM     17  C   UNL     1       4.305   4.095  -0.757  1.00  0.00     0.032 A 
ATOM     18  C   UNL     1       3.900   2.443  -2.482  1.00  0.00     0.004 A 
BRANCH  10  19
ATOM     19  C   UNL     1       1.191   0.571   1.048  1.00  0.00     0.055 C 
ATOM     20  C   UNL     1       1.245  -0.549   0.027  1.00  0.00     0.011 C 
ENDBRANCH  10  19
ENDBRANCH   8   9
ENDBRANCH   7   8
ENDBRANCH   4   7
ENDBRANCH   2   3
ENDBRANCH   1   2
BRANCH   1  21
ATOM     21  C   UNL     1       0.572   6.149  -0.656  1.00  0.00     0.023 C 
BRANCH  21  22
ATOM     22  C   UNL     1      -0.858   5.643  -0.600  1.00  0.00     0.116 C 
BRANCH  22  23
ATOM     23  N   UNL     1      -0.992   4.220  -0.311  1.00  0.00    -0.352 N 
ATOM     24  C   UNL     1      -1.861   3.566   0.537  1.00  0.00     0.251 C 
ATOM     25  H   UNL     1      -0.366   3.636  -0.797  1.00  0.00     0.163 HD
ATOM     26  O   UNL     1      -1.862   2.349   0.604  1.00  0.00    -0.269 OA
BRANCH  24  27
ATOM     27  C   UNL     1      -2.770   4.356   1.393  1.00  0.00     0.039 A 
ATOM     28  C   UNL     1      -2.877   4.033   2.747  1.00  0.00     0.014 A 
ATOM     29  C   UNL     1      -3.472   5.441   0.869  1.00  0.00     0.014 A 
ATOM     30  C   UNL     1      -3.635   4.848   3.590  1.00  0.00     0.010 A 
ATOM     31  C   UNL     1      -4.109   6.322   1.728  1.00  0.00     0.010 A 
ATOM     32  C   UNL     1      -4.219   6.025   3.094  1.00  0.00    -0.014 A 
BRANCH  32  33
ATOM     33  C   UNL     1      -4.982   6.952   3.965  1.00  0.00     0.031 A 
ATOM     34  C   UNL     1      -6.421   7.261   3.637  1.00  0.00     0.074 A 
ATOM     35  C   UNL     1      -4.363   7.575   4.988  1.00  0.00     0.049 A 
ATOM     36  N   UNL     1      -7.229   8.123   4.195  1.00  0.00    -0.248 NA
ATOM     37  C   UNL     1      -7.015   6.538   2.498  1.00  0.00     0.031 C 
ATOM     38  C   UNL     1      -2.957   7.403   5.365  1.00  0.00     0.029 A 
ATOM     39  N   UNL     1      -4.838   8.486   5.897  1.00  0.00    -0.354 N 
ATOM     40  C   UNL     1      -8.405   8.071   3.454  1.00  0.00     0.074 A 
ATOM     41  C   UNL     1      -8.184   7.145   2.368  1.00  0.00     0.031 C 
ATOM     42  C   UNL     1      -2.696   8.149   6.450  1.00  0.00     0.029 A 
ATOM     43  C   UNL     1      -3.898   8.888   6.818  1.00  0.00     0.049 A 
ATOM     44  H   UNL     1      -5.763   8.820   5.891  1.00  0.00     0.167 HD
ATOM     45  C   UNL     1      -9.576   8.714   3.675  1.00  0.00     0.031 A 
ATOM     46  C   UNL     1      -3.997   9.756   7.842  1.00  0.00     0.031 A 
ATOM     47  C   UNL     1      -9.798   9.602   4.784  1.00  0.00     0.049 A 
ATOM     48  C   UNL     1      -5.319  10.430   8.090  1.00  0.00     0.074 A 
ATOM     49  C   UNL     1     -10.963  10.251   5.149  1.00  0.00     0.029 A 
ATOM     50  N   UNL     1      -8.832   9.955   5.715  1.00  0.00    -0.354 N 
ATOM     51  N   UNL     1      -6.439  10.323   7.413  1.00  0.00    -0.248 NA
ATOM     52  C   UNL     1      -5.394  11.329   9.248  1.00  0.00     0.031 C 
ATOM     53  C   UNL     1     -10.688  11.036   6.274  1.00  0.00     0.029 A 
ATOM     54  C   UNL     1      -9.368  10.828   6.645  1.00  0.00     0.049 A 
ATOM     55  H   UNL     1      -7.902   9.631   5.715  1.00  0.00     0.167 HD
ATOM     56  C   UNL     1      -7.359  11.127   8.076  1.00  0.00     0.074 A 
ATOM     57  C   UNL     1      -6.670  11.688   9.222  1.00  0.00     0.031 C 
ATOM     58  C   UNL     1      -8.655  11.383   7.767  1.00  0.00     0.031 A 
BRANCH  45  59
ATOM     59  C   UNL     1     -10.701   8.471   2.700  1.00  0.00    -0.014 A 
ATOM     60  C   UNL     1     -11.329   7.215   2.608  1.00  0.00     0.010 A 
ATOM     61  C   UNL     1     -11.154   9.520   1.879  1.00  0.00     0.010 A 
ATOM     62  C   UNL     1     -12.354   6.999   1.684  1.00  0.00     0.020 A 
ATOM     63  C   UNL     1     -12.203   9.318   0.977  1.00  0.00     0.020 A 
ATOM     64  C   UNL     1     -12.785   8.052   0.873  1.00  0.00     0.054 A 
BRANCH  64  65
ATOM     65  S   UNL     1     -14.138   7.751  -0.296  1.00  0.00     0.124 S 
ATOM     66  O   UNL     1     -13.483   6.929  -1.310  1.00  0.00    -0.237 OA
ATOM     67  O   UNL     1     -15.125   7.059   0.530  1.00  0.00    -0.237 OA
ATOM     68  O   UNL     1     -14.524   9.090  -0.733  1.00  0.00    -0.744 OA
ENDBRANCH  64  65
ENDBRANCH  45  59
BRANCH  46  69
ATOM     69  C   UNL     1      -2.822  10.013   8.721  1.00  0.00    -0.014 A 
ATOM     70  C   UNL     1      -2.810   9.549  10.049  1.00  0.00     0.010 A 
ATOM     71  C   UNL     1      -1.701  10.708   8.232  1.00  0.00     0.010 A 
ATOM     72  C   UNL     1      -1.709   9.792  10.876  1.00  0.00     0.020 A 
ATOM     73  C   UNL     1      -0.585  10.926   9.047  1.00  0.00     0.020 A 
ATOM     74  C   UNL     1      -0.602  10.477  10.369  1.00  0.00     0.054 A 
BRANCH  74  75
ATOM     75  S   UNL     1       0.837  10.735  11.444  1.00  0.00     0.124 S 
ATOM     76  O   UNL     1       0.354  11.766  12.357  1.00  0.00    -0.237 OA
ATOM     77  O   UNL     1       1.033   9.411  12.031  1.00  0.00    -0.237 OA
ATOM     78  O   UNL     1       1.885  11.158  10.518  1.00  0.00    -0.744 OA
ENDBRANCH  74  75
ENDBRANCH  46  69
BRANCH  58  79
ATOM     79  C   UNL     1      -9.408  12.294   8.697  1.00  0.00    -0.014 A 
ATOM     80  C   UNL     1      -9.120  13.669   8.761  1.00  0.00     0.010 A 
ATOM     81  C   UNL     1     -10.430  11.768   9.507  1.00  0.00     0.010 A 
ATOM     82  C   UNL     1      -9.803  14.491   9.659  1.00  0.00     0.020 A 
ATOM     83  C   UNL     1     -11.139  12.593  10.383  1.00  0.00     0.020 A 
ATOM     84  C   UNL     1     -10.804  13.946  10.469  1.00  0.00     0.054 A 
BRANCH  84  85
ATOM     85  S   UNL     1     -11.679  15.034  11.625  1.00  0.00     0.124 S 
ATOM     86  O   UNL     1     -10.678  15.234  12.669  1.00  0.00    -0.237 OA
ATOM     87  O   UNL     1     -11.975  16.205  10.803  1.00  0.00    -0.237 OA
ATOM     88  O   UNL     1     -12.846  14.249  12.023  1.00  0.00    -0.744 OA
ENDBRANCH  84  85
ENDBRANCH  58  79
ENDBRANCH  32  33
ENDBRANCH  24  27
ENDBRANCH  22  23
ENDBRANCH  21  22
ENDBRANCH   1  21
TORSDOF 17
