REMARK SMILES C[C@H](C(=O)NCCCCNC(=O)c1ccc(-c2c3nc(c(-c4ccc(S(=O)(=O)[O-])cc4)c4ccc([nH]4)c(-c4ccc(S(=O)(=O)[O-])cc4)c4nc(c(-c5ccc(S(=O)(=O)[O-])cc5)c5ccc2[nH]5)C=C4)C=C3)cc1)c1ccc2c3cc(Cl)ccc3n(C(=O)c3ccc(Cl)cc3)c2c1
REMARK SMILES IDX 7 1 6 2 5 3 3 4 4 5 2 7 1 8 73 9 74 10 95 11 75 12 94 13
REMARK SMILES IDX 76 14 84 15 77 16 83 17 78 18 82 19 79 20 81 21 80 22 85 23
REMARK SMILES IDX 86 24 87 25 88 26 93 27 89 28 92 29 90 30 91 31 8 32 9 33
REMARK SMILES IDX 10 34 11 35 12 37 13 38 14 39 72 40 15 41 71 42 16 43 17 44
REMARK SMILES IDX 18 45 65 46 19 47 70 48 64 49 66 50 20 51 69 52 63 53 62 54
REMARK SMILES IDX 21 56 51 57 32 58 50 59 33 60 36 61 49 62 67 63 34 64 35 65
REMARK SMILES IDX 48 67 68 68 37 69 22 70 23 71 31 72 24 73 30 74 25 75 26 76
REMARK SMILES IDX 27 77 28 78 29 79 52 80 53 81 61 82 54 83 60 84 55 85 56 86
REMARK SMILES IDX 57 87 58 88 59 89 38 90 39 91 47 92 40 93 46 94 41 95 42 96
REMARK SMILES IDX 43 97 44 98 45 99
REMARK H PARENT 5 6 10 36 66 55 36 66
REMARK Flexibility Score: inf
ROOT
ATOM      1  C   UNL     1      -1.042  -1.709  -2.623  1.00  0.00     0.023 C 
ENDROOT
BRANCH   1   2
ATOM      2  C   UNL     1      -0.889  -0.870  -1.357  1.00  0.00     0.116 C 
BRANCH   2   3
ATOM      3  N   UNL     1       0.448  -0.840  -0.794  1.00  0.00    -0.356 N 
ATOM      4  C   UNL     1       0.998   0.020   0.114  1.00  0.00     0.227 C 
ATOM      5  O   UNL     1       2.053  -0.347   0.647  1.00  0.00    -0.274 OA
ATOM      6  H   UNL     1       1.051  -1.549  -1.114  1.00  0.00     0.163 HD
BRANCH   4   7
ATOM      7  C   UNL     1       0.474   1.443   0.384  1.00  0.00     0.105 C 
ATOM      8  C   UNL     1       1.135   2.346  -0.667  1.00  0.00     0.023 C 
BRANCH   7   9
ATOM      9  C   UNL     1      -1.036   1.616   0.528  1.00  0.00    -0.034 A 
ATOM     10  C   UNL     1      -1.716   2.708  -0.020  1.00  0.00     0.005 A 
ATOM     11  C   UNL     1      -1.780   0.637   1.210  1.00  0.00     0.032 A 
ATOM     12  C   UNL     1      -3.113   2.759  -0.036  1.00  0.00     0.011 A 
ATOM     13  C   UNL     1      -3.188   0.630   1.098  1.00  0.00     0.057 A 
ATOM     14  C   UNL     1      -3.857   1.675   0.469  1.00  0.00     0.008 A 
ATOM     15  N   UNL     1      -4.130  -0.365   1.408  1.00  0.00    -0.276 N 
ATOM     16  C   UNL     1      -5.244   1.375   0.492  1.00  0.00     0.009 A 
ATOM     17  C   UNL     1      -5.407   0.142   1.133  1.00  0.00     0.057 A 
ATOM     18  C   UNL     1      -6.376   2.070   0.013  1.00  0.00     0.031 A 
ATOM     19  C   UNL     1      -6.698  -0.356   1.404  1.00  0.00     0.029 A 
ATOM     20  C   UNL     1      -7.645   1.537   0.221  1.00  0.00     0.041 A 
ATOM     21  C   UNL     1      -7.808   0.348   0.919  1.00  0.00     0.023 A 
ATOM     22  Cl  UNL     1      -9.023   2.376  -0.380  1.00  0.00    -0.084 Cl
BRANCH  15  23
ATOM     23  C   UNL     1      -3.769  -1.665   1.866  1.00  0.00     0.262 C 
ATOM     24  O   UNL     1      -2.736  -1.740   2.520  1.00  0.00    -0.268 OA
BRANCH  23  25
ATOM     25  C   UNL     1      -4.462  -2.962   1.586  1.00  0.00     0.040 A 
ATOM     26  C   UNL     1      -4.042  -4.087   2.321  1.00  0.00     0.015 A 
ATOM     27  C   UNL     1      -5.397  -3.146   0.562  1.00  0.00     0.015 A 
ATOM     28  C   UNL     1      -4.579  -5.354   2.076  1.00  0.00     0.021 A 
ATOM     29  C   UNL     1      -5.967  -4.409   0.345  1.00  0.00     0.021 A 
ATOM     30  C   UNL     1      -5.555  -5.507   1.099  1.00  0.00     0.041 A 
ATOM     31  Cl  UNL     1      -6.231  -7.059   0.803  1.00  0.00    -0.084 Cl
ENDBRANCH  23  25
ENDBRANCH  15  23
ENDBRANCH   7   9
ENDBRANCH   4   7
ENDBRANCH   2   3
ENDBRANCH   1   2
BRANCH   1  32
ATOM     32  C   UNL     1      -0.544  -3.154  -2.550  1.00  0.00     0.023 C 
BRANCH  32  33
ATOM     33  C   UNL     1      -1.092  -4.006  -1.407  1.00  0.00     0.116 C 
BRANCH  33  34
ATOM     34  N   UNL     1      -2.510  -4.310  -1.549  1.00  0.00    -0.352 N 
ATOM     35  C   UNL     1      -3.154  -5.509  -1.764  1.00  0.00     0.251 C 
ATOM     36  H   UNL     1      -3.106  -3.530  -1.479  1.00  0.00     0.163 HD
ATOM     37  O   UNL     1      -4.349  -5.497  -2.053  1.00  0.00    -0.269 OA
BRANCH  35  38
ATOM     38  C   UNL     1      -2.422  -6.799  -1.719  1.00  0.00     0.039 A 
ATOM     39  C   UNL     1      -2.720  -7.766  -2.685  1.00  0.00     0.014 A 
ATOM     40  C   UNL     1      -1.427  -7.055  -0.773  1.00  0.00     0.014 A 
ATOM     41  C   UNL     1      -1.926  -8.911  -2.798  1.00  0.00     0.010 A 
ATOM     42  C   UNL     1      -0.585  -8.155  -0.937  1.00  0.00     0.010 A 
ATOM     43  C   UNL     1      -0.799  -9.070  -1.978  1.00  0.00    -0.014 A 
BRANCH  43  44
ATOM     44  C   UNL     1       0.229 -10.109  -2.261  1.00  0.00     0.031 A 
ATOM     45  C   UNL     1       0.564 -11.162  -1.244  1.00  0.00     0.074 A 
ATOM     46  C   UNL     1       0.960 -10.014  -3.390  1.00  0.00     0.049 A 
ATOM     47  N   UNL     1       1.531 -12.044  -1.259  1.00  0.00    -0.248 NA
ATOM     48  C   UNL     1      -0.277 -11.208  -0.039  1.00  0.00     0.031 C 
ATOM     49  C   UNL     1       0.781  -9.000  -4.433  1.00  0.00     0.029 A 
ATOM     50  N   UNL     1       2.023 -10.761  -3.838  1.00  0.00    -0.354 N 
ATOM     51  C   UNL     1       1.442 -12.725  -0.051  1.00  0.00     0.074 A 
ATOM     52  C   UNL     1       0.338 -12.136   0.680  1.00  0.00     0.031 C 
ATOM     53  C   UNL     1       1.693  -9.191  -5.398  1.00  0.00     0.029 A 
ATOM     54  C   UNL     1       2.551 -10.310  -5.025  1.00  0.00     0.049 A 
ATOM     55  H   UNL     1       2.373 -11.544  -3.355  1.00  0.00     0.167 HD
ATOM     56  C   UNL     1       2.206 -13.746   0.406  1.00  0.00     0.031 A 
ATOM     57  C   UNL     1       3.619 -10.729  -5.732  1.00  0.00     0.031 A 
ATOM     58  C   UNL     1       3.293 -14.338  -0.327  1.00  0.00     0.049 A 
ATOM     59  C   UNL     1       4.427 -11.888  -5.229  1.00  0.00     0.074 A 
ATOM     60  C   UNL     1       4.081 -15.421   0.025  1.00  0.00     0.029 A 
ATOM     61  N   UNL     1       3.752 -13.895  -1.558  1.00  0.00    -0.354 N 
ATOM     62  N   UNL     1       4.283 -12.565  -4.116  1.00  0.00    -0.248 NA
ATOM     63  C   UNL     1       5.533 -12.348  -6.080  1.00  0.00     0.031 C 
ATOM     64  C   UNL     1       5.037 -15.611  -0.980  1.00  0.00     0.029 A 
ATOM     65  C   UNL     1       4.819 -14.672  -1.975  1.00  0.00     0.049 A 
ATOM     66  H   UNL     1       3.373 -13.138  -2.062  1.00  0.00     0.167 HD
ATOM     67  C   UNL     1       5.267 -13.544  -4.139  1.00  0.00     0.074 A 
ATOM     68  C   UNL     1       5.997 -13.377  -5.380  1.00  0.00     0.031 C 
ATOM     69  C   UNL     1       5.537 -14.497  -3.214  1.00  0.00     0.031 A 
BRANCH  56  70
ATOM     70  C   UNL     1       1.896 -14.265   1.785  1.00  0.00    -0.014 A 
ATOM     71  C   UNL     1       0.727 -15.006   2.038  1.00  0.00     0.010 A 
ATOM     72  C   UNL     1       2.779 -13.994   2.846  1.00  0.00     0.010 A 
ATOM     73  C   UNL     1       0.411 -15.404   3.340  1.00  0.00     0.020 A 
ATOM     74  C   UNL     1       2.479 -14.413   4.145  1.00  0.00     0.020 A 
ATOM     75  C   UNL     1       1.281 -15.089   4.388  1.00  0.00     0.054 A 
BRANCH  75  76
ATOM     76  S   UNL     1       0.834 -15.579   6.077  1.00  0.00     0.124 S 
ATOM     77  O   UNL     1      -0.125 -14.540   6.444  1.00  0.00    -0.237 OA
ATOM     78  O   UNL     1       0.271 -16.914   5.891  1.00  0.00    -0.237 OA
ATOM     79  O   UNL     1       2.105 -15.537   6.796  1.00  0.00    -0.744 OA
ENDBRANCH  75  76
ENDBRANCH  56  70
BRANCH  57  80
ATOM     80  C   UNL     1       3.962 -10.037  -7.002  1.00  0.00    -0.014 A 
ATOM     81  C   UNL     1       3.622 -10.614  -8.237  1.00  0.00     0.010 A 
ATOM     82  C   UNL     1       4.547  -8.757  -6.980  1.00  0.00     0.010 A 
ATOM     83  C   UNL     1       3.851  -9.920  -9.429  1.00  0.00     0.020 A 
ATOM     84  C   UNL     1       4.759  -8.052  -8.168  1.00  0.00     0.020 A 
ATOM     85  C   UNL     1       4.410  -8.639  -9.386  1.00  0.00     0.054 A 
BRANCH  85  86
ATOM     86  S   UNL     1       4.592  -7.709 -10.934  1.00  0.00     0.124 S 
ATOM     87  O   UNL     1       5.780  -8.323 -11.519  1.00  0.00    -0.237 OA
ATOM     88  O   UNL     1       3.333  -7.986 -11.622  1.00  0.00    -0.237 OA
ATOM     89  O   UNL     1       4.754  -6.328 -10.485  1.00  0.00    -0.744 OA
ENDBRANCH  85  86
ENDBRANCH  57  80
BRANCH  69  90
ATOM     90  C   UNL     1       6.651 -15.460  -3.514  1.00  0.00    -0.014 A 
ATOM     91  C   UNL     1       7.997 -15.083  -3.363  1.00  0.00     0.010 A 
ATOM     92  C   UNL     1       6.343 -16.784  -3.877  1.00  0.00     0.010 A 
ATOM     93  C   UNL     1       9.018 -16.013  -3.580  1.00  0.00     0.020 A 
ATOM     94  C   UNL     1       7.360 -17.720  -4.078  1.00  0.00     0.020 A 
ATOM     95  C   UNL     1       8.693 -17.326  -3.935  1.00  0.00     0.054 A 
BRANCH  95  96
ATOM     96  S   UNL     1      10.029 -18.536  -4.141  1.00  0.00     0.124 S 
ATOM     97  O   UNL     1      10.551 -18.190  -5.460  1.00  0.00    -0.237 OA
ATOM     98  O   UNL     1      10.913 -18.237  -3.017  1.00  0.00    -0.237 OA
ATOM     99  O   UNL     1       9.344 -19.824  -4.059  1.00  0.00    -0.744 OA
ENDBRANCH  95  96
ENDBRANCH  69  90
ENDBRANCH  43  44
ENDBRANCH  35  38
ENDBRANCH  33  34
ENDBRANCH  32  33
ENDBRANCH   1  32
TORSDOF 17
