REMARK SMILES O=C(NCCCCNC(=O)[C@H]1CC2(CCN(C(=O)C3CC3)CC2)CN1C(=O)CCn1cccn1)c1ccc(-c2c3nc(c(-c4ccc(S(=O)(=O)[O-])cc4)c4ccc([nH]4)c(-c4ccc(S(=O)(=O)[O-])cc4)c4nc(c(-c5ccc(S(=O)(=O)[O-])cc5)c5ccc2[nH]5)C=C4)C=C3)cc1
REMARK SMILES IDX 6 1 5 2 4 3 3 4 1 5 2 6 35 8 36 9 94 10 37 11 93 12 38 13
REMARK SMILES IDX 39 14 40 15 87 16 41 17 92 18 86 19 88 20 42 21 91 22 85 23
REMARK SMILES IDX 84 24 43 26 73 27 54 28 72 29 55 30 58 31 71 32 89 33 56 34
REMARK SMILES IDX 57 35 70 37 90 38 59 39 44 40 45 41 53 42 46 43 52 44 47 45
REMARK SMILES IDX 48 46 49 47 50 48 51 49 74 50 75 51 83 52 76 53 82 54 77 55
REMARK SMILES IDX 78 56 79 57 80 58 81 59 60 60 61 61 69 62 62 63 68 64 63 65
REMARK SMILES IDX 64 66 65 67 66 68 67 69 7 70 8 71 9 72 10 74 11 75 12 76
REMARK SMILES IDX 25 77 13 78 24 79 14 80 23 81 15 82 22 83 16 84 17 85 18 86
REMARK SMILES IDX 26 87 27 88 28 89 29 90 30 91 31 92 34 93 32 94 33 95 19 96
REMARK SMILES IDX 20 97 21 98
REMARK H PARENT 3 7 88 25 58 36 8 73
REMARK Flexibility Score: inf
ROOT
ATOM      1  C   UNL     1      10.170  -0.444  -5.287  1.00  0.00     0.023 C 
ENDROOT
BRANCH   1   2
ATOM      2  C   UNL     1      11.317  -0.773  -6.248  1.00  0.00     0.023 C 
BRANCH   2   3
ATOM      3  C   UNL     1      11.243  -0.085  -7.611  1.00  0.00     0.116 C 
BRANCH   3   4
ATOM      4  N   UNL     1      11.170   1.361  -7.566  1.00  0.00    -0.352 N 
ATOM      5  O   UNL     1      11.684   3.509  -7.439  1.00  0.00    -0.269 OA
ATOM      6  C   UNL     1      12.076   2.349  -7.290  1.00  0.00     0.251 C 
ATOM      7  H   UNL     1      10.274   1.709  -7.781  1.00  0.00     0.163 HD
BRANCH   6   8
ATOM      8  C   UNL     1      13.446   2.109  -6.766  1.00  0.00     0.039 A 
ATOM      9  C   UNL     1      14.140   0.901  -6.854  1.00  0.00     0.014 A 
ATOM     10  C   UNL     1      14.060   3.193  -6.116  1.00  0.00     0.014 A 
ATOM     11  C   UNL     1      15.350   0.730  -6.192  1.00  0.00     0.010 A 
ATOM     12  C   UNL     1      15.295   3.043  -5.495  1.00  0.00     0.010 A 
ATOM     13  C   UNL     1      15.913   1.793  -5.489  1.00  0.00    -0.014 A 
BRANCH  13  14
ATOM     14  C   UNL     1      17.197   1.572  -4.828  1.00  0.00     0.031 A 
ATOM     15  C   UNL     1      18.366   1.310  -5.720  1.00  0.00     0.074 A 
ATOM     16  C   UNL     1      17.371   1.763  -3.506  1.00  0.00     0.049 A 
ATOM     17  N   UNL     1      19.205   0.323  -5.696  1.00  0.00    -0.248 NA
ATOM     18  C   UNL     1      18.590   2.259  -6.822  1.00  0.00     0.031 C 
ATOM     19  C   UNL     1      16.409   2.327  -2.555  1.00  0.00     0.029 A 
ATOM     20  N   UNL     1      18.506   1.630  -2.764  1.00  0.00    -0.354 N 
ATOM     21  C   UNL     1      20.164   0.608  -6.667  1.00  0.00     0.074 A 
ATOM     22  C   UNL     1      19.675   1.749  -7.402  1.00  0.00     0.031 C 
ATOM     23  C   UNL     1      17.071   2.724  -1.447  1.00  0.00     0.029 A 
ATOM     24  C   UNL     1      18.464   2.323  -1.562  1.00  0.00     0.049 A 
ATOM     25  H   UNL     1      19.281   1.095  -3.052  1.00  0.00     0.167 HD
ATOM     26  C   UNL     1      21.390   0.016  -6.704  1.00  0.00     0.031 A 
ATOM     27  C   UNL     1      19.516   2.639  -0.769  1.00  0.00     0.031 A 
ATOM     28  C   UNL     1      21.456  -1.181  -5.916  1.00  0.00     0.049 A 
ATOM     29  C   UNL     1      20.639   1.740  -1.120  1.00  0.00     0.074 A 
ATOM     30  C   UNL     1      20.818  -2.405  -5.938  1.00  0.00     0.029 A 
ATOM     31  N   UNL     1      22.087  -1.111  -4.697  1.00  0.00    -0.354 N 
ATOM     32  N   UNL     1      20.630   0.453  -0.914  1.00  0.00    -0.248 NA
ATOM     33  C   UNL     1      21.642   2.208  -2.064  1.00  0.00     0.031 C 
ATOM     34  C   UNL     1      20.701  -2.786  -4.569  1.00  0.00     0.029 A 
ATOM     35  C   UNL     1      21.295  -1.782  -3.802  1.00  0.00     0.049 A 
ATOM     36  H   UNL     1      22.943  -0.664  -4.505  1.00  0.00     0.167 HD
ATOM     37  C   UNL     1      21.328  -0.089  -1.984  1.00  0.00     0.074 A 
ATOM     38  C   UNL     1      22.027   1.041  -2.587  1.00  0.00     0.031 C 
ATOM     39  C   UNL     1      21.057  -1.348  -2.441  1.00  0.00     0.031 A 
BRANCH  26  40
ATOM     40  C   UNL     1      22.635   0.720  -7.190  1.00  0.00    -0.014 A 
ATOM     41  C   UNL     1      23.832  -0.009  -7.343  1.00  0.00     0.010 A 
ATOM     42  C   UNL     1      22.731   2.127  -7.228  1.00  0.00     0.010 A 
ATOM     43  C   UNL     1      25.069   0.643  -7.461  1.00  0.00     0.020 A 
ATOM     44  C   UNL     1      23.952   2.785  -7.391  1.00  0.00     0.020 A 
ATOM     45  C   UNL     1      25.119   2.038  -7.465  1.00  0.00     0.054 A 
BRANCH  45  46
ATOM     46  S   UNL     1      26.727   2.871  -7.472  1.00  0.00     0.124 S 
ATOM     47  O   UNL     1      27.246   2.530  -6.151  1.00  0.00    -0.237 OA
ATOM     48  O   UNL     1      27.402   2.239  -8.602  1.00  0.00    -0.237 OA
ATOM     49  O   UNL     1      26.382   4.277  -7.667  1.00  0.00    -0.744 OA
ENDBRANCH  45  46
ENDBRANCH  26  40
BRANCH  27  50
ATOM     50  C   UNL     1      19.687   3.889   0.010  1.00  0.00    -0.014 A 
ATOM     51  C   UNL     1      20.659   3.995   1.019  1.00  0.00     0.010 A 
ATOM     52  C   UNL     1      19.050   5.074  -0.416  1.00  0.00     0.010 A 
ATOM     53  C   UNL     1      21.008   5.248   1.552  1.00  0.00     0.020 A 
ATOM     54  C   UNL     1      19.383   6.322   0.117  1.00  0.00     0.020 A 
ATOM     55  C   UNL     1      20.377   6.406   1.086  1.00  0.00     0.054 A 
BRANCH  55  56
ATOM     56  S   UNL     1      20.943   8.032   1.662  1.00  0.00     0.124 S 
ATOM     57  O   UNL     1      20.477   8.051   3.045  1.00  0.00    -0.237 OA
ATOM     58  O   UNL     1      22.390   7.947   1.483  1.00  0.00    -0.237 OA
ATOM     59  O   UNL     1      20.266   8.970   0.767  1.00  0.00    -0.744 OA
ENDBRANCH  55  56
ENDBRANCH  27  50
BRANCH  39  60
ATOM     60  C   UNL     1      20.182  -2.244  -1.594  1.00  0.00    -0.014 A 
ATOM     61  C   UNL     1      18.845  -1.929  -1.280  1.00  0.00     0.010 A 
ATOM     62  C   UNL     1      20.670  -3.515  -1.243  1.00  0.00     0.010 A 
ATOM     63  C   UNL     1      18.027  -2.849  -0.611  1.00  0.00     0.020 A 
ATOM     64  C   UNL     1      19.854  -4.445  -0.591  1.00  0.00     0.020 A 
ATOM     65  C   UNL     1      18.537  -4.105  -0.272  1.00  0.00     0.054 A 
BRANCH  65  66
ATOM     66  S   UNL     1      17.449  -5.314   0.532  1.00  0.00     0.124 S 
ATOM     67  O   UNL     1      17.272  -4.746   1.865  1.00  0.00    -0.237 OA
ATOM     68  O   UNL     1      16.262  -5.300  -0.320  1.00  0.00    -0.237 OA
ATOM     69  O   UNL     1      18.217  -6.558   0.486  1.00  0.00    -0.744 OA
ENDBRANCH  65  66
ENDBRANCH  39  60
ENDBRANCH  13  14
ENDBRANCH   6   8
ENDBRANCH   3   4
ENDBRANCH   2   3
ENDBRANCH   1   2
BRANCH   1  70
ATOM     70  C   UNL     1       8.769  -0.575  -5.882  1.00  0.00     0.116 C 
BRANCH  70  71
ATOM     71  N   UNL     1       8.545  -1.905  -6.411  1.00  0.00    -0.354 N 
ATOM     72  C   UNL     1       7.901  -2.890  -5.725  1.00  0.00     0.242 C 
ATOM     73  H   UNL     1       8.876  -2.107  -7.316  1.00  0.00     0.163 HD
ATOM     74  O   UNL     1       8.557  -3.871  -5.384  1.00  0.00    -0.273 OA
BRANCH  72  75
ATOM     75  C   UNL     1       6.428  -2.679  -5.338  1.00  0.00     0.175 C 
ATOM     76  C   UNL     1       5.648  -1.563  -6.047  1.00  0.00     0.044 C 
ATOM     77  N   UNL     1       5.419  -3.758  -5.341  1.00  0.00    -0.330 N 
ATOM     78  C   UNL     1       4.187  -1.723  -5.529  1.00  0.00    -0.006 C 
ATOM     79  C   UNL     1       4.184  -3.134  -4.877  1.00  0.00     0.127 C 
ATOM     80  C   UNL     1       3.147  -1.661  -6.665  1.00  0.00     0.030 C 
ATOM     81  C   UNL     1       3.846  -0.627  -4.502  1.00  0.00     0.030 C 
ATOM     82  C   UNL     1       2.970  -0.265  -7.262  1.00  0.00     0.120 C 
ATOM     83  C   UNL     1       3.707   0.754  -5.151  1.00  0.00     0.120 C 
ATOM     84  N   UNL     1       2.725   0.749  -6.238  1.00  0.00    -0.342 N 
ATOM     85  C   UNL     1       1.810   1.803  -6.268  1.00  0.00     0.225 C 
ATOM     86  O   UNL     1       1.850   2.690  -5.402  1.00  0.00    -0.275 OA
BRANCH  77  87
ATOM     87  C   UNL     1       5.290  -4.791  -6.264  1.00  0.00     0.225 C 
ATOM     88  O   UNL     1       4.183  -5.139  -6.695  1.00  0.00    -0.275 OA
BRANCH  87  89
ATOM     89  C   UNL     1       6.490  -5.598  -6.701  1.00  0.00     0.124 C 
BRANCH  89  90
ATOM     90  C   UNL     1       6.755  -5.519  -8.197  1.00  0.00     0.154 C 
BRANCH  90  91
ATOM     91  N   UNL     1       6.927  -4.187  -8.743  1.00  0.00    -0.272 N 
ATOM     92  C   UNL     1       5.933  -3.366  -9.199  1.00  0.00     0.108 A 
ATOM     93  N   UNL     1       8.160  -3.697  -8.985  1.00  0.00    -0.182 NA
ATOM     94  C   UNL     1       6.556  -2.263  -9.733  1.00  0.00     0.042 A 
ATOM     95  C   UNL     1       7.928  -2.531  -9.592  1.00  0.00     0.135 A 
ENDBRANCH  90  91
ENDBRANCH  89  90
ENDBRANCH  87  89
ENDBRANCH  77  87
BRANCH  85  96
ATOM     96  C   UNL     1       0.699   1.963  -7.253  1.00  0.00     0.079 C 
ATOM     97  C   UNL     1       0.587   1.513  -8.679  1.00  0.00     0.014 C 
ATOM     98  C   UNL     1      -0.215   0.818  -7.609  1.00  0.00     0.014 C 
ENDBRANCH  85  96
ENDBRANCH  72  75
ENDBRANCH  70  71
ENDBRANCH   1  70
TORSDOF 19
