REMARK SMILES Cc1cc(C)n([C@@H](C(=O)NCCCCNC(=O)c2ccc(-c3c4nc(c(-c5ccc(S(=O)(=O)[O-])cc5)c5ccc([nH]5)c(-c5ccc(S(=O)(=O)[O-])cc5)c5nc(c(-c6ccc(S(=O)(=O)[O-])cc6)c6ccc3[nH]6)C=C5)C=C4)cc2)C(C)C)n1
REMARK SMILES IDX 13 1 12 2 11 3 10 4 8 5 9 6 7 8 6 9 1 10 2 11 3 12 81 13
REMARK SMILES IDX 4 14 5 15 78 16 79 17 80 18 14 19 15 20 16 21 17 23 18 24
REMARK SMILES IDX 19 25 77 26 20 27 76 28 21 29 22 30 23 31 70 32 24 33 75 34
REMARK SMILES IDX 69 35 71 36 25 37 74 38 68 39 67 40 26 42 56 43 37 44 55 45
REMARK SMILES IDX 38 46 41 47 54 48 72 49 39 50 40 51 53 53 73 54 42 55 27 56
REMARK SMILES IDX 28 57 36 58 29 59 35 60 30 61 31 62 32 63 33 64 34 65 57 66
REMARK SMILES IDX 58 67 66 68 59 69 65 70 60 71 61 72 62 73 63 74 64 75 43 76
REMARK SMILES IDX 44 77 52 78 45 79 51 80 46 81 47 82 48 83 49 84 50 85
REMARK H PARENT 10 7 15 22 71 41 41 52
REMARK Flexibility Score: inf
ROOT
ATOM      1  C   UNL     1      -4.193  -2.270   1.111  1.00  0.00     0.023 C 
ENDROOT
BRANCH   1   2
ATOM      2  C   UNL     1      -3.025  -1.336   1.463  1.00  0.00     0.023 C 
BRANCH   2   3
ATOM      3  C   UNL     1      -3.035  -0.740   2.877  1.00  0.00     0.116 C 
BRANCH   3   4
ATOM      4  N   UNL     1      -2.912  -1.760   3.906  1.00  0.00    -0.354 N 
ATOM      5  C   UNL     1      -1.812  -2.153   4.622  1.00  0.00     0.245 C 
ATOM      6  O   UNL     1      -1.935  -3.158   5.328  1.00  0.00    -0.273 OA
ATOM      7  H   UNL     1      -3.745  -2.240   4.121  1.00  0.00     0.163 HD
BRANCH   5   8
ATOM      8  C   UNL     1      -0.497  -1.367   4.535  1.00  0.00     0.199 C 
BRANCH   8   9
ATOM      9  N   UNL     1       0.107  -1.562   3.212  1.00  0.00    -0.257 N 
ATOM     10  C   UNL     1       1.072  -0.017   0.165  1.00  0.00     0.069 C 
ATOM     11  C   UNL     1       0.781  -0.936   1.290  1.00  0.00     0.060 A 
ATOM     12  C   UNL     1       0.901  -2.338   1.317  1.00  0.00     0.048 A 
ATOM     13  N   UNL     1       0.334  -0.461   2.454  1.00  0.00    -0.177 NA
ATOM     14  C   UNL     1       0.470  -2.726   2.569  1.00  0.00     0.037 A 
ATOM     15  C   UNL     1       0.363  -4.091   3.143  1.00  0.00     0.066 C 
ENDBRANCH   8   9
BRANCH   8  16
ATOM     16  C   UNL     1       0.505  -1.670   5.689  1.00  0.00     0.017 C 
ATOM     17  C   UNL     1       1.791  -0.837   5.556  1.00  0.00     0.010 C 
ATOM     18  C   UNL     1      -0.093  -1.392   7.076  1.00  0.00     0.010 C 
ENDBRANCH   8  16
ENDBRANCH   5   8
ENDBRANCH   3   4
ENDBRANCH   2   3
ENDBRANCH   1   2
BRANCH   1  19
ATOM     19  C   UNL     1      -5.567  -1.620   1.155  1.00  0.00     0.116 C 
BRANCH  19  20
ATOM     20  N   UNL     1      -5.732  -0.553   0.167  1.00  0.00    -0.352 N 
ATOM     21  C   UNL     1      -6.821   0.288  -0.003  1.00  0.00     0.251 C 
ATOM     22  H   UNL     1      -4.978  -0.416  -0.452  1.00  0.00     0.163 HD
ATOM     23  O   UNL     1      -7.026   0.845  -1.068  1.00  0.00    -0.269 OA
BRANCH  21  24
ATOM     24  C   UNL     1      -7.719   0.505   1.148  1.00  0.00     0.039 A 
ATOM     25  C   UNL     1      -9.109   0.557   1.010  1.00  0.00     0.014 A 
ATOM     26  C   UNL     1      -7.124   0.621   2.399  1.00  0.00     0.014 A 
ATOM     27  C   UNL     1      -9.895   0.638   2.160  1.00  0.00     0.010 A 
ATOM     28  C   UNL     1      -7.893   0.525   3.527  1.00  0.00     0.010 A 
ATOM     29  C   UNL     1      -9.277   0.601   3.419  1.00  0.00    -0.014 A 
BRANCH  29  30
ATOM     30  C   UNL     1     -10.048   0.509   4.655  1.00  0.00     0.031 A 
ATOM     31  C   UNL     1     -10.944  -0.678   4.725  1.00  0.00     0.074 A 
ATOM     32  C   UNL     1      -9.756   1.261   5.742  1.00  0.00     0.049 A 
ATOM     33  N   UNL     1     -12.235  -0.698   4.686  1.00  0.00    -0.248 NA
ATOM     34  C   UNL     1     -10.329  -2.017   4.659  1.00  0.00     0.031 C 
ATOM     35  C   UNL     1      -8.664   2.235   5.896  1.00  0.00     0.029 A 
ATOM     36  N   UNL     1     -10.280   1.215   6.996  1.00  0.00    -0.354 N 
ATOM     37  C   UNL     1     -12.595  -2.031   4.868  1.00  0.00     0.074 A 
ATOM     38  C   UNL     1     -11.408  -2.801   4.601  1.00  0.00     0.031 C 
ATOM     39  C   UNL     1      -8.450   2.476   7.208  1.00  0.00     0.029 A 
ATOM     40  C   UNL     1      -9.497   1.827   7.974  1.00  0.00     0.049 A 
ATOM     41  H   UNL     1     -11.143   0.785   7.197  1.00  0.00     0.167 HD
ATOM     42  C   UNL     1     -13.740  -2.369   5.528  1.00  0.00     0.031 A 
ATOM     43  C   UNL     1      -9.677   1.783   9.320  1.00  0.00     0.031 A 
ATOM     44  C   UNL     1     -14.604  -1.225   5.694  1.00  0.00     0.049 A 
ATOM     45  C   UNL     1     -11.086   1.385   9.549  1.00  0.00     0.074 A 
ATOM     46  C   UNL     1     -15.214  -0.323   4.846  1.00  0.00     0.029 A 
ATOM     47  N   UNL     1     -14.607  -0.640   6.940  1.00  0.00    -0.354 N 
ATOM     48  N   UNL     1     -12.103   2.125   9.203  1.00  0.00    -0.248 NA
ATOM     49  C   UNL     1     -11.375  -0.028   9.725  1.00  0.00     0.031 C 
ATOM     50  C   UNL     1     -15.127   0.931   5.521  1.00  0.00     0.029 A 
ATOM     51  C   UNL     1     -14.549   0.716   6.774  1.00  0.00     0.049 A 
ATOM     52  H   UNL     1     -14.645  -1.116   7.801  1.00  0.00     0.167 HD
ATOM     53  C   UNL     1     -13.029   1.232   8.684  1.00  0.00     0.074 A 
ATOM     54  C   UNL     1     -12.570  -0.085   9.129  1.00  0.00     0.031 C 
ATOM     55  C   UNL     1     -13.908   1.616   7.711  1.00  0.00     0.031 A 
BRANCH  42  56
ATOM     56  C   UNL     1     -13.864  -3.578   6.438  1.00  0.00    -0.014 A 
ATOM     57  C   UNL     1     -15.084  -3.776   7.120  1.00  0.00     0.010 A 
ATOM     58  C   UNL     1     -12.761  -4.334   6.884  1.00  0.00     0.010 A 
ATOM     59  C   UNL     1     -15.161  -4.587   8.259  1.00  0.00     0.020 A 
ATOM     60  C   UNL     1     -12.837  -5.182   7.990  1.00  0.00     0.020 A 
ATOM     61  C   UNL     1     -14.027  -5.268   8.698  1.00  0.00     0.054 A 
BRANCH  61  62
ATOM     62  S   UNL     1     -14.098  -6.208  10.241  1.00  0.00     0.124 S 
ATOM     63  O   UNL     1     -14.290  -5.147  11.226  1.00  0.00    -0.237 OA
ATOM     64  O   UNL     1     -15.246  -7.082  10.015  1.00  0.00    -0.237 OA
ATOM     65  O   UNL     1     -12.804  -6.884  10.288  1.00  0.00    -0.744 OA
ENDBRANCH  61  62
ENDBRANCH  42  56
BRANCH  43  66
ATOM     66  C   UNL     1      -8.657   1.780  10.401  1.00  0.00    -0.014 A 
ATOM     67  C   UNL     1      -9.009   2.028  11.742  1.00  0.00     0.010 A 
ATOM     68  C   UNL     1      -7.373   1.251  10.153  1.00  0.00     0.010 A 
ATOM     69  C   UNL     1      -8.133   1.707  12.797  1.00  0.00     0.020 A 
ATOM     70  C   UNL     1      -6.494   0.932  11.198  1.00  0.00     0.020 A 
ATOM     71  C   UNL     1      -6.886   1.142  12.518  1.00  0.00     0.054 A 
BRANCH  71  72
ATOM     72  S   UNL     1      -5.826   0.577  13.886  1.00  0.00     0.124 S 
ATOM     73  O   UNL     1      -5.409   1.836  14.498  1.00  0.00    -0.237 OA
ATOM     74  O   UNL     1      -6.738  -0.240  14.681  1.00  0.00    -0.237 OA
ATOM     75  O   UNL     1      -4.761  -0.166  13.213  1.00  0.00    -0.744 OA
ENDBRANCH  71  72
ENDBRANCH  43  66
BRANCH  55  76
ATOM     76  C   UNL     1     -14.085   3.092   7.440  1.00  0.00    -0.014 A 
ATOM     77  C   UNL     1     -13.066   3.943   6.969  1.00  0.00     0.010 A 
ATOM     78  C   UNL     1     -15.394   3.599   7.526  1.00  0.00     0.010 A 
ATOM     79  C   UNL     1     -13.351   5.274   6.618  1.00  0.00     0.020 A 
ATOM     80  C   UNL     1     -15.687   4.913   7.161  1.00  0.00     0.020 A 
ATOM     81  C   UNL     1     -14.662   5.749   6.718  1.00  0.00     0.054 A 
BRANCH  81  82
ATOM     82  S   UNL     1     -15.040   7.456   6.230  1.00  0.00     0.124 S 
ATOM     83  O   UNL     1     -14.362   8.238   7.260  1.00  0.00    -0.237 OA
ATOM     84  O   UNL     1     -14.466   7.547   4.890  1.00  0.00    -0.237 OA
ATOM     85  O   UNL     1     -16.501   7.515   6.272  1.00  0.00    -0.744 OA
ENDBRANCH  81  82
ENDBRANCH  55  76
ENDBRANCH  29  30
ENDBRANCH  21  24
ENDBRANCH  19  20
ENDBRANCH   1  19
TORSDOF 16
