REMARK SMILES Cn1ncc(C(=O)NCCCCNC(=O)c2ccc(-c3c4nc(c(-c5ccc(S(=O)(=O)[O-])cc5)c5ccc([nH]5)c(-c5ccc(S(=O)(=O)[O-])cc5)c5nc(c(-c6ccc(S(=O)(=O)[O-])cc6)c6ccc3[nH]6)C=C5)C=C4)cc2)c1C(=O)Nc1ccccn1
REMARK SMILES IDX 11 1 10 2 9 3 8 4 6 5 7 6 5 8 1 9 2 10 3 11 76 12 4 13 77 14
REMARK SMILES IDX 78 15 79 16 80 18 81 19 85 20 82 21 84 22 83 23 12 24 13 25
REMARK SMILES IDX 14 26 15 28 16 29 17 30 75 31 18 32 74 33 19 34 20 35 21 36
REMARK SMILES IDX 68 37 22 38 73 39 67 40 69 41 23 42 72 43 66 44 65 45 24 47
REMARK SMILES IDX 54 48 35 49 53 50 36 51 39 52 52 53 70 54 37 55 38 56 51 58
REMARK SMILES IDX 71 59 40 60 25 61 26 62 34 63 27 64 33 65 28 66 29 67 30 68
REMARK SMILES IDX 31 69 32 70 55 71 56 72 64 73 57 74 63 75 58 76 59 77 60 78
REMARK SMILES IDX 61 79 62 80 41 81 42 82 50 83 43 84 49 85 44 86 45 87 46 88
REMARK SMILES IDX 47 89 48 90
REMARK H PARENT 8 7 79 17 13 27 69 46 39 57
REMARK Flexibility Score: inf
ROOT
ATOM      1  C   UNL     1       2.526  -5.723  -1.695  1.00  0.00     0.023 C 
ENDROOT
BRANCH   1   2
ATOM      2  C   UNL     1       1.445  -4.667  -1.907  1.00  0.00     0.023 C 
BRANCH   2   3
ATOM      3  C   UNL     1       1.203  -3.700  -0.755  1.00  0.00     0.116 C 
BRANCH   3   4
ATOM      4  N   UNL     1       2.341  -2.873  -0.430  1.00  0.00    -0.352 N 
ATOM      5  C   UNL     1       2.438  -1.546  -0.105  1.00  0.00     0.255 C 
ATOM      6  O   UNL     1       3.576  -1.105   0.069  1.00  0.00    -0.269 OA
ATOM      7  H   UNL     1       3.203  -3.349  -0.445  1.00  0.00     0.163 HD
BRANCH   5   8
ATOM      8  C   UNL     1       1.294  -0.643  -0.025  1.00  0.00     0.090 A 
ATOM      9  C   UNL     1      -1.677   0.972   1.217  1.00  0.00     0.174 C 
ATOM     10  N   UNL     1      -0.525   0.481   0.493  1.00  0.00    -0.262 N 
ATOM     11  N   UNL     1       0.264   1.404  -0.085  1.00  0.00    -0.180 NA
ATOM     12  C   UNL     1      -0.021  -0.801   0.427  1.00  0.00     0.139 A 
ATOM     13  C   UNL     1       1.395   0.741  -0.311  1.00  0.00     0.149 A 
BRANCH  12  14
ATOM     14  C   UNL     1      -0.624  -1.987   0.975  1.00  0.00     0.275 C 
ATOM     15  O   UNL     1      -0.021  -2.684   1.793  1.00  0.00    -0.267 OA
ATOM     16  N   UNL     1      -1.869  -2.436   0.607  1.00  0.00    -0.305 N 
ATOM     17  H   UNL     1      -2.003  -3.405   0.719  1.00  0.00     0.171 HD
BRANCH  16  18
ATOM     18  C   UNL     1      -2.968  -1.758   0.103  1.00  0.00     0.132 A 
ATOM     19  C   UNL     1      -2.981  -0.982  -1.045  1.00  0.00     0.047 A 
ATOM     20  N   UNL     1      -4.039  -1.885   0.913  1.00  0.00    -0.239 NA
ATOM     21  C   UNL     1      -4.138  -0.246  -1.322  1.00  0.00     0.005 A 
ATOM     22  C   UNL     1      -5.125  -1.137   0.648  1.00  0.00     0.113 A 
ATOM     23  C   UNL     1      -5.219  -0.299  -0.445  1.00  0.00     0.020 A 
ENDBRANCH  16  18
ENDBRANCH  12  14
ENDBRANCH   5   8
ENDBRANCH   3   4
ENDBRANCH   2   3
ENDBRANCH   1   2
BRANCH   1  24
ATOM     24  C   UNL     1       2.450  -6.527  -0.401  1.00  0.00     0.116 C 
BRANCH  24  25
ATOM     25  N   UNL     1       1.178  -7.208  -0.201  1.00  0.00    -0.352 N 
ATOM     26  C   UNL     1       0.918  -8.540   0.022  1.00  0.00     0.251 C 
ATOM     27  H   UNL     1       0.384  -6.626  -0.231  1.00  0.00     0.163 HD
ATOM     28  O   UNL     1      -0.244  -8.937   0.087  1.00  0.00    -0.269 OA
BRANCH  26  29
ATOM     29  C   UNL     1       2.036  -9.501   0.138  1.00  0.00     0.039 A 
ATOM     30  C   UNL     1       2.002 -10.674  -0.620  1.00  0.00     0.014 A 
ATOM     31  C   UNL     1       3.137  -9.221   0.950  1.00  0.00     0.014 A 
ATOM     32  C   UNL     1       3.118 -11.515  -0.642  1.00  0.00     0.010 A 
ATOM     33  C   UNL     1       4.278 -10.012   0.859  1.00  0.00     0.010 A 
ATOM     34  C   UNL     1       4.286 -11.162   0.053  1.00  0.00    -0.014 A 
BRANCH  34  35
ATOM     35  C   UNL     1       5.532 -11.964  -0.063  1.00  0.00     0.031 A 
ATOM     36  C   UNL     1       6.131 -12.614   1.155  1.00  0.00     0.074 A 
ATOM     37  C   UNL     1       6.173 -12.037  -1.248  1.00  0.00     0.049 A 
ATOM     38  N   UNL     1       7.251 -13.282   1.267  1.00  0.00    -0.248 NA
ATOM     39  C   UNL     1       5.391 -12.466   2.418  1.00  0.00     0.031 C 
ATOM     40  C   UNL     1       5.729 -11.406  -2.494  1.00  0.00     0.029 A 
ATOM     41  N   UNL     1       7.343 -12.666  -1.597  1.00  0.00    -0.354 N 
ATOM     42  C   UNL     1       7.359 -13.613   2.612  1.00  0.00     0.074 A 
ATOM     43  C   UNL     1       6.221 -13.027   3.285  1.00  0.00     0.031 C 
ATOM     44  C   UNL     1       6.599 -11.702  -3.473  1.00  0.00     0.029 A 
ATOM     45  C   UNL     1       7.683 -12.508  -2.920  1.00  0.00     0.049 A 
ATOM     46  H   UNL     1       7.887 -13.182  -0.959  1.00  0.00     0.167 HD
ATOM     47  C   UNL     1       8.308 -14.356   3.232  1.00  0.00     0.031 A 
ATOM     48  C   UNL     1       8.748 -12.957  -3.613  1.00  0.00     0.031 A 
ATOM     49  C   UNL     1       9.432 -14.951   2.560  1.00  0.00     0.049 A 
ATOM     50  C   UNL     1       9.784 -13.789  -2.909  1.00  0.00     0.074 A 
ATOM     51  C   UNL     1      10.416 -15.770   3.087  1.00  0.00     0.029 A 
ATOM     52  N   UNL     1       9.724 -14.790   1.213  1.00  0.00    -0.354 N 
ATOM     53  N   UNL     1       9.832 -14.149  -1.649  1.00  0.00    -0.248 NA
ATOM     54  C   UNL     1      10.901 -14.288  -3.724  1.00  0.00     0.031 C 
ATOM     55  C   UNL     1      11.327 -16.069   2.068  1.00  0.00     0.029 A 
ATOM     56  C   UNL     1      10.881 -15.480   0.895  1.00  0.00     0.049 A 
ATOM     57  H   UNL     1       9.187 -14.264   0.578  1.00  0.00     0.167 HD
ATOM     58  C   UNL     1      10.972 -14.936  -1.524  1.00  0.00     0.074 A 
ATOM     59  C   UNL     1      11.575 -15.011  -2.839  1.00  0.00     0.031 C 
ATOM     60  C   UNL     1      11.471 -15.544  -0.419  1.00  0.00     0.031 A 
BRANCH  47  61
ATOM     61  C   UNL     1       8.162 -14.561   4.717  1.00  0.00    -0.014 A 
ATOM     62  C   UNL     1       7.125 -15.356   5.240  1.00  0.00     0.010 A 
ATOM     63  C   UNL     1       9.077 -13.962   5.601  1.00  0.00     0.010 A 
ATOM     64  C   UNL     1       6.971 -15.501   6.621  1.00  0.00     0.020 A 
ATOM     65  C   UNL     1       8.945 -14.130   6.983  1.00  0.00     0.020 A 
ATOM     66  C   UNL     1       7.878 -14.880   7.484  1.00  0.00     0.054 A 
BRANCH  66  67
ATOM     67  S   UNL     1       7.656 -15.084   9.273  1.00  0.00     0.124 S 
ATOM     68  O   UNL     1       6.518 -14.207   9.536  1.00  0.00    -0.237 OA
ATOM     69  O   UNL     1       7.388 -16.514   9.402  1.00  0.00    -0.237 OA
ATOM     70  O   UNL     1       8.929 -14.639   9.834  1.00  0.00    -0.744 OA
ENDBRANCH  66  67
ENDBRANCH  47  61
BRANCH  48  71
ATOM     71  C   UNL     1       8.871 -12.645  -5.063  1.00  0.00    -0.014 A 
ATOM     72  C   UNL     1       8.660 -13.647  -6.027  1.00  0.00     0.010 A 
ATOM     73  C   UNL     1       9.170 -11.338  -5.491  1.00  0.00     0.010 A 
ATOM     74  C   UNL     1       8.754 -13.352  -7.390  1.00  0.00     0.020 A 
ATOM     75  C   UNL     1       9.240 -11.033  -6.853  1.00  0.00     0.020 A 
ATOM     76  C   UNL     1       9.039 -12.045  -7.795  1.00  0.00     0.054 A 
BRANCH  76  77
ATOM     77  S   UNL     1       9.086 -11.669  -9.570  1.00  0.00     0.124 S 
ATOM     78  O   UNL     1      10.357 -12.262  -9.972  1.00  0.00    -0.237 OA
ATOM     79  O   UNL     1       7.888 -12.341 -10.067  1.00  0.00    -0.237 OA
ATOM     80  O   UNL     1       9.033 -10.209  -9.611  1.00  0.00    -0.744 OA
ENDBRANCH  76  77
ENDBRANCH  48  71
BRANCH  60  81
ATOM     81  C   UNL     1      12.717 -16.371  -0.587  1.00  0.00    -0.014 A 
ATOM     82  C   UNL     1      13.972 -15.767  -0.782  1.00  0.00     0.010 A 
ATOM     83  C   UNL     1      12.637 -17.772  -0.488  1.00  0.00     0.010 A 
ATOM     84  C   UNL     1      15.121 -16.553  -0.903  1.00  0.00     0.020 A 
ATOM     85  C   UNL     1      13.787 -18.559  -0.583  1.00  0.00     0.020 A 
ATOM     86  C   UNL     1      15.021 -17.945  -0.803  1.00  0.00     0.054 A 
BRANCH  86  87
ATOM     87  S   UNL     1      16.533 -18.940  -0.916  1.00  0.00     0.124 S 
ATOM     88  O   UNL     1      16.826 -18.888  -2.345  1.00  0.00    -0.237 OA
ATOM     89  O   UNL     1      17.463 -18.211  -0.057  1.00  0.00    -0.237 OA
ATOM     90  O   UNL     1      16.125 -20.249  -0.411  1.00  0.00    -0.744 OA
ENDBRANCH  86  87
ENDBRANCH  60  81
ENDBRANCH  34  35
ENDBRANCH  26  29
ENDBRANCH  24  25
ENDBRANCH   1  24
TORSDOF 16
