REMARK SMILES O=C(NCCCCNC(=O)[C@H]1CCCN(C(=O)CCOc2ccc(F)cc2)C1)c1ccc(-c2c3nc(c(-c4ccc(S(=O)(=O)[O-])cc4)c4ccc([nH]4)c(-c4ccc(S(=O)(=O)[O-])cc4)c4nc(c(-c5ccc(S(=O)(=O)[O-])cc5)c5ccc2[nH]5)C=C4)C=C3)cc1
REMARK SMILES IDX 6 1 5 2 4 3 3 4 1 5 2 6 29 8 30 9 88 10 31 11 87 12 32 13
REMARK SMILES IDX 33 14 34 15 81 16 35 17 86 18 80 19 82 20 36 21 85 22 79 23
REMARK SMILES IDX 78 24 37 26 67 27 48 28 66 29 49 30 52 31 65 32 83 33 50 34
REMARK SMILES IDX 51 35 64 37 84 38 53 39 38 40 39 41 47 42 40 43 46 44 41 45
REMARK SMILES IDX 42 46 43 47 44 48 45 49 68 50 69 51 77 52 70 53 76 54 71 55
REMARK SMILES IDX 72 56 73 57 74 58 75 59 54 60 55 61 63 62 56 63 62 64 57 65
REMARK SMILES IDX 58 66 59 67 60 68 61 69 7 70 8 71 9 72 10 74 11 75 12 76
REMARK SMILES IDX 28 77 13 78 15 79 14 80 16 81 17 82 18 83 19 84 20 85 21 86
REMARK SMILES IDX 22 87 27 88 23 89 26 90 24 91 25 92
REMARK H PARENT 3 7 82 25 52 36 8 73
REMARK Flexibility Score: inf
ROOT
ATOM      1  C   UNL     1       3.566   4.577   2.286  1.00  0.00     0.023 C 
ENDROOT
BRANCH   1   2
ATOM      2  C   UNL     1       2.133   5.031   2.008  1.00  0.00     0.023 C 
BRANCH   2   3
ATOM      3  C   UNL     1       1.578   6.111   2.933  1.00  0.00     0.116 C 
BRANCH   3   4
ATOM      4  N   UNL     1       2.067   7.449   2.632  1.00  0.00    -0.352 N 
ATOM      5  O   UNL     1       1.868   9.639   2.081  1.00  0.00    -0.269 OA
ATOM      6  C   UNL     1       1.325   8.591   2.415  1.00  0.00     0.251 C 
ATOM      7  H   UNL     1       3.045   7.550   2.577  1.00  0.00     0.163 HD
BRANCH   6   8
ATOM      8  C   UNL     1      -0.147   8.520   2.554  1.00  0.00     0.039 A 
ATOM      9  C   UNL     1      -0.717   8.017   3.727  1.00  0.00     0.014 A 
ATOM     10  C   UNL     1      -0.955   8.889   1.475  1.00  0.00     0.014 A 
ATOM     11  C   UNL     1      -2.082   7.751   3.768  1.00  0.00     0.010 A 
ATOM     12  C   UNL     1      -2.337   8.684   1.547  1.00  0.00     0.010 A 
ATOM     13  C   UNL     1      -2.908   8.085   2.681  1.00  0.00    -0.014 A 
BRANCH  13  14
ATOM     14  C   UNL     1      -4.375   7.877   2.780  1.00  0.00     0.031 A 
ATOM     15  C   UNL     1      -5.091   6.892   1.896  1.00  0.00     0.074 A 
ATOM     16  C   UNL     1      -5.064   8.607   3.679  1.00  0.00     0.049 A 
ATOM     17  N   UNL     1      -6.373   6.633   1.829  1.00  0.00    -0.248 NA
ATOM     18  C   UNL     1      -4.273   6.098   0.965  1.00  0.00     0.031 C 
ATOM     19  C   UNL     1      -4.477   9.602   4.582  1.00  0.00     0.029 A 
ATOM     20  N   UNL     1      -6.401   8.632   3.982  1.00  0.00    -0.354 N 
ATOM     21  C   UNL     1      -6.521   5.674   0.833  1.00  0.00     0.074 A 
ATOM     22  C   UNL     1      -5.197   5.394   0.320  1.00  0.00     0.031 C 
ATOM     23  C   UNL     1      -5.445  10.127   5.347  1.00  0.00     0.029 A 
ATOM     24  C   UNL     1      -6.725   9.556   4.947  1.00  0.00     0.049 A 
ATOM     25  H   UNL     1      -7.064   8.046   3.551  1.00  0.00     0.167 HD
ATOM     26  C   UNL     1      -7.659   5.088   0.388  1.00  0.00     0.031 A 
ATOM     27  C   UNL     1      -7.921   9.938   5.432  1.00  0.00     0.031 A 
ATOM     28  C   UNL     1      -8.970   5.358   0.921  1.00  0.00     0.049 A 
ATOM     29  C   UNL     1      -9.165   9.294   4.897  1.00  0.00     0.074 A 
ATOM     30  C   UNL     1     -10.171   4.751   0.594  1.00  0.00     0.029 A 
ATOM     31  N   UNL     1      -9.257   6.319   1.877  1.00  0.00    -0.354 N 
ATOM     32  N   UNL     1      -9.274   8.344   4.000  1.00  0.00    -0.248 NA
ATOM     33  C   UNL     1     -10.444   9.782   5.427  1.00  0.00     0.031 C 
ATOM     34  C   UNL     1     -11.192   5.384   1.311  1.00  0.00     0.029 A 
ATOM     35  C   UNL     1     -10.620   6.355   2.117  1.00  0.00     0.049 A 
ATOM     36  H   UNL     1      -8.590   6.892   2.320  1.00  0.00     0.167 HD
ATOM     37  C   UNL     1     -10.637   8.124   3.853  1.00  0.00     0.074 A 
ATOM     38  C   UNL     1     -11.310   9.018   4.774  1.00  0.00     0.031 C 
ATOM     39  C   UNL     1     -11.274   7.263   3.023  1.00  0.00     0.031 A 
BRANCH  26  40
ATOM     40  C   UNL     1      -7.563   4.110  -0.752  1.00  0.00    -0.014 A 
ATOM     41  C   UNL     1      -7.112   2.794  -0.550  1.00  0.00     0.010 A 
ATOM     42  C   UNL     1      -8.041   4.483  -2.023  1.00  0.00     0.010 A 
ATOM     43  C   UNL     1      -7.128   1.873  -1.603  1.00  0.00     0.020 A 
ATOM     44  C   UNL     1      -8.073   3.560  -3.073  1.00  0.00     0.020 A 
ATOM     45  C   UNL     1      -7.609   2.262  -2.858  1.00  0.00     0.054 A 
BRANCH  45  46
ATOM     46  S   UNL     1      -7.673   1.030  -4.190  1.00  0.00     0.124 S 
ATOM     47  O   UNL     1      -6.264   0.916  -4.561  1.00  0.00    -0.237 OA
ATOM     48  O   UNL     1      -8.242  -0.138  -3.523  1.00  0.00    -0.237 OA
ATOM     49  O   UNL     1      -8.533   1.650  -5.196  1.00  0.00    -0.744 OA
ENDBRANCH  45  46
ENDBRANCH  26  40
BRANCH  27  50
ATOM     50  C   UNL     1      -7.989  11.035   6.432  1.00  0.00    -0.014 A 
ATOM     51  C   UNL     1      -8.322  10.771   7.770  1.00  0.00     0.010 A 
ATOM     52  C   UNL     1      -7.685  12.354   6.045  1.00  0.00     0.010 A 
ATOM     53  C   UNL     1      -8.360  11.811   8.704  1.00  0.00     0.020 A 
ATOM     54  C   UNL     1      -7.696  13.390   6.980  1.00  0.00     0.020 A 
ATOM     55  C   UNL     1      -8.046  13.113   8.303  1.00  0.00     0.054 A 
BRANCH  55  56
ATOM     56  S   UNL     1      -8.041  14.442   9.538  1.00  0.00     0.124 S 
ATOM     57  O   UNL     1      -9.461  14.759   9.646  1.00  0.00    -0.237 OA
ATOM     58  O   UNL     1      -7.446  13.793  10.704  1.00  0.00    -0.237 OA
ATOM     59  O   UNL     1      -7.210  15.474   8.921  1.00  0.00    -0.744 OA
ENDBRANCH  55  56
ENDBRANCH  27  50
BRANCH  39  60
ATOM     60  C   UNL     1     -12.775   7.257   3.066  1.00  0.00    -0.014 A 
ATOM     61  C   UNL     1     -13.512   8.285   2.453  1.00  0.00     0.010 A 
ATOM     62  C   UNL     1     -13.456   6.193   3.684  1.00  0.00     0.010 A 
ATOM     63  C   UNL     1     -14.908   8.260   2.473  1.00  0.00     0.020 A 
ATOM     64  C   UNL     1     -14.852   6.154   3.688  1.00  0.00     0.020 A 
ATOM     65  C   UNL     1     -15.569   7.194   3.092  1.00  0.00     0.054 A 
BRANCH  65  66
ATOM     66  S   UNL     1     -17.382   7.156   3.063  1.00  0.00     0.124 S 
ATOM     67  O   UNL     1     -17.722   8.140   4.087  1.00  0.00    -0.237 OA
ATOM     68  O   UNL     1     -17.692   7.546   1.690  1.00  0.00    -0.237 OA
ATOM     69  O   UNL     1     -17.704   5.771   3.398  1.00  0.00    -0.744 OA
ENDBRANCH  65  66
ENDBRANCH  39  60
ENDBRANCH  13  14
ENDBRANCH   6   8
ENDBRANCH   3   4
ENDBRANCH   2   3
ENDBRANCH   1   2
BRANCH   1  70
ATOM     70  C   UNL     1       3.774   4.018   3.694  1.00  0.00     0.116 C 
BRANCH  70  71
ATOM     71  N   UNL     1       5.142   3.549   3.889  1.00  0.00    -0.356 N 
ATOM     72  C   UNL     1       5.636   3.488   5.179  1.00  0.00     0.224 C 
ATOM     73  H   UNL     1       5.698   3.282   3.122  1.00  0.00     0.163 HD
ATOM     74  O   UNL     1       4.982   2.899   6.040  1.00  0.00    -0.275 OA
BRANCH  72  75
ATOM     75  C   UNL     1       7.154   4.227   5.494  1.00  0.00     0.098 C 
ATOM     76  C   UNL     1       7.776   6.339   5.825  1.00  0.00     0.017 C 
ATOM     77  C   UNL     1       7.513   3.068   7.037  1.00  0.00     0.132 C 
ATOM     78  C   UNL     1       8.462   6.666   7.643  1.00  0.00     0.022 C 
ATOM     79  N   UNL     1       8.674   3.554   8.168  1.00  0.00    -0.342 N 
ATOM     80  C   UNL     1       8.684   5.181   8.797  1.00  0.00     0.119 C 
BRANCH  79  81
ATOM     81  C   UNL     1       9.869   2.807   7.936  1.00  0.00     0.226 C 
ATOM     82  O   UNL     1       9.889   1.587   8.126  1.00  0.00    -0.275 OA
BRANCH  81  83
ATOM     83  C   UNL     1      11.050   3.457   7.122  1.00  0.00     0.141 C 
BRANCH  83  84
ATOM     84  C   UNL     1      10.886   3.370   5.546  1.00  0.00     0.239 C 
BRANCH  84  85
ATOM     85  O   UNL     1      10.473   4.523   4.709  1.00  0.00    -0.493 OA
BRANCH  85  86
ATOM     86  C   UNL     1       9.175   4.895   4.888  1.00  0.00     0.119 A 
ATOM     87  C   UNL     1       8.675   4.856   6.471  1.00  0.00     0.049 A 
ATOM     88  C   UNL     1       8.030   5.443   3.760  1.00  0.00     0.049 A 
ATOM     89  C   UNL     1       6.872   5.247   7.089  1.00  0.00     0.043 A 
ATOM     90  C   UNL     1       6.400   5.911   4.212  1.00  0.00     0.043 A 
ATOM     91  C   UNL     1       5.765   5.809   5.850  1.00  0.00     0.123 A 
ATOM     92  F   UNL     1       4.535   6.235   6.151  1.00  0.00    -0.207 F 
ENDBRANCH  85  86
ENDBRANCH  84  85
ENDBRANCH  83  84
ENDBRANCH  81  83
ENDBRANCH  79  81
ENDBRANCH  72  75
ENDBRANCH  70  71
ENDBRANCH   1  70
TORSDOF 19
