REMARK SMILES CC[NH2+][C@]1(C(=O)NCCCCNC(=O)c2ccc(-c3c4nc(c(-c5ccc(S(=O)(=O)[O-])cc5)c5ccc([nH]5)c(-c5ccc(S(=O)(=O)[O-])cc5)c5nc(c(-c6ccc(S(=O)(=O)[O-])cc6)c6ccc3[nH]6)C=C5)C=C4)cc2)CC[C@@H]([N@H+]2C[C@@H](C)O[C@@H](C)C2)C1
REMARK SMILES IDX 10 1 9 2 8 3 7 4 5 5 6 6 4 8 75 9 86 10 76 11 77 12 3 13
REMARK SMILES IDX 2 16 1 17 78 18 79 19 85 20 80 22 83 23 81 24 82 25 84 26
REMARK SMILES IDX 11 27 12 28 13 29 14 31 15 32 16 33 74 34 17 35 73 36 18 37
REMARK SMILES IDX 19 38 20 39 67 40 21 41 72 42 66 43 68 44 22 45 71 46 65 47
REMARK SMILES IDX 64 48 23 50 53 51 34 52 52 53 35 54 38 55 51 56 69 57 36 58
REMARK SMILES IDX 37 59 50 61 70 62 39 63 24 64 25 65 33 66 26 67 32 68 27 69
REMARK SMILES IDX 28 70 29 71 30 72 31 73 54 74 55 75 63 76 56 77 62 78 57 79
REMARK SMILES IDX 58 80 59 81 60 82 61 83 40 84 41 85 49 86 42 87 48 88 43 89
REMARK SMILES IDX 44 90 45 91 46 92 47 93
REMARK H PARENT 7 7 3 14 3 15 78 21 12 30 68 49 38 60
REMARK Flexibility Score: inf
ROOT
ATOM      1  C   UNL     1       3.481  -1.570  -3.960  1.00  0.00     0.023 C 
ENDROOT
BRANCH   1   2
ATOM      2  C   UNL     1       2.738  -0.292  -4.351  1.00  0.00     0.023 C 
BRANCH   2   3
ATOM      3  C   UNL     1       1.270  -0.236  -3.922  1.00  0.00     0.116 C 
BRANCH   3   4
ATOM      4  N   UNL     1       1.142   0.167  -2.534  1.00  0.00    -0.351 N 
ATOM      5  C   UNL     1       0.861   1.366  -1.951  1.00  0.00     0.281 C 
ATOM      6  O   UNL     1       0.946   1.394  -0.716  1.00  0.00    -0.268 OA
ATOM      7  H   UNL     1       1.285  -0.566  -1.892  1.00  0.00     0.163 HD
BRANCH   5   8
ATOM      8  C   UNL     1       0.336   2.611  -2.743  1.00  0.00     0.181 C 
ATOM      9  C   UNL     1       0.671   3.881  -1.926  1.00  0.00     0.085 C 
ATOM     10  C   UNL     1       1.065   2.925  -4.062  1.00  0.00     0.144 C 
ATOM     11  C   UNL     1       0.563   5.026  -2.917  1.00  0.00     0.072 C 
ATOM     12  C   UNL     1       1.128   4.458  -4.228  1.00  0.00     0.191 C 
BRANCH   8  13
ATOM     13  N   UNL     1      -1.111   2.432  -3.051  1.00  0.00    -0.334 N 
ATOM     14  H   UNL     1      -1.370   3.104  -3.773  1.00  0.00     0.347 HD
ATOM     15  H   UNL     1      -1.229   1.464  -3.351  1.00  0.00     0.347 HD
BRANCH  13  16
ATOM     16  C   UNL     1      -1.998   2.626  -1.903  1.00  0.00     0.257 C 
ATOM     17  C   UNL     1      -3.419   2.218  -2.264  1.00  0.00     0.071 C 
ENDBRANCH  13  16
ENDBRANCH   8  13
BRANCH  12  18
ATOM     18  N   UNL     1       2.403   5.080  -4.629  1.00  0.00    -0.328 N 
ATOM     19  C   UNL     1       3.532   4.963  -3.700  1.00  0.00     0.294 C 
ATOM     20  C   UNL     1       2.848   4.752  -5.990  1.00  0.00     0.294 C 
ATOM     21  H   UNL     1       2.123   6.061  -4.600  1.00  0.00     0.348 HD
ATOM     22  C   UNL     1       4.470   3.743  -3.877  1.00  0.00     0.170 C 
ATOM     23  C   UNL     1       3.737   3.492  -6.150  1.00  0.00     0.170 C 
ATOM     24  C   UNL     1       4.555   2.930  -2.586  1.00  0.00     0.045 C 
ATOM     25  O   UNL     1       4.051   2.848  -4.912  1.00  0.00    -0.364 OA
ATOM     26  C   UNL     1       3.062   2.451  -7.042  1.00  0.00     0.045 C 
ENDBRANCH  12  18
ENDBRANCH   5   8
ENDBRANCH   3   4
ENDBRANCH   2   3
ENDBRANCH   1   2
BRANCH   1  27
ATOM     27  C   UNL     1       2.992  -2.837  -4.653  1.00  0.00     0.116 C 
BRANCH  27  28
ATOM     28  N   UNL     1       3.046  -2.772  -6.108  1.00  0.00    -0.352 N 
ATOM     29  C   UNL     1       3.345  -3.771  -7.011  1.00  0.00     0.251 C 
ATOM     30  H   UNL     1       2.840  -1.893  -6.501  1.00  0.00     0.163 HD
ATOM     31  O   UNL     1       3.420  -3.527  -8.201  1.00  0.00    -0.269 OA
BRANCH  29  32
ATOM     32  C   UNL     1       3.621  -5.134  -6.502  1.00  0.00     0.039 A 
ATOM     33  C   UNL     1       4.767  -5.801  -6.942  1.00  0.00     0.014 A 
ATOM     34  C   UNL     1       2.788  -5.715  -5.545  1.00  0.00     0.014 A 
ATOM     35  C   UNL     1       5.125  -7.014  -6.351  1.00  0.00     0.010 A 
ATOM     36  C   UNL     1       3.194  -6.873  -4.895  1.00  0.00     0.010 A 
ATOM     37  C   UNL     1       4.368  -7.534  -5.288  1.00  0.00    -0.014 A 
BRANCH  37  38
ATOM     38  C   UNL     1       4.780  -8.761  -4.562  1.00  0.00     0.031 A 
ATOM     39  C   UNL     1       3.880  -9.966  -4.556  1.00  0.00     0.074 A 
ATOM     40  C   UNL     1       5.913  -8.758  -3.832  1.00  0.00     0.049 A 
ATOM     41  N   UNL     1       4.016 -11.095  -3.910  1.00  0.00    -0.248 NA
ATOM     42  C   UNL     1       2.644  -9.872  -5.350  1.00  0.00     0.031 C 
ATOM     43  C   UNL     1       6.847  -7.635  -3.716  1.00  0.00     0.029 A 
ATOM     44  N   UNL     1       6.470  -9.733  -3.044  1.00  0.00    -0.354 N 
ATOM     45  C   UNL     1       2.870 -11.830  -4.193  1.00  0.00     0.074 A 
ATOM     46  C   UNL     1       2.027 -10.996  -5.021  1.00  0.00     0.031 C 
ATOM     47  C   UNL     1       7.881  -8.001  -2.942  1.00  0.00     0.029 A 
ATOM     48  C   UNL     1       7.665  -9.365  -2.472  1.00  0.00     0.049 A 
ATOM     49  H   UNL     1       6.054 -10.614  -2.902  1.00  0.00     0.167 HD
ATOM     50  C   UNL     1       2.555 -13.092  -3.816  1.00  0.00     0.031 A 
ATOM     51  C   UNL     1       8.495 -10.050  -1.663  1.00  0.00     0.031 A 
ATOM     52  C   UNL     1       3.407 -13.924  -3.011  1.00  0.00     0.049 A 
ATOM     53  C   UNL     1       8.135 -11.454  -1.265  1.00  0.00     0.074 A 
ATOM     54  C   UNL     1       3.218 -15.241  -2.631  1.00  0.00     0.029 A 
ATOM     55  N   UNL     1       4.614 -13.517  -2.461  1.00  0.00    -0.354 N 
ATOM     56  N   UNL     1       7.077 -12.157  -1.594  1.00  0.00    -0.248 NA
ATOM     57  C   UNL     1       9.084 -12.159  -0.394  1.00  0.00     0.031 C 
ATOM     58  C   UNL     1       4.291 -15.617  -1.815  1.00  0.00     0.029 A 
ATOM     59  C   UNL     1       5.173 -14.550  -1.728  1.00  0.00     0.049 A 
ATOM     60  H   UNL     1       5.014 -12.625  -2.575  1.00  0.00     0.167 HD
ATOM     61  C   UNL     1       7.246 -13.398  -0.991  1.00  0.00     0.074 A 
ATOM     62  C   UNL     1       8.511 -13.350  -0.284  1.00  0.00     0.031 C 
ATOM     63  C   UNL     1       6.430 -14.481  -1.025  1.00  0.00     0.031 A 
BRANCH  50  64
ATOM     64  C   UNL     1       1.221 -13.626  -4.268  1.00  0.00    -0.014 A 
ATOM     65  C   UNL     1       0.964 -13.889  -5.627  1.00  0.00     0.010 A 
ATOM     66  C   UNL     1       0.198 -13.837  -3.327  1.00  0.00     0.010 A 
ATOM     67  C   UNL     1      -0.311 -14.275  -6.046  1.00  0.00     0.020 A 
ATOM     68  C   UNL     1      -1.071 -14.256  -3.738  1.00  0.00     0.020 A 
ATOM     69  C   UNL     1      -1.326 -14.441  -5.099  1.00  0.00     0.054 A 
BRANCH  69  70
ATOM     70  S   UNL     1      -2.984 -14.905  -5.668  1.00  0.00     0.124 S 
ATOM     71  O   UNL     1      -3.485 -13.636  -6.192  1.00  0.00    -0.237 OA
ATOM     72  O   UNL     1      -2.707 -15.931  -6.670  1.00  0.00    -0.237 OA
ATOM     73  O   UNL     1      -3.644 -15.383  -4.457  1.00  0.00    -0.744 OA
ENDBRANCH  69  70
ENDBRANCH  50  64
BRANCH  51  74
ATOM     74  C   UNL     1       9.777  -9.431  -1.229  1.00  0.00    -0.014 A 
ATOM     75  C   UNL     1      10.988  -9.850  -1.808  1.00  0.00     0.010 A 
ATOM     76  C   UNL     1       9.793  -8.390  -0.284  1.00  0.00     0.010 A 
ATOM     77  C   UNL     1      12.193  -9.239  -1.451  1.00  0.00     0.020 A 
ATOM     78  C   UNL     1      10.995  -7.761   0.059  1.00  0.00     0.020 A 
ATOM     79  C   UNL     1      12.188  -8.193  -0.525  1.00  0.00     0.054 A 
BRANCH  79  80
ATOM     80  S   UNL     1      13.754  -7.359  -0.144  1.00  0.00     0.124 S 
ATOM     81  O   UNL     1      14.435  -8.351   0.681  1.00  0.00    -0.237 OA
ATOM     82  O   UNL     1      14.325  -7.140  -1.471  1.00  0.00    -0.237 OA
ATOM     83  O   UNL     1      13.334  -6.144   0.551  1.00  0.00    -0.744 OA
ENDBRANCH  79  80
ENDBRANCH  51  74
BRANCH  63  84
ATOM     84  C   UNL     1       6.892 -15.714  -0.299  1.00  0.00    -0.014 A 
ATOM     85  C   UNL     1       6.859 -15.789   1.104  1.00  0.00     0.010 A 
ATOM     86  C   UNL     1       7.311 -16.836  -1.038  1.00  0.00     0.010 A 
ATOM     87  C   UNL     1       7.261 -16.956   1.757  1.00  0.00     0.020 A 
ATOM     88  C   UNL     1       7.690 -18.013  -0.390  1.00  0.00     0.020 A 
ATOM     89  C   UNL     1       7.675 -18.061   1.006  1.00  0.00     0.054 A 
BRANCH  89  90
ATOM     90  S   UNL     1       8.145 -19.583   1.874  1.00  0.00     0.124 S 
ATOM     91  O   UNL     1       9.466 -19.240   2.394  1.00  0.00    -0.237 OA
ATOM     92  O   UNL     1       7.091 -19.720   2.876  1.00  0.00    -0.237 OA
ATOM     93  O   UNL     1       8.132 -20.598   0.823  1.00  0.00    -0.744 OA
ENDBRANCH  89  90
ENDBRANCH  63  84
ENDBRANCH  37  38
ENDBRANCH  29  32
ENDBRANCH  27  28
ENDBRANCH   1  27
TORSDOF 17
