REMARK SMILES CC1=C(C)C[C@@H](C(=O)NCCCCNC(=O)c2ccc(-c3c4nc(c(-c5ccc(S(=O)(=O)[O-])cc5)c5ccc([nH]5)c(-c5ccc(S(=O)(=O)[O-])cc5)c5nc(c(-c6ccc(S(=O)(=O)[O-])cc6)c6ccc3[nH]6)C=C5)C=C4)cc2)[C@@H](C(=O)NCC[NH+]2CCOCC2)C1
REMARK SMILES IDX 11 1 10 2 9 3 7 4 8 5 6 7 1 8 2 9 3 10 89 11 4 12 5 13 77 14
REMARK SMILES IDX 78 15 79 16 80 17 81 19 82 20 83 21 84 22 88 23 85 25 87 26
REMARK SMILES IDX 86 27 12 28 13 29 14 30 15 31 16 33 17 34 18 35 76 36 19 37
REMARK SMILES IDX 75 38 20 39 21 40 22 41 69 42 23 43 74 44 68 45 70 46 24 47
REMARK SMILES IDX 73 48 67 49 66 50 25 52 55 53 36 54 54 55 37 56 40 57 53 58
REMARK SMILES IDX 71 59 38 60 39 61 52 63 72 64 41 65 26 66 27 67 35 68 28 69
REMARK SMILES IDX 34 70 29 71 30 72 31 73 32 74 33 75 56 76 57 77 65 78 58 79
REMARK SMILES IDX 64 80 59 81 60 82 61 83 62 84 63 85 42 86 43 87 51 88 44 89
REMARK SMILES IDX 50 90 45 91 46 92 47 93 48 94 49 95
REMARK H PARENT 9 6 80 18 83 24 14 32 70 51 40 62
REMARK Flexibility Score: inf
ROOT
ATOM      1  C   UNL     1       3.144   1.012   3.161  1.00  0.00     0.023 C 
ENDROOT
BRANCH   1   2
ATOM      2  C   UNL     1       2.674  -0.409   3.441  1.00  0.00     0.116 C 
BRANCH   2   3
ATOM      3  N   UNL     1       1.993  -0.530   4.705  1.00  0.00    -0.356 N 
ATOM      4  C   UNL     1       0.684  -0.720   5.006  1.00  0.00     0.224 C 
ATOM      5  O   UNL     1       0.441  -1.076   6.166  1.00  0.00    -0.275 OA
ATOM      6  H   UNL     1       2.583  -0.462   5.490  1.00  0.00     0.163 HD
BRANCH   4   7
ATOM      7  C   UNL     1      -0.465  -0.599   3.992  1.00  0.00     0.095 C 
ATOM      8  C   UNL     1       0.552  -0.203  -0.313  1.00  0.00     0.039 C 
ATOM      9  C   UNL     1       0.068  -0.431   1.098  1.00  0.00    -0.074 C 
ATOM     10  C   UNL     1      -0.099  -1.651   1.651  1.00  0.00    -0.074 C 
ATOM     11  C   UNL     1      -0.129   0.851   1.878  1.00  0.00     0.045 C 
ATOM     12  C   UNL     1       0.219  -2.959   0.967  1.00  0.00     0.039 C 
ATOM     13  C   UNL     1      -0.546  -1.828   3.083  1.00  0.00     0.045 C 
ATOM     14  C   UNL     1      -0.704   0.761   3.292  1.00  0.00     0.095 C 
BRANCH  14  15
ATOM     15  C   UNL     1      -0.410   1.920   4.259  1.00  0.00     0.224 C 
ATOM     16  O   UNL     1      -0.563   1.769   5.476  1.00  0.00    -0.275 OA
ATOM     17  N   UNL     1      -0.103   3.187   3.898  1.00  0.00    -0.350 N 
ATOM     18  H   UNL     1      -0.011   3.791   4.669  1.00  0.00     0.163 HD
BRANCH  17  19
ATOM     19  C   UNL     1       0.121   3.855   2.628  1.00  0.00     0.177 C 
BRANCH  19  20
ATOM     20  C   UNL     1       0.096   5.396   2.745  1.00  0.00     0.283 C 
BRANCH  20  21
ATOM     21  N   UNL     1       1.249   6.140   3.255  1.00  0.00    -0.330 N 
ATOM     22  C   UNL     1       2.376   6.313   2.328  1.00  0.00     0.291 C 
ATOM     23  C   UNL     1       1.728   5.838   4.609  1.00  0.00     0.291 C 
ATOM     24  H   UNL     1       0.785   7.044   3.342  1.00  0.00     0.348 HD
ATOM     25  C   UNL     1       3.482   5.255   2.449  1.00  0.00     0.221 C 
ATOM     26  C   UNL     1       2.849   4.787   4.672  1.00  0.00     0.221 C 
ATOM     27  O   UNL     1       3.933   5.119   3.799  1.00  0.00    -0.370 OA
ENDBRANCH  20  21
ENDBRANCH  19  20
ENDBRANCH  17  19
ENDBRANCH  14  15
ENDBRANCH   4   7
ENDBRANCH   2   3
ENDBRANCH   1   2
BRANCH   1  28
ATOM     28  C   UNL     1       4.399   1.436   3.916  1.00  0.00     0.023 C 
BRANCH  28  29
ATOM     29  C   UNL     1       5.609   0.539   3.708  1.00  0.00     0.116 C 
BRANCH  29  30
ATOM     30  N   UNL     1       5.964   0.358   2.308  1.00  0.00    -0.352 N 
ATOM     31  C   UNL     1       7.220   0.183   1.770  1.00  0.00     0.251 C 
ATOM     32  H   UNL     1       5.216   0.361   1.668  1.00  0.00     0.163 HD
ATOM     33  O   UNL     1       7.381   0.148   0.562  1.00  0.00    -0.269 OA
BRANCH  31  34
ATOM     34  C   UNL     1       8.370   0.082   2.695  1.00  0.00     0.039 A 
ATOM     35  C   UNL     1       9.463   0.930   2.509  1.00  0.00     0.014 A 
ATOM     36  C   UNL     1       8.322  -0.791   3.784  1.00  0.00     0.014 A 
ATOM     37  C   UNL     1      10.481   0.953   3.464  1.00  0.00     0.010 A 
ATOM     38  C   UNL     1       9.297  -0.711   4.771  1.00  0.00     0.010 A 
ATOM     39  C   UNL     1      10.385   0.162   4.621  1.00  0.00    -0.014 A 
BRANCH  39  40
ATOM     40  C   UNL     1      11.412   0.227   5.689  1.00  0.00     0.031 A 
ATOM     41  C   UNL     1      12.238  -0.989   6.007  1.00  0.00     0.074 A 
ATOM     42  C   UNL     1      11.549   1.352   6.419  1.00  0.00     0.049 A 
ATOM     43  N   UNL     1      13.128  -1.158   6.950  1.00  0.00    -0.248 NA
ATOM     44  C   UNL     1      12.014  -2.181   5.171  1.00  0.00     0.031 C 
ATOM     45  C   UNL     1      10.773   2.582   6.239  1.00  0.00     0.029 A 
ATOM     46  N   UNL     1      12.388   1.641   7.466  1.00  0.00    -0.354 N 
ATOM     47  C   UNL     1      13.555  -2.475   6.834  1.00  0.00     0.074 A 
ATOM     48  C   UNL     1      12.790  -3.077   5.764  1.00  0.00     0.031 C 
ATOM     49  C   UNL     1      11.192   3.500   7.126  1.00  0.00     0.029 A 
ATOM     50  C   UNL     1      12.236   2.915   7.960  1.00  0.00     0.049 A 
ATOM     51  H   UNL     1      13.037   0.996   7.829  1.00  0.00     0.167 HD
ATOM     52  C   UNL     1      14.514  -3.122   7.537  1.00  0.00     0.031 A 
ATOM     53  C   UNL     1      12.866   3.540   8.974  1.00  0.00     0.031 A 
ATOM     54  C   UNL     1      15.285  -2.517   8.589  1.00  0.00     0.049 A 
ATOM     55  C   UNL     1      13.931   2.802   9.739  1.00  0.00     0.074 A 
ATOM     56  C   UNL     1      16.312  -3.071   9.332  1.00  0.00     0.029 A 
ATOM     57  N   UNL     1      15.117  -1.217   9.044  1.00  0.00    -0.354 N 
ATOM     58  N   UNL     1      14.359   1.573   9.577  1.00  0.00    -0.248 NA
ATOM     59  C   UNL     1      14.605   3.540  10.816  1.00  0.00     0.031 C 
ATOM     60  C   UNL     1      16.742  -2.117  10.261  1.00  0.00     0.029 A 
ATOM     61  C   UNL     1      16.014  -0.954  10.064  1.00  0.00     0.049 A 
ATOM     62  H   UNL     1      14.457  -0.577   8.692  1.00  0.00     0.167 HD
ATOM     63  C   UNL     1      15.372   1.400  10.514  1.00  0.00     0.074 A 
ATOM     64  C   UNL     1      15.501   2.653  11.228  1.00  0.00     0.031 C 
ATOM     65  C   UNL     1      16.129   0.302  10.759  1.00  0.00     0.031 A 
BRANCH  52  66
ATOM     66  C   UNL     1      14.783  -4.559   7.179  1.00  0.00    -0.014 A 
ATOM     67  C   UNL     1      15.405  -4.895   5.963  1.00  0.00     0.010 A 
ATOM     68  C   UNL     1      14.430  -5.584   8.074  1.00  0.00     0.010 A 
ATOM     69  C   UNL     1      15.627  -6.232   5.627  1.00  0.00     0.020 A 
ATOM     70  C   UNL     1      14.675  -6.923   7.754  1.00  0.00     0.020 A 
ATOM     71  C   UNL     1      15.255  -7.239   6.523  1.00  0.00     0.054 A 
BRANCH  71  72
ATOM     72  S   UNL     1      15.566  -8.966   6.067  1.00  0.00     0.124 S 
ATOM     73  O   UNL     1      14.518  -9.209   5.079  1.00  0.00    -0.237 OA
ATOM     74  O   UNL     1      16.927  -8.920   5.538  1.00  0.00    -0.237 OA
ATOM     75  O   UNL     1      15.415  -9.690   7.327  1.00  0.00    -0.744 OA
ENDBRANCH  71  72
ENDBRANCH  52  66
BRANCH  53  76
ATOM     76  C   UNL     1      12.523   4.948   9.311  1.00  0.00    -0.014 A 
ATOM     77  C   UNL     1      13.425   5.987   9.020  1.00  0.00     0.010 A 
ATOM     78  C   UNL     1      11.295   5.260   9.921  1.00  0.00     0.010 A 
ATOM     79  C   UNL     1      13.116   7.309   9.354  1.00  0.00     0.020 A 
ATOM     80  C   UNL     1      10.971   6.583  10.234  1.00  0.00     0.020 A 
ATOM     81  C   UNL     1      11.891   7.598   9.961  1.00  0.00     0.054 A 
BRANCH  81  82
ATOM     82  S   UNL     1      11.492   9.326  10.350  1.00  0.00     0.124 S 
ATOM     83  O   UNL     1      12.310   9.566  11.534  1.00  0.00    -0.237 OA
ATOM     84  O   UNL     1      11.909  10.028   9.139  1.00  0.00    -0.237 OA
ATOM     85  O   UNL     1      10.049   9.299  10.578  1.00  0.00    -0.744 OA
ENDBRANCH  81  82
ENDBRANCH  53  76
BRANCH  65  86
ATOM     86  C   UNL     1      17.189   0.418  11.820  1.00  0.00    -0.014 A 
ATOM     87  C   UNL     1      16.854   0.438  13.185  1.00  0.00     0.010 A 
ATOM     88  C   UNL     1      18.544   0.451  11.443  1.00  0.00     0.010 A 
ATOM     89  C   UNL     1      17.856   0.517  14.155  1.00  0.00     0.020 A 
ATOM     90  C   UNL     1      19.549   0.505  12.411  1.00  0.00     0.020 A 
ATOM     91  C   UNL     1      19.198   0.552  13.762  1.00  0.00     0.054 A 
BRANCH  91  92
ATOM     92  S   UNL     1      20.483   0.607  15.040  1.00  0.00     0.124 S 
ATOM     93  O   UNL     1      20.417   1.998  15.478  1.00  0.00    -0.237 OA
ATOM     94  O   UNL     1      20.015  -0.380  16.011  1.00  0.00    -0.237 OA
ATOM     95  O   UNL     1      21.701   0.236  14.323  1.00  0.00    -0.744 OA
ENDBRANCH  91  92
ENDBRANCH  65  86
ENDBRANCH  39  40
ENDBRANCH  31  34
ENDBRANCH  29  30
ENDBRANCH  28  29
ENDBRANCH   1  28
TORSDOF 18
