REMARK SMILES COc1ccc(OCCNc2c(Cl)cccc2C(=O)NCCCCNC(=O)c2ccc(-c3c4nc(c(-c5ccc(S(=O)(=O)[O-])cc5)c5ccc([nH]5)c(-c5ccc(S(=O)(=O)[O-])cc5)c5nc(c(-c6ccc(S(=O)(=O)[O-])cc6)c6ccc3[nH]6)C=C5)C=C4)cc2)cc1
REMARK SMILES IDX 21 1 20 2 18 3 19 4 17 6 11 7 12 8 13 9 14 10 16 11 15 12
REMARK SMILES IDX 10 13 9 15 8 16 7 17 6 18 3 19 4 20 89 21 5 22 88 23 2 24
REMARK SMILES IDX 1 25 22 26 23 27 24 28 25 29 26 30 27 32 28 33 29 34 87 35
REMARK SMILES IDX 30 36 86 37 31 38 32 39 33 40 80 41 34 42 85 43 79 44 81 45
REMARK SMILES IDX 35 46 84 47 78 48 77 49 36 51 66 52 47 53 65 54 48 55 51 56
REMARK SMILES IDX 64 57 82 58 49 59 50 60 63 62 83 63 52 64 37 65 38 66 46 67
REMARK SMILES IDX 39 68 45 69 40 70 41 71 42 72 43 73 44 74 67 75 68 76 76 77
REMARK SMILES IDX 69 78 75 79 70 80 71 81 72 82 73 83 74 84 53 85 54 86 62 87
REMARK SMILES IDX 55 88 61 89 56 90 57 91 58 92 59 93 60 94
REMARK H PARENT 20 5 10 14 25 31 81 50 51 61
REMARK Flexibility Score: inf
ROOT
ATOM      1  C   UNL     1       2.515   1.032  -5.770  1.00  0.00     0.116 C 
ENDROOT
BRANCH   1   2
ATOM      2  N   UNL     1       3.655   1.600  -6.458  1.00  0.00    -0.352 N 
ATOM      3  C   UNL     1       4.984   1.619  -6.116  1.00  0.00     0.253 C 
ATOM      4  O   UNL     1       5.781   2.114  -6.916  1.00  0.00    -0.269 OA
ATOM      5  H   UNL     1       3.442   2.045  -7.310  1.00  0.00     0.163 HD
BRANCH   3   6
ATOM      6  C   UNL     1       5.512   1.179  -4.797  1.00  0.00     0.064 A 
ATOM      7  C   UNL     1       5.353  -0.089  -4.209  1.00  0.00     0.066 A 
ATOM      8  C   UNL     1       5.965  -0.289  -2.940  1.00  0.00     0.065 A 
ATOM      9  Cl  UNL     1       5.798  -1.796  -2.089  1.00  0.00    -0.082 Cl
ATOM     10  C   UNL     1       6.736   0.691  -2.309  1.00  0.00     0.023 A 
ATOM     11  C   UNL     1       6.313   2.156  -4.158  1.00  0.00     0.016 A 
ATOM     12  C   UNL     1       6.914   1.919  -2.923  1.00  0.00     0.003 A 
BRANCH   7  13
ATOM     13  N   UNL     1       4.484  -1.067  -4.658  1.00  0.00    -0.380 N 
ATOM     14  H   UNL     1       3.731  -1.290  -4.064  1.00  0.00     0.160 HD
BRANCH  13  15
ATOM     15  C   UNL     1       4.559  -1.801  -5.910  1.00  0.00     0.154 C 
BRANCH  15  16
ATOM     16  C   UNL     1       3.591  -3.016  -5.891  1.00  0.00     0.250 C 
BRANCH  16  17
ATOM     17  O   UNL     1       2.203  -2.675  -5.702  1.00  0.00    -0.492 OA
BRANCH  17  18
ATOM     18  C   UNL     1       1.691  -2.566  -4.434  1.00  0.00     0.119 A 
ATOM     19  C   UNL     1       0.582  -1.807  -1.975  1.00  0.00     0.119 A 
ATOM     20  C   UNL     1      -0.196  -1.766  -3.126  1.00  0.00     0.050 A 
ATOM     21  C   UNL     1       1.864  -2.345  -2.026  1.00  0.00     0.050 A 
ATOM     22  C   UNL     1       0.362  -2.135  -4.354  1.00  0.00     0.050 A 
ATOM     23  C   UNL     1       2.403  -2.751  -3.250  1.00  0.00     0.050 A 
BRANCH  19  24
ATOM     24  O   UNL     1       0.029  -1.375  -0.801  1.00  0.00    -0.497 OA
ATOM     25  C   UNL     1       0.742  -0.258  -0.266  1.00  0.00     0.278 C 
ENDBRANCH  19  24
ENDBRANCH  17  18
ENDBRANCH  16  17
ENDBRANCH  15  16
ENDBRANCH  13  15
ENDBRANCH   7  13
ENDBRANCH   3   6
ENDBRANCH   1   2
BRANCH   1  26
ATOM     26  C   UNL     1       1.157   1.430  -6.345  1.00  0.00     0.023 C 
BRANCH  26  27
ATOM     27  C   UNL     1       0.954   1.194  -7.848  1.00  0.00     0.023 C 
BRANCH  27  28
ATOM     28  C   UNL     1       1.444  -0.134  -8.431  1.00  0.00     0.116 C 
BRANCH  28  29
ATOM     29  N   UNL     1       0.700  -1.298  -7.976  1.00  0.00    -0.352 N 
ATOM     30  C   UNL     1      -0.266  -2.053  -8.604  1.00  0.00     0.251 C 
ATOM     31  H   UNL     1       0.926  -1.597  -7.066  1.00  0.00     0.163 HD
ATOM     32  O   UNL     1      -0.876  -2.914  -7.974  1.00  0.00    -0.269 OA
BRANCH  30  33
ATOM     33  C   UNL     1      -0.595  -1.819 -10.028  1.00  0.00     0.039 A 
ATOM     34  C   UNL     1      -1.935  -1.710 -10.410  1.00  0.00     0.014 A 
ATOM     35  C   UNL     1       0.413  -1.706 -10.988  1.00  0.00     0.014 A 
ATOM     36  C   UNL     1      -2.255  -1.354 -11.725  1.00  0.00     0.010 A 
ATOM     37  C   UNL     1       0.097  -1.281 -12.277  1.00  0.00     0.010 A 
ATOM     38  C   UNL     1      -1.239  -1.066 -12.650  1.00  0.00    -0.014 A 
BRANCH  38  39
ATOM     39  C   UNL     1      -1.536  -0.464 -13.978  1.00  0.00     0.031 A 
ATOM     40  C   UNL     1      -1.172  -1.184 -15.248  1.00  0.00     0.074 A 
ATOM     41  C   UNL     1      -2.047   0.784 -14.037  1.00  0.00     0.049 A 
ATOM     42  N   UNL     1      -1.227  -0.755 -16.483  1.00  0.00    -0.248 NA
ATOM     43  C   UNL     1      -0.663  -2.558 -15.111  1.00  0.00     0.031 C 
ATOM     44  C   UNL     1      -2.421   1.604 -12.881  1.00  0.00     0.029 A 
ATOM     45  N   UNL     1      -2.326   1.591 -15.114  1.00  0.00    -0.354 N 
ATOM     46  C   UNL     1      -0.760  -1.801 -17.270  1.00  0.00     0.074 A 
ATOM     47  C   UNL     1      -0.380  -2.868 -16.369  1.00  0.00     0.031 C 
ATOM     48  C   UNL     1      -2.895   2.785 -13.310  1.00  0.00     0.029 A 
ATOM     49  C   UNL     1      -2.808   2.832 -14.765  1.00  0.00     0.049 A 
ATOM     50  H   UNL     1      -2.193   1.308 -16.047  1.00  0.00     0.167 HD
ATOM     51  C   UNL     1      -0.675  -1.875 -18.621  1.00  0.00     0.031 A 
ATOM     52  C   UNL     1      -3.122   3.900 -15.526  1.00  0.00     0.031 A 
ATOM     53  C   UNL     1      -1.048  -0.812 -19.517  1.00  0.00     0.049 A 
ATOM     54  C   UNL     1      -2.951   3.814 -17.019  1.00  0.00     0.074 A 
ATOM     55  C   UNL     1      -1.015  -0.803 -20.901  1.00  0.00     0.029 A 
ATOM     56  N   UNL     1      -1.523   0.429 -19.122  1.00  0.00    -0.354 N 
ATOM     57  N   UNL     1      -2.546   2.800 -17.745  1.00  0.00    -0.248 NA
ATOM     58  C   UNL     1      -3.278   5.019 -17.795  1.00  0.00     0.031 C 
ATOM     59  C   UNL     1      -1.425   0.459 -21.342  1.00  0.00     0.029 A 
ATOM     60  C   UNL     1      -1.766   1.218 -20.234  1.00  0.00     0.049 A 
ATOM     61  H   UNL     1      -1.665   0.709 -18.189  1.00  0.00     0.167 HD
ATOM     62  C   UNL     1      -2.599   3.236 -19.064  1.00  0.00     0.074 A 
ATOM     63  C   UNL     1      -3.090   4.598 -19.038  1.00  0.00     0.031 C 
ATOM     64  C   UNL     1      -2.266   2.569 -20.196  1.00  0.00     0.031 A 
BRANCH  51  65
ATOM     65  C   UNL     1      -0.166  -3.160 -19.219  1.00  0.00    -0.014 A 
ATOM     66  C   UNL     1      -0.955  -4.324 -19.193  1.00  0.00     0.010 A 
ATOM     67  C   UNL     1       1.080  -3.192 -19.871  1.00  0.00     0.010 A 
ATOM     68  C   UNL     1      -0.495  -5.505 -19.780  1.00  0.00     0.020 A 
ATOM     69  C   UNL     1       1.533  -4.365 -20.483  1.00  0.00     0.020 A 
ATOM     70  C   UNL     1       0.747  -5.518 -20.422  1.00  0.00     0.054 A 
BRANCH  70  71
ATOM     71  S   UNL     1       1.300  -7.057 -21.206  1.00  0.00     0.124 S 
ATOM     72  O   UNL     1       1.612  -7.890 -20.047  1.00  0.00    -0.237 OA
ATOM     73  O   UNL     1       0.126  -7.465 -21.974  1.00  0.00    -0.237 OA
ATOM     74  O   UNL     1       2.452  -6.646 -22.005  1.00  0.00    -0.744 OA
ENDBRANCH  70  71
ENDBRANCH  51  65
BRANCH  52  75
ATOM     75  C   UNL     1      -3.615   5.157 -14.896  1.00  0.00    -0.014 A 
ATOM     76  C   UNL     1      -4.938   5.587 -15.105  1.00  0.00     0.010 A 
ATOM     77  C   UNL     1      -2.755   5.950 -14.114  1.00  0.00     0.010 A 
ATOM     78  C   UNL     1      -5.379   6.805 -14.579  1.00  0.00     0.020 A 
ATOM     79  C   UNL     1      -3.202   7.152 -13.559  1.00  0.00     0.020 A 
ATOM     80  C   UNL     1      -4.506   7.582 -13.812  1.00  0.00     0.054 A 
BRANCH  80  81
ATOM     81  S   UNL     1      -5.101   9.155 -13.131  1.00  0.00     0.124 S 
ATOM     82  O   UNL     1      -5.116  10.010 -14.314  1.00  0.00    -0.237 OA
ATOM     83  O   UNL     1      -6.410   8.793 -12.595  1.00  0.00    -0.237 OA
ATOM     84  O   UNL     1      -4.096   9.492 -12.126  1.00  0.00    -0.744 OA
ENDBRANCH  80  81
ENDBRANCH  52  75
BRANCH  64  85
ATOM     85  C   UNL     1      -2.455   3.285 -21.507  1.00  0.00    -0.014 A 
ATOM     86  C   UNL     1      -1.589   4.320 -21.901  1.00  0.00     0.010 A 
ATOM     87  C   UNL     1      -3.473   2.869 -22.385  1.00  0.00     0.010 A 
ATOM     88  C   UNL     1      -1.751   4.941 -23.142  1.00  0.00     0.020 A 
ATOM     89  C   UNL     1      -3.620   3.469 -23.638  1.00  0.00     0.020 A 
ATOM     90  C   UNL     1      -2.763   4.508 -24.005  1.00  0.00     0.054 A 
BRANCH  90  91
ATOM     91  S   UNL     1      -2.907   5.285 -25.638  1.00  0.00     0.124 S 
ATOM     92  O   UNL     1      -3.457   6.596 -25.304  1.00  0.00    -0.237 OA
ATOM     93  O   UNL     1      -1.526   5.286 -26.115  1.00  0.00    -0.237 OA
ATOM     94  O   UNL     1      -3.811   4.398 -26.366  1.00  0.00    -0.744 OA
ENDBRANCH  90  91
ENDBRANCH  64  85
ENDBRANCH  38  39
ENDBRANCH  30  33
ENDBRANCH  28  29
ENDBRANCH  27  28
ENDBRANCH  26  27
ENDBRANCH   1  26
TORSDOF 20
