REMARK SMILES Cc1cccc(Nc2ccccc2C(=O)NCCCCNC(=O)c2ccc(-c3c4nc(c(-c5ccc(S(=O)(=O)[O-])cc5)c5ccc([nH]5)c(-c5ccc(S(=O)(=O)[O-])cc5)c5nc(c(-c6ccc(S(=O)(=O)[O-])cc6)c6ccc3[nH]6)C=C5)C=C4)cc2)c1C
REMARK SMILES IDX 19 1 18 2 17 3 16 4 14 5 15 6 13 8 8 9 9 10 10 11 12 12
REMARK SMILES IDX 11 13 7 14 6 16 1 17 2 18 3 19 84 20 4 21 85 22 5 23 20 24
REMARK SMILES IDX 21 25 22 26 23 28 24 29 25 30 83 31 26 32 82 33 27 34 28 35
REMARK SMILES IDX 29 36 76 37 30 38 81 39 75 40 77 41 31 42 80 43 74 44 73 45
REMARK SMILES IDX 32 47 62 48 43 49 61 50 44 51 47 52 60 53 78 54 45 55 46 56
REMARK SMILES IDX 59 58 79 59 48 60 33 61 34 62 42 63 35 64 41 65 36 66 37 67
REMARK SMILES IDX 38 68 39 69 40 70 63 71 64 72 72 73 65 74 71 75 66 76 67 77
REMARK SMILES IDX 68 78 69 79 70 80 49 81 50 82 58 83 51 84 57 85 52 86 53 87
REMARK SMILES IDX 54 88 55 89 56 90
REMARK H PARENT 16 7 7 15 21 27 77 46 47 57
REMARK Flexibility Score: inf
ROOT
ATOM      1  C   UNL     1      -3.257  -1.169   3.153  1.00  0.00     0.023 C 
ENDROOT
BRANCH   1   2
ATOM      2  C   UNL     1      -2.742  -2.430   2.453  1.00  0.00     0.023 C 
BRANCH   2   3
ATOM      3  C   UNL     1      -1.477  -2.284   1.617  1.00  0.00     0.116 C 
BRANCH   3   4
ATOM      4  N   UNL     1      -0.247  -2.173   2.361  1.00  0.00    -0.352 N 
ATOM      5  C   UNL     1       1.025  -2.574   2.021  1.00  0.00     0.253 C 
ATOM      6  O   UNL     1       1.944  -2.204   2.759  1.00  0.00    -0.269 OA
ATOM      7  H   UNL     1      -0.329  -1.747   3.244  1.00  0.00     0.163 HD
BRANCH   5   8
ATOM      8  C   UNL     1       1.352  -3.537   0.918  1.00  0.00     0.063 A 
ATOM      9  C   UNL     1       0.850  -3.584  -0.399  1.00  0.00     0.051 A 
ATOM     10  C   UNL     1       1.262  -4.657  -1.230  1.00  0.00     0.027 A 
ATOM     11  C   UNL     1       2.192  -5.611  -0.818  1.00  0.00     0.002 A 
ATOM     12  C   UNL     1       2.315  -4.503   1.306  1.00  0.00     0.016 A 
ATOM     13  C   UNL     1       2.740  -5.519   0.449  1.00  0.00     0.001 A 
BRANCH   9  14
ATOM     14  N   UNL     1       0.068  -2.613  -1.060  1.00  0.00    -0.355 N 
ATOM     15  H   UNL     1      -0.623  -3.009  -1.639  1.00  0.00     0.167 HD
BRANCH  14  16
ATOM     16  C   UNL     1       0.056  -1.204  -1.075  1.00  0.00     0.042 A 
ATOM     17  C   UNL     1       2.021   1.934  -0.092  1.00  0.00     0.044 C 
ATOM     18  C   UNL     1       0.918   1.016  -0.550  1.00  0.00    -0.046 A 
ATOM     19  C   UNL     1      -0.344   1.569  -0.815  1.00  0.00     0.004 A 
ATOM     20  C   UNL     1       1.142  -0.374  -0.735  1.00  0.00    -0.025 A 
ATOM     21  C   UNL     1      -1.388   0.766  -1.251  1.00  0.00     0.002 A 
ATOM     22  C   UNL     1       2.547  -0.908  -0.615  1.00  0.00     0.047 C 
ATOM     23  C   UNL     1      -1.187  -0.604  -1.377  1.00  0.00     0.026 A 
ENDBRANCH  14  16
ENDBRANCH   9  14
ENDBRANCH   5   8
ENDBRANCH   3   4
ENDBRANCH   2   3
ENDBRANCH   1   2
BRANCH   1  24
ATOM     24  C   UNL     1      -3.392   0.109   2.321  1.00  0.00     0.116 C 
BRANCH  24  25
ATOM     25  N   UNL     1      -4.133  -0.042   1.078  1.00  0.00    -0.352 N 
ATOM     26  C   UNL     1      -4.970   0.854   0.445  1.00  0.00     0.251 C 
ATOM     27  H   UNL     1      -4.022  -0.908   0.623  1.00  0.00     0.163 HD
ATOM     28  O   UNL     1      -5.486   0.555  -0.623  1.00  0.00    -0.269 OA
BRANCH  26  29
ATOM     29  C   UNL     1      -5.283   2.157   1.082  1.00  0.00     0.039 A 
ATOM     30  C   UNL     1      -6.624   2.535   1.202  1.00  0.00     0.014 A 
ATOM     31  C   UNL     1      -4.278   2.985   1.589  1.00  0.00     0.014 A 
ATOM     32  C   UNL     1      -6.960   3.688   1.919  1.00  0.00     0.010 A 
ATOM     33  C   UNL     1      -4.618   4.101   2.357  1.00  0.00     0.010 A 
ATOM     34  C   UNL     1      -5.963   4.454   2.548  1.00  0.00    -0.014 A 
BRANCH  34  35
ATOM     35  C   UNL     1      -6.332   5.573   3.458  1.00  0.00     0.031 A 
ATOM     36  C   UNL     1      -5.960   6.995   3.133  1.00  0.00     0.074 A 
ATOM     37  C   UNL     1      -6.962   5.296   4.619  1.00  0.00     0.049 A 
ATOM     38  N   UNL     1      -6.229   8.088   3.802  1.00  0.00    -0.248 NA
ATOM     39  C   UNL     1      -5.163   7.221   1.916  1.00  0.00     0.031 C 
ATOM     40  C   UNL     1      -7.306   3.953   5.097  1.00  0.00     0.029 A 
ATOM     41  N   UNL     1      -7.423   6.124   5.612  1.00  0.00    -0.354 N 
ATOM     42  C   UNL     1      -5.626   9.125   3.100  1.00  0.00     0.074 A 
ATOM     43  C   UNL     1      -4.944   8.528   1.972  1.00  0.00     0.031 C 
ATOM     44  C   UNL     1      -7.944   4.052   6.274  1.00  0.00     0.029 A 
ATOM     45  C   UNL     1      -8.037   5.458   6.649  1.00  0.00     0.049 A 
ATOM     46  H   UNL     1      -7.324   7.103   5.585  1.00  0.00     0.167 HD
ATOM     47  C   UNL     1      -5.652  10.454   3.360  1.00  0.00     0.031 A 
ATOM     48  C   UNL     1      -8.616   5.924   7.773  1.00  0.00     0.031 A 
ATOM     49  C   UNL     1      -6.350  11.052   4.469  1.00  0.00     0.049 A 
ATOM     50  C   UNL     1      -8.679   7.410   8.005  1.00  0.00     0.074 A 
ATOM     51  C   UNL     1      -6.507  12.397   4.762  1.00  0.00     0.029 A 
ATOM     52  N   UNL     1      -7.002  10.348   5.469  1.00  0.00    -0.354 N 
ATOM     53  N   UNL     1      -8.200   8.380   7.264  1.00  0.00    -0.248 NA
ATOM     54  C   UNL     1      -9.385   7.863   9.212  1.00  0.00     0.031 C 
ATOM     55  C   UNL     1      -7.213  12.505   5.964  1.00  0.00     0.029 A 
ATOM     56  C   UNL     1      -7.543  11.229   6.391  1.00  0.00     0.049 A 
ATOM     57  H   UNL     1      -7.071   9.368   5.517  1.00  0.00     0.167 HD
ATOM     58  C   UNL     1      -8.569   9.559   7.904  1.00  0.00     0.074 A 
ATOM     59  C   UNL     1      -9.333   9.180   9.074  1.00  0.00     0.031 C 
ATOM     60  C   UNL     1      -8.297  10.841   7.554  1.00  0.00     0.031 A 
BRANCH  47  61
ATOM     61  C   UNL     1      -4.908  11.371   2.425  1.00  0.00    -0.014 A 
ATOM     62  C   UNL     1      -5.393  11.636   1.131  1.00  0.00     0.010 A 
ATOM     63  C   UNL     1      -3.759  12.046   2.877  1.00  0.00     0.010 A 
ATOM     64  C   UNL     1      -4.730  12.543   0.299  1.00  0.00     0.020 A 
ATOM     65  C   UNL     1      -3.107  12.972   2.056  1.00  0.00     0.020 A 
ATOM     66  C   UNL     1      -3.593  13.208   0.769  1.00  0.00     0.054 A 
BRANCH  66  67
ATOM     67  S   UNL     1      -2.791  14.426  -0.310  1.00  0.00     0.124 S 
ATOM     68  O   UNL     1      -2.141  13.570  -1.300  1.00  0.00    -0.237 OA
ATOM     69  O   UNL     1      -3.921  15.209  -0.804  1.00  0.00    -0.237 OA
ATOM     70  O   UNL     1      -1.886  15.141   0.586  1.00  0.00    -0.744 OA
ENDBRANCH  66  67
ENDBRANCH  47  61
BRANCH  48  71
ATOM     71  C   UNL     1      -9.200   4.980   8.766  1.00  0.00    -0.014 A 
ATOM     72  C   UNL     1     -10.593   4.902   8.952  1.00  0.00     0.010 A 
ATOM     73  C   UNL     1      -8.361   4.170   9.552  1.00  0.00     0.010 A 
ATOM     74  C   UNL     1     -11.132   4.065   9.933  1.00  0.00     0.020 A 
ATOM     75  C   UNL     1      -8.898   3.309  10.513  1.00  0.00     0.020 A 
ATOM     76  C   UNL     1     -10.279   3.277  10.711  1.00  0.00     0.054 A 
BRANCH  76  77
ATOM     77  S   UNL     1     -10.996   2.182  11.968  1.00  0.00     0.124 S 
ATOM     78  O   UNL     1     -11.324   3.121  13.036  1.00  0.00    -0.237 OA
ATOM     79  O   UNL     1     -12.137   1.597  11.267  1.00  0.00    -0.237 OA
ATOM     80  O   UNL     1      -9.912   1.248  12.264  1.00  0.00    -0.744 OA
ENDBRANCH  76  77
ENDBRANCH  48  71
BRANCH  60  81
ATOM     81  C   UNL     1      -8.861  11.925   8.434  1.00  0.00    -0.014 A 
ATOM     82  C   UNL     1      -8.359  12.149   9.729  1.00  0.00     0.010 A 
ATOM     83  C   UNL     1      -9.904  12.736   7.954  1.00  0.00     0.010 A 
ATOM     84  C   UNL     1      -8.931  13.126  10.549  1.00  0.00     0.020 A 
ATOM     85  C   UNL     1     -10.459  13.734   8.759  1.00  0.00     0.020 A 
ATOM     86  C   UNL     1      -9.985  13.905  10.062  1.00  0.00     0.054 A 
BRANCH  86  87
ATOM     87  S   UNL     1     -10.717  15.164  11.142  1.00  0.00     0.124 S 
ATOM     88  O   UNL     1     -11.550  14.355  12.028  1.00  0.00    -0.237 OA
ATOM     89  O   UNL     1      -9.547  15.777  11.765  1.00  0.00    -0.237 OA
ATOM     90  O   UNL     1     -11.447  16.030  10.219  1.00  0.00    -0.744 OA
ENDBRANCH  86  87
ENDBRANCH  60  81
ENDBRANCH  34  35
ENDBRANCH  26  29
ENDBRANCH  24  25
ENDBRANCH   1  24
TORSDOF 16
