REMARK SMILES C[C@H]1CCC[C@@H]1n1c(SCC(=O)NCCCCNC(=O)c2ccc(-c3c4nc(c(-c5ccc(S(=O)(=O)[O-])cc5)c5ccc([nH]5)c(-c5ccc(S(=O)(=O)[O-])cc5)c5nc(c(-c6ccc(S(=O)(=O)[O-])cc6)c6ccc3[nH]6)C=C5)C=C4)cc2)nc2cnccc21
REMARK SMILES IDX 15 1 14 2 13 3 11 4 12 5 10 7 9 8 8 9 7 10 87 11 81 12 82 13
REMARK SMILES IDX 86 14 83 15 85 16 84 17 6 18 1 19 2 20 3 21 4 22 5 23 16 24
REMARK SMILES IDX 17 25 18 26 19 27 20 29 21 30 22 31 80 32 23 33 79 34 24 35
REMARK SMILES IDX 25 36 26 37 73 38 27 39 78 40 72 41 74 42 28 43 77 44 71 45
REMARK SMILES IDX 70 46 29 48 59 49 40 50 58 51 41 52 44 53 57 54 75 55 42 56
REMARK SMILES IDX 43 57 56 59 76 60 45 61 30 62 31 63 39 64 32 65 38 66 33 67
REMARK SMILES IDX 34 68 35 69 36 70 37 71 60 72 61 73 69 74 62 75 68 76 63 77
REMARK SMILES IDX 64 78 65 79 66 80 67 81 46 82 47 83 55 84 48 85 54 86 49 87
REMARK SMILES IDX 50 88 51 89 52 90 53 91
REMARK H PARENT 13 6 18 28 74 47 44 58
REMARK Flexibility Score: inf
ROOT
ATOM      1  C   UNL     1      -0.856   4.681  -4.224  1.00  0.00     0.023 C 
ENDROOT
BRANCH   1   2
ATOM      2  C   UNL     1      -2.140   4.121  -3.632  1.00  0.00     0.116 C 
BRANCH   2   3
ATOM      3  N   UNL     1      -2.020   2.729  -3.269  1.00  0.00    -0.355 N 
ATOM      4  C   UNL     1      -2.509   2.104  -2.172  1.00  0.00     0.230 C 
ATOM      5  O   UNL     1      -2.739   0.895  -2.298  1.00  0.00    -0.274 OA
ATOM      6  H   UNL     1      -1.520   2.162  -3.899  1.00  0.00     0.163 HD
BRANCH   4   7
ATOM      7  C   UNL     1      -2.918   2.840  -0.922  1.00  0.00     0.178 C 
BRANCH   7   8
ATOM      8  S   UNL     1      -1.771   3.539   0.257  1.00  0.00    -0.078 SA
BRANCH   8   9
ATOM      9  C   UNL     1      -0.070   3.249   0.056  1.00  0.00     0.169 A 
ATOM     10  N   UNL     1       0.652   2.075   0.307  1.00  0.00    -0.315 N 
ATOM     11  C   UNL     1       2.000   2.443   0.358  1.00  0.00     0.072 A 
ATOM     12  N   UNL     1       0.721   4.301   0.128  1.00  0.00    -0.221 NA
ATOM     13  C   UNL     1       1.979   3.836   0.400  1.00  0.00     0.108 A 
ATOM     14  C   UNL     1       3.223   1.764   0.448  1.00  0.00     0.049 A 
ATOM     15  C   UNL     1       3.154   4.535   0.713  1.00  0.00     0.141 A 
ATOM     16  C   UNL     1       4.337   2.537   0.748  1.00  0.00     0.113 A 
ATOM     17  N   UNL     1       4.317   3.869   0.930  1.00  0.00    -0.262 NA
BRANCH  10  18
ATOM     18  C   UNL     1       0.092   0.799   0.764  1.00  0.00     0.093 C 
ATOM     19  C   UNL     1       1.812  -0.452   2.255  1.00  0.00     0.010 C 
ATOM     20  C   UNL     1       1.018  -0.427   0.952  1.00  0.00     0.009 C 
ATOM     21  C   UNL     1       0.064  -1.624   0.893  1.00  0.00     0.005 C 
ATOM     22  C   UNL     1      -0.899  -1.267  -0.211  1.00  0.00     0.002 C 
ATOM     23  C   UNL     1      -0.936   0.250  -0.221  1.00  0.00     0.026 C 
ENDBRANCH  10  18
ENDBRANCH   8   9
ENDBRANCH   7   8
ENDBRANCH   4   7
ENDBRANCH   2   3
ENDBRANCH   1   2
BRANCH   1  24
ATOM     24  C   UNL     1      -0.274   3.930  -5.429  1.00  0.00     0.023 C 
BRANCH  24  25
ATOM     25  C   UNL     1      -1.242   3.584  -6.562  1.00  0.00     0.116 C 
BRANCH  25  26
ATOM     26  N   UNL     1      -2.040   4.687  -7.055  1.00  0.00    -0.352 N 
ATOM     27  C   UNL     1      -1.857   5.676  -7.982  1.00  0.00     0.251 C 
ATOM     28  H   UNL     1      -2.923   4.737  -6.621  1.00  0.00     0.163 HD
ATOM     29  O   UNL     1      -2.862   6.336  -8.263  1.00  0.00    -0.269 OA
BRANCH  27  30
ATOM     30  C   UNL     1      -0.561   6.036  -8.620  1.00  0.00     0.039 A 
ATOM     31  C   UNL     1       0.631   5.326  -8.489  1.00  0.00     0.014 A 
ATOM     32  C   UNL     1      -0.552   7.218  -9.389  1.00  0.00     0.014 A 
ATOM     33  C   UNL     1       1.811   5.826  -9.031  1.00  0.00     0.010 A 
ATOM     34  C   UNL     1       0.622   7.709  -9.957  1.00  0.00     0.010 A 
ATOM     35  C   UNL     1       1.815   7.028  -9.747  1.00  0.00    -0.014 A 
BRANCH  35  36
ATOM     36  C   UNL     1       3.075   7.433 -10.369  1.00  0.00     0.031 A 
ATOM     37  C   UNL     1       3.627   6.449 -11.338  1.00  0.00     0.074 A 
ATOM     38  C   UNL     1       3.695   8.616 -10.192  1.00  0.00     0.049 A 
ATOM     39  N   UNL     1       4.701   5.739 -11.220  1.00  0.00    -0.248 NA
ATOM     40  C   UNL     1       2.819   6.128 -12.524  1.00  0.00     0.031 C 
ATOM     41  C   UNL     1       3.172   9.806  -9.521  1.00  0.00     0.029 A 
ATOM     42  N   UNL     1       4.907   9.032 -10.671  1.00  0.00    -0.354 N 
ATOM     43  C   UNL     1       4.818   5.028 -12.410  1.00  0.00     0.074 A 
ATOM     44  C   UNL     1       3.561   5.182 -13.099  1.00  0.00     0.031 C 
ATOM     45  C   UNL     1       3.950  10.868  -9.832  1.00  0.00     0.029 A 
ATOM     46  C   UNL     1       5.102  10.403 -10.587  1.00  0.00     0.049 A 
ATOM     47  H   UNL     1       5.579   8.415 -11.041  1.00  0.00     0.167 HD
ATOM     48  C   UNL     1       6.018   4.559 -12.847  1.00  0.00     0.031 A 
ATOM     49  C   UNL     1       6.111  11.117 -11.143  1.00  0.00     0.031 A 
ATOM     50  C   UNL     1       7.013   4.580 -11.810  1.00  0.00     0.049 A 
ATOM     51  C   UNL     1       7.257  10.206 -11.358  1.00  0.00     0.074 A 
ATOM     52  C   UNL     1       7.225   3.914 -10.623  1.00  0.00     0.029 A 
ATOM     53  N   UNL     1       7.826   5.685 -11.806  1.00  0.00    -0.354 N 
ATOM     54  N   UNL     1       7.938   9.663 -10.389  1.00  0.00    -0.248 NA
ATOM     55  C   UNL     1       7.502   9.647 -12.680  1.00  0.00     0.031 C 
ATOM     56  C   UNL     1       7.945   4.823  -9.796  1.00  0.00     0.029 A 
ATOM     57  C   UNL     1       8.176   5.996 -10.518  1.00  0.00     0.049 A 
ATOM     58  H   UNL     1       8.114   6.180 -12.607  1.00  0.00     0.167 HD
ATOM     59  C   UNL     1       8.351   8.445 -10.894  1.00  0.00     0.074 A 
ATOM     60  C   UNL     1       8.215   8.571 -12.338  1.00  0.00     0.031 C 
ATOM     61  C   UNL     1       8.466   7.353 -10.084  1.00  0.00     0.031 A 
BRANCH  48  62
ATOM     62  C   UNL     1       6.408   4.482 -14.308  1.00  0.00    -0.014 A 
ATOM     63  C   UNL     1       5.689   5.131 -15.331  1.00  0.00     0.010 A 
ATOM     64  C   UNL     1       7.683   3.979 -14.650  1.00  0.00     0.010 A 
ATOM     65  C   UNL     1       6.196   5.265 -16.625  1.00  0.00     0.020 A 
ATOM     66  C   UNL     1       8.221   4.149 -15.935  1.00  0.00     0.020 A 
ATOM     67  C   UNL     1       7.466   4.786 -16.916  1.00  0.00     0.054 A 
BRANCH  67  68
ATOM     68  S   UNL     1       8.129   5.088 -18.573  1.00  0.00     0.124 S 
ATOM     69  O   UNL     1       7.292   4.213 -19.391  1.00  0.00    -0.237 OA
ATOM     70  O   UNL     1       7.901   6.519 -18.744  1.00  0.00    -0.237 OA
ATOM     71  O   UNL     1       9.528   4.688 -18.461  1.00  0.00    -0.744 OA
ENDBRANCH  67  68
ENDBRANCH  48  62
BRANCH  49  72
ATOM     72  C   UNL     1       6.030  12.446 -11.797  1.00  0.00    -0.014 A 
ATOM     73  C   UNL     1       4.810  12.880 -12.352  1.00  0.00     0.010 A 
ATOM     74  C   UNL     1       7.204  13.132 -12.167  1.00  0.00     0.010 A 
ATOM     75  C   UNL     1       4.772  13.889 -13.318  1.00  0.00     0.020 A 
ATOM     76  C   UNL     1       7.174  14.142 -13.142  1.00  0.00     0.020 A 
ATOM     77  C   UNL     1       5.960  14.481 -13.741  1.00  0.00     0.054 A 
BRANCH  77  78
ATOM     78  S   UNL     1       5.901  15.617 -15.156  1.00  0.00     0.124 S 
ATOM     79  O   UNL     1       5.511  14.718 -16.246  1.00  0.00    -0.237 OA
ATOM     80  O   UNL     1       4.869  16.574 -14.745  1.00  0.00    -0.237 OA
ATOM     81  O   UNL     1       7.246  16.152 -15.236  1.00  0.00    -0.744 OA
ENDBRANCH  77  78
ENDBRANCH  49  72
BRANCH  61  82
ATOM     82  C   UNL     1       8.673   7.570  -8.603  1.00  0.00    -0.014 A 
ATOM     83  C   UNL     1       9.762   6.908  -8.006  1.00  0.00     0.010 A 
ATOM     84  C   UNL     1       7.794   8.292  -7.775  1.00  0.00     0.010 A 
ATOM     85  C   UNL     1       9.959   6.943  -6.625  1.00  0.00     0.020 A 
ATOM     86  C   UNL     1       8.004   8.358  -6.389  1.00  0.00     0.020 A 
ATOM     87  C   UNL     1       9.076   7.665  -5.822  1.00  0.00     0.054 A 
BRANCH  87  88
ATOM     88  S   UNL     1       9.359   7.667  -4.032  1.00  0.00     0.124 S 
ATOM     89  O   UNL     1       8.992   6.302  -3.662  1.00  0.00    -0.237 OA
ATOM     90  O   UNL     1      10.784   7.976  -3.933  1.00  0.00    -0.237 OA
ATOM     91  O   UNL     1       8.466   8.710  -3.534  1.00  0.00    -0.744 OA
ENDBRANCH  87  88
ENDBRANCH  61  82
ENDBRANCH  35  36
ENDBRANCH  27  30
ENDBRANCH  25  26
ENDBRANCH  24  25
ENDBRANCH   1  24
TORSDOF 17
