REMARK SMILES C[C@H]1[C@H](C)CC[C@@]2(C(=O)NCCCCNC(=O)c3ccc(-c4c5nc(c(-c6ccc(S(=O)(=O)[O-])cc6)c6ccc([nH]6)c(-c6ccc(S(=O)(=O)[O-])cc6)c6nc(c(-c7ccc(S(=O)(=O)[O-])cc7)c7ccc4[nH]7)C=C6)C=C5)cc3)CC[C@@]3(C)C(=CC[C@@H]4[C@@]5(C)CC[C@H](O)C(C)(C)[C@@H]5CC[C@]43C)[C@H]12
REMARK SMILES IDX 13 1 12 2 11 3 10 4 8 5 9 6 7 8 1 9 2 10 3 11 100 12 4 13
REMARK SMILES IDX 5 14 82 15 6 16 78 17 80 18 83 19 79 20 81 21 98 22 84 23
REMARK SMILES IDX 85 24 97 25 99 26 86 27 96 28 87 29 88 30 95 31 89 32 92 33
REMARK SMILES IDX 90 34 93 35 94 36 91 37 14 39 15 40 16 41 17 43 18 44 19 45
REMARK SMILES IDX 77 46 20 47 76 48 21 49 22 50 23 51 70 52 24 53 75 54 69 55
REMARK SMILES IDX 71 56 25 57 74 58 68 59 67 60 26 62 56 63 37 64 55 65 38 66
REMARK SMILES IDX 41 67 54 68 72 69 39 70 40 71 53 73 73 74 42 75 27 76 28 77
REMARK SMILES IDX 36 78 29 79 35 80 30 81 31 82 32 83 33 84 34 85 57 86 58 87
REMARK SMILES IDX 66 88 59 89 65 90 60 91 61 92 62 93 63 94 64 95 43 96 44 97
REMARK SMILES IDX 52 98 45 99 51 100 46 101 47 102 48 103 49 104 50 105
REMARK H PARENT 10 7 91 38 15 42 71 61 41 72
REMARK Flexibility Score: inf
ROOT
ATOM      1  C   UNL     1      -2.395  -0.179  -1.860  1.00  0.00     0.023 C 
ENDROOT
BRANCH   1   2
ATOM      2  C   UNL     1      -2.490  -1.688  -1.605  1.00  0.00     0.023 C 
BRANCH   2   3
ATOM      3  C   UNL     1      -1.520  -2.280  -0.578  1.00  0.00     0.116 C 
BRANCH   3   4
ATOM      4  N   UNL     1      -1.800  -1.946   0.803  1.00  0.00    -0.356 N 
ATOM      5  C   UNL     1      -1.217  -2.363   1.968  1.00  0.00     0.226 C 
ATOM      6  O   UNL     1      -2.003  -2.414   2.925  1.00  0.00    -0.274 OA
ATOM      7  H   UNL     1      -2.540  -1.307   0.925  1.00  0.00     0.163 HD
BRANCH   5   8
ATOM      8  C   UNL     1       0.314  -2.707   2.169  1.00  0.00     0.056 C 
ATOM      9  C   UNL     1       2.525   0.139   0.536  1.00  0.00     0.008 C 
ATOM     10  C   UNL     1       1.557  -1.057   0.595  1.00  0.00    -0.003 C 
ATOM     11  C   UNL     1       2.159  -2.263  -0.190  1.00  0.00    -0.011 C 
ATOM     12  C   UNL     1       1.250  -1.468   2.053  1.00  0.00     0.034 C 
ATOM     13  C   UNL     1       2.337  -1.976  -1.689  1.00  0.00     0.008 C 
ATOM     14  C   UNL     1       1.386  -3.585  -0.063  1.00  0.00     0.005 C 
ATOM     15  C   UNL     1       0.679  -0.435   3.041  1.00  0.00    -0.063 C 
ATOM     16  C   UNL     1       0.753  -3.890   1.284  1.00  0.00     0.018 C 
ATOM     17  C   UNL     1       0.512  -3.220   3.655  1.00  0.00     0.018 C 
ATOM     18  C   UNL     1       0.919  -0.752   4.541  1.00  0.00    -0.006 C 
ATOM     19  C   UNL     1      -0.198   0.508   2.638  1.00  0.00    -0.027 C 
ATOM     20  C   UNL     1       0.356  -2.193   4.795  1.00  0.00     0.013 C 
ATOM     21  C   UNL     1       2.443  -0.776   4.838  1.00  0.00     0.017 C 
ATOM     22  C   UNL     1       0.197   0.346   5.506  1.00  0.00    -0.020 C 
ATOM     23  C   UNL     1      -1.161   1.216   3.555  1.00  0.00     0.032 C 
ATOM     24  C   UNL     1      -1.261   0.530   4.942  1.00  0.00     0.006 C 
ATOM     25  C   UNL     1       0.178  -0.103   6.992  1.00  0.00     0.008 C 
ATOM     26  C   UNL     1       0.987   1.693   5.483  1.00  0.00     0.012 C 
ATOM     27  C   UNL     1      -2.403   1.075   5.903  1.00  0.00    -0.025 C 
ATOM     28  C   UNL     1      -0.787   0.708   7.861  1.00  0.00     0.005 C 
ATOM     29  C   UNL     1      -2.464   2.614   5.839  1.00  0.00     0.012 C 
ATOM     30  C   UNL     1      -3.770   0.506   5.397  1.00  0.00     0.010 C 
ATOM     31  C   UNL     1      -2.218   0.492   7.353  1.00  0.00     0.003 C 
ATOM     32  C   UNL     1      -4.951   0.791   6.324  1.00  0.00     0.033 C 
ATOM     33  C   UNL     1      -3.361   0.827   8.386  1.00  0.00    -0.006 C 
ATOM     34  C   UNL     1      -4.710   0.348   7.770  1.00  0.00     0.120 C 
ATOM     35  C   UNL     1      -3.417   2.305   8.825  1.00  0.00     0.014 C 
ATOM     36  C   UNL     1      -3.147   0.019   9.698  1.00  0.00     0.014 C 
BRANCH  34  37
ATOM     37  O   UNL     1      -5.819   0.754   8.575  1.00  0.00    -0.393 OA
ATOM     38  H   UNL     1      -5.878   1.722   8.579  1.00  0.00     0.210 HD
ENDBRANCH  34  37
ENDBRANCH   5   8
ENDBRANCH   3   4
ENDBRANCH   2   3
ENDBRANCH   1   2
BRANCH   1  39
ATOM     39  C   UNL     1      -1.042   0.378  -2.305  1.00  0.00     0.116 C 
BRANCH  39  40
ATOM     40  N   UNL     1      -0.510  -0.212  -3.525  1.00  0.00    -0.352 N 
ATOM     41  C   UNL     1      -0.218   0.345  -4.749  1.00  0.00     0.251 C 
ATOM     42  H   UNL     1      -0.329  -1.178  -3.464  1.00  0.00     0.163 HD
ATOM     43  O   UNL     1       0.234  -0.368  -5.643  1.00  0.00    -0.269 OA
BRANCH  41  44
ATOM     44  C   UNL     1      -0.506   1.769  -5.025  1.00  0.00     0.039 A 
ATOM     45  C   UNL     1      -1.234   2.082  -6.178  1.00  0.00     0.014 A 
ATOM     46  C   UNL     1      -0.099   2.788  -4.163  1.00  0.00     0.014 A 
ATOM     47  C   UNL     1      -1.659   3.395  -6.399  1.00  0.00     0.010 A 
ATOM     48  C   UNL     1      -0.582   4.085  -4.347  1.00  0.00     0.010 A 
ATOM     49  C   UNL     1      -1.393   4.395  -5.450  1.00  0.00    -0.014 A 
BRANCH  49  50
ATOM     50  C   UNL     1      -2.021   5.740  -5.562  1.00  0.00     0.031 A 
ATOM     51  C   UNL     1      -1.181   6.974  -5.738  1.00  0.00     0.074 A 
ATOM     52  C   UNL     1      -3.359   5.853  -5.431  1.00  0.00     0.049 A 
ATOM     53  N   UNL     1      -1.562   8.225  -5.803  1.00  0.00    -0.248 NA
ATOM     54  C   UNL     1       0.274   6.783  -5.829  1.00  0.00     0.031 C 
ATOM     55  C   UNL     1      -4.286   4.740  -5.204  1.00  0.00     0.029 A 
ATOM     56  N   UNL     1      -4.175   6.957  -5.462  1.00  0.00    -0.354 N 
ATOM     57  C   UNL     1      -0.396   8.971  -5.926  1.00  0.00     0.074 A 
ATOM     58  C   UNL     1       0.708   8.035  -5.884  1.00  0.00     0.031 C 
ATOM     59  C   UNL     1      -5.541   5.214  -5.147  1.00  0.00     0.029 A 
ATOM     60  C   UNL     1      -5.509   6.665  -5.293  1.00  0.00     0.049 A 
ATOM     61  H   UNL     1      -3.837   7.873  -5.594  1.00  0.00     0.167 HD
ATOM     62  C   UNL     1      -0.255  10.311  -6.077  1.00  0.00     0.031 A 
ATOM     63  C   UNL     1      -6.589   7.470  -5.255  1.00  0.00     0.031 A 
ATOM     64  C   UNL     1      -1.352  11.241  -6.129  1.00  0.00     0.049 A 
ATOM     65  C   UNL     1      -6.408   8.952  -5.431  1.00  0.00     0.074 A 
ATOM     66  C   UNL     1      -1.311  12.610  -6.334  1.00  0.00     0.029 A 
ATOM     67  N   UNL     1      -2.688  10.902  -5.974  1.00  0.00    -0.354 N 
ATOM     68  N   UNL     1      -5.300   9.629  -5.614  1.00  0.00    -0.248 NA
ATOM     69  C   UNL     1      -7.624   9.777  -5.410  1.00  0.00     0.031 C 
ATOM     70  C   UNL     1      -2.618  13.104  -6.261  1.00  0.00     0.029 A 
ATOM     71  C   UNL     1      -3.478  12.036  -6.061  1.00  0.00     0.049 A 
ATOM     72  H   UNL     1      -3.025   9.989  -5.824  1.00  0.00     0.167 HD
ATOM     73  C   UNL     1      -5.688  10.957  -5.755  1.00  0.00     0.074 A 
ATOM     74  C   UNL     1      -7.132  10.986  -5.649  1.00  0.00     0.031 C 
ATOM     75  C   UNL     1      -4.915  12.052  -5.955  1.00  0.00     0.031 A 
BRANCH  62  76
ATOM     76  C   UNL     1       1.146  10.851  -6.194  1.00  0.00    -0.014 A 
ATOM     77  C   UNL     1       1.917  10.620  -7.348  1.00  0.00     0.010 A 
ATOM     78  C   UNL     1       1.688  11.627  -5.154  1.00  0.00     0.010 A 
ATOM     79  C   UNL     1       3.221  11.113  -7.439  1.00  0.00     0.020 A 
ATOM     80  C   UNL     1       2.983  12.145  -5.252  1.00  0.00     0.020 A 
ATOM     81  C   UNL     1       3.748  11.867  -6.387  1.00  0.00     0.054 A 
BRANCH  81  82
ATOM     82  S   UNL     1       5.441  12.501  -6.534  1.00  0.00     0.124 S 
ATOM     83  O   UNL     1       6.234  11.294  -6.313  1.00  0.00    -0.237 OA
ATOM     84  O   UNL     1       5.470  13.030  -7.895  1.00  0.00    -0.237 OA
ATOM     85  O   UNL     1       5.529  13.505  -5.476  1.00  0.00    -0.744 OA
ENDBRANCH  81  82
ENDBRANCH  62  76
BRANCH  63  86
ATOM     86  C   UNL     1      -7.944   6.886  -5.062  1.00  0.00    -0.014 A 
ATOM     87  C   UNL     1      -8.858   6.842  -6.129  1.00  0.00     0.010 A 
ATOM     88  C   UNL     1      -8.324   6.358  -3.814  1.00  0.00     0.010 A 
ATOM     89  C   UNL     1     -10.133   6.297  -5.949  1.00  0.00     0.020 A 
ATOM     90  C   UNL     1      -9.588   5.789  -3.637  1.00  0.00     0.020 A 
ATOM     91  C   UNL     1     -10.489   5.772  -4.704  1.00  0.00     0.054 A 
BRANCH  91  92
ATOM     92  S   UNL     1     -12.128   5.018  -4.507  1.00  0.00     0.124 S 
ATOM     93  O   UNL     1     -12.994   6.191  -4.440  1.00  0.00    -0.237 OA
ATOM     94  O   UNL     1     -12.251   4.208  -5.716  1.00  0.00    -0.237 OA
ATOM     95  O   UNL     1     -12.005   4.256  -3.266  1.00  0.00    -0.744 OA
ENDBRANCH  91  92
ENDBRANCH  63  86
BRANCH  75  96
ATOM     96  C   UNL     1      -5.615  13.375  -6.108  1.00  0.00    -0.014 A 
ATOM     97  C   UNL     1      -6.187  14.029  -5.002  1.00  0.00     0.010 A 
ATOM     98  C   UNL     1      -5.652  13.998  -7.369  1.00  0.00     0.010 A 
ATOM     99  C   UNL     1      -6.807  15.272  -5.160  1.00  0.00     0.020 A 
ATOM    100  C   UNL     1      -6.249  15.252  -7.526  1.00  0.00     0.020 A 
ATOM    101  C   UNL     1      -6.834  15.875  -6.422  1.00  0.00     0.054 A 
BRANCH 101 102
ATOM    102  S   UNL     1      -7.600  17.511  -6.593  1.00  0.00     0.124 S 
ATOM    103  O   UNL     1      -9.023  17.187  -6.539  1.00  0.00    -0.237 OA
ATOM    104  O   UNL     1      -7.076  18.234  -5.437  1.00  0.00    -0.237 OA
ATOM    105  O   UNL     1      -7.117  17.985  -7.887  1.00  0.00    -0.744 OA
ENDBRANCH 101 102
ENDBRANCH  75  96
ENDBRANCH  49  50
ENDBRANCH  41  44
ENDBRANCH  39  40
ENDBRANCH   1  39
TORSDOF 15
