REMARK SMILES CCOc1cc(NC(=O)c2c(C(=O)NCCCCNC(=O)c3ccc(-c4c5nc(c(-c6ccc(S(=O)(=O)[O-])cc6)c6ccc([nH]6)c(-c6ccc(S(=O)(=O)[O-])cc6)c6nc(c(-c7ccc(S(=O)(=O)[O-])cc7)c7ccc4[nH]7)C=C6)C=C5)cc3)cnn2C)ccc1OC(F)F
REMARK SMILES IDX 16 1 15 2 14 3 12 4 13 5 11 7 10 8 84 9 82 10 83 11 85 12
REMARK SMILES IDX 8 13 7 14 9 16 6 17 4 18 5 19 88 20 87 21 86 22 3 23 2 24
REMARK SMILES IDX 1 25 89 26 90 27 91 28 92 29 17 30 18 31 19 32 20 33 21 35
REMARK SMILES IDX 22 36 23 37 81 38 24 39 80 40 25 41 26 42 27 43 74 44 28 45
REMARK SMILES IDX 79 46 73 47 75 48 29 49 78 50 72 51 71 52 30 54 60 55 41 56
REMARK SMILES IDX 59 57 42 58 45 59 58 60 76 61 43 62 44 63 57 65 77 66 46 67
REMARK SMILES IDX 31 68 32 69 40 70 33 71 39 72 34 73 35 74 36 75 37 76 38 77
REMARK SMILES IDX 61 78 62 79 70 80 63 81 69 82 64 83 65 84 66 85 67 86 68 87
REMARK SMILES IDX 47 88 48 89 56 90 49 91 55 92 50 93 51 94 52 95 53 96 54 97
REMARK H PARENT 14 6 7 15 19 34 75 53 45 64
REMARK Flexibility Score: inf
ROOT
ATOM      1  C   UNL     1       4.065   4.001  -6.920  1.00  0.00     0.023 C 
ENDROOT
BRANCH   1   2
ATOM      2  C   UNL     1       3.565   4.781  -5.704  1.00  0.00     0.116 C 
BRANCH   2   3
ATOM      3  N   UNL     1       2.388   5.579  -5.948  1.00  0.00    -0.352 N 
ATOM      4  C   UNL     1       1.440   6.097  -5.108  1.00  0.00     0.255 C 
ATOM      5  O   UNL     1       0.513   6.702  -5.651  1.00  0.00    -0.269 OA
ATOM      6  H   UNL     1       2.239   5.792  -6.898  1.00  0.00     0.163 HD
BRANCH   4   7
ATOM      7  C   UNL     1       1.437   5.923  -3.662  1.00  0.00     0.090 A 
ATOM      8  C   UNL     1       2.429   5.774  -2.695  1.00  0.00     0.138 A 
ATOM      9  N   UNL     1       1.779   5.845  -1.483  1.00  0.00    -0.262 N 
ATOM     10  C   UNL     1       0.238   5.962  -2.897  1.00  0.00     0.149 A 
ATOM     11  N   UNL     1       0.441   5.844  -1.585  1.00  0.00    -0.180 NA
ATOM     12  C   UNL     1       2.361   5.885  -0.160  1.00  0.00     0.174 C 
BRANCH   8  13
ATOM     13  C   UNL     1       3.854   5.742  -2.801  1.00  0.00     0.274 C 
ATOM     14  N   UNL     1       4.557   4.577  -2.577  1.00  0.00    -0.321 N 
ATOM     15  H   UNL     1       5.531   4.709  -2.624  1.00  0.00     0.170 HD
ATOM     16  O   UNL     1       4.505   6.745  -3.087  1.00  0.00    -0.267 OA
BRANCH  14  17
ATOM     17  C   UNL     1       4.205   3.240  -2.297  1.00  0.00     0.045 A 
ATOM     18  C   UNL     1       2.676   1.404  -1.770  1.00  0.00     0.163 A 
ATOM     19  C   UNL     1       2.914   2.758  -2.075  1.00  0.00     0.076 A 
ATOM     20  C   UNL     1       3.736   0.494  -1.774  1.00  0.00     0.168 A 
ATOM     21  C   UNL     1       5.023   0.961  -2.045  1.00  0.00     0.053 A 
ATOM     22  C   UNL     1       5.259   2.320  -2.274  1.00  0.00     0.030 A 
BRANCH  18  23
ATOM     23  O   UNL     1       1.404   0.945  -1.555  1.00  0.00    -0.490 OA
BRANCH  23  24
ATOM     24  C   UNL     1       0.606   1.778  -0.704  1.00  0.00     0.226 C 
ATOM     25  C   UNL     1      -0.422   0.904  -0.006  1.00  0.00     0.049 C 
ENDBRANCH  23  24
ENDBRANCH  18  23
BRANCH  20  26
ATOM     26  O   UNL     1       3.660  -0.858  -1.600  1.00  0.00    -0.431 OA
BRANCH  26  27
ATOM     27  C   UNL     1       2.764  -1.357  -0.614  1.00  0.00     0.542 C 
ATOM     28  F   UNL     1       2.661  -0.509   0.439  1.00  0.00    -0.167 F 
ATOM     29  F   UNL     1       1.538  -1.560  -1.147  1.00  0.00    -0.167 F 
ENDBRANCH  26  27
ENDBRANCH  20  26
ENDBRANCH  14  17
ENDBRANCH   8  13
ENDBRANCH   4   7
ENDBRANCH   2   3
ENDBRANCH   1   2
BRANCH   1  30
ATOM     30  C   UNL     1       4.292   4.798  -8.210  1.00  0.00     0.023 C 
BRANCH  30  31
ATOM     31  C   UNL     1       5.039   6.123  -8.075  1.00  0.00     0.116 C 
BRANCH  31  32
ATOM     32  N   UNL     1       6.404   5.970  -7.600  1.00  0.00    -0.352 N 
ATOM     33  C   UNL     1       7.610   6.029  -8.257  1.00  0.00     0.251 C 
ATOM     34  H   UNL     1       6.478   5.793  -6.634  1.00  0.00     0.163 HD
ATOM     35  O   UNL     1       8.632   5.726  -7.641  1.00  0.00    -0.269 OA
BRANCH  33  36
ATOM     36  C   UNL     1       7.707   6.408  -9.688  1.00  0.00     0.039 A 
ATOM     37  C   UNL     1       8.585   5.687 -10.507  1.00  0.00     0.014 A 
ATOM     38  C   UNL     1       6.996   7.482 -10.228  1.00  0.00     0.014 A 
ATOM     39  C   UNL     1       8.672   5.975 -11.873  1.00  0.00     0.010 A 
ATOM     40  C   UNL     1       7.035   7.729 -11.603  1.00  0.00     0.010 A 
ATOM     41  C   UNL     1       7.858   6.965 -12.444  1.00  0.00    -0.014 A 
BRANCH  41  42
ATOM     42  C   UNL     1       7.807   7.177 -13.915  1.00  0.00     0.031 A 
ATOM     43  C   UNL     1       8.245   8.480 -14.526  1.00  0.00     0.074 A 
ATOM     44  C   UNL     1       7.278   6.221 -14.705  1.00  0.00     0.049 A 
ATOM     45  N   UNL     1       8.114   8.894 -15.761  1.00  0.00    -0.248 NA
ATOM     46  C   UNL     1       8.893   9.448 -13.629  1.00  0.00     0.031 C 
ATOM     47  C   UNL     1       6.785   4.918 -14.249  1.00  0.00     0.029 A 
ATOM     48  N   UNL     1       7.050   6.205 -16.059  1.00  0.00    -0.354 N 
ATOM     49  C   UNL     1       8.618  10.188 -15.782  1.00  0.00     0.074 A 
ATOM     50  C   UNL     1       9.065  10.487 -14.436  1.00  0.00     0.031 C 
ATOM     51  C   UNL     1       6.330   4.226 -15.305  1.00  0.00     0.029 A 
ATOM     52  C   UNL     1       6.458   5.049 -16.504  1.00  0.00     0.049 A 
ATOM     53  H   UNL     1       7.289   6.953 -16.654  1.00  0.00     0.167 HD
ATOM     54  C   UNL     1       8.698  11.053 -16.822  1.00  0.00     0.031 A 
ATOM     55  C   UNL     1       6.041   4.689 -17.733  1.00  0.00     0.031 A 
ATOM     56  C   UNL     1       8.294  10.757 -18.170  1.00  0.00     0.049 A 
ATOM     57  C   UNL     1       6.183   5.645 -18.879  1.00  0.00     0.074 A 
ATOM     58  C   UNL     1       8.376  11.565 -19.292  1.00  0.00     0.029 A 
ATOM     59  N   UNL     1       7.742   9.556 -18.583  1.00  0.00    -0.354 N 
ATOM     60  N   UNL     1       6.661   6.865 -18.875  1.00  0.00    -0.248 NA
ATOM     61  C   UNL     1       5.721   5.177 -20.194  1.00  0.00     0.031 C 
ATOM     62  C   UNL     1       7.863  10.852 -20.384  1.00  0.00     0.029 A 
ATOM     63  C   UNL     1       7.477   9.598 -19.942  1.00  0.00     0.049 A 
ATOM     64  H   UNL     1       7.564   8.785 -17.997  1.00  0.00     0.167 HD
ATOM     65  C   UNL     1       6.559   7.312 -20.186  1.00  0.00     0.074 A 
ATOM     66  C   UNL     1       5.984   6.229 -20.959  1.00  0.00     0.031 C 
ATOM     67  C   UNL     1       6.907   8.516 -20.699  1.00  0.00     0.031 A 
BRANCH  54  68
ATOM     68  C   UNL     1       9.228  12.426 -16.523  1.00  0.00    -0.014 A 
ATOM     69  C   UNL     1      10.610  12.661 -16.419  1.00  0.00     0.010 A 
ATOM     70  C   UNL     1       8.330  13.493 -16.346  1.00  0.00     0.010 A 
ATOM     71  C   UNL     1      11.085  13.935 -16.098  1.00  0.00     0.020 A 
ATOM     72  C   UNL     1       8.802  14.771 -16.037  1.00  0.00     0.020 A 
ATOM     73  C   UNL     1      10.177  14.979 -15.893  1.00  0.00     0.054 A 
BRANCH  73  74
ATOM     74  S   UNL     1      10.798  16.629 -15.464  1.00  0.00     0.124 S 
ATOM     75  O   UNL     1      10.888  16.543 -14.009  1.00  0.00    -0.237 OA
ATOM     76  O   UNL     1      12.076  16.697 -16.168  1.00  0.00    -0.237 OA
ATOM     77  O   UNL     1       9.763  17.524 -15.975  1.00  0.00    -0.744 OA
ENDBRANCH  73  74
ENDBRANCH  54  68
BRANCH  55  78
ATOM     78  C   UNL     1       5.438   3.349 -17.933  1.00  0.00    -0.014 A 
ATOM     79  C   UNL     1       6.224   2.290 -18.417  1.00  0.00     0.010 A 
ATOM     80  C   UNL     1       4.095   3.116 -17.592  1.00  0.00     0.010 A 
ATOM     81  C   UNL     1       5.676   1.013 -18.556  1.00  0.00     0.020 A 
ATOM     82  C   UNL     1       3.547   1.837 -17.719  1.00  0.00     0.020 A 
ATOM     83  C   UNL     1       4.340   0.794 -18.205  1.00  0.00     0.054 A 
BRANCH  83  84
ATOM     84  S   UNL     1       3.657  -0.884 -18.302  1.00  0.00     0.124 S 
ATOM     85  O   UNL     1       3.164  -0.932 -19.674  1.00  0.00    -0.237 OA
ATOM     86  O   UNL     1       4.816  -1.727 -18.017  1.00  0.00    -0.237 OA
ATOM     87  O   UNL     1       2.630  -0.884 -17.262  1.00  0.00    -0.744 OA
ENDBRANCH  83  84
ENDBRANCH  55  78
BRANCH  67  88
ATOM     88  C   UNL     1       6.687   8.720 -22.169  1.00  0.00    -0.014 A 
ATOM     89  C   UNL     1       5.426   9.106 -22.657  1.00  0.00     0.010 A 
ATOM     90  C   UNL     1       7.757   8.561 -23.066  1.00  0.00     0.010 A 
ATOM     91  C   UNL     1       5.234   9.313 -24.025  1.00  0.00     0.020 A 
ATOM     92  C   UNL     1       7.570   8.775 -24.434  1.00  0.00     0.020 A 
ATOM     93  C   UNL     1       6.306   9.139 -24.907  1.00  0.00     0.054 A 
BRANCH  93  94
ATOM     94  S   UNL     1       6.061   9.453 -26.677  1.00  0.00     0.124 S 
ATOM     95  O   UNL     1       5.563   8.163 -27.147  1.00  0.00    -0.237 OA
ATOM     96  O   UNL     1       5.088  10.543 -26.689  1.00  0.00    -0.237 OA
ATOM     97  O   UNL     1       7.397   9.817 -27.145  1.00  0.00    -0.744 OA
ENDBRANCH  93  94
ENDBRANCH  67  88
ENDBRANCH  41  42
ENDBRANCH  33  36
ENDBRANCH  31  32
ENDBRANCH  30  31
ENDBRANCH   1  30
TORSDOF 20
