REMARK SMILES Cc1cccc(N2CCN(c3ncc(NC(=O)c4ccccc4F)cc3C(=O)NCCCCNC(=O)c3ccc(-c4c5nc(c(-c6ccc(S(=O)(=O)[O-])cc6)c6ccc([nH]6)c(-c6ccc(S(=O)(=O)[O-])cc6)c6nc(c(-c7ccc(S(=O)(=O)[O-])cc7)c7ccc4[nH]7)C=C6)C=C5)cc3)C[C@@H]2C)c1
REMARK SMILES IDX 32 1 31 2 30 3 29 4 27 5 28 6 26 8 11 9 12 10 13 11 25 12
REMARK SMILES IDX 14 13 10 14 7 15 8 16 98 17 9 18 97 19 99 20 6 21 1 22 2 23
REMARK SMILES IDX 3 24 100 25 4 26 5 27 15 28 16 29 17 31 18 32 19 33 23 34
REMARK SMILES IDX 20 35 22 36 24 37 21 38 33 39 34 40 35 41 36 43 37 44 38 45
REMARK SMILES IDX 96 46 39 47 95 48 40 49 41 50 42 51 89 52 43 53 94 54 88 55
REMARK SMILES IDX 90 56 44 57 93 58 87 59 86 60 45 62 75 63 56 64 74 65 57 66
REMARK SMILES IDX 60 67 73 68 91 69 58 70 59 71 72 73 92 74 61 75 46 76 47 77
REMARK SMILES IDX 55 78 48 79 54 80 49 81 50 82 51 83 52 84 53 85 76 86 77 87
REMARK SMILES IDX 85 88 78 89 84 90 79 91 80 92 81 93 82 94 83 95 62 96 63 97
REMARK SMILES IDX 71 98 64 99 70 100 65 101 66 102 67 103 68 104 69 105
REMARK H PARENT 29 7 15 30 34 42 90 61 60 72
REMARK Flexibility Score: inf
ROOT
ATOM      1  C   UNL     1      -6.101   7.471  -4.611  1.00  0.00     0.023 C 
ENDROOT
BRANCH   1   2
ATOM      2  C   UNL     1      -6.789   7.665  -3.252  1.00  0.00     0.023 C 
BRANCH   2   3
ATOM      3  C   UNL     1      -7.027   6.371  -2.445  1.00  0.00     0.116 C 
BRANCH   3   4
ATOM      4  N   UNL     1      -5.786   5.647  -2.216  1.00  0.00    -0.352 N 
ATOM      5  C   UNL     1      -4.698   6.060  -1.480  1.00  0.00     0.255 C 
ATOM      6  O   UNL     1      -3.607   6.067  -2.043  1.00  0.00    -0.269 OA
ATOM      7  H   UNL     1      -5.716   4.759  -2.636  1.00  0.00     0.163 HD
BRANCH   5   8
ATOM      8  C   UNL     1      -4.832   6.472  -0.060  1.00  0.00     0.084 A 
ATOM      9  C   UNL     1      -4.093   5.864   0.978  1.00  0.00     0.141 A 
ATOM     10  N   UNL     1      -4.254   6.282   2.268  1.00  0.00    -0.236 NA
ATOM     11  C   UNL     1      -5.136   7.276   2.538  1.00  0.00     0.139 A 
ATOM     12  C   UNL     1      -5.735   7.491   0.262  1.00  0.00     0.045 A 
ATOM     13  C   UNL     1      -5.907   7.901   1.574  1.00  0.00     0.060 A 
BRANCH   9  14
ATOM     14  N   UNL     1      -3.296   4.749   0.801  1.00  0.00    -0.352 N 
ATOM     15  N   UNL     1      -1.753   2.366   0.453  1.00  0.00    -0.365 N 
ATOM     16  C   UNL     1      -2.952   2.360   1.315  1.00  0.00     0.138 C 
ATOM     17  C   UNL     1      -1.696   3.433  -0.586  1.00  0.00     0.098 C 
ATOM     18  C   UNL     1      -3.243   3.764   1.893  1.00  0.00     0.139 C 
ATOM     19  C   UNL     1      -2.024   4.818   0.056  1.00  0.00     0.142 C 
ATOM     20  C   UNL     1      -2.646   3.102  -1.745  1.00  0.00     0.033 C 
BRANCH  15  21
ATOM     21  C   UNL     1      -1.081   1.173   0.221  1.00  0.00     0.037 A 
ATOM     22  C   UNL     1       2.536  -0.017  -0.130  1.00  0.00     0.044 C 
ATOM     23  C   UNL     1       1.038  -0.026  -0.073  1.00  0.00    -0.049 A 
ATOM     24  C   UNL     1       0.344  -1.237  -0.146  1.00  0.00     0.003 A 
ATOM     25  C   UNL     1       0.317   1.166   0.096  1.00  0.00     0.029 A 
ATOM     26  C   UNL     1      -1.044  -1.251  -0.053  1.00  0.00     0.002 A 
ATOM     27  C   UNL     1      -1.745  -0.058   0.135  1.00  0.00     0.026 A 
ENDBRANCH  15  21
ENDBRANCH   9  14
BRANCH  13  28
ATOM     28  N   UNL     1      -6.878   8.884   1.825  1.00  0.00    -0.320 N 
ATOM     29  C   UNL     1      -6.936   9.841   2.806  1.00  0.00     0.258 C 
ATOM     30  H   UNL     1      -7.636   8.887   1.197  1.00  0.00     0.170 HD
ATOM     31  O   UNL     1      -8.012  10.362   3.097  1.00  0.00    -0.269 OA
BRANCH  29  32
ATOM     32  C   UNL     1      -5.708  10.349   3.455  1.00  0.00     0.075 A 
ATOM     33  C   UNL     1      -5.786  10.772   4.788  1.00  0.00     0.017 A 
ATOM     34  C   UNL     1      -4.516  10.532   2.751  1.00  0.00     0.135 A 
ATOM     35  C   UNL     1      -4.662  11.313   5.417  1.00  0.00     0.001 A 
ATOM     36  C   UNL     1      -3.388  11.045   3.383  1.00  0.00     0.040 A 
ATOM     37  F   UNL     1      -4.427  10.260   1.442  1.00  0.00    -0.206 F 
ATOM     38  C   UNL     1      -3.459  11.433   4.719  1.00  0.00     0.003 A 
ENDBRANCH  29  32
ENDBRANCH  13  28
ENDBRANCH   5   8
ENDBRANCH   3   4
ENDBRANCH   2   3
ENDBRANCH   1   2
BRANCH   1  39
ATOM     39  C   UNL     1      -6.958   6.723  -5.617  1.00  0.00     0.116 C 
BRANCH  39  40
ATOM     40  N   UNL     1      -7.692   7.562  -6.549  1.00  0.00    -0.352 N 
ATOM     41  C   UNL     1      -8.234   7.055  -7.736  1.00  0.00     0.251 C 
ATOM     42  H   UNL     1      -7.812   8.517  -6.340  1.00  0.00     0.163 HD
ATOM     43  O   UNL     1      -8.090   7.544  -8.825  1.00  0.00    -0.269 OA
BRANCH  41  44
ATOM     44  C   UNL     1      -9.100   5.866  -7.534  1.00  0.00     0.039 A 
ATOM     45  C   UNL     1     -10.484   6.054  -7.477  1.00  0.00     0.014 A 
ATOM     46  C   UNL     1      -8.506   4.691  -7.083  1.00  0.00     0.014 A 
ATOM     47  C   UNL     1     -11.264   5.134  -6.785  1.00  0.00     0.010 A 
ATOM     48  C   UNL     1      -9.259   3.842  -6.307  1.00  0.00     0.010 A 
ATOM     49  C   UNL     1     -10.626   4.092  -6.121  1.00  0.00    -0.014 A 
BRANCH  49  50
ATOM     50  C   UNL     1     -11.268   3.192  -5.179  1.00  0.00     0.031 A 
ATOM     51  C   UNL     1     -11.524   1.802  -5.601  1.00  0.00     0.074 A 
ATOM     52  C   UNL     1     -11.427   3.585  -3.898  1.00  0.00     0.049 A 
ATOM     53  N   UNL     1     -12.200   0.941  -4.924  1.00  0.00    -0.248 NA
ATOM     54  C   UNL     1     -11.066   1.284  -6.890  1.00  0.00     0.031 C 
ATOM     55  C   UNL     1     -11.641   2.752  -2.719  1.00  0.00     0.029 A 
ATOM     56  N   UNL     1     -11.643   4.872  -3.435  1.00  0.00    -0.354 N 
ATOM     57  C   UNL     1     -11.994  -0.289  -5.505  1.00  0.00     0.074 A 
ATOM     58  C   UNL     1     -11.387  -0.006  -6.781  1.00  0.00     0.031 C 
ATOM     59  C   UNL     1     -12.177   3.506  -1.744  1.00  0.00     0.029 A 
ATOM     60  C   UNL     1     -12.492   4.802  -2.326  1.00  0.00     0.049 A 
ATOM     61  H   UNL     1     -11.265   5.695  -3.821  1.00  0.00     0.167 HD
ATOM     62  C   UNL     1     -12.221  -1.406  -4.759  1.00  0.00     0.031 A 
ATOM     63  C   UNL     1     -13.763   5.305  -2.410  1.00  0.00     0.031 A 
ATOM     64  C   UNL     1     -12.969  -1.069  -3.546  1.00  0.00     0.049 A 
ATOM     65  C   UNL     1     -14.837   4.233  -2.330  1.00  0.00     0.074 A 
ATOM     66  C   UNL     1     -12.617  -0.920  -2.215  1.00  0.00     0.029 A 
ATOM     67  N   UNL     1     -14.226  -0.484  -3.685  1.00  0.00    -0.354 N 
ATOM     68  N   UNL     1     -14.630   2.960  -2.539  1.00  0.00    -0.248 NA
ATOM     69  C   UNL     1     -16.225   4.514  -1.975  1.00  0.00     0.031 C 
ATOM     70  C   UNL     1     -13.615  -0.117  -1.590  1.00  0.00     0.029 A 
ATOM     71  C   UNL     1     -14.594   0.175  -2.527  1.00  0.00     0.049 A 
ATOM     72  H   UNL     1     -14.778  -0.533  -4.499  1.00  0.00     0.167 HD
ATOM     73  C   UNL     1     -15.789   2.257  -2.335  1.00  0.00     0.074 A 
ATOM     74  C   UNL     1     -16.758   3.279  -1.975  1.00  0.00     0.031 C 
ATOM     75  C   UNL     1     -15.864   0.896  -2.467  1.00  0.00     0.031 A 
BRANCH  62  76
ATOM     76  C   UNL     1     -11.531  -2.735  -5.005  1.00  0.00    -0.014 A 
ATOM     77  C   UNL     1     -11.513  -3.711  -3.986  1.00  0.00     0.010 A 
ATOM     78  C   UNL     1     -10.787  -3.050  -6.160  1.00  0.00     0.010 A 
ATOM     79  C   UNL     1     -10.756  -4.893  -4.095  1.00  0.00     0.020 A 
ATOM     80  C   UNL     1     -10.026  -4.222  -6.285  1.00  0.00     0.020 A 
ATOM     81  C   UNL     1     -10.003  -5.134  -5.242  1.00  0.00     0.054 A 
BRANCH  81  82
ATOM     82  S   UNL     1      -8.990  -6.631  -5.359  1.00  0.00     0.124 S 
ATOM     83  O   UNL     1      -8.050  -6.461  -4.254  1.00  0.00    -0.237 OA
ATOM     84  O   UNL     1      -9.977  -7.693  -5.193  1.00  0.00    -0.237 OA
ATOM     85  O   UNL     1      -8.394  -6.544  -6.692  1.00  0.00    -0.744 OA
ENDBRANCH  81  82
ENDBRANCH  62  76
BRANCH  63  86
ATOM     86  C   UNL     1     -13.832   6.577  -3.199  1.00  0.00    -0.014 A 
ATOM     87  C   UNL     1     -13.165   7.697  -2.649  1.00  0.00     0.010 A 
ATOM     88  C   UNL     1     -14.085   6.560  -4.582  1.00  0.00     0.010 A 
ATOM     89  C   UNL     1     -12.569   8.652  -3.477  1.00  0.00     0.020 A 
ATOM     90  C   UNL     1     -13.506   7.535  -5.415  1.00  0.00     0.020 A 
ATOM     91  C   UNL     1     -12.678   8.515  -4.860  1.00  0.00     0.054 A 
BRANCH  91  92
ATOM     92  S   UNL     1     -11.550   9.496  -5.901  1.00  0.00     0.124 S 
ATOM     93  O   UNL     1     -11.843  10.862  -5.480  1.00  0.00    -0.237 OA
ATOM     94  O   UNL     1     -10.236   8.980  -5.500  1.00  0.00    -0.237 OA
ATOM     95  O   UNL     1     -11.959   9.156  -7.259  1.00  0.00    -0.744 OA
ENDBRANCH  91  92
ENDBRANCH  63  86
BRANCH  75  96
ATOM     96  C   UNL     1     -17.139   0.077  -2.489  1.00  0.00    -0.014 A 
ATOM     97  C   UNL     1     -18.414   0.601  -2.751  1.00  0.00     0.010 A 
ATOM     98  C   UNL     1     -17.047  -1.333  -2.367  1.00  0.00     0.010 A 
ATOM     99  C   UNL     1     -19.546  -0.226  -2.819  1.00  0.00     0.020 A 
ATOM    100  C   UNL     1     -18.158  -2.172  -2.489  1.00  0.00     0.020 A 
ATOM    101  C   UNL     1     -19.411  -1.607  -2.687  1.00  0.00     0.054 A 
BRANCH 101 102
ATOM    102  S   UNL     1     -20.869  -2.667  -2.848  1.00  0.00     0.124 S 
ATOM    103  O   UNL     1     -21.409  -2.640  -1.491  1.00  0.00    -0.237 OA
ATOM    104  O   UNL     1     -21.668  -1.971  -3.854  1.00  0.00    -0.237 OA
ATOM    105  O   UNL     1     -20.316  -3.948  -3.279  1.00  0.00    -0.744 OA
ENDBRANCH 101 102
ENDBRANCH  75  96
ENDBRANCH  49  50
ENDBRANCH  41  44
ENDBRANCH  39  40
ENDBRANCH   1  39
TORSDOF 18
