REMARK SMILES Cc1cc(F)c(C(=O)NCCCCNC(=O)c2ccc(-c3c4nc(c(-c5ccc(S(=O)(=O)[O-])cc5)c5ccc([nH]5)c(-c5ccc(S(=O)(=O)[O-])cc5)c5nc(c(-c6ccc(S(=O)(=O)[O-])cc6)c6ccc3[nH]6)C=C5)C=C4)cc2)cc1F
REMARK SMILES IDX 13 1 12 2 11 3 10 4 9 5 7 6 8 7 6 9 1 10 2 11 3 12 78 13
REMARK SMILES IDX 4 14 77 15 79 16 5 17 14 18 15 19 16 21 17 22 18 23 76 24
REMARK SMILES IDX 19 25 75 26 20 27 21 28 22 29 69 30 23 31 74 32 68 33 70 34
REMARK SMILES IDX 24 35 73 36 67 37 66 38 25 40 55 41 36 42 54 43 37 44 40 45
REMARK SMILES IDX 53 46 71 47 38 48 39 49 52 51 72 52 41 53 26 54 27 55 35 56
REMARK SMILES IDX 28 57 34 58 29 59 30 60 31 61 32 62 33 63 56 64 57 65 65 66
REMARK SMILES IDX 58 67 64 68 59 69 60 70 61 71 62 72 63 73 42 74 43 75 51 76
REMARK SMILES IDX 44 77 50 78 45 79 46 80 47 81 48 82 49 83
REMARK H PARENT 9 8 14 20 70 39 40 50
REMARK Flexibility Score: inf
ROOT
ATOM      1  C   UNL     1      -1.334   6.069   6.519  1.00  0.00     0.116 C 
ENDROOT
BRANCH   1   2
ATOM      2  C   UNL     1      -2.412   5.535   5.584  1.00  0.00     0.023 C 
BRANCH   2   3
ATOM      3  C   UNL     1      -1.929   4.913   4.278  1.00  0.00     0.023 C 
BRANCH   3   4
ATOM      4  C   UNL     1      -0.796   3.897   4.383  1.00  0.00     0.116 C 
BRANCH   4   5
ATOM      5  N   UNL     1      -1.078   2.770   5.256  1.00  0.00    -0.352 N 
ATOM      6  C   UNL     1      -0.830   1.427   5.090  1.00  0.00     0.254 C 
ATOM      7  O   UNL     1      -1.095   0.649   6.000  1.00  0.00    -0.269 OA
ATOM      8  H   UNL     1      -1.518   3.006   6.105  1.00  0.00     0.163 HD
BRANCH   6   9
ATOM      9  C   UNL     1      -0.260   0.908   3.830  1.00  0.00     0.078 A 
ATOM     10  C   UNL     1       1.099  -0.470  -0.017  1.00  0.00     0.047 C 
ATOM     11  C   UNL     1       0.668  -0.051   1.355  1.00  0.00    -0.012 A 
ATOM     12  C   UNL     1      -0.386  -0.695   2.010  1.00  0.00     0.046 A 
ATOM     13  C   UNL     1       1.277   1.041   1.980  1.00  0.00     0.127 A 
ATOM     14  C   UNL     1      -0.843  -0.215   3.239  1.00  0.00     0.136 A 
ATOM     15  C   UNL     1       0.848   1.502   3.221  1.00  0.00     0.056 A 
ATOM     16  F   UNL     1       2.282   1.682   1.369  1.00  0.00    -0.207 F 
ATOM     17  F   UNL     1      -1.884  -0.840   3.808  1.00  0.00    -0.206 F 
ENDBRANCH   6   9
ENDBRANCH   4   5
ENDBRANCH   3   4
ENDBRANCH   2   3
ENDBRANCH   1   2
BRANCH   1  18
ATOM     18  N   UNL     1      -0.499   7.109   5.935  1.00  0.00    -0.352 N 
ATOM     19  C   UNL     1      -0.238   8.393   6.370  1.00  0.00     0.251 C 
ATOM     20  H   UNL     1      -0.050   6.856   5.096  1.00  0.00     0.163 HD
ATOM     21  O   UNL     1       0.453   9.135   5.690  1.00  0.00    -0.269 OA
BRANCH  19  22
ATOM     22  C   UNL     1      -0.844   8.886   7.630  1.00  0.00     0.039 A 
ATOM     23  C   UNL     1      -0.853   8.100   8.781  1.00  0.00     0.014 A 
ATOM     24  C   UNL     1      -1.458  10.143   7.640  1.00  0.00     0.014 A 
ATOM     25  C   UNL     1      -1.656   8.467   9.857  1.00  0.00     0.010 A 
ATOM     26  C   UNL     1      -2.182  10.556   8.763  1.00  0.00     0.010 A 
ATOM     27  C   UNL     1      -2.345   9.691   9.855  1.00  0.00    -0.014 A 
BRANCH  27  28
ATOM     28  C   UNL     1      -3.246  10.023  10.993  1.00  0.00     0.031 A 
ATOM     29  C   UNL     1      -4.732  10.176  10.785  1.00  0.00     0.074 A 
ATOM     30  C   UNL     1      -2.733  10.103  12.238  1.00  0.00     0.049 A 
ATOM     31  N   UNL     1      -5.665  10.407  11.674  1.00  0.00    -0.248 NA
ATOM     32  C   UNL     1      -5.240  10.054   9.408  1.00  0.00     0.031 C 
ATOM     33  C   UNL     1      -1.316   9.949  12.573  1.00  0.00     0.029 A 
ATOM     34  N   UNL     1      -3.343  10.288  13.454  1.00  0.00    -0.354 N 
ATOM     35  C   UNL     1      -6.861  10.474  10.967  1.00  0.00     0.074 A 
ATOM     36  C   UNL     1      -6.536  10.289   9.570  1.00  0.00     0.031 C 
ATOM     37  C   UNL     1      -1.175   9.966  13.905  1.00  0.00     0.029 A 
ATOM     38  C   UNL     1      -2.478  10.206  14.520  1.00  0.00     0.049 A 
ATOM     39  H   UNL     1      -4.307  10.463  13.553  1.00  0.00     0.167 HD
ATOM     40  C   UNL     1      -8.117  10.658  11.440  1.00  0.00     0.031 A 
ATOM     41  C   UNL     1      -2.696  10.313  15.846  1.00  0.00     0.031 A 
ATOM     42  C   UNL     1      -8.441  10.821  12.833  1.00  0.00     0.049 A 
ATOM     43  C   UNL     1      -4.091  10.557  16.343  1.00  0.00     0.074 A 
ATOM     44  C   UNL     1      -9.688  11.004  13.405  1.00  0.00     0.029 A 
ATOM     45  N   UNL     1      -7.522  10.810  13.872  1.00  0.00    -0.354 N 
ATOM     46  N   UNL     1      -5.204  10.632  15.654  1.00  0.00    -0.248 NA
ATOM     47  C   UNL     1      -4.262  10.738  17.791  1.00  0.00     0.031 C 
ATOM     48  C   UNL     1      -9.519  11.158  14.783  1.00  0.00     0.029 A 
ATOM     49  C   UNL     1      -8.173  11.008  15.078  1.00  0.00     0.049 A 
ATOM     50  H   UNL     1      -6.552  10.682  13.767  1.00  0.00     0.167 HD
ATOM     51  C   UNL     1      -6.209  10.869  16.583  1.00  0.00     0.074 A 
ATOM     52  C   UNL     1      -5.577  10.900  17.886  1.00  0.00     0.031 C 
ATOM     53  C   UNL     1      -7.535  11.050  16.370  1.00  0.00     0.031 A 
BRANCH  40  54
ATOM     54  C   UNL     1      -9.256  10.697  10.453  1.00  0.00    -0.014 A 
ATOM     55  C   UNL     1      -9.945  11.904  10.232  1.00  0.00     0.010 A 
ATOM     56  C   UNL     1      -9.720   9.522   9.836  1.00  0.00     0.010 A 
ATOM     57  C   UNL     1     -11.093  11.932   9.434  1.00  0.00     0.020 A 
ATOM     58  C   UNL     1     -10.853   9.551   9.017  1.00  0.00     0.020 A 
ATOM     59  C   UNL     1     -11.545  10.752   8.839  1.00  0.00     0.054 A 
BRANCH  59  60
ATOM     60  S   UNL     1     -13.045  10.801   7.819  1.00  0.00     0.124 S 
ATOM     61  O   UNL     1     -14.102  10.839   8.824  1.00  0.00    -0.237 OA
ATOM     62  O   UNL     1     -12.866  12.027   7.043  1.00  0.00    -0.237 OA
ATOM     63  O   UNL     1     -12.966   9.567   7.039  1.00  0.00    -0.744 OA
ENDBRANCH  59  60
ENDBRANCH  40  54
BRANCH  41  64
ATOM     64  C   UNL     1      -1.546  10.169  16.779  1.00  0.00    -0.014 A 
ATOM     65  C   UNL     1      -0.526  11.139  16.803  1.00  0.00     0.010 A 
ATOM     66  C   UNL     1      -1.411   9.014  17.569  1.00  0.00     0.010 A 
ATOM     67  C   UNL     1       0.637  10.927  17.545  1.00  0.00     0.020 A 
ATOM     68  C   UNL     1      -0.259   8.813  18.337  1.00  0.00     0.020 A 
ATOM     69  C   UNL     1       0.771   9.755  18.292  1.00  0.00     0.054 A 
BRANCH  69  70
ATOM     70  S   UNL     1       2.318   9.467  19.195  1.00  0.00     0.124 S 
ATOM     71  O   UNL     1       3.205   9.011  18.129  1.00  0.00    -0.237 OA
ATOM     72  O   UNL     1       2.621  10.787  19.744  1.00  0.00    -0.237 OA
ATOM     73  O   UNL     1       1.952   8.455  20.182  1.00  0.00    -0.744 OA
ENDBRANCH  69  70
ENDBRANCH  41  64
BRANCH  53  74
ATOM     74  C   UNL     1      -8.414  11.315  17.562  1.00  0.00    -0.014 A 
ATOM     75  C   UNL     1      -9.348  10.345  17.971  1.00  0.00     0.010 A 
ATOM     76  C   UNL     1      -8.407  12.571  18.192  1.00  0.00     0.010 A 
ATOM     77  C   UNL     1     -10.283  10.637  18.967  1.00  0.00     0.020 A 
ATOM     78  C   UNL     1      -9.325  12.858  19.207  1.00  0.00     0.020 A 
ATOM     79  C   UNL     1     -10.273  11.898  19.570  1.00  0.00     0.054 A 
BRANCH  79  80
ATOM     80  S   UNL     1     -11.514  12.274  20.838  1.00  0.00     0.124 S 
ATOM     81  O   UNL     1     -12.700  12.550  20.034  1.00  0.00    -0.237 OA
ATOM     82  O   UNL     1     -11.558  11.042  21.622  1.00  0.00    -0.237 OA
ATOM     83  O   UNL     1     -10.950  13.427  21.537  1.00  0.00    -0.744 OA
ENDBRANCH  79  80
ENDBRANCH  53  74
ENDBRANCH  27  28
ENDBRANCH  19  22
ENDBRANCH   1  18
TORSDOF 14
