REMARK SMILES CCn1cc(CC(=O)NCCCCNC(=O)c2ccc(-c3c4nc(c(-c5ccc(S(=O)(=O)[O-])cc5)c5ccc([nH]5)c(-c5ccc(S(=O)(=O)[O-])cc5)c5nc(c(-c6ccc(S(=O)(=O)[O-])cc6)c6ccc3[nH]6)C=C5)C=C4)cc2)c2ccccc21
REMARK SMILES IDX 12 1 11 2 10 3 9 4 7 5 8 6 6 8 5 9 3 10 4 11 82 12 77 13
REMARK SMILES IDX 81 14 78 15 80 16 79 17 2 18 1 19 13 20 14 21 15 22 16 24
REMARK SMILES IDX 17 25 18 26 76 27 19 28 75 29 20 30 21 31 22 32 69 33 23 34
REMARK SMILES IDX 74 35 68 36 70 37 24 38 73 39 67 40 66 41 25 43 55 44 36 45
REMARK SMILES IDX 54 46 37 47 40 48 53 49 71 50 38 51 39 52 52 54 72 55 41 56
REMARK SMILES IDX 26 57 27 58 35 59 28 60 34 61 29 62 30 63 31 64 32 65 33 66
REMARK SMILES IDX 56 67 57 68 65 69 58 70 64 71 59 72 60 73 61 74 62 75 63 76
REMARK SMILES IDX 42 77 43 78 51 79 44 80 50 81 45 82 46 83 47 84 48 85 49 86
REMARK H PARENT 9 7 14 23 70 42 40 53
REMARK Flexibility Score: inf
ROOT
ATOM      1  C   UNL     1       5.866  -2.944  -1.046  1.00  0.00     0.023 C 
ENDROOT
BRANCH   1   2
ATOM      2  C   UNL     1       4.716  -2.186  -1.726  1.00  0.00     0.023 C 
BRANCH   2   3
ATOM      3  C   UNL     1       4.795  -2.129  -3.251  1.00  0.00     0.116 C 
BRANCH   3   4
ATOM      4  N   UNL     1       4.587  -3.428  -3.862  1.00  0.00    -0.356 N 
ATOM      5  C   UNL     1       3.537  -3.855  -4.625  1.00  0.00     0.224 C 
ATOM      6  O   UNL     1       3.569  -5.004  -5.073  1.00  0.00    -0.275 OA
ATOM      7  H   UNL     1       5.299  -4.090  -3.707  1.00  0.00     0.163 HD
BRANCH   5   8
ATOM      8  C   UNL     1       2.403  -2.902  -4.974  1.00  0.00     0.137 C 
BRANCH   8   9
ATOM      9  C   UNL     1       1.587  -2.488  -3.791  1.00  0.00    -0.013 A 
ATOM     10  N   UNL     1       0.645  -1.234  -2.199  1.00  0.00    -0.347 N 
ATOM     11  C   UNL     1       1.369  -1.191  -3.362  1.00  0.00     0.091 A 
ATOM     12  C   UNL     1       0.306  -2.536  -1.902  1.00  0.00     0.048 A 
ATOM     13  C   UNL     1       0.890  -3.345  -2.882  1.00  0.00     0.003 A 
ATOM     14  C   UNL     1      -0.442  -3.077  -0.843  1.00  0.00     0.027 A 
ATOM     15  C   UNL     1       0.722  -4.743  -2.796  1.00  0.00     0.010 A 
ATOM     16  C   UNL     1      -0.584  -4.465  -0.775  1.00  0.00     0.002 A 
ATOM     17  C   UNL     1      -0.012  -5.289  -1.738  1.00  0.00     0.001 A 
BRANCH  10  18
ATOM     18  C   UNL     1       0.291  -0.062  -1.415  1.00  0.00     0.119 C 
ATOM     19  C   UNL     1       1.050   0.031  -0.101  1.00  0.00     0.027 C 
ENDBRANCH  10  18
ENDBRANCH   8   9
ENDBRANCH   5   8
ENDBRANCH   3   4
ENDBRANCH   2   3
ENDBRANCH   1   2
BRANCH   1  20
ATOM     20  C   UNL     1       7.271  -2.512  -1.474  1.00  0.00     0.116 C 
BRANCH  20  21
ATOM     21  N   UNL     1       7.512  -1.089  -1.339  1.00  0.00    -0.352 N 
ATOM     22  C   UNL     1       8.010  -0.282  -0.355  1.00  0.00     0.251 C 
ATOM     23  H   UNL     1       7.257  -0.586  -2.146  1.00  0.00     0.163 HD
ATOM     24  O   UNL     1       8.197   0.896  -0.677  1.00  0.00    -0.269 OA
BRANCH  22  25
ATOM     25  C   UNL     1       8.295  -0.696   1.048  1.00  0.00     0.039 A 
ATOM     26  C   UNL     1       8.134  -1.980   1.566  1.00  0.00     0.014 A 
ATOM     27  C   UNL     1       8.707   0.330   1.923  1.00  0.00     0.014 A 
ATOM     28  C   UNL     1       8.313  -2.220   2.926  1.00  0.00     0.010 A 
ATOM     29  C   UNL     1       8.893   0.095   3.283  1.00  0.00     0.010 A 
ATOM     30  C   UNL     1       8.659  -1.177   3.792  1.00  0.00    -0.014 A 
BRANCH  30  31
ATOM     31  C   UNL     1       8.840  -1.502   5.205  1.00  0.00     0.031 A 
ATOM     32  C   UNL     1       9.922  -2.478   5.496  1.00  0.00     0.074 A 
ATOM     33  C   UNL     1       8.145  -0.940   6.215  1.00  0.00     0.049 A 
ATOM     34  N   UNL     1       9.800  -3.670   5.980  1.00  0.00    -0.248 NA
ATOM     35  C   UNL     1      11.295  -2.123   5.110  1.00  0.00     0.031 C 
ATOM     36  C   UNL     1       7.253   0.221   6.146  1.00  0.00     0.029 A 
ATOM     37  N   UNL     1       8.162  -1.242   7.548  1.00  0.00    -0.354 N 
ATOM     38  C   UNL     1      11.095  -4.159   6.131  1.00  0.00     0.074 A 
ATOM     39  C   UNL     1      11.963  -3.223   5.460  1.00  0.00     0.031 C 
ATOM     40  C   UNL     1       7.000   0.663   7.400  1.00  0.00     0.029 A 
ATOM     41  C   UNL     1       7.564  -0.281   8.350  1.00  0.00     0.049 A 
ATOM     42  H   UNL     1       8.563  -2.067   7.906  1.00  0.00     0.167 HD
ATOM     43  C   UNL     1      11.376  -5.193   6.971  1.00  0.00     0.031 A 
ATOM     44  C   UNL     1       7.543  -0.243   9.703  1.00  0.00     0.031 A 
ATOM     45  C   UNL     1      10.186  -5.871   7.405  1.00  0.00     0.049 A 
ATOM     46  C   UNL     1       7.720  -1.620  10.211  1.00  0.00     0.074 A 
ATOM     47  C   UNL     1       9.333  -6.819   6.889  1.00  0.00     0.029 A 
ATOM     48  N   UNL     1       9.562  -5.292   8.479  1.00  0.00    -0.354 N 
ATOM     49  N   UNL     1       6.847  -2.569  10.021  1.00  0.00    -0.248 NA
ATOM     50  C   UNL     1       9.018  -2.056  10.713  1.00  0.00     0.031 C 
ATOM     51  C   UNL     1       8.090  -6.640   7.564  1.00  0.00     0.029 A 
ATOM     52  C   UNL     1       8.226  -5.607   8.490  1.00  0.00     0.049 A 
ATOM     53  H   UNL     1      10.010  -4.728   9.149  1.00  0.00     0.167 HD
ATOM     54  C   UNL     1       7.603  -3.722   9.967  1.00  0.00     0.074 A 
ATOM     55  C   UNL     1       8.879  -3.377  10.575  1.00  0.00     0.031 C 
ATOM     56  C   UNL     1       7.254  -4.755   9.150  1.00  0.00     0.031 A 
BRANCH  43  57
ATOM     57  C   UNL     1      12.681  -5.367   7.712  1.00  0.00    -0.014 A 
ATOM     58  C   UNL     1      13.624  -4.330   7.857  1.00  0.00     0.010 A 
ATOM     59  C   UNL     1      12.867  -6.512   8.518  1.00  0.00     0.010 A 
ATOM     60  C   UNL     1      14.703  -4.428   8.740  1.00  0.00     0.020 A 
ATOM     61  C   UNL     1      13.925  -6.605   9.435  1.00  0.00     0.020 A 
ATOM     62  C   UNL     1      14.841  -5.560   9.535  1.00  0.00     0.054 A 
BRANCH  62  63
ATOM     63  S   UNL     1      16.184  -5.597  10.748  1.00  0.00     0.124 S 
ATOM     64  O   UNL     1      17.363  -5.680   9.885  1.00  0.00    -0.237 OA
ATOM     65  O   UNL     1      16.009  -4.321  11.444  1.00  0.00    -0.237 OA
ATOM     66  O   UNL     1      15.904  -6.782  11.541  1.00  0.00    -0.744 OA
ENDBRANCH  62  63
ENDBRANCH  43  57
BRANCH  44  67
ATOM     67  C   UNL     1       7.679   0.939  10.584  1.00  0.00    -0.014 A 
ATOM     68  C   UNL     1       8.465   2.028  10.157  1.00  0.00     0.010 A 
ATOM     69  C   UNL     1       7.330   0.863  11.945  1.00  0.00     0.010 A 
ATOM     70  C   UNL     1       8.969   2.956  11.074  1.00  0.00     0.020 A 
ATOM     71  C   UNL     1       7.832   1.791  12.869  1.00  0.00     0.020 A 
ATOM     72  C   UNL     1       8.684   2.806  12.431  1.00  0.00     0.054 A 
BRANCH  72  73
ATOM     73  S   UNL     1       9.530   3.896  13.611  1.00  0.00     0.124 S 
ATOM     74  O   UNL     1      10.917   3.454  13.491  1.00  0.00    -0.237 OA
ATOM     75  O   UNL     1       9.247   5.225  13.072  1.00  0.00    -0.237 OA
ATOM     76  O   UNL     1       8.885   3.595  14.886  1.00  0.00    -0.744 OA
ENDBRANCH  72  73
ENDBRANCH  44  67
BRANCH  56  77
ATOM     77  C   UNL     1       5.813  -4.888   8.734  1.00  0.00    -0.014 A 
ATOM     78  C   UNL     1       5.164  -6.097   9.047  1.00  0.00     0.010 A 
ATOM     79  C   UNL     1       5.124  -3.934   7.962  1.00  0.00     0.010 A 
ATOM     80  C   UNL     1       3.882  -6.369   8.570  1.00  0.00     0.020 A 
ATOM     81  C   UNL     1       3.823  -4.190   7.502  1.00  0.00     0.020 A 
ATOM     82  C   UNL     1       3.222  -5.418   7.789  1.00  0.00     0.054 A 
BRANCH  82  83
ATOM     83  S   UNL     1       1.577  -5.833   7.150  1.00  0.00     0.124 S 
ATOM     84  O   UNL     1       1.886  -6.829   6.125  1.00  0.00    -0.237 OA
ATOM     85  O   UNL     1       0.891  -6.351   8.332  1.00  0.00    -0.237 OA
ATOM     86  O   UNL     1       1.061  -4.563   6.645  1.00  0.00    -0.744 OA
ENDBRANCH  82  83
ENDBRANCH  56  77
ENDBRANCH  30  31
ENDBRANCH  22  25
ENDBRANCH  20  21
ENDBRANCH   1  20
TORSDOF 16
