REMARK SMILES COc1cccc(-c2nn(-c3cc4c(cc3C(N)=O)OCO4)cc2C(=O)NCCCCNC(=O)c2ccc(-c3c4nc(c(-c5ccc(S(=O)(=O)[O-])cc5)c5ccc([nH]5)c(-c5ccc(S(=O)(=O)[O-])cc5)c5nc(c(-c6ccc(S(=O)(=O)[O-])cc6)c6ccc3[nH]6)C=C5)C=C4)cc2)c1
REMARK SMILES IDX 30 1 29 2 28 3 27 4 25 5 26 6 24 8 8 9 9 10 10 11 23 12 7 13
REMARK SMILES IDX 3 14 4 15 95 16 5 17 6 18 2 19 1 20 11 21 12 22 16 23 13 24
REMARK SMILES IDX 15 25 14 26 22 27 20 28 21 29 17 30 18 31 19 32 31 35 32 36
REMARK SMILES IDX 33 37 34 39 35 40 36 41 94 42 37 43 93 44 38 45 39 46 40 47
REMARK SMILES IDX 87 48 41 49 92 50 86 51 88 52 42 53 91 54 85 55 84 56 43 58
REMARK SMILES IDX 73 59 54 60 72 61 55 62 58 63 71 64 89 65 56 66 57 67 70 69
REMARK SMILES IDX 90 70 59 71 44 72 45 73 53 74 46 75 52 76 47 77 48 78 49 79
REMARK SMILES IDX 50 80 51 81 74 82 75 83 83 84 76 85 82 86 77 87 78 88 79 89
REMARK SMILES IDX 80 90 81 91 60 92 61 93 69 94 62 95 68 96 63 97 64 98 65 99
REMARK SMILES IDX 66 100 67 101
REMARK H PARENT 27 7 18 33 18 34 32 38 88 57 58 68
REMARK Flexibility Score: inf
ROOT
ATOM      1  C   UNL     1       5.651   3.800   9.142  1.00  0.00     0.023 C 
ENDROOT
BRANCH   1   2
ATOM      2  C   UNL     1       6.220   3.541   7.737  1.00  0.00     0.023 C 
BRANCH   2   3
ATOM      3  C   UNL     1       5.733   2.251   7.070  1.00  0.00     0.116 C 
BRANCH   3   4
ATOM      4  N   UNL     1       4.352   2.357   6.651  1.00  0.00    -0.352 N 
ATOM      5  C   UNL     1       3.753   2.682   5.458  1.00  0.00     0.255 C 
ATOM      6  O   UNL     1       2.522   2.678   5.473  1.00  0.00    -0.269 OA
ATOM      7  H   UNL     1       3.709   2.155   7.368  1.00  0.00     0.163 HD
BRANCH   5   8
ATOM      8  C   UNL     1       4.513   2.987   4.252  1.00  0.00     0.086 A 
ATOM      9  C   UNL     1       4.032   3.099   2.895  1.00  0.00     0.106 A 
ATOM     10  N   UNL     1       5.050   3.278   2.021  1.00  0.00    -0.167 NA
ATOM     11  N   UNL     1       6.148   3.079   2.781  1.00  0.00    -0.239 N 
ATOM     12  C   UNL     1       5.859   3.250   4.112  1.00  0.00     0.129 A 
BRANCH   9  13
ATOM     13  C   UNL     1       2.639   3.059   2.437  1.00  0.00     0.007 A 
ATOM     14  C   UNL     1       0.873   2.059   1.103  1.00  0.00     0.119 A 
ATOM     15  C   UNL     1      -0.048   2.946   1.665  1.00  0.00     0.046 A 
ATOM     16  C   UNL     1       2.219   2.118   1.483  1.00  0.00     0.056 A 
ATOM     17  C   UNL     1       0.362   3.889   2.604  1.00  0.00     0.005 A 
ATOM     18  C   UNL     1       1.703   3.954   2.977  1.00  0.00     0.011 A 
BRANCH  14  19
ATOM     19  O   UNL     1       0.358   1.222   0.150  1.00  0.00    -0.497 OA
ATOM     20  C   UNL     1       0.936  -0.078   0.096  1.00  0.00     0.278 C 
ENDBRANCH  14  19
ENDBRANCH   9  13
BRANCH  11  21
ATOM     21  C   UNL     1       7.455   2.931   2.254  1.00  0.00     0.081 A 
ATOM     22  C   UNL     1       7.865   3.817   1.241  1.00  0.00     0.079 A 
ATOM     23  C   UNL     1       8.365   1.979   2.808  1.00  0.00     0.069 A 
ATOM     24  C   UNL     1       9.195   3.786   0.875  1.00  0.00     0.167 A 
ATOM     25  C   UNL     1       9.725   2.053   2.465  1.00  0.00     0.066 A 
ATOM     26  C   UNL     1      10.098   2.951   1.492  1.00  0.00     0.166 A 
ATOM     27  O   UNL     1       9.789   4.546  -0.086  1.00  0.00    -0.454 OA
ATOM     28  O   UNL     1      11.359   3.084   0.999  1.00  0.00    -0.454 OA
ATOM     29  C   UNL     1      11.101   3.943  -0.129  1.00  0.00     0.468 C 
BRANCH  23  30
ATOM     30  C   UNL     1       7.900   0.783   3.590  1.00  0.00     0.251 C 
ATOM     31  N   UNL     1       8.718  -0.308   3.654  1.00  0.00    -0.366 N 
ATOM     32  O   UNL     1       6.796   0.705   4.120  1.00  0.00    -0.269 OA
ATOM     33  H   UNL     1       9.610  -0.280   3.240  1.00  0.00     0.159 HD
ATOM     34  H   UNL     1       8.415  -1.124   4.115  1.00  0.00     0.159 HD
ENDBRANCH  23  30
ENDBRANCH  11  21
ENDBRANCH   5   8
ENDBRANCH   3   4
ENDBRANCH   2   3
ENDBRANCH   1   2
BRANCH   1  35
ATOM     35  C   UNL     1       6.042   2.767  10.194  1.00  0.00     0.116 C 
BRANCH  35  36
ATOM     36  N   UNL     1       7.489   2.682  10.411  1.00  0.00    -0.352 N 
ATOM     37  C   UNL     1       8.192   1.727  11.129  1.00  0.00     0.251 C 
ATOM     38  H   UNL     1       8.030   3.392   9.995  1.00  0.00     0.163 HD
ATOM     39  O   UNL     1       9.306   1.966  11.574  1.00  0.00    -0.269 OA
BRANCH  37  40
ATOM     40  C   UNL     1       7.575   0.402  11.317  1.00  0.00     0.039 A 
ATOM     41  C   UNL     1       7.634  -0.299  12.524  1.00  0.00     0.014 A 
ATOM     42  C   UNL     1       6.876  -0.111  10.231  1.00  0.00     0.014 A 
ATOM     43  C   UNL     1       6.907  -1.484  12.643  1.00  0.00     0.010 A 
ATOM     44  C   UNL     1       6.010  -1.151  10.414  1.00  0.00     0.010 A 
ATOM     45  C   UNL     1       6.082  -1.894  11.583  1.00  0.00    -0.014 A 
BRANCH  45  46
ATOM     46  C   UNL     1       5.189  -3.040  11.687  1.00  0.00     0.031 A 
ATOM     47  C   UNL     1       4.225  -2.965  12.815  1.00  0.00     0.074 A 
ATOM     48  C   UNL     1       5.067  -3.955  10.698  1.00  0.00     0.049 A 
ATOM     49  N   UNL     1       4.240  -3.655  13.905  1.00  0.00    -0.248 NA
ATOM     50  C   UNL     1       3.221  -1.886  12.810  1.00  0.00     0.031 C 
ATOM     51  C   UNL     1       5.718  -3.969   9.379  1.00  0.00     0.029 A 
ATOM     52  N   UNL     1       4.221  -5.014  10.611  1.00  0.00    -0.354 N 
ATOM     53  C   UNL     1       3.100  -3.280  14.606  1.00  0.00     0.074 A 
ATOM     54  C   UNL     1       2.648  -2.051  14.004  1.00  0.00     0.031 C 
ATOM     55  C   UNL     1       5.061  -4.816   8.554  1.00  0.00     0.029 A 
ATOM     56  C   UNL     1       4.073  -5.540   9.330  1.00  0.00     0.049 A 
ATOM     57  H   UNL     1       3.749  -5.381  11.393  1.00  0.00     0.167 HD
ATOM     58  C   UNL     1       2.458  -4.154  15.433  1.00  0.00     0.031 A 
ATOM     59  C   UNL     1       3.187  -6.491   8.937  1.00  0.00     0.031 A 
ATOM     60  C   UNL     1       3.257  -5.331  15.677  1.00  0.00     0.049 A 
ATOM     61  C   UNL     1       2.771  -7.213  10.164  1.00  0.00     0.074 A 
ATOM     62  C   UNL     1       4.510  -5.565  16.206  1.00  0.00     0.029 A 
ATOM     63  N   UNL     1       2.934  -6.457  14.953  1.00  0.00    -0.354 N 
ATOM     64  N   UNL     1       3.592  -7.928  10.883  1.00  0.00    -0.248 NA
ATOM     65  C   UNL     1       1.579  -6.749  10.855  1.00  0.00     0.031 C 
ATOM     66  C   UNL     1       5.069  -6.585  15.380  1.00  0.00     0.029 A 
ATOM     67  C   UNL     1       4.099  -6.980  14.455  1.00  0.00     0.049 A 
ATOM     68  H   UNL     1       2.029  -6.821  14.818  1.00  0.00     0.167 HD
ATOM     69  C   UNL     1       3.263  -7.629  12.197  1.00  0.00     0.074 A 
ATOM     70  C   UNL     1       1.957  -6.973  12.118  1.00  0.00     0.031 C 
ATOM     71  C   UNL     1       4.200  -7.681  13.191  1.00  0.00     0.031 A 
BRANCH  58  72
ATOM     72  C   UNL     1       0.965  -4.157  15.662  1.00  0.00    -0.014 A 
ATOM     73  C   UNL     1       0.425  -5.079  16.582  1.00  0.00     0.010 A 
ATOM     74  C   UNL     1       0.054  -3.492  14.815  1.00  0.00     0.010 A 
ATOM     75  C   UNL     1      -0.944  -5.374  16.599  1.00  0.00     0.020 A 
ATOM     76  C   UNL     1      -1.318  -3.746  14.854  1.00  0.00     0.020 A 
ATOM     77  C   UNL     1      -1.804  -4.713  15.723  1.00  0.00     0.054 A 
BRANCH  77  78
ATOM     78  S   UNL     1      -3.553  -5.172  15.684  1.00  0.00     0.124 S 
ATOM     79  O   UNL     1      -3.491  -6.541  15.182  1.00  0.00    -0.237 OA
ATOM     80  O   UNL     1      -3.940  -5.026  17.085  1.00  0.00    -0.237 OA
ATOM     81  O   UNL     1      -4.143  -4.194  14.774  1.00  0.00    -0.744 OA
ENDBRANCH  77  78
ENDBRANCH  58  72
BRANCH  59  82
ATOM     82  C   UNL     1       2.442  -6.597   7.654  1.00  0.00    -0.014 A 
ATOM     83  C   UNL     1       1.739  -7.771   7.318  1.00  0.00     0.010 A 
ATOM     84  C   UNL     1       2.169  -5.437   6.900  1.00  0.00     0.010 A 
ATOM     85  C   UNL     1       0.750  -7.766   6.317  1.00  0.00     0.020 A 
ATOM     86  C   UNL     1       1.188  -5.425   5.899  1.00  0.00     0.020 A 
ATOM     87  C   UNL     1       0.463  -6.584   5.629  1.00  0.00     0.054 A 
BRANCH  87  88
ATOM     88  S   UNL     1      -0.944  -6.537   4.475  1.00  0.00     0.124 S 
ATOM     89  O   UNL     1      -0.462  -7.353   3.364  1.00  0.00    -0.237 OA
ATOM     90  O   UNL     1      -2.024  -7.122   5.265  1.00  0.00    -0.237 OA
ATOM     91  O   UNL     1      -1.098  -5.114   4.178  1.00  0.00    -0.744 OA
ENDBRANCH  87  88
ENDBRANCH  59  82
BRANCH  71  92
ATOM     92  C   UNL     1       5.532  -8.338  12.896  1.00  0.00    -0.014 A 
ATOM     93  C   UNL     1       6.449  -7.879  11.928  1.00  0.00     0.010 A 
ATOM     94  C   UNL     1       5.931  -9.381  13.750  1.00  0.00     0.010 A 
ATOM     95  C   UNL     1       7.718  -8.469  11.806  1.00  0.00     0.020 A 
ATOM     96  C   UNL     1       7.197  -9.959  13.646  1.00  0.00     0.020 A 
ATOM     97  C   UNL     1       8.083  -9.509  12.667  1.00  0.00     0.054 A 
BRANCH  97  98
ATOM     98  S   UNL     1       9.734 -10.253  12.532  1.00  0.00     0.124 S 
ATOM     99  O   UNL     1       9.671 -10.936  11.243  1.00  0.00    -0.237 OA
ATOM    100  O   UNL     1      10.620  -9.092  12.586  1.00  0.00    -0.237 OA
ATOM    101  O   UNL     1       9.815 -11.136  13.696  1.00  0.00    -0.744 OA
ENDBRANCH  97  98
ENDBRANCH  71  92
ENDBRANCH  45  46
ENDBRANCH  37  40
ENDBRANCH  35  36
ENDBRANCH   1  35
TORSDOF 18
