REMARK SMILES CC(=O)Cc1cccc(C(=O)NCCCCNC(=O)c2ccc(-c3c4nc(c(-c5ccc(S(=O)(=O)[O-])cc5)c5ccc([nH]5)c(-c5ccc(S(=O)(=O)[O-])cc5)c5nc(c(-c6ccc(S(=O)(=O)[O-])cc6)c6ccc3[nH]6)C=C5)C=C4)cc2)c1
REMARK SMILES IDX 15 1 14 2 13 3 12 4 10 5 11 6 9 8 5 9 6 10 80 11 7 12 8 13
REMARK SMILES IDX 4 14 2 15 1 16 3 17 16 18 17 19 18 20 19 22 20 23 21 24
REMARK SMILES IDX 79 25 22 26 78 27 23 28 24 29 25 30 72 31 26 32 77 33 71 34
REMARK SMILES IDX 73 35 27 36 76 37 70 38 69 39 28 41 58 42 39 43 57 44 40 45
REMARK SMILES IDX 43 46 56 47 74 48 41 49 42 50 55 52 75 53 44 54 29 55 30 56
REMARK SMILES IDX 38 57 31 58 37 59 32 60 33 61 34 62 35 63 36 64 59 65 60 66
REMARK SMILES IDX 68 67 61 68 67 69 62 70 63 71 64 72 65 73 66 74 45 75 46 76
REMARK SMILES IDX 54 77 47 78 53 79 48 80 49 81 50 82 51 83 52 84
REMARK H PARENT 12 7 17 21 73 40 43 51
REMARK Flexibility Score: inf
ROOT
ATOM      1  C   UNL     1       2.928  -4.061   0.439  1.00  0.00     0.023 C 
ENDROOT
BRANCH   1   2
ATOM      2  C   UNL     1       2.982  -2.631   0.959  1.00  0.00     0.023 C 
BRANCH   2   3
ATOM      3  C   UNL     1       1.666  -2.025   1.425  1.00  0.00     0.116 C 
BRANCH   3   4
ATOM      4  N   UNL     1       1.013  -2.700   2.532  1.00  0.00    -0.352 N 
ATOM      5  C   UNL     1       0.237  -2.173   3.547  1.00  0.00     0.251 C 
ATOM      6  O   UNL     1      -0.241  -2.924   4.394  1.00  0.00    -0.269 OA
ATOM      7  H   UNL     1       1.142  -3.675   2.565  1.00  0.00     0.163 HD
BRANCH   5   8
ATOM      8  C   UNL     1       0.039  -0.702   3.680  1.00  0.00     0.040 A 
ATOM      9  C   UNL     1       0.015   1.525   2.692  1.00  0.00    -0.040 A 
ATOM     10  C   UNL     1       0.083   2.068   3.985  1.00  0.00     0.004 A 
ATOM     11  C   UNL     1      -0.104   0.136   2.568  1.00  0.00     0.018 A 
ATOM     12  C   UNL     1       0.067   1.243   5.112  1.00  0.00     0.001 A 
ATOM     13  C   UNL     1       0.072  -0.143   4.960  1.00  0.00     0.014 A 
BRANCH   9  14
ATOM     14  C   UNL     1       0.244   2.436   1.506  1.00  0.00     0.110 C 
BRANCH  14  15
ATOM     15  C   UNL     1      -0.193   1.925   0.148  1.00  0.00     0.134 C 
ATOM     16  C   UNL     1       0.727   0.981  -0.591  1.00  0.00     0.088 C 
ATOM     17  O   UNL     1      -1.274   2.256  -0.343  1.00  0.00    -0.300 OA
ENDBRANCH  14  15
ENDBRANCH   9  14
ENDBRANCH   5   8
ENDBRANCH   3   4
ENDBRANCH   2   3
ENDBRANCH   1   2
BRANCH   1  18
ATOM     18  C   UNL     1       1.842  -4.365  -0.587  1.00  0.00     0.116 C 
BRANCH  18  19
ATOM     19  N   UNL     1       1.942  -3.577  -1.807  1.00  0.00    -0.352 N 
ATOM     20  C   UNL     1       2.109  -3.977  -3.118  1.00  0.00     0.251 C 
ATOM     21  H   UNL     1       1.881  -2.603  -1.677  1.00  0.00     0.163 HD
ATOM     22  O   UNL     1       2.249  -3.136  -3.993  1.00  0.00    -0.269 OA
BRANCH  20  23
ATOM     23  C   UNL     1       2.170  -5.420  -3.453  1.00  0.00     0.039 A 
ATOM     24  C   UNL     1       3.191  -5.873  -4.294  1.00  0.00     0.014 A 
ATOM     25  C   UNL     1       1.256  -6.328  -2.917  1.00  0.00     0.014 A 
ATOM     26  C   UNL     1       3.362  -7.245  -4.502  1.00  0.00     0.010 A 
ATOM     27  C   UNL     1       1.481  -7.696  -3.051  1.00  0.00     0.010 A 
ATOM     28  C   UNL     1       2.545  -8.171  -3.832  1.00  0.00    -0.014 A 
BRANCH  28  29
ATOM     29  C   UNL     1       2.801  -9.635  -3.905  1.00  0.00     0.031 A 
ATOM     30  C   UNL     1       1.754 -10.563  -4.460  1.00  0.00     0.074 A 
ATOM     31  C   UNL     1       3.938 -10.142  -3.384  1.00  0.00     0.049 A 
ATOM     32  N   UNL     1       1.752 -11.871  -4.506  1.00  0.00    -0.248 NA
ATOM     33  C   UNL     1       0.537  -9.942  -5.007  1.00  0.00     0.031 C 
ATOM     34  C   UNL     1       5.014  -9.361  -2.767  1.00  0.00     0.029 A 
ATOM     35  N   UNL     1       4.374 -11.441  -3.277  1.00  0.00    -0.354 N 
ATOM     36  C   UNL     1       0.527 -12.229  -5.058  1.00  0.00     0.074 A 
ATOM     37  C   UNL     1      -0.205 -11.002  -5.290  1.00  0.00     0.031 C 
ATOM     38  C   UNL     1       5.992 -10.191  -2.372  1.00  0.00     0.029 A 
ATOM     39  C   UNL     1       5.600 -11.565  -2.666  1.00  0.00     0.049 A 
ATOM     40  H   UNL     1       3.856 -12.210  -3.607  1.00  0.00     0.167 HD
ATOM     41  C   UNL     1       0.059 -13.463  -5.361  1.00  0.00     0.031 A 
ATOM     42  C   UNL     1       6.327 -12.660  -2.367  1.00  0.00     0.031 A 
ATOM     43  C   UNL     1       0.796 -14.681  -5.155  1.00  0.00     0.049 A 
ATOM     44  C   UNL     1       5.796 -14.019  -2.733  1.00  0.00     0.074 A 
ATOM     45  C   UNL     1       0.431 -15.974  -5.488  1.00  0.00     0.029 A 
ATOM     46  N   UNL     1       2.050 -14.758  -4.569  1.00  0.00    -0.354 N 
ATOM     47  N   UNL     1       4.659 -14.330  -3.308  1.00  0.00    -0.248 NA
ATOM     48  C   UNL     1       6.651 -15.173  -2.420  1.00  0.00     0.031 C 
ATOM     49  C   UNL     1       1.449 -16.837  -5.070  1.00  0.00     0.029 A 
ATOM     50  C   UNL     1       2.468 -16.076  -4.520  1.00  0.00     0.049 A 
ATOM     51  H   UNL     1       2.567 -13.988  -4.237  1.00  0.00     0.167 HD
ATOM     52  C   UNL     1       4.676 -15.712  -3.453  1.00  0.00     0.074 A 
ATOM     53  C   UNL     1       5.937 -16.176  -2.913  1.00  0.00     0.031 C 
ATOM     54  C   UNL     1       3.731 -16.523  -3.988  1.00  0.00     0.031 A 
BRANCH  41  55
ATOM     55  C   UNL     1      -1.322 -13.554  -5.954  1.00  0.00    -0.014 A 
ATOM     56  C   UNL     1      -1.578 -13.113  -7.265  1.00  0.00     0.010 A 
ATOM     57  C   UNL     1      -2.371 -14.115  -5.203  1.00  0.00     0.010 A 
ATOM     58  C   UNL     1      -2.868 -13.188  -7.797  1.00  0.00     0.020 A 
ATOM     59  C   UNL     1      -3.656 -14.217  -5.742  1.00  0.00     0.020 A 
ATOM     60  C   UNL     1      -3.900 -13.734  -7.029  1.00  0.00     0.054 A 
BRANCH  60  61
ATOM     61  S   UNL     1      -5.562 -13.832  -7.750  1.00  0.00     0.124 S 
ATOM     62  O   UNL     1      -6.005 -12.443  -7.670  1.00  0.00    -0.237 OA
ATOM     63  O   UNL     1      -5.300 -14.330  -9.098  1.00  0.00    -0.237 OA
ATOM     64  O   UNL     1      -6.266 -14.763  -6.872  1.00  0.00    -0.744 OA
ENDBRANCH  60  61
ENDBRANCH  41  55
BRANCH  42  65
ATOM     65  C   UNL     1       7.652 -12.514  -1.705  1.00  0.00    -0.014 A 
ATOM     66  C   UNL     1       8.835 -12.740  -2.430  1.00  0.00     0.010 A 
ATOM     67  C   UNL     1       7.738 -12.133  -0.354  1.00  0.00     0.010 A 
ATOM     68  C   UNL     1      10.082 -12.604  -1.811  1.00  0.00     0.020 A 
ATOM     69  C   UNL     1       8.984 -11.972   0.261  1.00  0.00     0.020 A 
ATOM     70  C   UNL     1      10.148 -12.219  -0.469  1.00  0.00     0.054 A 
BRANCH  70  71
ATOM     71  S   UNL     1      11.777 -11.992   0.298  1.00  0.00     0.124 S 
ATOM     72  O   UNL     1      12.202 -13.370   0.519  1.00  0.00    -0.237 OA
ATOM     73  O   UNL     1      12.512 -11.259  -0.730  1.00  0.00    -0.237 OA
ATOM     74  O   UNL     1      11.480 -11.225   1.506  1.00  0.00    -0.744 OA
ENDBRANCH  70  71
ENDBRANCH  42  65
BRANCH  54  75
ATOM     75  C   UNL     1       4.037 -17.994  -4.060  1.00  0.00    -0.014 A 
ATOM     76  C   UNL     1       3.998 -18.804  -2.912  1.00  0.00     0.010 A 
ATOM     77  C   UNL     1       4.303 -18.584  -5.310  1.00  0.00     0.010 A 
ATOM     78  C   UNL     1       4.242 -20.177  -3.010  1.00  0.00     0.020 A 
ATOM     79  C   UNL     1       4.525 -19.959  -5.414  1.00  0.00     0.020 A 
ATOM     80  C   UNL     1       4.505 -20.745  -4.261  1.00  0.00     0.054 A 
BRANCH  80  81
ATOM     81  S   UNL     1       4.765 -22.537  -4.371  1.00  0.00     0.124 S 
ATOM     82  O   UNL     1       6.122 -22.679  -3.852  1.00  0.00    -0.237 OA
ATOM     83  O   UNL     1       3.706 -23.070  -3.516  1.00  0.00    -0.237 OA
ATOM     84  O   UNL     1       4.609 -22.823  -5.795  1.00  0.00    -0.744 OA
ENDBRANCH  80  81
ENDBRANCH  54  75
ENDBRANCH  28  29
ENDBRANCH  20  23
ENDBRANCH  18  19
ENDBRANCH   1  18
TORSDOF 16
