REMARK SMILES O=C(COc1ccccc1/C=N/N1[C@@H](S)N=N[C@H]1[C@@H]1C=C(c2ccccc2)N=N1)NCCCCNC(=O)c1ccc(-c2c3nc(c(-c4ccc(S(=O)(=O)[O-])cc4)c4ccc([nH]4)c(-c4ccc(S(=O)(=O)[O-])cc4)c4nc(c(-c5ccc(S(=O)(=O)[O-])cc5)c5ccc2[nH]5)C=C4)C=C3)cc1
REMARK SMILES IDX 31 1 30 2 1 3 2 4 3 6 4 7 5 8 6 9 10 10 7 11 9 12 8 13 11 14
REMARK SMILES IDX 12 15 13 16 14 17 18 18 16 19 17 20 15 21 19 23 20 24 29 25
REMARK SMILES IDX 21 26 28 27 22 28 23 29 27 30 24 31 26 32 25 33 32 34 33 35
REMARK SMILES IDX 34 36 35 37 36 38 37 40 38 41 39 42 97 43 40 44 96 45 41 46
REMARK SMILES IDX 42 47 43 48 90 49 44 50 95 51 89 52 91 53 45 54 94 55 88 56
REMARK SMILES IDX 87 57 46 59 76 60 57 61 75 62 58 63 61 64 74 65 92 66 59 67
REMARK SMILES IDX 60 68 73 70 93 71 62 72 47 73 48 74 56 75 49 76 55 77 50 78
REMARK SMILES IDX 51 79 52 80 53 81 54 82 77 83 78 84 86 85 79 86 85 87 80 88
REMARK SMILES IDX 81 89 82 90 83 91 84 92 63 93 64 94 72 95 65 96 71 97 66 98
REMARK SMILES IDX 67 99 68 100 69 101 70 102
REMARK H PARENT 30 5 15 22 35 39 91 58 61 69
REMARK Flexibility Score: inf
ROOT
ATOM      1  C   UNL     1       2.800  -2.620   0.011  1.00  0.00     0.116 C 
ENDROOT
BRANCH   1   2
ATOM      2  N   UNL     1       2.757  -1.201   0.747  1.00  0.00    -0.353 N 
ATOM      3  O   UNL     1       1.357   0.579  -0.058  1.00  0.00    -0.271 OA
ATOM      4  C   UNL     1       2.178   0.104   0.719  1.00  0.00     0.257 C 
ATOM      5  H   UNL     1       3.367  -1.244   1.519  1.00  0.00     0.163 HD
BRANCH   4   6
ATOM      6  C   UNL     1       2.494   1.168   1.779  1.00  0.00     0.329 C 
BRANCH   6   7
ATOM      7  O   UNL     1       1.349   1.386   2.621  1.00  0.00    -0.483 OA
BRANCH   7   8
ATOM      8  C   UNL     1       1.345   0.342   3.511  1.00  0.00     0.128 A 
ATOM      9  C   UNL     1       2.200   0.511   4.608  1.00  0.00     0.047 A 
ATOM     10  C   UNL     1       0.714  -0.878   3.175  1.00  0.00     0.037 A 
ATOM     11  C   UNL     1       2.512  -0.587   5.380  1.00  0.00     0.004 A 
ATOM     12  C   UNL     1       1.052  -1.978   3.958  1.00  0.00     0.013 A 
ATOM     13  C   UNL     1       1.943  -1.824   5.055  1.00  0.00     0.001 A 
BRANCH  10  14
ATOM     14  C   UNL     1      -0.100  -0.880   1.887  1.00  0.00     0.145 C 
ATOM     15  N   UNL     1       0.094  -1.667   0.847  1.00  0.00    -0.180 NA
BRANCH  15  16
ATOM     16  N   UNL     1      -0.345  -1.052  -0.370  1.00  0.00    -0.233 NA
ATOM     17  C   UNL     1      -1.531  -1.628  -1.020  1.00  0.00     0.298 C 
ATOM     18  C   UNL     1       0.549  -0.907  -1.667  1.00  0.00     0.274 C 
ATOM     19  N   UNL     1      -1.576  -1.111  -2.415  1.00  0.00    -0.153 NA
ATOM     20  N   UNL     1      -0.449  -0.662  -2.765  1.00  0.00    -0.161 NA
BRANCH  17  21
ATOM     21  S   UNL     1      -3.048  -1.352  -0.043  1.00  0.00    -0.128 SA
ATOM     22  H   UNL     1      -3.258  -0.016   0.101  1.00  0.00     0.106 HD
ENDBRANCH  17  21
BRANCH  18  23
ATOM     23  C   UNL     1       2.091  -0.081  -2.236  1.00  0.00     0.202 C 
ATOM     24  C   UNL     1       3.530  -0.260  -1.716  1.00  0.00     0.037 C 
ATOM     25  N   UNL     1       2.092   1.447  -2.234  1.00  0.00    -0.177 NA
ATOM     26  C   UNL     1       4.072   0.912  -1.373  1.00  0.00     0.091 C 
ATOM     27  N   UNL     1       3.203   1.919  -1.747  1.00  0.00    -0.155 NA
BRANCH  26  28
ATOM     28  C   UNL     1       5.269   1.030  -0.418  1.00  0.00     0.002 A 
ATOM     29  C   UNL     1       5.324   0.334   0.815  1.00  0.00     0.010 A 
ATOM     30  C   UNL     1       6.395   1.821  -0.632  1.00  0.00     0.010 A 
ATOM     31  C   UNL     1       6.233   0.557   1.861  1.00  0.00     0.001 A 
ATOM     32  C   UNL     1       7.402   1.974   0.368  1.00  0.00     0.001 A 
ATOM     33  C   UNL     1       7.290   1.397   1.634  1.00  0.00     0.000 A 
ENDBRANCH  26  28
ENDBRANCH  18  23
ENDBRANCH  15  16
ENDBRANCH  10  14
ENDBRANCH   7   8
ENDBRANCH   6   7
ENDBRANCH   4   6
ENDBRANCH   1   2
BRANCH   1  34
ATOM     34  C   UNL     1       2.901  -3.127  -1.540  1.00  0.00     0.023 C 
BRANCH  34  35
ATOM     35  C   UNL     1       4.155  -3.299  -2.458  1.00  0.00     0.023 C 
BRANCH  35  36
ATOM     36  C   UNL     1       5.069  -4.474  -2.209  1.00  0.00     0.116 C 
BRANCH  36  37
ATOM     37  N   UNL     1       4.460  -5.737  -2.603  1.00  0.00    -0.352 N 
ATOM     38  C   UNL     1       4.771  -6.997  -2.131  1.00  0.00     0.251 C 
ATOM     39  H   UNL     1       3.747  -5.687  -3.281  1.00  0.00     0.163 HD
ATOM     40  O   UNL     1       4.542  -7.993  -2.780  1.00  0.00    -0.269 OA
BRANCH  38  41
ATOM     41  C   UNL     1       5.404  -7.073  -0.802  1.00  0.00     0.039 A 
ATOM     42  C   UNL     1       6.546  -7.848  -0.618  1.00  0.00     0.014 A 
ATOM     43  C   UNL     1       4.893  -6.266   0.217  1.00  0.00     0.014 A 
ATOM     44  C   UNL     1       7.229  -7.739   0.586  1.00  0.00     0.010 A 
ATOM     45  C   UNL     1       5.632  -6.073   1.360  1.00  0.00     0.010 A 
ATOM     46  C   UNL     1       6.788  -6.823   1.558  1.00  0.00    -0.014 A 
BRANCH  46  47
ATOM     47  C   UNL     1       7.658  -6.517   2.692  1.00  0.00     0.031 A 
ATOM     48  C   UNL     1       9.023  -6.088   2.286  1.00  0.00     0.074 A 
ATOM     49  C   UNL     1       7.235  -6.419   3.970  1.00  0.00     0.049 A 
ATOM     50  N   UNL     1      10.115  -6.776   2.348  1.00  0.00    -0.248 NA
ATOM     51  C   UNL     1       9.161  -4.820   1.546  1.00  0.00     0.031 C 
ATOM     52  C   UNL     1       5.848  -6.462   4.445  1.00  0.00     0.029 A 
ATOM     53  N   UNL     1       7.937  -6.146   5.108  1.00  0.00    -0.354 N 
ATOM     54  C   UNL     1      11.119  -5.903   1.937  1.00  0.00     0.074 A 
ATOM     55  C   UNL     1      10.456  -4.845   1.223  1.00  0.00     0.031 C 
ATOM     56  C   UNL     1       5.787  -5.990   5.708  1.00  0.00     0.029 A 
ATOM     57  C   UNL     1       7.141  -5.792   6.193  1.00  0.00     0.049 A 
ATOM     58  H   UNL     1       8.919  -6.196   5.157  1.00  0.00     0.167 HD
ATOM     59  C   UNL     1      12.339  -5.928   2.545  1.00  0.00     0.031 A 
ATOM     60  C   UNL     1       7.549  -5.360   7.411  1.00  0.00     0.031 A 
ATOM     61  C   UNL     1      12.487  -7.118   3.345  1.00  0.00     0.049 A 
ATOM     62  C   UNL     1       8.939  -5.826   7.609  1.00  0.00     0.074 A 
ATOM     63  C   UNL     1      12.693  -8.462   3.133  1.00  0.00     0.029 A 
ATOM     64  N   UNL     1      12.014  -6.971   4.623  1.00  0.00    -0.354 N 
ATOM     65  N   UNL     1       9.259  -7.088   7.691  1.00  0.00    -0.248 NA
ATOM     66  C   UNL     1      10.049  -4.912   7.369  1.00  0.00     0.031 C 
ATOM     67  C   UNL     1      12.178  -9.130   4.285  1.00  0.00     0.029 A 
ATOM     68  C   UNL     1      11.720  -8.179   5.194  1.00  0.00     0.049 A 
ATOM     69  H   UNL     1      11.899  -6.104   5.074  1.00  0.00     0.167 HD
ATOM     70  C   UNL     1      10.502  -7.164   7.095  1.00  0.00     0.074 A 
ATOM     71  C   UNL     1      11.006  -5.797   7.078  1.00  0.00     0.031 C 
ATOM     72  C   UNL     1      10.867  -8.256   6.365  1.00  0.00     0.031 A 
BRANCH  59  73
ATOM     73  C   UNL     1      13.136  -4.677   2.892  1.00  0.00    -0.014 A 
ATOM     74  C   UNL     1      14.311  -4.826   3.663  1.00  0.00     0.010 A 
ATOM     75  C   UNL     1      12.640  -3.365   2.755  1.00  0.00     0.010 A 
ATOM     76  C   UNL     1      14.902  -3.739   4.324  1.00  0.00     0.020 A 
ATOM     77  C   UNL     1      13.238  -2.269   3.384  1.00  0.00     0.020 A 
ATOM     78  C   UNL     1      14.350  -2.467   4.189  1.00  0.00     0.054 A 
BRANCH  78  79
ATOM     79  S   UNL     1      15.058  -1.081   5.111  1.00  0.00     0.124 S 
ATOM     80  O   UNL     1      14.791  -1.472   6.491  1.00  0.00    -0.237 OA
ATOM     81  O   UNL     1      16.457  -1.120   4.696  1.00  0.00    -0.237 OA
ATOM     82  O   UNL     1      14.300   0.071   4.626  1.00  0.00    -0.744 OA
ENDBRANCH  78  79
ENDBRANCH  59  73
BRANCH  60  83
ATOM     83  C   UNL     1       6.887  -4.392   8.317  1.00  0.00    -0.014 A 
ATOM     84  C   UNL     1       7.295  -4.255   9.657  1.00  0.00     0.010 A 
ATOM     85  C   UNL     1       6.046  -3.396   7.781  1.00  0.00     0.010 A 
ATOM     86  C   UNL     1       6.938  -3.123  10.409  1.00  0.00     0.020 A 
ATOM     87  C   UNL     1       5.679  -2.270   8.526  1.00  0.00     0.020 A 
ATOM     88  C   UNL     1       6.152  -2.125   9.828  1.00  0.00     0.054 A 
BRANCH  88  89
ATOM     89  S   UNL     1       5.859  -0.573  10.728  1.00  0.00     0.124 S 
ATOM     90  O   UNL     1       4.951  -0.997  11.789  1.00  0.00    -0.237 OA
ATOM     91  O   UNL     1       7.202  -0.195  11.155  1.00  0.00    -0.237 OA
ATOM     92  O   UNL     1       5.264   0.298   9.714  1.00  0.00    -0.744 OA
ENDBRANCH  88  89
ENDBRANCH  60  83
BRANCH  72  93
ATOM     93  C   UNL     1      10.260  -9.584   6.716  1.00  0.00    -0.014 A 
ATOM     94  C   UNL     1       8.894  -9.901   6.618  1.00  0.00     0.010 A 
ATOM     95  C   UNL     1      11.159 -10.590   7.116  1.00  0.00     0.010 A 
ATOM     96  C   UNL     1       8.440 -11.191   6.936  1.00  0.00     0.020 A 
ATOM     97  C   UNL     1      10.719 -11.877   7.413  1.00  0.00     0.020 A 
ATOM     98  C   UNL     1       9.359 -12.171   7.334  1.00  0.00     0.054 A 
BRANCH  98  99
ATOM     99  S   UNL     1       8.777 -13.843   7.728  1.00  0.00     0.124 S 
ATOM    100  O   UNL     1       8.007 -13.630   8.951  1.00  0.00    -0.237 OA
ATOM    101  O   UNL     1       7.997 -14.201   6.546  1.00  0.00    -0.237 OA
ATOM    102  O   UNL     1      10.011 -14.609   7.901  1.00  0.00    -0.744 OA
ENDBRANCH  98  99
ENDBRANCH  72  93
ENDBRANCH  46  47
ENDBRANCH  38  41
ENDBRANCH  36  37
ENDBRANCH  35  36
ENDBRANCH  34  35
ENDBRANCH   1  34
TORSDOF 21
