REMARK SMILES [NH3+][C@H]1C=C[C@@H](C(=O)NC2(CC(=O)NCCCCNC(=O)c3ccc(-c4c5nc(c(-c6ccc(S(=O)(=O)[O-])cc6)c6ccc([nH]6)c(-c6ccc(S(=O)(=O)[O-])cc6)c6nc(c(-c7ccc(S(=O)(=O)[O-])cc7)c7ccc4[nH]7)C=C6)C=C5)cc3)CCC2)C1
REMARK SMILES IDX 15 1 14 2 13 3 11 4 12 5 10 7 9 8 81 9 83 10 82 11 8 12 6 13
REMARK SMILES IDX 7 14 5 16 2 17 3 18 84 19 4 20 1 21 16 25 17 26 18 27 19 28
REMARK SMILES IDX 20 30 21 31 22 32 80 33 23 34 79 35 24 36 25 37 26 38 73 39
REMARK SMILES IDX 27 40 78 41 72 42 74 43 28 44 77 45 71 46 70 47 29 49 59 50
REMARK SMILES IDX 40 51 58 52 41 53 44 54 57 55 75 56 42 57 43 58 56 60 76 61
REMARK SMILES IDX 45 62 30 63 31 64 39 65 32 66 38 67 33 68 34 69 35 70 36 71
REMARK SMILES IDX 37 72 60 73 61 74 69 75 62 76 68 77 63 78 64 79 65 80 66 81
REMARK SMILES IDX 67 82 46 83 47 84 55 85 48 86 54 87 49 88 50 89 51 90 52 91
REMARK SMILES IDX 53 92
REMARK H PARENT 13 6 8 15 1 22 1 23 1 24 18 29 74 48 44 59
REMARK Flexibility Score: inf
ROOT
ATOM      1  C   UNL     1      -1.279  -2.077  -0.915  1.00  0.00     0.023 C 
ENDROOT
BRANCH   1   2
ATOM      2  C   UNL     1      -2.230  -1.929  -2.099  1.00  0.00     0.116 C 
BRANCH   2   3
ATOM      3  N   UNL     1      -3.601  -1.860  -1.633  1.00  0.00    -0.356 N 
ATOM      4  C   UNL     1      -4.284  -0.783  -1.158  1.00  0.00     0.222 C 
ATOM      5  O   UNL     1      -5.362  -0.969  -0.589  1.00  0.00    -0.275 OA
ATOM      6  H   UNL     1      -4.105  -2.705  -1.665  1.00  0.00     0.163 HD
BRANCH   4   7
ATOM      7  C   UNL     1      -3.753   0.625  -1.335  1.00  0.00     0.128 C 
BRANCH   7   8
ATOM      8  C   UNL     1      -2.874   1.204  -0.195  1.00  0.00     0.049 C 
ATOM      9  C   UNL     1      -2.852   2.770  -0.219  1.00  0.00     0.029 C 
ATOM     10  C   UNL     1      -1.378   1.274  -0.573  1.00  0.00     0.029 C 
ATOM     11  C   UNL     1      -1.605   2.696  -1.110  1.00  0.00     0.005 C 
BRANCH   8  12
ATOM     12  N   UNL     1      -3.332   0.697   1.119  1.00  0.00    -0.350 N 
ATOM     13  C   UNL     1      -2.871   0.554   2.388  1.00  0.00     0.227 C 
ATOM     14  O   UNL     1      -3.739   0.210   3.208  1.00  0.00    -0.274 OA
ATOM     15  H   UNL     1      -4.255   0.360   1.051  1.00  0.00     0.164 HD
BRANCH  13  16
ATOM     16  C   UNL     1      -1.442   0.731   2.911  1.00  0.00     0.107 C 
ATOM     17  C   UNL     1       0.926   0.370   2.422  1.00  0.00     0.205 C 
ATOM     18  C   UNL     1       0.572   1.825   2.434  1.00  0.00     0.033 C 
ATOM     19  C   UNL     1      -0.443  -0.323   2.433  1.00  0.00     0.087 C 
ATOM     20  C   UNL     1      -0.731   2.026   2.681  1.00  0.00    -0.012 C 
BRANCH  17  21
ATOM     21  N   UNL     1       1.697  -0.004   1.249  1.00  0.00    -0.352 N 
ATOM     22  H   UNL     1       2.600   0.471   1.270  1.00  0.00     0.345 HD
ATOM     23  H   UNL     1       1.189   0.267   0.408  1.00  0.00     0.345 HD
ATOM     24  H   UNL     1       1.844  -1.013   1.247  1.00  0.00     0.345 HD
ENDBRANCH  17  21
ENDBRANCH  13  16
ENDBRANCH   8  12
ENDBRANCH   7   8
ENDBRANCH   4   7
ENDBRANCH   2   3
ENDBRANCH   1   2
BRANCH   1  25
ATOM     25  C   UNL     1      -1.084  -3.498  -0.398  1.00  0.00     0.023 C 
BRANCH  25  26
ATOM     26  C   UNL     1      -0.307  -4.407  -1.339  1.00  0.00     0.116 C 
BRANCH  26  27
ATOM     27  N   UNL     1       1.053  -3.958  -1.602  1.00  0.00    -0.352 N 
ATOM     28  C   UNL     1       2.169  -4.722  -1.870  1.00  0.00     0.251 C 
ATOM     29  H   UNL     1       1.194  -2.984  -1.586  1.00  0.00     0.163 HD
ATOM     30  O   UNL     1       3.263  -4.194  -2.013  1.00  0.00    -0.269 OA
BRANCH  28  31
ATOM     31  C   UNL     1       2.032  -6.195  -1.921  1.00  0.00     0.039 A 
ATOM     32  C   UNL     1       2.913  -6.979  -1.172  1.00  0.00     0.014 A 
ATOM     33  C   UNL     1       0.993  -6.792  -2.637  1.00  0.00     0.014 A 
ATOM     34  C   UNL     1       2.698  -8.355  -1.073  1.00  0.00     0.010 A 
ATOM     35  C   UNL     1       0.728  -8.146  -2.466  1.00  0.00     0.010 A 
ATOM     36  C   UNL     1       1.575  -8.942  -1.679  1.00  0.00    -0.014 A 
BRANCH  36  37
ATOM     37  C   UNL     1       1.262 -10.384  -1.509  1.00  0.00     0.031 A 
ATOM     38  C   UNL     1       1.218 -11.288  -2.712  1.00  0.00     0.074 A 
ATOM     39  C   UNL     1       0.935 -10.862  -0.291  1.00  0.00     0.049 A 
ATOM     40  N   UNL     1       0.867 -12.546  -2.786  1.00  0.00    -0.248 NA
ATOM     41  C   UNL     1       1.584 -10.690  -4.007  1.00  0.00     0.031 C 
ATOM     42  C   UNL     1       0.885 -10.079   0.946  1.00  0.00     0.029 A 
ATOM     43  N   UNL     1       0.572 -12.126   0.105  1.00  0.00    -0.354 N 
ATOM     44  C   UNL     1       0.940 -12.879  -4.133  1.00  0.00     0.074 A 
ATOM     45  C   UNL     1       1.321 -11.681  -4.847  1.00  0.00     0.031 C 
ATOM     46  C   UNL     1       0.542 -10.885   1.965  1.00  0.00     0.029 A 
ATOM     47  C   UNL     1       0.310 -12.230   1.451  1.00  0.00     0.049 A 
ATOM     48  H   UNL     1       0.505 -12.886  -0.517  1.00  0.00     0.167 HD
ATOM     49  C   UNL     1       0.733 -14.080  -4.724  1.00  0.00     0.031 A 
ATOM     50  C   UNL     1      -0.077 -13.289   2.188  1.00  0.00     0.031 A 
ATOM     51  C   UNL     1       0.391 -15.280  -4.010  1.00  0.00     0.049 A 
ATOM     52  C   UNL     1      -0.274 -14.620   1.514  1.00  0.00     0.074 A 
ATOM     53  C   UNL     1       0.224 -16.560  -4.508  1.00  0.00     0.029 A 
ATOM     54  N   UNL     1       0.173 -15.350  -2.643  1.00  0.00    -0.354 N 
ATOM     55  N   UNL     1      -0.140 -14.927   0.246  1.00  0.00    -0.248 NA
ATOM     56  C   UNL     1      -0.661 -15.748   2.372  1.00  0.00     0.031 C 
ATOM     57  C   UNL     1      -0.128 -17.399  -3.446  1.00  0.00     0.029 A 
ATOM     58  C   UNL     1      -0.137 -16.649  -2.280  1.00  0.00     0.049 A 
ATOM     59  H   UNL     1       0.230 -14.588  -2.021  1.00  0.00     0.167 HD
ATOM     60  C   UNL     1      -0.405 -16.290   0.158  1.00  0.00     0.074 A 
ATOM     61  C   UNL     1      -0.690 -16.749   1.502  1.00  0.00     0.031 C 
ATOM     62  C   UNL     1      -0.411 -17.088  -0.937  1.00  0.00     0.031 A 
BRANCH  49  63
ATOM     63  C   UNL     1       0.883 -14.152  -6.219  1.00  0.00    -0.014 A 
ATOM     64  C   UNL     1       2.149 -14.050  -6.824  1.00  0.00     0.010 A 
ATOM     65  C   UNL     1      -0.249 -14.352  -7.029  1.00  0.00     0.010 A 
ATOM     66  C   UNL     1       2.276 -14.102  -8.214  1.00  0.00     0.020 A 
ATOM     67  C   UNL     1      -0.123 -14.432  -8.419  1.00  0.00     0.020 A 
ATOM     68  C   UNL     1       1.137 -14.287  -9.004  1.00  0.00     0.054 A 
BRANCH  68  69
ATOM     69  S   UNL     1       1.332 -14.369 -10.805  1.00  0.00     0.124 S 
ATOM     70  O   UNL     1       1.552 -12.966 -11.146  1.00  0.00    -0.237 OA
ATOM     71  O   UNL     1       2.493 -15.242 -10.964  1.00  0.00    -0.237 OA
ATOM     72  O   UNL     1       0.065 -14.932 -11.265  1.00  0.00    -0.744 OA
ENDBRANCH  68  69
ENDBRANCH  49  63
BRANCH  50  73
ATOM     73  C   UNL     1      -0.284 -13.143   3.655  1.00  0.00    -0.014 A 
ATOM     74  C   UNL     1       0.632 -13.708   4.560  1.00  0.00     0.010 A 
ATOM     75  C   UNL     1      -1.395 -12.440   4.155  1.00  0.00     0.010 A 
ATOM     76  C   UNL     1       0.429 -13.594   5.939  1.00  0.00     0.020 A 
ATOM     77  C   UNL     1      -1.588 -12.302   5.533  1.00  0.00     0.020 A 
ATOM     78  C   UNL     1      -0.682 -12.893   6.416  1.00  0.00     0.054 A 
BRANCH  78  79
ATOM     79  S   UNL     1      -0.905 -12.721   8.209  1.00  0.00     0.124 S 
ATOM     80  O   UNL     1      -1.399 -14.043   8.581  1.00  0.00    -0.237 OA
ATOM     81  O   UNL     1       0.444 -12.398   8.668  1.00  0.00    -0.237 OA
ATOM     82  O   UNL     1      -1.872 -11.633   8.329  1.00  0.00    -0.744 OA
ENDBRANCH  78  79
ENDBRANCH  50  73
BRANCH  62  83
ATOM     83  C   UNL     1      -0.703 -18.548  -0.727  1.00  0.00    -0.014 A 
ATOM     84  C   UNL     1      -2.008 -18.996  -0.459  1.00  0.00     0.010 A 
ATOM     85  C   UNL     1       0.334 -19.489  -0.862  1.00  0.00     0.010 A 
ATOM     86  C   UNL     1      -2.267 -20.360  -0.306  1.00  0.00     0.020 A 
ATOM     87  C   UNL     1       0.074 -20.855  -0.733  1.00  0.00     0.020 A 
ATOM     88  C   UNL     1      -1.224 -21.282  -0.444  1.00  0.00     0.054 A 
BRANCH  88  89
ATOM     89  S   UNL     1      -1.594 -23.051  -0.294  1.00  0.00     0.124 S 
ATOM     90  O   UNL     1      -1.739 -23.209   1.151  1.00  0.00    -0.237 OA
ATOM     91  O   UNL     1      -2.825 -23.190  -1.068  1.00  0.00    -0.237 OA
ATOM     92  O   UNL     1      -0.422 -23.700  -0.878  1.00  0.00    -0.744 OA
ENDBRANCH  88  89
ENDBRANCH  62  83
ENDBRANCH  36  37
ENDBRANCH  28  31
ENDBRANCH  26  27
ENDBRANCH  25  26
ENDBRANCH   1  25
TORSDOF 18
