REMARK SMILES C[C@@H](C(=O)NCCCCNC(=O)c1ccc(-c2c3nc(c(-c4ccc(S(=O)(=O)[O-])cc4)c4ccc([nH]4)c(-c4ccc(S(=O)(=O)[O-])cc4)c4nc(c(-c5ccc(S(=O)(=O)[O-])cc5)c5ccc2[nH]5)C=C4)C=C3)cc1)c1ccc(C[SiH](C)C)cc1
REMARK SMILES IDX 7 1 6 2 5 3 3 4 4 5 2 7 1 8 73 9 74 10 82 11 75 12 81 13
REMARK SMILES IDX 76 14 77 15 78 16 79 17 80 18 8 20 9 21 10 22 11 23 12 25
REMARK SMILES IDX 13 26 14 27 72 28 15 29 71 30 16 31 17 32 18 33 65 34 19 35
REMARK SMILES IDX 70 36 64 37 66 38 20 39 69 40 63 41 62 42 21 44 51 45 32 46
REMARK SMILES IDX 50 47 33 48 36 49 49 50 67 51 34 52 35 53 48 55 68 56 37 57
REMARK SMILES IDX 22 58 23 59 31 60 24 61 30 62 25 63 26 64 27 65 28 66 29 67
REMARK SMILES IDX 52 68 53 69 61 70 54 71 60 72 55 73 56 74 57 75 58 76 59 77
REMARK SMILES IDX 38 78 39 79 47 80 40 81 46 82 41 83 42 84 43 85 44 86 45 87
REMARK H PARENT 5 6 78 19 10 24 66 43 36 54
REMARK Flexibility Score: inf
ROOT
ATOM      1  C   UNL     1       4.365  -0.544  -1.066  1.00  0.00     0.023 C 
ENDROOT
BRANCH   1   2
ATOM      2  C   UNL     1       3.529   0.519  -1.781  1.00  0.00     0.116 C 
BRANCH   2   3
ATOM      3  N   UNL     1       2.482  -0.079  -2.585  1.00  0.00    -0.356 N 
ATOM      4  C   UNL     1       1.143  -0.204  -2.343  1.00  0.00     0.227 C 
ATOM      5  O   UNL     1       0.487  -0.830  -3.177  1.00  0.00    -0.274 OA
ATOM      6  H   UNL     1       2.785  -0.455  -3.443  1.00  0.00     0.163 HD
BRANCH   4   7
ATOM      7  C   UNL     1       0.524   0.447  -1.097  1.00  0.00     0.105 C 
ATOM      8  C   UNL     1       0.940  -0.263   0.196  1.00  0.00     0.023 C 
BRANCH   7   9
ATOM      9  C   UNL     1      -0.999   0.525  -1.168  1.00  0.00    -0.036 A 
ATOM     10  C   UNL     1      -1.634   1.762  -1.339  1.00  0.00     0.005 A 
ATOM     11  C   UNL     1      -1.794  -0.624  -1.041  1.00  0.00     0.005 A 
ATOM     12  C   UNL     1      -3.029   1.850  -1.339  1.00  0.00     0.004 A 
ATOM     13  C   UNL     1      -3.187  -0.533  -1.022  1.00  0.00     0.004 A 
ATOM     14  C   UNL     1      -3.819   0.708  -1.152  1.00  0.00    -0.051 A 
BRANCH  14  15
ATOM     15  C   UNL     1      -5.324   0.808  -1.076  1.00  0.00     0.021 C 
BRANCH  15  16
ATOM     16  Si  UNL     1      -6.019   1.468   0.556  1.00  0.00     0.035 Si
ATOM     17  C   UNL     1      -5.477   3.229   0.842  1.00  0.00    -0.013 C 
ATOM     18  C   UNL     1      -7.881   1.373   0.534  1.00  0.00    -0.013 C 
ATOM     19  H   UNL     1      -5.517   0.666   1.616  1.00  0.00     0.014 H 
ENDBRANCH  15  16
ENDBRANCH  14  15
ENDBRANCH   7   9
ENDBRANCH   4   7
ENDBRANCH   2   3
ENDBRANCH   1   2
BRANCH   1  20
ATOM     20  C   UNL     1       5.160  -1.470  -1.992  1.00  0.00     0.023 C 
BRANCH  20  21
ATOM     21  C   UNL     1       6.135  -0.774  -2.936  1.00  0.00     0.116 C 
BRANCH  21  22
ATOM     22  N   UNL     1       7.136   0.018  -2.236  1.00  0.00    -0.352 N 
ATOM     23  C   UNL     1       8.491   0.087  -2.459  1.00  0.00     0.251 C 
ATOM     24  H   UNL     1       6.796   0.582  -1.504  1.00  0.00     0.163 HD
ATOM     25  O   UNL     1       9.211   0.723  -1.694  1.00  0.00    -0.269 OA
BRANCH  23  26
ATOM     26  C   UNL     1       9.077  -0.641  -3.603  1.00  0.00     0.039 A 
ATOM     27  C   UNL     1      10.150  -1.507  -3.375  1.00  0.00     0.014 A 
ATOM     28  C   UNL     1       8.536  -0.508  -4.885  1.00  0.00     0.014 A 
ATOM     29  C   UNL     1      10.621  -2.311  -4.415  1.00  0.00     0.010 A 
ATOM     30  C   UNL     1       8.972  -1.348  -5.906  1.00  0.00     0.010 A 
ATOM     31  C   UNL     1      10.002  -2.273  -5.675  1.00  0.00    -0.014 A 
BRANCH  31  32
ATOM     32  C   UNL     1      10.362  -3.236  -6.747  1.00  0.00     0.031 A 
ATOM     33  C   UNL     1      10.974  -2.750  -8.030  1.00  0.00     0.074 A 
ATOM     34  C   UNL     1      10.027  -4.534  -6.605  1.00  0.00     0.049 A 
ATOM     35  N   UNL     1      11.228  -3.421  -9.124  1.00  0.00    -0.248 NA
ATOM     36  C   UNL     1      11.323  -1.322  -8.105  1.00  0.00     0.031 C 
ATOM     37  C   UNL     1       9.383  -5.121  -5.426  1.00  0.00     0.029 A 
ATOM     38  N   UNL     1      10.152  -5.592  -7.471  1.00  0.00    -0.354 N 
ATOM     39  C   UNL     1      11.738  -2.495 -10.026  1.00  0.00     0.074 A 
ATOM     40  C   UNL     1      11.741  -1.211  -9.359  1.00  0.00     0.031 C 
ATOM     41  C   UNL     1       9.166  -6.428  -5.646  1.00  0.00     0.029 A 
ATOM     42  C   UNL     1       9.615  -6.765  -6.992  1.00  0.00     0.049 A 
ATOM     43  H   UNL     1      10.585  -5.518  -8.353  1.00  0.00     0.167 HD
ATOM     44  C   UNL     1      12.171  -2.700 -11.292  1.00  0.00     0.031 A 
ATOM     45  C   UNL     1       9.472  -7.970  -7.578  1.00  0.00     0.031 A 
ATOM     46  C   UNL     1      12.194  -3.983 -11.942  1.00  0.00     0.049 A 
ATOM     47  C   UNL     1       9.958  -8.166  -8.987  1.00  0.00     0.074 A 
ATOM     48  C   UNL     1      12.713  -4.305 -13.185  1.00  0.00     0.029 A 
ATOM     49  N   UNL     1      11.670  -5.151 -11.412  1.00  0.00    -0.354 N 
ATOM     50  N   UNL     1      10.530  -7.299  -9.787  1.00  0.00    -0.248 NA
ATOM     51  C   UNL     1       9.780  -9.503  -9.572  1.00  0.00     0.031 C 
ATOM     52  C   UNL     1      12.455  -5.658 -13.428  1.00  0.00     0.029 A 
ATOM     53  C   UNL     1      11.817  -6.187 -12.319  1.00  0.00     0.049 A 
ATOM     54  H   UNL     1      11.255  -5.232 -10.523  1.00  0.00     0.167 HD
ATOM     55  C   UNL     1      10.792  -7.989 -10.965  1.00  0.00     0.074 A 
ATOM     56  C   UNL     1      10.334  -9.349 -10.768  1.00  0.00     0.031 C 
ATOM     57  C   UNL     1      11.357  -7.535 -12.109  1.00  0.00     0.031 A 
BRANCH  44  58
ATOM     58  C   UNL     1      12.653  -1.511 -12.075  1.00  0.00    -0.014 A 
ATOM     59  C   UNL     1      13.905  -0.928 -11.810  1.00  0.00     0.010 A 
ATOM     60  C   UNL     1      11.882  -1.027 -13.148  1.00  0.00     0.010 A 
ATOM     61  C   UNL     1      14.369   0.132 -12.594  1.00  0.00     0.020 A 
ATOM     62  C   UNL     1      12.352   0.020 -13.946  1.00  0.00     0.020 A 
ATOM     63  C   UNL     1      13.589   0.599 -13.657  1.00  0.00     0.054 A 
BRANCH  63  64
ATOM     64  S   UNL     1      14.242   1.938 -14.693  1.00  0.00     0.124 S 
ATOM     65  O   UNL     1      14.079   3.099 -13.820  1.00  0.00    -0.237 OA
ATOM     66  O   UNL     1      15.621   1.520 -14.928  1.00  0.00    -0.237 OA
ATOM     67  O   UNL     1      13.378   1.919 -15.871  1.00  0.00    -0.744 OA
ENDBRANCH  63  64
ENDBRANCH  44  58
BRANCH  45  68
ATOM     68  C   UNL     1       8.807  -9.082  -6.847  1.00  0.00    -0.014 A 
ATOM     69  C   UNL     1       9.551 -10.181  -6.387  1.00  0.00     0.010 A 
ATOM     70  C   UNL     1       7.419  -9.051  -6.620  1.00  0.00     0.010 A 
ATOM     71  C   UNL     1       8.916 -11.244  -5.738  1.00  0.00     0.020 A 
ATOM     72  C   UNL     1       6.784 -10.099  -5.950  1.00  0.00     0.020 A 
ATOM     73  C   UNL     1       7.535 -11.198  -5.527  1.00  0.00     0.054 A 
BRANCH  73  74
ATOM     74  S   UNL     1       6.730 -12.571  -4.656  1.00  0.00     0.124 S 
ATOM     75  O   UNL     1       6.634 -13.580  -5.706  1.00  0.00    -0.237 OA
ATOM     76  O   UNL     1       7.675 -12.864  -3.581  1.00  0.00    -0.237 OA
ATOM     77  O   UNL     1       5.460 -11.997  -4.218  1.00  0.00    -0.744 OA
ENDBRANCH  73  74
ENDBRANCH  45  68
BRANCH  57  78
ATOM     78  C   UNL     1      11.527  -8.515 -13.236  1.00  0.00    -0.014 A 
ATOM     79  C   UNL     1      10.427  -8.911 -14.018  1.00  0.00     0.010 A 
ATOM     80  C   UNL     1      12.810  -8.989 -13.562  1.00  0.00     0.010 A 
ATOM     81  C   UNL     1      10.607  -9.779 -15.098  1.00  0.00     0.020 A 
ATOM     82  C   UNL     1      12.996  -9.839 -14.655  1.00  0.00     0.020 A 
ATOM     83  C   UNL     1      11.891 -10.236 -15.411  1.00  0.00     0.054 A 
BRANCH  83  84
ATOM     84  S   UNL     1      12.109 -11.309 -16.857  1.00  0.00     0.124 S 
ATOM     85  O   UNL     1      11.615 -12.591 -16.361  1.00  0.00    -0.237 OA
ATOM     86  O   UNL     1      11.275 -10.662 -17.867  1.00  0.00    -0.237 OA
ATOM     87  O   UNL     1      13.546 -11.253 -17.116  1.00  0.00    -0.744 OA
ENDBRANCH  83  84
ENDBRANCH  57  78
ENDBRANCH  31  32
ENDBRANCH  23  26
ENDBRANCH  21  22
ENDBRANCH  20  21
ENDBRANCH   1  20
TORSDOF 17
