REMARK SMILES COC(CNS(=O)(=O)c1ccc(Cl)c(C(=O)NCCCCNC(=O)c2ccc(-c3c4nc(c(-c5ccc(S(=O)(=O)[O-])cc5)c5ccc([nH]5)c(-c5ccc(S(=O)(=O)[O-])cc5)c5nc(c(-c6ccc(S(=O)(=O)[O-])cc6)c6ccc3[nH]6)C=C5)C=C4)cc2)c1Cl)OC
REMARK SMILES IDX 18 1 17 2 15 3 16 4 14 6 9 7 10 8 85 9 11 10 86 11 12 12
REMARK SMILES IDX 13 13 6 14 7 15 8 16 5 17 4 19 3 20 2 21 1 22 87 23 88 24
REMARK SMILES IDX 19 25 20 26 21 27 22 28 23 29 24 31 25 32 26 33 84 34 27 35
REMARK SMILES IDX 83 36 28 37 29 38 30 39 77 40 31 41 82 42 76 43 78 44 32 45
REMARK SMILES IDX 81 46 75 47 74 48 33 50 63 51 44 52 62 53 45 54 48 55 61 56
REMARK SMILES IDX 79 57 46 58 47 59 60 61 80 62 49 63 34 64 35 65 43 66 36 67
REMARK SMILES IDX 42 68 37 69 38 70 39 71 40 72 41 73 64 74 65 75 73 76 66 77
REMARK SMILES IDX 72 78 67 79 68 80 69 81 70 82 71 83 50 84 51 85 59 86 52 87
REMARK SMILES IDX 58 88 53 89 54 90 55 91 56 92 57 93
REMARK H PARENT 17 5 5 18 22 30 78 49 48 60
REMARK Flexibility Score: inf
ROOT
ATOM      1  C   UNL     1       2.527   3.048  -9.395  1.00  0.00     0.116 C 
ENDROOT
BRANCH   1   2
ATOM      2  N   UNL     1       2.327   2.159  -8.276  1.00  0.00    -0.352 N 
ATOM      3  C   UNL     1       1.948   2.254  -6.971  1.00  0.00     0.254 C 
ATOM      4  O   UNL     1       1.589   1.159  -6.513  1.00  0.00    -0.269 OA
ATOM      5  H   UNL     1       2.517   1.226  -8.525  1.00  0.00     0.163 HD
BRANCH   3   6
ATOM      6  C   UNL     1       1.814   3.439  -6.052  1.00  0.00     0.078 A 
ATOM      7  C   UNL     1       0.940   3.851  -3.788  1.00  0.00     0.101 A 
ATOM      8  C   UNL     1       0.551   5.133  -4.174  1.00  0.00     0.025 A 
ATOM      9  C   UNL     1       1.682   3.070  -4.676  1.00  0.00     0.075 A 
ATOM     10  C   UNL     1       0.924   5.615  -5.419  1.00  0.00     0.023 A 
ATOM     11  Cl  UNL     1       2.819   1.899  -4.052  1.00  0.00    -0.082 Cl
ATOM     12  C   UNL     1       1.539   4.777  -6.366  1.00  0.00     0.055 A 
ATOM     13  Cl  UNL     1       2.007   5.633  -7.777  1.00  0.00    -0.083 Cl
BRANCH   7  14
ATOM     14  S   UNL     1       0.303   3.333  -2.221  1.00  0.00     0.242 S 
ATOM     15  O   UNL     1      -1.132   3.208  -2.378  1.00  0.00    -0.207 OA
ATOM     16  O   UNL     1       0.863   4.241  -1.245  1.00  0.00    -0.207 OA
BRANCH  14  17
ATOM     17  N   UNL     1       0.891   1.840  -1.794  1.00  0.00    -0.206 NA
ATOM     18  H   UNL     1       1.854   1.797  -2.128  1.00  0.00     0.141 HD
BRANCH  17  19
ATOM     19  C   UNL     1       0.219   0.611  -2.272  1.00  0.00     0.161 C 
BRANCH  19  20
ATOM     20  C   UNL     1       0.902  -0.707  -1.792  1.00  0.00     0.263 C 
BRANCH  20  21
ATOM     21  O   UNL     1       0.598  -1.174  -0.474  1.00  0.00    -0.355 OA
ATOM     22  C   UNL     1       0.496  -0.217   0.559  1.00  0.00     0.198 C 
ENDBRANCH  20  21
BRANCH  20  23
ATOM     23  O   UNL     1       2.275  -0.836  -2.164  1.00  0.00    -0.355 OA
ATOM     24  C   UNL     1       3.235  -0.313  -1.269  1.00  0.00     0.198 C 
ENDBRANCH  20  23
ENDBRANCH  19  20
ENDBRANCH  17  19
ENDBRANCH  14  17
ENDBRANCH   7  14
ENDBRANCH   3   6
ENDBRANCH   1   2
BRANCH   1  25
ATOM     25  C   UNL     1       3.948   3.598  -9.467  1.00  0.00     0.023 C 
BRANCH  25  26
ATOM     26  C   UNL     1       4.872   2.821 -10.410  1.00  0.00     0.023 C 
BRANCH  26  27
ATOM     27  C   UNL     1       4.399   2.713 -11.861  1.00  0.00     0.116 C 
BRANCH  27  28
ATOM     28  N   UNL     1       4.006   3.982 -12.458  1.00  0.00    -0.352 N 
ATOM     29  C   UNL     1       4.007   4.322 -13.791  1.00  0.00     0.251 C 
ATOM     30  H   UNL     1       3.704   4.680 -11.833  1.00  0.00     0.163 HD
ATOM     31  O   UNL     1       3.700   5.452 -14.155  1.00  0.00    -0.269 OA
BRANCH  29  32
ATOM     32  C   UNL     1       4.438   3.308 -14.771  1.00  0.00     0.039 A 
ATOM     33  C   UNL     1       5.563   3.571 -15.556  1.00  0.00     0.014 A 
ATOM     34  C   UNL     1       3.801   2.066 -14.823  1.00  0.00     0.014 A 
ATOM     35  C   UNL     1       6.112   2.546 -16.326  1.00  0.00     0.010 A 
ATOM     36  C   UNL     1       4.380   1.033 -15.553  1.00  0.00     0.010 A 
ATOM     37  C   UNL     1       5.556   1.257 -16.285  1.00  0.00    -0.014 A 
BRANCH  37  38
ATOM     38  C   UNL     1       6.232   0.109 -16.936  1.00  0.00     0.031 A 
ATOM     39  C   UNL     1       5.589  -0.595 -18.094  1.00  0.00     0.074 A 
ATOM     40  C   UNL     1       7.384  -0.354 -16.411  1.00  0.00     0.049 A 
ATOM     41  N   UNL     1       5.988  -1.668 -18.725  1.00  0.00    -0.248 NA
ATOM     42  C   UNL     1       4.324  -0.034 -18.592  1.00  0.00     0.031 C 
ATOM     43  C   UNL     1       8.081   0.218 -15.255  1.00  0.00     0.029 A 
ATOM     44  N   UNL     1       8.164  -1.424 -16.771  1.00  0.00    -0.354 N 
ATOM     45  C   UNL     1       5.017  -1.922 -19.686  1.00  0.00     0.074 A 
ATOM     46  C   UNL     1       3.993  -0.910 -19.530  1.00  0.00     0.031 C 
ATOM     47  C   UNL     1       9.191  -0.498 -15.012  1.00  0.00     0.029 A 
ATOM     48  C   UNL     1       9.265  -1.599 -15.966  1.00  0.00     0.049 A 
ATOM     49  H   UNL     1       7.955  -2.011 -17.533  1.00  0.00     0.167 HD
ATOM     50  C   UNL     1       4.989  -2.901 -20.621  1.00  0.00     0.031 A 
ATOM     51  C   UNL     1      10.221  -2.547 -15.984  1.00  0.00     0.031 A 
ATOM     52  C   UNL     1       6.011  -3.900 -20.777  1.00  0.00     0.049 A 
ATOM     53  C   UNL     1      10.159  -3.632 -17.021  1.00  0.00     0.074 A 
ATOM     54  C   UNL     1       6.107  -4.891 -21.739  1.00  0.00     0.029 A 
ATOM     55  N   UNL     1       7.112  -4.042 -19.945  1.00  0.00    -0.354 N 
ATOM     56  N   UNL     1       9.269  -3.813 -17.967  1.00  0.00    -0.248 NA
ATOM     57  C   UNL     1      11.228  -4.639 -16.993  1.00  0.00     0.031 C 
ATOM     58  C   UNL     1       7.245  -5.658 -21.463  1.00  0.00     0.029 A 
ATOM     59  C   UNL     1       7.878  -5.120 -20.353  1.00  0.00     0.049 A 
ATOM     60  H   UNL     1       7.318  -3.461 -19.178  1.00  0.00     0.167 HD
ATOM     61  C   UNL     1       9.675  -4.951 -18.653  1.00  0.00     0.074 A 
ATOM     62  C   UNL     1      10.901  -5.405 -18.026  1.00  0.00     0.031 C 
ATOM     63  C   UNL     1       9.085  -5.566 -19.707  1.00  0.00     0.031 A 
BRANCH  50  64
ATOM     64  C   UNL     1       3.803  -2.936 -21.545  1.00  0.00    -0.014 A 
ATOM     65  C   UNL     1       3.654  -1.978 -22.564  1.00  0.00     0.010 A 
ATOM     66  C   UNL     1       2.841  -3.953 -21.413  1.00  0.00     0.010 A 
ATOM     67  C   UNL     1       2.540  -2.010 -23.406  1.00  0.00     0.020 A 
ATOM     68  C   UNL     1       1.736  -4.001 -22.268  1.00  0.00     0.020 A 
ATOM     69  C   UNL     1       1.584  -3.017 -23.247  1.00  0.00     0.054 A 
BRANCH  69  70
ATOM     70  S   UNL     1       0.151  -3.043 -24.360  1.00  0.00     0.124 S 
ATOM     71  O   UNL     1      -0.674  -1.970 -23.810  1.00  0.00    -0.237 OA
ATOM     72  O   UNL     1       0.750  -2.769 -25.664  1.00  0.00    -0.237 OA
ATOM     73  O   UNL     1      -0.388  -4.391 -24.198  1.00  0.00    -0.744 OA
ENDBRANCH  69  70
ENDBRANCH  50  64
BRANCH  51  74
ATOM     74  C   UNL     1      11.320  -2.509 -14.984  1.00  0.00    -0.014 A 
ATOM     75  C   UNL     1      12.611  -2.104 -15.365  1.00  0.00     0.010 A 
ATOM     76  C   UNL     1      11.076  -2.852 -13.642  1.00  0.00     0.010 A 
ATOM     77  C   UNL     1      13.642  -2.052 -14.422  1.00  0.00     0.020 A 
ATOM     78  C   UNL     1      12.100  -2.781 -12.693  1.00  0.00     0.020 A 
ATOM     79  C   UNL     1      13.380  -2.390 -13.092  1.00  0.00     0.054 A 
BRANCH  79  80
ATOM     80  S   UNL     1      14.715  -2.252 -11.870  1.00  0.00     0.124 S 
ATOM     81  O   UNL     1      15.488  -3.462 -12.128  1.00  0.00    -0.237 OA
ATOM     82  O   UNL     1      15.360  -0.996 -12.244  1.00  0.00    -0.237 OA
ATOM     83  O   UNL     1      14.004  -2.220 -10.594  1.00  0.00    -0.744 OA
ENDBRANCH  79  80
ENDBRANCH  51  74
BRANCH  63  84
ATOM     84  C   UNL     1       9.758  -6.796 -20.248  1.00  0.00    -0.014 A 
ATOM     85  C   UNL     1       9.665  -8.024 -19.570  1.00  0.00     0.010 A 
ATOM     86  C   UNL     1      10.445  -6.736 -21.474  1.00  0.00     0.010 A 
ATOM     87  C   UNL     1      10.266  -9.168 -20.098  1.00  0.00     0.020 A 
ATOM     88  C   UNL     1      11.030  -7.883 -22.015  1.00  0.00     0.020 A 
ATOM     89  C   UNL     1      10.946  -9.091 -21.318  1.00  0.00     0.054 A 
BRANCH  89  90
ATOM     90  S   UNL     1      11.674 -10.600 -22.012  1.00  0.00     0.124 S 
ATOM     91  O   UNL     1      12.883 -10.751 -21.208  1.00  0.00    -0.237 OA
ATOM     92  O   UNL     1      10.634 -11.599 -21.775  1.00  0.00    -0.237 OA
ATOM     93  O   UNL     1      11.895 -10.262 -23.416  1.00  0.00    -0.744 OA
ENDBRANCH  89  90
ENDBRANCH  63  84
ENDBRANCH  37  38
ENDBRANCH  29  32
ENDBRANCH  27  28
ENDBRANCH  26  27
ENDBRANCH  25  26
ENDBRANCH   1  25
TORSDOF 20
