REMARK SMILES CC(C)c1noc(C[N@H+]2CCCC[C@H]2C(=O)NCCCCNC(=O)c2ccc(-c3c4nc(c(-c5ccc(S(=O)(=O)[O-])cc5)c5ccc([nH]5)c(-c5ccc(S(=O)(=O)[O-])cc5)c5nc(c(-c6ccc(S(=O)(=O)[O-])cc6)c6ccc3[nH]6)C=C5)C=C4)cc2)n1
REMARK SMILES IDX 19 1 18 2 17 3 15 4 16 5 14 7 9 8 10 9 11 11 13 12 12 13
REMARK SMILES IDX 8 14 7 15 4 16 5 17 85 18 6 19 2 20 1 21 3 22 20 23 21 24
REMARK SMILES IDX 22 25 23 26 24 28 25 29 26 30 84 31 27 32 83 33 28 34 29 35
REMARK SMILES IDX 30 36 77 37 31 38 82 39 76 40 78 41 32 42 81 43 75 44 74 45
REMARK SMILES IDX 33 47 63 48 44 49 62 50 45 51 48 52 61 53 79 54 46 55 47 56
REMARK SMILES IDX 60 58 80 59 49 60 34 61 35 62 43 63 36 64 42 65 37 66 38 67
REMARK SMILES IDX 39 68 40 69 41 70 64 71 65 72 73 73 66 74 72 75 67 76 68 77
REMARK SMILES IDX 69 78 70 79 71 80 50 81 51 82 59 83 52 84 58 85 53 86 54 87
REMARK SMILES IDX 55 88 56 89 57 90
REMARK H PARENT 17 6 9 10 22 27 78 46 48 57
REMARK Flexibility Score: inf
ROOT
ATOM      1  C   UNL     1      -5.299   2.993   2.383  1.00  0.00     0.023 C 
ENDROOT
BRANCH   1   2
ATOM      2  C   UNL     1      -5.208   1.956   1.258  1.00  0.00     0.116 C 
BRANCH   2   3
ATOM      3  N   UNL     1      -4.062   1.098   1.468  1.00  0.00    -0.351 N 
ATOM      4  C   UNL     1      -4.022  -0.139   2.039  1.00  0.00     0.278 C 
ATOM      5  O   UNL     1      -2.993  -0.434   2.648  1.00  0.00    -0.268 OA
ATOM      6  H   UNL     1      -3.198   1.454   1.158  1.00  0.00     0.163 HD
BRANCH   4   7
ATOM      7  C   UNL     1      -5.226  -1.094   1.851  1.00  0.00     0.274 C 
ATOM      8  N   UNL     1      -4.848  -2.523   1.688  1.00  0.00    -0.317 N 
ATOM      9  C   UNL     1      -4.229  -3.112   2.878  1.00  0.00     0.263 C 
ATOM     10  H   UNL     1      -5.748  -2.994   1.588  1.00  0.00     0.349 HD
ATOM     11  C   UNL     1      -5.121  -2.947   4.115  1.00  0.00     0.062 C 
ATOM     12  C   UNL     1      -6.202  -0.956   3.026  1.00  0.00     0.076 C 
ATOM     13  C   UNL     1      -5.613  -1.518   4.316  1.00  0.00     0.012 C 
BRANCH   8  14
ATOM     14  C   UNL     1      -4.137  -2.847   0.432  1.00  0.00     0.364 C 
BRANCH  14  15
ATOM     15  C   UNL     1      -2.827  -2.183   0.172  1.00  0.00     0.281 A 
ATOM     16  C   UNL     1      -0.873  -1.434   0.086  1.00  0.00     0.174 A 
ATOM     17  N   UNL     1      -1.569  -0.573  -0.671  1.00  0.00    -0.062 NA
ATOM     18  N   UNL     1      -1.613  -2.489   0.574  1.00  0.00    -0.191 NA
ATOM     19  O   UNL     1      -2.868  -1.068  -0.616  1.00  0.00    -0.333 OA
BRANCH  16  20
ATOM     20  C   UNL     1       0.601  -1.310   0.328  1.00  0.00     0.055 C 
ATOM     21  C   UNL     1       1.161   0.073  -0.023  1.00  0.00     0.016 C 
ATOM     22  C   UNL     1       0.969  -1.645   1.776  1.00  0.00     0.016 C 
ENDBRANCH  16  20
ENDBRANCH  14  15
ENDBRANCH   8  14
ENDBRANCH   4   7
ENDBRANCH   2   3
ENDBRANCH   1   2
BRANCH   1  23
ATOM     23  C   UNL     1      -4.037   3.847   2.569  1.00  0.00     0.023 C 
BRANCH  23  24
ATOM     24  C   UNL     1      -3.562   4.583   1.321  1.00  0.00     0.116 C 
BRANCH  24  25
ATOM     25  N   UNL     1      -4.524   5.575   0.869  1.00  0.00    -0.352 N 
ATOM     26  C   UNL     1      -4.327   6.904   0.583  1.00  0.00     0.251 C 
ATOM     27  H   UNL     1      -5.445   5.248   0.750  1.00  0.00     0.163 HD
ATOM     28  O   UNL     1      -5.297   7.634   0.387  1.00  0.00    -0.269 OA
BRANCH  26  29
ATOM     29  C   UNL     1      -2.957   7.462   0.542  1.00  0.00     0.039 A 
ATOM     30  C   UNL     1      -2.704   8.678   1.180  1.00  0.00     0.014 A 
ATOM     31  C   UNL     1      -1.924   6.790  -0.118  1.00  0.00     0.014 A 
ATOM     32  C   UNL     1      -1.402   9.186   1.216  1.00  0.00     0.010 A 
ATOM     33  C   UNL     1      -0.616   7.262  -0.021  1.00  0.00     0.010 A 
ATOM     34  C   UNL     1      -0.339   8.462   0.651  1.00  0.00    -0.014 A 
BRANCH  34  35
ATOM     35  C   UNL     1       1.067   8.936   0.767  1.00  0.00     0.031 A 
ATOM     36  C   UNL     1       1.851   9.298  -0.467  1.00  0.00     0.074 A 
ATOM     37  C   UNL     1       1.656   8.990   1.979  1.00  0.00     0.049 A 
ATOM     38  N   UNL     1       3.106   9.655  -0.571  1.00  0.00    -0.248 NA
ATOM     39  C   UNL     1       1.137   9.236  -1.753  1.00  0.00     0.031 C 
ATOM     40  C   UNL     1       1.015   8.646   3.251  1.00  0.00     0.029 A 
ATOM     41  N   UNL     1       2.932   9.349   2.341  1.00  0.00    -0.354 N 
ATOM     42  C   UNL     1       3.331   9.861  -1.927  1.00  0.00     0.074 A 
ATOM     43  C   UNL     1       2.101   9.531  -2.614  1.00  0.00     0.031 C 
ATOM     44  C   UNL     1       1.891   8.834   4.252  1.00  0.00     0.029 A 
ATOM     45  C   UNL     1       3.169   9.262   3.694  1.00  0.00     0.049 A 
ATOM     46  H   UNL     1       3.613   9.641   1.693  1.00  0.00     0.167 HD
ATOM     47  C   UNL     1       4.450  10.308  -2.545  1.00  0.00     0.031 A 
ATOM     48  C   UNL     1       4.292   9.486   4.405  1.00  0.00     0.031 A 
ATOM     49  C   UNL     1       5.676  10.632  -1.863  1.00  0.00     0.049 A 
ATOM     50  C   UNL     1       5.543   9.918   3.684  1.00  0.00     0.074 A 
ATOM     51  C   UNL     1       6.859  11.108  -2.401  1.00  0.00     0.029 A 
ATOM     52  N   UNL     1       5.877  10.517  -0.496  1.00  0.00    -0.354 N 
ATOM     53  N   UNL     1       5.720  10.150   2.405  1.00  0.00    -0.248 NA
ATOM     54  C   UNL     1       6.745  10.125   4.505  1.00  0.00     0.031 C 
ATOM     55  C   UNL     1       7.792  11.233  -1.367  1.00  0.00     0.029 A 
ATOM     56  C   UNL     1       7.170  10.896  -0.176  1.00  0.00     0.049 A 
ATOM     57  H   UNL     1       5.201  10.212   0.151  1.00  0.00     0.167 HD
ATOM     58  C   UNL     1       7.041  10.565   2.276  1.00  0.00     0.074 A 
ATOM     59  C   UNL     1       7.612  10.569   3.606  1.00  0.00     0.031 C 
ATOM     60  C   UNL     1       7.722  10.911   1.155  1.00  0.00     0.031 A 
BRANCH  47  61
ATOM     61  C   UNL     1       4.400  10.489  -4.040  1.00  0.00    -0.014 A 
ATOM     62  C   UNL     1       3.631  11.520  -4.613  1.00  0.00     0.010 A 
ATOM     63  C   UNL     1       5.176   9.669  -4.879  1.00  0.00     0.010 A 
ATOM     64  C   UNL     1       3.616  11.707  -5.997  1.00  0.00     0.020 A 
ATOM     65  C   UNL     1       5.187   9.873  -6.263  1.00  0.00     0.020 A 
ATOM     66  C   UNL     1       4.397  10.884  -6.813  1.00  0.00     0.054 A 
BRANCH  66  67
ATOM     67  S   UNL     1       4.388  11.181  -8.602  1.00  0.00     0.124 S 
ATOM     68  O   UNL     1       3.044  10.744  -8.974  1.00  0.00    -0.237 OA
ATOM     69  O   UNL     1       4.625  12.620  -8.687  1.00  0.00    -0.237 OA
ATOM     70  O   UNL     1       5.475  10.342  -9.101  1.00  0.00    -0.744 OA
ENDBRANCH  66  67
ENDBRANCH  47  61
BRANCH  48  71
ATOM     71  C   UNL     1       4.303   9.300   5.884  1.00  0.00    -0.014 A 
ATOM     72  C   UNL     1       4.496  10.397   6.742  1.00  0.00     0.010 A 
ATOM     73  C   UNL     1       4.162   8.015   6.442  1.00  0.00     0.010 A 
ATOM     74  C   UNL     1       4.596  10.209   8.124  1.00  0.00     0.020 A 
ATOM     75  C   UNL     1       4.226   7.827   7.826  1.00  0.00     0.020 A 
ATOM     76  C   UNL     1       4.465   8.923   8.656  1.00  0.00     0.054 A 
BRANCH  76  77
ATOM     77  S   UNL     1       4.599   8.701  10.452  1.00  0.00     0.124 S 
ATOM     78  O   UNL     1       6.029   8.891  10.674  1.00  0.00    -0.237 OA
ATOM     79  O   UNL     1       3.732   9.759  10.966  1.00  0.00    -0.237 OA
ATOM     80  O   UNL     1       4.106   7.342  10.666  1.00  0.00    -0.744 OA
ENDBRANCH  76  77
ENDBRANCH  48  71
BRANCH  60  81
ATOM     81  C   UNL     1       9.146  11.373   1.319  1.00  0.00    -0.014 A 
ATOM     82  C   UNL     1      10.173  10.475   1.661  1.00  0.00     0.010 A 
ATOM     83  C   UNL     1       9.470  12.719   1.065  1.00  0.00     0.010 A 
ATOM     84  C   UNL     1      11.493  10.921   1.772  1.00  0.00     0.020 A 
ATOM     85  C   UNL     1      10.793  13.162   1.145  1.00  0.00     0.020 A 
ATOM     86  C   UNL     1      11.795  12.261   1.510  1.00  0.00     0.054 A 
BRANCH  86  87
ATOM     87  S   UNL     1      13.524  12.799   1.605  1.00  0.00     0.124 S 
ATOM     88  O   UNL     1      13.772  12.775   3.044  1.00  0.00    -0.237 OA
ATOM     89  O   UNL     1      14.221  11.775   0.830  1.00  0.00    -0.237 OA
ATOM     90  O   UNL     1      13.509  14.128   0.999  1.00  0.00    -0.744 OA
ENDBRANCH  86  87
ENDBRANCH  60  81
ENDBRANCH  34  35
ENDBRANCH  26  29
ENDBRANCH  24  25
ENDBRANCH  23  24
ENDBRANCH   1  23
TORSDOF 17
