REMARK SMILES Cc1ccc(N2C(=O)C[C@H](Sc3ccccc3C(=O)NCCCCNC(=O)c3ccc(-c4c5nc(c(-c6ccc(S(=O)(=O)[O-])cc6)c6ccc([nH]6)c(-c6ccc(S(=O)(=O)[O-])cc6)c6nc(c(-c7ccc(S(=O)(=O)[O-])cc7)c7ccc4[nH]7)C=C6)C=C5)cc3)C2=O)cc1
REMARK SMILES IDX 22 1 21 2 20 3 18 4 19 5 17 7 12 8 13 9 14 10 16 11 15 12
REMARK SMILES IDX 11 13 10 14 6 15 7 16 88 17 8 18 9 19 89 20 5 21 1 22 2 23
REMARK SMILES IDX 3 24 91 25 4 26 90 27 23 28 24 29 25 30 26 31 27 33 28 34
REMARK SMILES IDX 29 35 87 36 30 37 86 38 31 39 32 40 33 41 80 42 34 43 85 44
REMARK SMILES IDX 79 45 81 46 35 47 84 48 78 49 77 50 36 52 66 53 47 54 65 55
REMARK SMILES IDX 48 56 51 57 64 58 82 59 49 60 50 61 63 63 83 64 52 65 37 66
REMARK SMILES IDX 38 67 46 68 39 69 45 70 40 71 41 72 42 73 43 74 44 75 67 76
REMARK SMILES IDX 68 77 76 78 69 79 75 80 70 81 71 82 72 83 73 84 74 85 53 86
REMARK SMILES IDX 54 87 62 88 55 89 61 90 56 91 57 92 58 93 59 94 60 95
REMARK H PARENT 20 6 25 32 81 51 51 62
REMARK Flexibility Score: inf
ROOT
ATOM      1  C   UNL     1      -3.989   5.048  -1.766  1.00  0.00     0.023 C 
ENDROOT
BRANCH   1   2
ATOM      2  C   UNL     1      -5.217   5.285  -0.883  1.00  0.00     0.116 C 
BRANCH   2   3
ATOM      3  N   UNL     1      -6.207   4.207  -0.876  1.00  0.00    -0.352 N 
ATOM      4  C   UNL     1      -6.667   3.331   0.084  1.00  0.00     0.252 C 
ATOM      5  O   UNL     1      -7.633   2.627  -0.201  1.00  0.00    -0.269 OA
ATOM      6  H   UNL     1      -6.642   4.081  -1.750  1.00  0.00     0.163 HD
BRANCH   4   7
ATOM      7  C   UNL     1      -6.005   3.175   1.408  1.00  0.00     0.053 A 
ATOM      8  C   UNL     1      -5.775   1.913   2.010  1.00  0.00     0.021 A 
ATOM      9  C   UNL     1      -5.097   1.866   3.245  1.00  0.00     0.016 A 
ATOM     10  C   UNL     1      -4.696   3.034   3.897  1.00  0.00     0.001 A 
ATOM     11  C   UNL     1      -5.686   4.336   2.132  1.00  0.00     0.015 A 
ATOM     12  C   UNL     1      -5.016   4.270   3.354  1.00  0.00     0.001 A 
BRANCH   8  13
ATOM     13  S   UNL     1      -6.565   0.359   1.552  1.00  0.00    -0.111 SA
BRANCH  13  14
ATOM     14  C   UNL     1      -5.455  -0.439   0.354  1.00  0.00     0.151 C 
ATOM     15  N   UNL     1      -3.212   0.101   0.005  1.00  0.00    -0.250 N 
ATOM     16  C   UNL     1      -3.908   0.734  -1.001  1.00  0.00     0.235 C 
ATOM     17  C   UNL     1      -4.042  -0.611   0.843  1.00  0.00     0.247 C 
ATOM     18  O   UNL     1      -3.475   1.458  -1.887  1.00  0.00    -0.274 OA
ATOM     19  C   UNL     1      -5.324   0.254  -0.979  1.00  0.00     0.126 C 
ATOM     20  O   UNL     1      -3.733  -1.270   1.830  1.00  0.00    -0.273 OA
BRANCH  15  21
ATOM     21  C   UNL     1      -1.798   0.106   0.094  1.00  0.00     0.052 A 
ATOM     22  C   UNL     1       2.525   0.006   0.027  1.00  0.00     0.044 C 
ATOM     23  C   UNL     1       1.028   0.055   0.093  1.00  0.00    -0.051 A 
ATOM     24  C   UNL     1       0.298  -1.088   0.431  1.00  0.00     0.005 A 
ATOM     25  C   UNL     1       0.338   1.223  -0.242  1.00  0.00     0.005 A 
ATOM     26  C   UNL     1      -1.101  -1.055   0.457  1.00  0.00     0.027 A 
ATOM     27  C   UNL     1      -1.060   1.244  -0.254  1.00  0.00     0.027 A 
ENDBRANCH  15  21
ENDBRANCH  13  14
ENDBRANCH   8  13
ENDBRANCH   4   7
ENDBRANCH   2   3
ENDBRANCH   1   2
BRANCH   1  28
ATOM     28  C   UNL     1      -4.255   4.713  -3.230  1.00  0.00     0.023 C 
BRANCH  28  29
ATOM     29  C   UNL     1      -5.030   5.767  -4.013  1.00  0.00     0.116 C 
BRANCH  29  30
ATOM     30  N   UNL     1      -4.201   6.688  -4.778  1.00  0.00    -0.352 N 
ATOM     31  C   UNL     1      -4.600   7.540  -5.805  1.00  0.00     0.251 C 
ATOM     32  H   UNL     1      -3.246   6.710  -4.543  1.00  0.00     0.163 HD
ATOM     33  O   UNL     1      -3.818   8.087  -6.546  1.00  0.00    -0.269 OA
BRANCH  31  34
ATOM     34  C   UNL     1      -6.048   7.852  -5.875  1.00  0.00     0.039 A 
ATOM     35  C   UNL     1      -6.439   9.143  -5.500  1.00  0.00     0.014 A 
ATOM     36  C   UNL     1      -6.977   6.826  -5.995  1.00  0.00     0.014 A 
ATOM     37  C   UNL     1      -7.732   9.353  -5.031  1.00  0.00     0.010 A 
ATOM     38  C   UNL     1      -8.223   7.008  -5.432  1.00  0.00     0.010 A 
ATOM     39  C   UNL     1      -8.579   8.255  -4.898  1.00  0.00    -0.014 A 
BRANCH  39  40
ATOM     40  C   UNL     1      -9.838   8.284  -4.166  1.00  0.00     0.031 A 
ATOM     41  C   UNL     1     -11.112   8.268  -4.921  1.00  0.00     0.074 A 
ATOM     42  C   UNL     1      -9.833   8.191  -2.816  1.00  0.00     0.049 A 
ATOM     43  N   UNL     1     -12.264   8.590  -4.437  1.00  0.00    -0.248 NA
ATOM     44  C   UNL     1     -11.166   7.937  -6.343  1.00  0.00     0.031 C 
ATOM     45  C   UNL     1     -10.973   7.874  -1.958  1.00  0.00     0.029 A 
ATOM     46  N   UNL     1      -8.836   8.575  -1.913  1.00  0.00    -0.354 N 
ATOM     47  C   UNL     1     -13.219   8.195  -5.350  1.00  0.00     0.074 A 
ATOM     48  C   UNL     1     -12.483   7.911  -6.557  1.00  0.00     0.031 C 
ATOM     49  C   UNL     1     -10.731   8.357  -0.729  1.00  0.00     0.029 A 
ATOM     50  C   UNL     1      -9.512   9.143  -0.820  1.00  0.00     0.049 A 
ATOM     51  H   UNL     1      -7.863   8.469  -2.022  1.00  0.00     0.167 HD
ATOM     52  C   UNL     1     -14.503   7.999  -4.933  1.00  0.00     0.031 A 
ATOM     53  C   UNL     1      -9.410  10.458  -0.463  1.00  0.00     0.031 A 
ATOM     54  C   UNL     1     -14.692   8.482  -3.564  1.00  0.00     0.049 A 
ATOM     55  C   UNL     1     -10.746  11.178  -0.467  1.00  0.00     0.074 A 
ATOM     56  C   UNL     1     -14.772   7.847  -2.336  1.00  0.00     0.029 A 
ATOM     57  N   UNL     1     -14.512   9.836  -3.295  1.00  0.00    -0.354 N 
ATOM     58  N   UNL     1     -11.812  10.733  -1.076  1.00  0.00    -0.248 NA
ATOM     59  C   UNL     1     -10.982  12.461   0.190  1.00  0.00     0.031 C 
ATOM     60  C   UNL     1     -14.524   8.817  -1.327  1.00  0.00     0.029 A 
ATOM     61  C   UNL     1     -14.337  10.044  -1.940  1.00  0.00     0.049 A 
ATOM     62  H   UNL     1     -14.511  10.547  -3.976  1.00  0.00     0.167 HD
ATOM     63  C   UNL     1     -12.850  11.610  -0.899  1.00  0.00     0.074 A 
ATOM     64  C   UNL     1     -12.280  12.675  -0.093  1.00  0.00     0.031 C 
ATOM     65  C   UNL     1     -14.089  11.388  -1.430  1.00  0.00     0.031 A 
BRANCH  52  66
ATOM     66  C   UNL     1     -15.502   7.109  -5.655  1.00  0.00    -0.014 A 
ATOM     67  C   UNL     1     -16.598   6.570  -4.947  1.00  0.00     0.010 A 
ATOM     68  C   UNL     1     -15.380   6.687  -6.993  1.00  0.00     0.010 A 
ATOM     69  C   UNL     1     -17.457   5.607  -5.510  1.00  0.00     0.020 A 
ATOM     70  C   UNL     1     -16.213   5.713  -7.564  1.00  0.00     0.020 A 
ATOM     71  C   UNL     1     -17.242   5.165  -6.812  1.00  0.00     0.054 A 
BRANCH  71  72
ATOM     72  S   UNL     1     -18.302   3.871  -7.510  1.00  0.00     0.124 S 
ATOM     73  O   UNL     1     -18.091   2.759  -6.587  1.00  0.00    -0.237 OA
ATOM     74  O   UNL     1     -19.623   4.489  -7.465  1.00  0.00    -0.237 OA
ATOM     75  O   UNL     1     -17.761   3.666  -8.853  1.00  0.00    -0.744 OA
ENDBRANCH  71  72
ENDBRANCH  52  66
BRANCH  53  76
ATOM     76  C   UNL     1      -8.097  11.086  -0.782  1.00  0.00    -0.014 A 
ATOM     77  C   UNL     1      -6.976  10.645  -0.046  1.00  0.00     0.010 A 
ATOM     78  C   UNL     1      -7.890  11.730  -2.014  1.00  0.00     0.010 A 
ATOM     79  C   UNL     1      -5.699  10.674  -0.611  1.00  0.00     0.020 A 
ATOM     80  C   UNL     1      -6.605  11.770  -2.579  1.00  0.00     0.020 A 
ATOM     81  C   UNL     1      -5.536  11.175  -1.902  1.00  0.00     0.054 A 
BRANCH  81  82
ATOM     82  S   UNL     1      -3.965  10.825  -2.750  1.00  0.00     0.124 S 
ATOM     83  O   UNL     1      -2.992  11.495  -1.893  1.00  0.00    -0.237 OA
ATOM     84  O   UNL     1      -3.931   9.362  -2.717  1.00  0.00    -0.237 OA
ATOM     85  O   UNL     1      -4.157  11.418  -4.069  1.00  0.00    -0.744 OA
ENDBRANCH  81  82
ENDBRANCH  53  76
BRANCH  65  86
ATOM     86  C   UNL     1     -15.229  12.381  -1.463  1.00  0.00    -0.014 A 
ATOM     87  C   UNL     1     -15.066  13.773  -1.394  1.00  0.00     0.010 A 
ATOM     88  C   UNL     1     -16.540  11.903  -1.713  1.00  0.00     0.010 A 
ATOM     89  C   UNL     1     -16.162  14.642  -1.502  1.00  0.00     0.020 A 
ATOM     90  C   UNL     1     -17.632  12.762  -1.869  1.00  0.00     0.020 A 
ATOM     91  C   UNL     1     -17.439  14.131  -1.736  1.00  0.00     0.054 A 
BRANCH  91  92
ATOM     92  S   UNL     1     -18.837  15.264  -1.940  1.00  0.00     0.124 S 
ATOM     93  O   UNL     1     -19.279  15.447  -0.560  1.00  0.00    -0.237 OA
ATOM     94  O   UNL     1     -18.222  16.436  -2.561  1.00  0.00    -0.237 OA
ATOM     95  O   UNL     1     -19.755  14.523  -2.801  1.00  0.00    -0.744 OA
ENDBRANCH  91  92
ENDBRANCH  65  86
ENDBRANCH  39  40
ENDBRANCH  31  34
ENDBRANCH  29  30
ENDBRANCH  28  29
ENDBRANCH   1  28
TORSDOF 17
