REMARK SMILES C[C@@H]1CCCCN1S(=O)(=O)c1ccc(CCC(=O)NCCCCNC(=O)c2ccc(-c3c4nc(c(-c5ccc(S(=O)(=O)[O-])cc5)c5ccc([nH]5)c(-c5ccc(S(=O)(=O)[O-])cc5)c5nc(c(-c6ccc(S(=O)(=O)[O-])cc6)c6ccc3[nH]6)C=C5)C=C4)cc2)cc1
REMARK SMILES IDX 21 1 20 2 19 3 17 4 18 5 16 7 15 8 14 9 11 10 12 11 88 12
REMARK SMILES IDX 13 13 87 14 8 15 9 16 10 17 7 18 1 19 2 20 3 21 4 22 6 23
REMARK SMILES IDX 5 24 22 25 23 26 24 27 25 28 26 30 27 31 28 32 86 33 29 34
REMARK SMILES IDX 85 35 30 36 31 37 32 38 79 39 33 40 84 41 78 42 80 43 34 44
REMARK SMILES IDX 83 45 77 46 76 47 35 49 65 50 46 51 64 52 47 53 50 54 63 55
REMARK SMILES IDX 81 56 48 57 49 58 62 60 82 61 51 62 36 63 37 64 45 65 38 66
REMARK SMILES IDX 44 67 39 68 40 69 41 70 42 71 43 72 66 73 67 74 75 75 68 76
REMARK SMILES IDX 74 77 69 78 70 79 71 80 72 81 73 82 52 83 53 84 61 85 54 86
REMARK SMILES IDX 60 87 55 88 56 89 57 90 58 91 59 92
REMARK H PARENT 19 6 24 29 80 48 50 59
REMARK Flexibility Score: inf
ROOT
ATOM      1  C   UNL     1       4.052  -4.067  -2.745  1.00  0.00     0.023 C 
ENDROOT
BRANCH   1   2
ATOM      2  C   UNL     1       5.525  -4.446  -2.705  1.00  0.00     0.116 C 
BRANCH   2   3
ATOM      3  N   UNL     1       6.054  -4.572  -4.052  1.00  0.00    -0.356 N 
ATOM      4  C   UNL     1       6.575  -3.614  -4.871  1.00  0.00     0.220 C 
ATOM      5  O   UNL     1       6.791  -3.903  -6.049  1.00  0.00    -0.275 OA
ATOM      6  H   UNL     1       6.032  -5.481  -4.429  1.00  0.00     0.163 HD
BRANCH   4   7
ATOM      7  C   UNL     1       6.934  -2.238  -4.338  1.00  0.00     0.105 C 
BRANCH   7   8
ATOM      8  C   UNL     1       6.038  -1.114  -4.891  1.00  0.00     0.045 C 
BRANCH   8   9
ATOM      9  C   UNL     1       4.815  -0.849  -4.038  1.00  0.00    -0.047 A 
ATOM     10  C   UNL     1       2.632  -0.912  -2.288  1.00  0.00     0.082 A 
ATOM     11  C   UNL     1       2.430  -1.139  -3.654  1.00  0.00     0.022 A 
ATOM     12  C   UNL     1       3.890  -0.509  -1.825  1.00  0.00     0.022 A 
ATOM     13  C   UNL     1       3.524  -1.098  -4.529  1.00  0.00     0.005 A 
ATOM     14  C   UNL     1       4.972  -0.460  -2.701  1.00  0.00     0.005 A 
BRANCH  10  15
ATOM     15  S   UNL     1       1.515  -1.676  -1.111  1.00  0.00     0.243 S 
ATOM     16  O   UNL     1       2.355  -2.147  -0.023  1.00  0.00    -0.207 OA
ATOM     17  O   UNL     1       0.706  -2.611  -1.859  1.00  0.00    -0.207 OA
BRANCH  15  18
ATOM     18  N   UNL     1       0.492  -0.463  -0.527  1.00  0.00    -0.195 NA
ATOM     19  C   UNL     1       1.959   0.630   1.230  1.00  0.00     0.026 C 
ATOM     20  C   UNL     1       1.042   0.809   0.021  1.00  0.00     0.070 C 
ATOM     21  C   UNL     1      -0.117   1.762   0.400  1.00  0.00     0.020 C 
ATOM     22  C   UNL     1      -1.446   1.363  -0.230  1.00  0.00     0.003 C 
ATOM     23  C   UNL     1      -0.635  -0.997   0.289  1.00  0.00     0.103 C 
ATOM     24  C   UNL     1      -1.835  -0.058   0.174  1.00  0.00     0.017 C 
ENDBRANCH  15  18
ENDBRANCH  10  15
ENDBRANCH   8   9
ENDBRANCH   7   8
ENDBRANCH   4   7
ENDBRANCH   2   3
ENDBRANCH   1   2
BRANCH   1  25
ATOM     25  C   UNL     1       3.066  -5.223  -2.738  1.00  0.00     0.023 C 
BRANCH  25  26
ATOM     26  C   UNL     1       2.952  -5.929  -1.396  1.00  0.00     0.116 C 
BRANCH  26  27
ATOM     27  N   UNL     1       2.391  -5.109  -0.324  1.00  0.00    -0.352 N 
ATOM     28  C   UNL     1       1.313  -5.353   0.499  1.00  0.00     0.251 C 
ATOM     29  H   UNL     1       2.853  -4.253  -0.166  1.00  0.00     0.163 HD
ATOM     30  O   UNL     1       0.921  -4.513   1.305  1.00  0.00    -0.269 OA
BRANCH  28  31
ATOM     31  C   UNL     1       0.588  -6.631   0.385  1.00  0.00     0.039 A 
ATOM     32  C   UNL     1      -0.809  -6.619   0.361  1.00  0.00     0.014 A 
ATOM     33  C   UNL     1       1.286  -7.829   0.245  1.00  0.00     0.014 A 
ATOM     34  C   UNL     1      -1.503  -7.803   0.107  1.00  0.00     0.010 A 
ATOM     35  C   UNL     1       0.605  -8.970  -0.142  1.00  0.00     0.010 A 
ATOM     36  C   UNL     1      -0.798  -8.976  -0.197  1.00  0.00    -0.014 A 
BRANCH  36  37
ATOM     37  C   UNL     1      -1.478 -10.252  -0.527  1.00  0.00     0.031 A 
ATOM     38  C   UNL     1      -1.177 -11.470   0.306  1.00  0.00     0.074 A 
ATOM     39  C   UNL     1      -2.258 -10.348  -1.621  1.00  0.00     0.049 A 
ATOM     40  N   UNL     1      -1.465 -12.723   0.078  1.00  0.00    -0.248 NA
ATOM     41  C   UNL     1      -0.388 -11.249   1.532  1.00  0.00     0.031 C 
ATOM     42  C   UNL     1      -2.595  -9.249  -2.530  1.00  0.00     0.029 A 
ATOM     43  N   UNL     1      -2.903 -11.431  -2.160  1.00  0.00    -0.354 N 
ATOM     44  C   UNL     1      -0.835 -13.441   1.088  1.00  0.00     0.074 A 
ATOM     45  C   UNL     1      -0.107 -12.489   1.896  1.00  0.00     0.031 C 
ATOM     46  C   UNL     1      -3.416  -9.707  -3.489  1.00  0.00     0.029 A 
ATOM     47  C   UNL     1      -3.620 -11.138  -3.296  1.00  0.00     0.049 A 
ATOM     48  H   UNL     1      -2.857 -12.334  -1.770  1.00  0.00     0.167 HD
ATOM     49  C   UNL     1      -0.877 -14.771   1.337  1.00  0.00     0.031 A 
ATOM     50  C   UNL     1      -4.353 -11.938  -4.093  1.00  0.00     0.031 A 
ATOM     51  C   UNL     1      -1.661 -15.695   0.566  1.00  0.00     0.049 A 
ATOM     52  C   UNL     1      -4.442 -13.403  -3.764  1.00  0.00     0.074 A 
ATOM     53  C   UNL     1      -1.840 -17.052   0.765  1.00  0.00     0.029 A 
ATOM     54  N   UNL     1      -2.421 -15.345  -0.541  1.00  0.00    -0.354 N 
ATOM     55  N   UNL     1      -3.857 -14.066  -2.794  1.00  0.00    -0.248 NA
ATOM     56  C   UNL     1      -5.296 -14.226  -4.631  1.00  0.00     0.031 C 
ATOM     57  C   UNL     1      -2.693 -17.527  -0.238  1.00  0.00     0.029 A 
ATOM     58  C   UNL     1      -3.076 -16.458  -1.035  1.00  0.00     0.049 A 
ATOM     59  H   UNL     1      -2.484 -14.439  -0.920  1.00  0.00     0.167 HD
ATOM     60  C   UNL     1      -4.293 -15.379  -2.916  1.00  0.00     0.074 A 
ATOM     61  C   UNL     1      -5.197 -15.415  -4.050  1.00  0.00     0.031 C 
ATOM     62  C   UNL     1      -3.978 -16.459  -2.159  1.00  0.00     0.031 A 
BRANCH  49  63
ATOM     63  C   UNL     1      -0.049 -15.281   2.487  1.00  0.00    -0.014 A 
ATOM     64  C   UNL     1      -0.362 -14.943   3.817  1.00  0.00     0.010 A 
ATOM     65  C   UNL     1       1.079 -16.082   2.235  1.00  0.00     0.010 A 
ATOM     66  C   UNL     1       0.479 -15.328   4.864  1.00  0.00     0.020 A 
ATOM     67  C   UNL     1       1.905 -16.499   3.283  1.00  0.00     0.020 A 
ATOM     68  C   UNL     1       1.616 -16.093   4.588  1.00  0.00     0.054 A 
BRANCH  68  69
ATOM     69  S   UNL     1       2.708 -16.560   5.959  1.00  0.00     0.124 S 
ATOM     70  O   UNL     1       3.449 -15.322   6.186  1.00  0.00    -0.237 OA
ATOM     71  O   UNL     1       1.766 -16.929   7.013  1.00  0.00    -0.237 OA
ATOM     72  O   UNL     1       3.492 -17.666   5.414  1.00  0.00    -0.744 OA
ENDBRANCH  68  69
ENDBRANCH  49  63
BRANCH  50  73
ATOM     73  C   UNL     1      -5.098 -11.357  -5.242  1.00  0.00    -0.014 A 
ATOM     74  C   UNL     1      -6.493 -11.196  -5.164  1.00  0.00     0.010 A 
ATOM     75  C   UNL     1      -4.424 -10.918  -6.396  1.00  0.00     0.010 A 
ATOM     76  C   UNL     1      -7.201 -10.614  -6.218  1.00  0.00     0.020 A 
ATOM     77  C   UNL     1      -5.126 -10.315  -7.444  1.00  0.00     0.020 A 
ATOM     78  C   UNL     1      -6.513 -10.172  -7.351  1.00  0.00     0.054 A 
BRANCH  78  79
ATOM     79  S   UNL     1      -7.446  -9.352  -8.675  1.00  0.00     0.124 S 
ATOM     80  O   UNL     1      -8.130 -10.476  -9.306  1.00  0.00    -0.237 OA
ATOM     81  O   UNL     1      -8.299  -8.427  -7.934  1.00  0.00    -0.237 OA
ATOM     82  O   UNL     1      -6.407  -8.717  -9.483  1.00  0.00    -0.744 OA
ENDBRANCH  78  79
ENDBRANCH  50  73
BRANCH  62  83
ATOM     83  C   UNL     1      -4.649 -17.759  -2.502  1.00  0.00    -0.014 A 
ATOM     84  C   UNL     1      -4.242 -18.516  -3.614  1.00  0.00     0.010 A 
ATOM     85  C   UNL     1      -5.651 -18.262  -1.652  1.00  0.00     0.010 A 
ATOM     86  C   UNL     1      -4.844 -19.748  -3.882  1.00  0.00     0.020 A 
ATOM     87  C   UNL     1      -6.239 -19.503  -1.905  1.00  0.00     0.020 A 
ATOM     88  C   UNL     1      -5.838 -20.233  -3.026  1.00  0.00     0.054 A 
BRANCH  88  89
ATOM     89  S   UNL     1      -6.562 -21.861  -3.361  1.00  0.00     0.124 S 
ATOM     90  O   UNL     1      -7.460 -21.570  -4.475  1.00  0.00    -0.237 OA
ATOM     91  O   UNL     1      -5.393 -22.673  -3.692  1.00  0.00    -0.237 OA
ATOM     92  O   UNL     1      -7.220 -22.212  -2.105  1.00  0.00    -0.744 OA
ENDBRANCH  88  89
ENDBRANCH  62  83
ENDBRANCH  36  37
ENDBRANCH  28  31
ENDBRANCH  26  27
ENDBRANCH  25  26
ENDBRANCH   1  25
TORSDOF 18
