REMARK SMILES COC(=O)c1ccc([C@H]2Nc3c(C(=O)NCCCCNC(=O)c4ccc(-c5c6nc(c(-c7ccc(S(=O)(=O)[O-])cc7)c7ccc([nH]7)c(-c7ccc(S(=O)(=O)[O-])cc7)c7nc(c(-c8ccc(S(=O)(=O)[O-])cc8)c8ccc5[nH]8)C=C7)C=C6)cc4)cccc3[C@@H]3[C@@H]4CC[C@@H](C4)[C@@H]32)cc1
REMARK SMILES IDX 17 1 16 2 15 3 13 4 14 5 12 7 9 8 10 9 93 10 11 11 87 13
REMARK SMILES IDX 91 14 86 15 88 16 90 17 92 18 83 19 85 20 89 21 84 22 8 23
REMARK SMILES IDX 5 24 6 25 95 26 7 27 94 28 3 29 4 30 2 31 1 32 18 33 19 34
REMARK SMILES IDX 20 35 21 36 22 38 23 39 24 40 82 41 25 42 81 43 26 44 27 45
REMARK SMILES IDX 28 46 75 47 29 48 80 49 74 50 76 51 30 52 79 53 73 54 72 55
REMARK SMILES IDX 31 57 61 58 42 59 60 60 43 61 46 62 59 63 77 64 44 65 45 66
REMARK SMILES IDX 58 68 78 69 47 70 32 71 33 72 41 73 34 74 40 75 35 76 36 77
REMARK SMILES IDX 37 78 38 79 39 80 62 81 63 82 71 83 64 84 70 85 65 86 66 87
REMARK SMILES IDX 67 88 68 89 69 90 48 91 49 92 57 93 50 94 56 95 51 96 52 97
REMARK SMILES IDX 53 98 54 99 55 100
REMARK H PARENT 15 6 10 12 20 37 76 56 46 67
REMARK Flexibility Score: inf
ROOT
ATOM      1  C   UNL     1      -5.162  -9.638   4.124  1.00  0.00     0.023 C 
ENDROOT
BRANCH   1   2
ATOM      2  C   UNL     1      -4.505  -8.494   3.354  1.00  0.00     0.116 C 
BRANCH   2   3
ATOM      3  N   UNL     1      -5.138  -7.191   3.336  1.00  0.00    -0.352 N 
ATOM      4  C   UNL     1      -4.556  -5.942   3.120  1.00  0.00     0.253 C 
ATOM      5  O   UNL     1      -5.306  -4.969   3.021  1.00  0.00    -0.269 OA
ATOM      6  H   UNL     1      -6.109  -7.186   3.498  1.00  0.00     0.163 HD
BRANCH   4   7
ATOM      7  C   UNL     1      -3.070  -5.697   3.111  1.00  0.00     0.063 A 
ATOM      8  C   UNL     1      -1.626  -7.458   0.432  1.00  0.00     0.113 C 
ATOM      9  N   UNL     1      -2.440  -7.547   1.658  1.00  0.00    -0.377 N 
ATOM     10  C   UNL     1      -0.386  -8.256   0.892  1.00  0.00     0.027 C 
ATOM     11  C   UNL     1      -2.109  -6.549   2.563  1.00  0.00     0.051 A 
ATOM     12  H   UNL     1      -3.131  -8.230   1.815  1.00  0.00     0.161 HD
ATOM     13  C   UNL     1       0.127  -7.569   2.272  1.00  0.00     0.030 C 
ATOM     14  C   UNL     1       0.934  -8.331   0.096  1.00  0.00    -0.005 C 
ATOM     15  C   UNL     1      -0.719  -6.391   2.760  1.00  0.00    -0.020 A 
ATOM     16  C   UNL     1       1.634  -7.395   2.026  1.00  0.00    -0.003 C 
ATOM     17  C   UNL     1       1.456  -6.956  -0.336  1.00  0.00     0.004 C 
ATOM     18  C   UNL     1       1.936  -8.668   1.223  1.00  0.00     0.008 C 
ATOM     19  C   UNL     1      -2.596  -4.470   3.584  1.00  0.00     0.016 A 
ATOM     20  C   UNL     1      -0.277  -5.205   3.329  1.00  0.00     0.006 A 
ATOM     21  C   UNL     1       1.921  -6.313   0.976  1.00  0.00     0.004 C 
ATOM     22  C   UNL     1      -1.215  -4.217   3.665  1.00  0.00     0.001 A 
BRANCH   8  23
ATOM     23  C   UNL     1      -2.771  -7.587  -0.582  1.00  0.00    -0.025 A 
ATOM     24  C   UNL     1      -5.591  -7.430  -0.617  1.00  0.00     0.060 A 
ATOM     25  C   UNL     1      -4.832  -6.267  -0.730  1.00  0.00     0.016 A 
ATOM     26  C   UNL     1      -4.943  -8.672  -0.742  1.00  0.00     0.016 A 
ATOM     27  C   UNL     1      -3.441  -6.345  -0.777  1.00  0.00     0.007 A 
ATOM     28  C   UNL     1      -3.530  -8.758  -0.722  1.00  0.00     0.007 A 
BRANCH  24  29
ATOM     29  C   UNL     1      -7.010  -7.249  -0.173  1.00  0.00     0.337 C 
ATOM     30  O   UNL     1      -7.546  -6.152  -0.083  1.00  0.00    -0.246 OA
BRANCH  29  31
ATOM     31  O   UNL     1      -7.557  -8.411   0.266  1.00  0.00    -0.465 OA
ATOM     32  C   UNL     1      -8.749  -8.226   1.046  1.00  0.00     0.282 C 
ENDBRANCH  29  31
ENDBRANCH  24  29
ENDBRANCH   8  23
ENDBRANCH   4   7
ENDBRANCH   2   3
ENDBRANCH   1   2
BRANCH   1  33
ATOM     33  C   UNL     1      -6.484 -10.188   3.595  1.00  0.00     0.023 C 
BRANCH  33  34
ATOM     34  C   UNL     1      -6.524 -10.617   2.131  1.00  0.00     0.116 C 
BRANCH  34  35
ATOM     35  N   UNL     1      -5.840 -11.851   1.792  1.00  0.00    -0.352 N 
ATOM     36  C   UNL     1      -6.342 -13.001   1.219  1.00  0.00     0.251 C 
ATOM     37  H   UNL     1      -4.878 -11.870   2.001  1.00  0.00     0.163 HD
ATOM     38  O   UNL     1      -5.577 -13.923   0.945  1.00  0.00    -0.269 OA
BRANCH  36  39
ATOM     39  C   UNL     1      -7.800 -13.170   0.996  1.00  0.00     0.039 A 
ATOM     40  C   UNL     1      -8.417 -14.304   1.531  1.00  0.00     0.014 A 
ATOM     41  C   UNL     1      -8.566 -12.238   0.290  1.00  0.00     0.014 A 
ATOM     42  C   UNL     1      -9.805 -14.454   1.446  1.00  0.00     0.010 A 
ATOM     43  C   UNL     1      -9.961 -12.353   0.267  1.00  0.00     0.010 A 
ATOM     44  C   UNL     1     -10.600 -13.456   0.858  1.00  0.00    -0.014 A 
BRANCH  44  45
ATOM     45  C   UNL     1     -12.089 -13.553   0.893  1.00  0.00     0.031 A 
ATOM     46  C   UNL     1     -12.888 -13.680  -0.378  1.00  0.00     0.074 A 
ATOM     47  C   UNL     1     -12.735 -13.503   2.078  1.00  0.00     0.049 A 
ATOM     48  N   UNL     1     -14.185 -13.787  -0.529  1.00  0.00    -0.248 NA
ATOM     49  C   UNL     1     -12.138 -13.671  -1.643  1.00  0.00     0.031 C 
ATOM     50  C   UNL     1     -12.093 -13.349   3.386  1.00  0.00     0.029 A 
ATOM     51  N   UNL     1     -14.075 -13.579   2.377  1.00  0.00    -0.354 N 
ATOM     52  C   UNL     1     -14.407 -13.852  -1.900  1.00  0.00     0.074 A 
ATOM     53  C   UNL     1     -13.114 -13.723  -2.539  1.00  0.00     0.031 C 
ATOM     54  C   UNL     1     -13.033 -13.377   4.345  1.00  0.00     0.029 A 
ATOM     55  C   UNL     1     -14.348 -13.506   3.725  1.00  0.00     0.049 A 
ATOM     56  H   UNL     1     -14.774 -13.677   1.692  1.00  0.00     0.167 HD
ATOM     57  C   UNL     1     -15.574 -14.021  -2.569  1.00  0.00     0.031 A 
ATOM     58  C   UNL     1     -15.519 -13.535   4.392  1.00  0.00     0.031 A 
ATOM     59  C   UNL     1     -16.863 -14.149  -1.938  1.00  0.00     0.049 A 
ATOM     60  C   UNL     1     -16.805 -13.691   3.624  1.00  0.00     0.074 A 
ATOM     61  C   UNL     1     -18.092 -14.373  -2.534  1.00  0.00     0.029 A 
ATOM     62  N   UNL     1     -17.094 -14.053  -0.574  1.00  0.00    -0.354 N 
ATOM     63  N   UNL     1     -16.982 -13.826   2.332  1.00  0.00    -0.248 NA
ATOM     64  C   UNL     1     -18.049 -13.712   4.407  1.00  0.00     0.031 C 
ATOM     65  C   UNL     1     -19.074 -14.350  -1.539  1.00  0.00     0.029 A 
ATOM     66  C   UNL     1     -18.450 -14.183  -0.314  1.00  0.00     0.049 A 
ATOM     67  H   UNL     1     -16.399 -13.914   0.109  1.00  0.00     0.167 HD
ATOM     68  C   UNL     1     -18.353 -13.977   2.151  1.00  0.00     0.074 A 
ATOM     69  C   UNL     1     -18.957 -13.935   3.466  1.00  0.00     0.031 C 
ATOM     70  C   UNL     1     -19.047 -14.139   0.998  1.00  0.00     0.031 A 
BRANCH  57  71
ATOM     71  C   UNL     1     -15.517 -14.070  -4.075  1.00  0.00    -0.014 A 
ATOM     72  C   UNL     1     -14.937 -15.161  -4.747  1.00  0.00     0.010 A 
ATOM     73  C   UNL     1     -16.102 -13.037  -4.831  1.00  0.00     0.010 A 
ATOM     74  C   UNL     1     -14.908 -15.200  -6.144  1.00  0.00     0.020 A 
ATOM     75  C   UNL     1     -16.103 -13.087  -6.228  1.00  0.00     0.020 A 
ATOM     76  C   UNL     1     -15.491 -14.161  -6.876  1.00  0.00     0.054 A 
BRANCH  76  77
ATOM     77  S   UNL     1     -15.462 -14.253  -8.687  1.00  0.00     0.124 S 
ATOM     78  O   UNL     1     -14.050 -14.015  -8.977  1.00  0.00    -0.237 OA
ATOM     79  O   UNL     1     -15.935 -15.610  -8.946  1.00  0.00    -0.237 OA
ATOM     80  O   UNL     1     -16.371 -13.189  -9.105  1.00  0.00    -0.744 OA
ENDBRANCH  76  77
ENDBRANCH  57  71
BRANCH  58  81
ATOM     81  C   UNL     1     -15.536 -13.417   5.879  1.00  0.00    -0.014 A 
ATOM     82  C   UNL     1     -15.915 -14.507   6.682  1.00  0.00     0.010 A 
ATOM     83  C   UNL     1     -15.176 -12.206   6.499  1.00  0.00     0.010 A 
ATOM     84  C   UNL     1     -15.955 -14.383   8.075  1.00  0.00     0.020 A 
ATOM     85  C   UNL     1     -15.184 -12.088   7.892  1.00  0.00     0.020 A 
ATOM     86  C   UNL     1     -15.586 -13.174   8.671  1.00  0.00     0.054 A 
BRANCH  86  87
ATOM     87  S   UNL     1     -15.602 -13.050  10.481  1.00  0.00     0.124 S 
ATOM     88  O   UNL     1     -17.032 -13.025  10.772  1.00  0.00    -0.237 OA
ATOM     89  O   UNL     1     -14.894 -14.262  10.885  1.00  0.00    -0.237 OA
ATOM     90  O   UNL     1     -14.886 -11.804  10.745  1.00  0.00    -0.744 OA
ENDBRANCH  86  87
ENDBRANCH  58  81
BRANCH  70  91
ATOM     91  C   UNL     1     -20.540 -14.323   1.099  1.00  0.00    -0.014 A 
ATOM     92  C   UNL     1     -21.388 -13.264   1.468  1.00  0.00     0.010 A 
ATOM     93  C   UNL     1     -21.109 -15.567   0.765  1.00  0.00     0.010 A 
ATOM     94  C   UNL     1     -22.772 -13.453   1.532  1.00  0.00     0.020 A 
ATOM     95  C   UNL     1     -22.493 -15.752   0.798  1.00  0.00     0.020 A 
ATOM     96  C   UNL     1     -23.316 -14.697   1.196  1.00  0.00     0.054 A 
BRANCH  96  97
ATOM     97  S   UNL     1     -25.117 -14.904   1.245  1.00  0.00     0.124 S 
ATOM     98  O   UNL     1     -25.384 -14.913   2.681  1.00  0.00    -0.237 OA
ATOM     99  O   UNL     1     -25.595 -13.726   0.525  1.00  0.00    -0.237 OA
ATOM    100  O   UNL     1     -25.340 -16.177   0.563  1.00  0.00    -0.744 OA
ENDBRANCH  96  97
ENDBRANCH  70  91
ENDBRANCH  44  45
ENDBRANCH  36  39
ENDBRANCH  34  35
ENDBRANCH  33  34
ENDBRANCH   1  33
TORSDOF 17
