REMARK SMILES CS(=O)(=O)c1ccc(-c2cc(Cl)cnc2-c2ccc(C(=O)NCCCCNC(=O)c3ccc(-c4c5nc(c(-c6ccc(S(=O)(=O)[O-])cc6)c6ccc([nH]6)c(-c6ccc(S(=O)(=O)[O-])cc6)c6nc(c(-c7ccc(S(=O)(=O)[O-])cc7)c7ccc4[nH]7)C=C6)C=C5)cc3)nc2)cc1
REMARK SMILES IDX 24 1 23 2 22 3 20 4 21 5 19 7 16 8 17 9 91 10 18 11 90 12
REMARK SMILES IDX 15 13 9 14 10 15 11 16 14 17 12 18 13 19 8 20 5 21 6 22
REMARK SMILES IDX 93 23 7 24 92 25 2 26 1 27 3 28 4 29 25 30 26 31 27 32 28 33
REMARK SMILES IDX 29 35 30 36 31 37 89 38 32 39 88 40 33 41 34 42 35 43 82 44
REMARK SMILES IDX 36 45 87 46 81 47 83 48 37 49 86 50 80 51 79 52 38 54 68 55
REMARK SMILES IDX 49 56 67 57 50 58 53 59 66 60 84 61 51 62 52 63 65 65 85 66
REMARK SMILES IDX 54 67 39 68 40 69 48 70 41 71 47 72 42 73 43 74 44 75 45 76
REMARK SMILES IDX 46 77 69 78 70 79 78 80 71 81 77 82 72 83 73 84 74 85 75 86
REMARK SMILES IDX 76 87 55 88 56 89 64 90 57 91 63 92 58 93 59 94 60 95 61 96
REMARK SMILES IDX 62 97
REMARK H PARENT 22 6 27 34 83 53 53 64
REMARK Flexibility Score: inf
ROOT
ATOM      1  C   UNL     1       7.499   2.498   0.846  1.00  0.00     0.023 C 
ENDROOT
BRANCH   1   2
ATOM      2  C   UNL     1       6.434   1.415   1.026  1.00  0.00     0.116 C 
BRANCH   2   3
ATOM      3  N   UNL     1       6.855   0.430   2.003  1.00  0.00    -0.351 N 
ATOM      4  C   UNL     1       6.596   0.282   3.348  1.00  0.00     0.269 C 
ATOM      5  O   UNL     1       7.076  -0.715   3.892  1.00  0.00    -0.268 OA
ATOM      6  H   UNL     1       7.441  -0.269   1.633  1.00  0.00     0.163 HD
BRANCH   4   7
ATOM      7  C   UNL     1       5.738   1.229   4.147  1.00  0.00     0.128 A 
ATOM      8  C   UNL     1       3.989   2.752   5.671  1.00  0.00     0.019 A 
ATOM      9  C   UNL     1       4.649   3.324   4.581  1.00  0.00     0.014 A 
ATOM     10  C   UNL     1       4.322   1.441   5.982  1.00  0.00     0.122 A 
ATOM     11  C   UNL     1       5.549   2.567   3.830  1.00  0.00     0.035 A 
ATOM     12  N   UNL     1       5.148   0.668   5.238  1.00  0.00    -0.250 NA
BRANCH   8  13
ATOM     13  C   UNL     1       2.943   3.473   6.396  1.00  0.00     0.080 A 
ATOM     14  C   UNL     1       1.667   3.712   5.837  1.00  0.00     0.010 A 
ATOM     15  C   UNL     1       0.773   4.486   6.593  1.00  0.00     0.033 A 
ATOM     16  C   UNL     1       1.153   4.973   7.839  1.00  0.00     0.060 A 
ATOM     17  N   UNL     1       3.318   3.926   7.621  1.00  0.00    -0.254 NA
ATOM     18  Cl  UNL     1       0.077   5.936   8.766  1.00  0.00    -0.083 Cl
ATOM     19  C   UNL     1       2.418   4.667   8.309  1.00  0.00     0.132 A 
BRANCH  14  20
ATOM     20  C   UNL     1       1.268   3.197   4.514  1.00  0.00    -0.016 A 
ATOM     21  C   UNL     1       0.615   2.215   1.958  1.00  0.00     0.067 A 
ATOM     22  C   UNL     1       0.872   1.320   2.994  1.00  0.00     0.021 A 
ATOM     23  C   UNL     1       0.668   3.594   2.187  1.00  0.00     0.021 A 
ATOM     24  C   UNL     1       1.189   1.814   4.264  1.00  0.00     0.010 A 
ATOM     25  C   UNL     1       0.988   4.079   3.457  1.00  0.00     0.010 A 
BRANCH  21  26
ATOM     26  S   UNL     1       0.230   1.659   0.314  1.00  0.00     0.175 S 
ATOM     27  C   UNL     1       0.977   0.065   0.115  1.00  0.00     0.163 C 
ATOM     28  O   UNL     1       0.910   2.562  -0.592  1.00  0.00    -0.224 OA
ATOM     29  O   UNL     1      -1.212   1.494   0.272  1.00  0.00    -0.224 OA
ENDBRANCH  21  26
ENDBRANCH  14  20
ENDBRANCH   8  13
ENDBRANCH   4   7
ENDBRANCH   2   3
ENDBRANCH   1   2
BRANCH   1  30
ATOM     30  C   UNL     1       8.684   2.085  -0.032  1.00  0.00     0.023 C 
BRANCH  30  31
ATOM     31  C   UNL     1       8.334   1.732  -1.474  1.00  0.00     0.116 C 
BRANCH  31  32
ATOM     32  N   UNL     1       7.614   2.789  -2.171  1.00  0.00    -0.352 N 
ATOM     33  C   UNL     1       7.688   3.138  -3.500  1.00  0.00     0.251 C 
ATOM     34  H   UNL     1       6.996   3.322  -1.621  1.00  0.00     0.163 HD
ATOM     35  O   UNL     1       7.088   4.123  -3.916  1.00  0.00    -0.269 OA
BRANCH  33  36
ATOM     36  C   UNL     1       8.539   2.339  -4.403  1.00  0.00     0.039 A 
ATOM     37  C   UNL     1       9.511   2.992  -5.164  1.00  0.00     0.014 A 
ATOM     38  C   UNL     1       8.422   0.947  -4.441  1.00  0.00     0.014 A 
ATOM     39  C   UNL     1      10.428   2.238  -5.897  1.00  0.00     0.010 A 
ATOM     40  C   UNL     1       9.374   0.196  -5.123  1.00  0.00     0.010 A 
ATOM     41  C   UNL     1      10.397   0.835  -5.842  1.00  0.00    -0.014 A 
BRANCH  41  42
ATOM     42  C   UNL     1      11.458   0.017  -6.482  1.00  0.00     0.031 A 
ATOM     43  C   UNL     1      11.123  -0.913  -7.613  1.00  0.00     0.074 A 
ATOM     44  C   UNL     1      12.710   0.055  -5.982  1.00  0.00     0.049 A 
ATOM     45  N   UNL     1      11.902  -1.754  -8.243  1.00  0.00    -0.248 NA
ATOM     46  C   UNL     1       9.727  -0.919  -8.081  1.00  0.00     0.031 C 
ATOM     47  C   UNL     1      13.147   0.878  -4.850  1.00  0.00     0.029 A 
ATOM     48  N   UNL     1      13.843  -0.627  -6.350  1.00  0.00    -0.354 N 
ATOM     49  C   UNL     1      11.091  -2.400  -9.168  1.00  0.00     0.074 A 
ATOM     50  C   UNL     1       9.752  -1.883  -8.991  1.00  0.00     0.031 C 
ATOM     51  C   UNL     1      14.454   0.666  -4.630  1.00  0.00     0.029 A 
ATOM     52  C   UNL     1      14.940  -0.334  -5.574  1.00  0.00     0.049 A 
ATOM     53  H   UNL     1      13.867  -1.266  -7.099  1.00  0.00     0.167 HD
ATOM     54  C   UNL     1      11.436  -3.329 -10.092  1.00  0.00     0.031 A 
ATOM     55  C   UNL     1      16.195  -0.823  -5.610  1.00  0.00     0.031 A 
ATOM     56  C   UNL     1      12.772  -3.829 -10.275  1.00  0.00     0.049 A 
ATOM     57  C   UNL     1      16.550  -1.854  -6.645  1.00  0.00     0.074 A 
ATOM     58  C   UNL     1      13.234  -4.716 -11.232  1.00  0.00     0.029 A 
ATOM     59  N   UNL     1      13.860  -3.493  -9.483  1.00  0.00    -0.354 N 
ATOM     60  N   UNL     1      15.787  -2.391  -7.567  1.00  0.00    -0.248 NA
ATOM     61  C   UNL     1      17.937  -2.340  -6.651  1.00  0.00     0.031 C 
ATOM     62  C   UNL     1      14.590  -4.955 -10.988  1.00  0.00     0.029 A 
ATOM     63  C   UNL     1      14.985  -4.177  -9.912  1.00  0.00     0.049 A 
ATOM     64  H   UNL     1      13.835  -2.862  -8.728  1.00  0.00     0.167 HD
ATOM     65  C   UNL     1      16.606  -3.264  -8.273  1.00  0.00     0.074 A 
ATOM     66  C   UNL     1      17.926  -3.169  -7.686  1.00  0.00     0.031 C 
ATOM     67  C   UNL     1      16.291  -4.075  -9.313  1.00  0.00     0.031 A 
BRANCH  54  68
ATOM     68  C   UNL     1      10.347  -3.868 -10.980  1.00  0.00    -0.014 A 
ATOM     69  C   UNL     1       9.778  -3.075 -11.992  1.00  0.00     0.010 A 
ATOM     70  C   UNL     1       9.929  -5.204 -10.840  1.00  0.00     0.010 A 
ATOM     71  C   UNL     1       8.787  -3.598 -12.827  1.00  0.00     0.020 A 
ATOM     72  C   UNL     1       8.956  -5.739 -11.690  1.00  0.00     0.020 A 
ATOM     73  C   UNL     1       8.382  -4.926 -12.670  1.00  0.00     0.054 A 
BRANCH  73  74
ATOM     74  S   UNL     1       7.120  -5.589 -13.793  1.00  0.00     0.124 S 
ATOM     75  O   UNL     1       5.908  -4.941 -13.298  1.00  0.00    -0.237 OA
ATOM     76  O   UNL     1       7.585  -5.135 -15.101  1.00  0.00    -0.237 OA
ATOM     77  O   UNL     1       7.187  -7.032 -13.577  1.00  0.00    -0.744 OA
ENDBRANCH  73  74
ENDBRANCH  54  68
BRANCH  55  78
ATOM     78  C   UNL     1      17.210  -0.344  -4.632  1.00  0.00    -0.014 A 
ATOM     79  C   UNL     1      18.272   0.477  -5.050  1.00  0.00     0.010 A 
ATOM     80  C   UNL     1      17.116  -0.705  -3.276  1.00  0.00     0.010 A 
ATOM     81  C   UNL     1      19.235   0.909  -4.133  1.00  0.00     0.020 A 
ATOM     82  C   UNL     1      18.062  -0.252  -2.351  1.00  0.00     0.020 A 
ATOM     83  C   UNL     1      19.124   0.541  -2.789  1.00  0.00     0.054 A 
BRANCH  83  84
ATOM     84  S   UNL     1      20.360   1.149  -1.608  1.00  0.00     0.124 S 
ATOM     85  O   UNL     1      21.508   0.301  -1.908  1.00  0.00    -0.237 OA
ATOM     86  O   UNL     1      20.494   2.554  -1.985  1.00  0.00    -0.237 OA
ATOM     87  O   UNL     1      19.731   0.919  -0.309  1.00  0.00    -0.744 OA
ENDBRANCH  83  84
ENDBRANCH  55  78
BRANCH  67  88
ATOM     88  C   UNL     1      17.397  -4.911  -9.897  1.00  0.00    -0.014 A 
ATOM     89  C   UNL     1      17.893  -6.035  -9.213  1.00  0.00     0.010 A 
ATOM     90  C   UNL     1      17.905  -4.603 -11.172  1.00  0.00     0.010 A 
ATOM     91  C   UNL     1      18.898  -6.821  -9.783  1.00  0.00     0.020 A 
ATOM     92  C   UNL     1      18.891  -5.401 -11.756  1.00  0.00     0.020 A 
ATOM     93  C   UNL     1      19.390  -6.499 -11.052  1.00  0.00     0.054 A 
BRANCH  93  94
ATOM     94  S   UNL     1      20.657  -7.564 -11.793  1.00  0.00     0.124 S 
ATOM     95  O   UNL     1      21.850  -7.185 -11.040  1.00  0.00    -0.237 OA
ATOM     96  O   UNL     1      20.146  -8.906 -11.525  1.00  0.00    -0.237 OA
ATOM     97  O   UNL     1      20.658  -7.173 -13.200  1.00  0.00    -0.744 OA
ENDBRANCH  93  94
ENDBRANCH  67  88
ENDBRANCH  41  42
ENDBRANCH  33  36
ENDBRANCH  31  32
ENDBRANCH  30  31
ENDBRANCH   1  30
TORSDOF 17
