REMARK SMILES CC[C@@H](C)c1ccccc1NC(=O)[C@@H]1[C@@H](C(=O)NCCCCNC(=O)c2ccc(-c3c4nc(c(-c5ccc(S(=O)(=O)[O-])cc5)c5ccc([nH]5)c(-c5ccc(S(=O)(=O)[O-])cc5)c5nc(c(-c6ccc(S(=O)(=O)[O-])cc6)c6ccc3[nH]6)C=C5)C=C4)cc2)[C@@H]2C=C[C@H]1C2
REMARK SMILES IDX 20 1 19 2 18 3 16 4 17 5 15 7 14 8 89 9 86 10 88 11 90 12
REMARK SMILES IDX 87 13 12 14 11 15 13 17 10 18 5 19 6 20 7 21 9 22 8 23 3 24
REMARK SMILES IDX 4 25 2 26 1 27 21 28 22 29 23 30 24 31 25 33 26 34 27 35
REMARK SMILES IDX 85 36 28 37 84 38 29 39 30 40 31 41 78 42 32 43 83 44 77 45
REMARK SMILES IDX 79 46 33 47 82 48 76 49 75 50 34 52 64 53 45 54 63 55 46 56
REMARK SMILES IDX 49 57 62 58 80 59 47 60 48 61 61 63 81 64 50 65 35 66 36 67
REMARK SMILES IDX 44 68 37 69 43 70 38 71 39 72 40 73 41 74 42 75 65 76 66 77
REMARK SMILES IDX 74 78 67 79 73 80 68 81 69 82 70 83 71 84 72 85 51 86 52 87
REMARK SMILES IDX 60 88 53 89 59 90 54 91 55 92 56 93 57 94 58 95
REMARK H PARENT 18 6 11 16 23 32 79 51 49 62
REMARK Flexibility Score: inf
ROOT
ATOM      1  C   UNL     1       2.117 -10.735  -4.346  1.00  0.00     0.023 C 
ENDROOT
BRANCH   1   2
ATOM      2  C   UNL     1       2.165  -9.482  -3.483  1.00  0.00     0.116 C 
BRANCH   2   3
ATOM      3  N   UNL     1       2.436  -9.670  -2.075  1.00  0.00    -0.356 N 
ATOM      4  C   UNL     1       2.684  -8.743  -1.100  1.00  0.00     0.224 C 
ATOM      5  O   UNL     1       2.857  -9.187   0.041  1.00  0.00    -0.275 OA
ATOM      6  H   UNL     1       2.444 -10.607  -1.773  1.00  0.00     0.163 HD
BRANCH   4   7
ATOM      7  C   UNL     1       2.827  -7.227  -1.372  1.00  0.00     0.098 C 
ATOM      8  C   UNL     1       2.218  -6.409  -0.137  1.00  0.00     0.099 C 
ATOM      9  C   UNL     1       1.104  -5.573  -0.839  1.00  0.00     0.025 C 
ATOM     10  C   UNL     1       2.001  -6.647  -2.548  1.00  0.00     0.025 C 
ATOM     11  C   UNL     1       1.775  -4.536  -1.708  1.00  0.00    -0.027 C 
ATOM     12  C   UNL     1       0.619  -6.530  -1.915  1.00  0.00     0.017 C 
ATOM     13  C   UNL     1       2.340  -5.190  -2.725  1.00  0.00    -0.027 C 
BRANCH   8  14
ATOM     14  C   UNL     1       3.196  -5.489   0.631  1.00  0.00     0.228 C 
ATOM     15  N   UNL     1       2.674  -4.571   1.537  1.00  0.00    -0.326 N 
ATOM     16  H   UNL     1       3.287  -3.880   1.877  1.00  0.00     0.169 HD
ATOM     17  O   UNL     1       4.408  -5.485   0.412  1.00  0.00    -0.274 OA
BRANCH  15  18
ATOM     18  C   UNL     1       1.348  -4.540   2.010  1.00  0.00     0.044 A 
ATOM     19  C   UNL     1       0.530  -3.398   1.872  1.00  0.00    -0.022 A 
ATOM     20  C   UNL     1      -0.861  -3.583   2.032  1.00  0.00     0.006 A 
ATOM     21  C   UNL     1      -1.403  -4.818   2.399  1.00  0.00     0.000 A 
ATOM     22  C   UNL     1       0.806  -5.739   2.500  1.00  0.00     0.026 A 
ATOM     23  C   UNL     1      -0.564  -5.884   2.682  1.00  0.00     0.002 A 
BRANCH  19  24
ATOM     24  C   UNL     1       1.047  -1.998   1.535  1.00  0.00     0.018 C 
ATOM     25  C   UNL     1       0.751  -1.068   2.724  1.00  0.00     0.013 C 
BRANCH  24  26
ATOM     26  C   UNL     1       0.449  -1.424   0.227  1.00  0.00     0.005 C 
ATOM     27  C   UNL     1       0.997  -0.052  -0.151  1.00  0.00     0.004 C 
ENDBRANCH  24  26
ENDBRANCH  19  24
ENDBRANCH  15  18
ENDBRANCH   8  14
ENDBRANCH   4   7
ENDBRANCH   2   3
ENDBRANCH   1   2
BRANCH   1  28
ATOM     28  C   UNL     1       0.948 -11.688  -4.102  1.00  0.00     0.023 C 
BRANCH  28  29
ATOM     29  C   UNL     1      -0.449 -11.072  -4.036  1.00  0.00     0.116 C 
BRANCH  29  30
ATOM     30  N   UNL     1      -0.843 -10.350  -5.240  1.00  0.00    -0.352 N 
ATOM     31  C   UNL     1      -1.838 -10.608  -6.156  1.00  0.00     0.251 C 
ATOM     32  H   UNL     1      -0.310  -9.544  -5.429  1.00  0.00     0.163 HD
ATOM     33  O   UNL     1      -1.943  -9.895  -7.152  1.00  0.00    -0.269 OA
BRANCH  31  34
ATOM     34  C   UNL     1      -2.750 -11.760  -5.979  1.00  0.00     0.039 A 
ATOM     35  C   UNL     1      -2.985 -12.609  -7.065  1.00  0.00     0.014 A 
ATOM     36  C   UNL     1      -3.363 -12.018  -4.752  1.00  0.00     0.014 A 
ATOM     37  C   UNL     1      -3.743 -13.771  -6.890  1.00  0.00     0.010 A 
ATOM     38  C   UNL     1      -4.046 -13.217  -4.557  1.00  0.00     0.010 A 
ATOM     39  C   UNL     1      -4.232 -14.115  -5.619  1.00  0.00    -0.014 A 
BRANCH  39  40
ATOM     40  C   UNL     1      -4.909 -15.418  -5.372  1.00  0.00     0.031 A 
ATOM     41  C   UNL     1      -6.335 -15.457  -4.892  1.00  0.00     0.074 A 
ATOM     42  C   UNL     1      -4.213 -16.567  -5.503  1.00  0.00     0.049 A 
ATOM     43  N   UNL     1      -7.059 -16.490  -4.543  1.00  0.00    -0.248 NA
ATOM     44  C   UNL     1      -7.030 -14.166  -4.761  1.00  0.00     0.031 C 
ATOM     45  C   UNL     1      -2.811 -16.669  -5.916  1.00  0.00     0.029 A 
ATOM     46  N   UNL     1      -4.588 -17.871  -5.290  1.00  0.00    -0.354 N 
ATOM     47  C   UNL     1      -8.284 -15.974  -4.134  1.00  0.00     0.074 A 
ATOM     48  C   UNL     1      -8.188 -14.533  -4.232  1.00  0.00     0.031 C 
ATOM     49  C   UNL     1      -2.454 -17.963  -5.953  1.00  0.00     0.029 A 
ATOM     50  C   UNL     1      -3.583 -18.782  -5.525  1.00  0.00     0.049 A 
ATOM     51  H   UNL     1      -5.491 -18.131  -4.998  1.00  0.00     0.167 HD
ATOM     52  C   UNL     1      -9.395 -16.637  -3.732  1.00  0.00     0.031 A 
ATOM     53  C   UNL     1      -3.566 -20.124  -5.402  1.00  0.00     0.031 A 
ATOM     54  C   UNL     1      -9.497 -18.070  -3.651  1.00  0.00     0.049 A 
ATOM     55  C   UNL     1      -4.811 -20.837  -4.950  1.00  0.00     0.074 A 
ATOM     56  C   UNL     1     -10.598 -18.835  -3.308  1.00  0.00     0.029 A 
ATOM     57  N   UNL     1      -8.462 -18.954  -3.915  1.00  0.00    -0.354 N 
ATOM     58  N   UNL     1      -5.978 -20.332  -4.628  1.00  0.00    -0.248 NA
ATOM     59  C   UNL     1      -4.740 -22.302  -4.856  1.00  0.00     0.031 C 
ATOM     60  C   UNL     1     -10.216 -20.181  -3.320  1.00  0.00     0.029 A 
ATOM     61  C   UNL     1      -8.893 -20.256  -3.725  1.00  0.00     0.049 A 
ATOM     62  H   UNL     1      -7.555 -18.695  -4.196  1.00  0.00     0.167 HD
ATOM     63  C   UNL     1      -6.788 -21.420  -4.321  1.00  0.00     0.074 A 
ATOM     64  C   UNL     1      -5.983 -22.609  -4.510  1.00  0.00     0.031 C 
ATOM     65  C   UNL     1      -8.083 -21.432  -3.920  1.00  0.00     0.031 A 
BRANCH  52  66
ATOM     66  C   UNL     1     -10.597 -15.813  -3.350  1.00  0.00    -0.014 A 
ATOM     67  C   UNL     1     -11.334 -15.112  -4.323  1.00  0.00     0.010 A 
ATOM     68  C   UNL     1     -11.024 -15.775  -2.010  1.00  0.00     0.010 A 
ATOM     69  C   UNL     1     -12.449 -14.354  -3.957  1.00  0.00     0.020 A 
ATOM     70  C   UNL     1     -12.157 -15.042  -1.644  1.00  0.00     0.020 A 
ATOM     71  C   UNL     1     -12.852 -14.322  -2.618  1.00  0.00     0.054 A 
BRANCH  71  72
ATOM     72  S   UNL     1     -14.317 -13.349  -2.176  1.00  0.00     0.124 S 
ATOM     73  O   UNL     1     -13.814 -11.982  -2.285  1.00  0.00    -0.237 OA
ATOM     74  O   UNL     1     -15.285 -13.745  -3.197  1.00  0.00    -0.237 OA
ATOM     75  O   UNL     1     -14.631 -13.790  -0.820  1.00  0.00    -0.744 OA
ENDBRANCH  71  72
ENDBRANCH  52  66
BRANCH  53  76
ATOM     76  C   UNL     1      -2.329 -20.888  -5.726  1.00  0.00    -0.014 A 
ATOM     77  C   UNL     1      -2.273 -21.702  -6.871  1.00  0.00     0.010 A 
ATOM     78  C   UNL     1      -1.199 -20.804  -4.892  1.00  0.00     0.010 A 
ATOM     79  C   UNL     1      -1.121 -22.436  -7.164  1.00  0.00     0.020 A 
ATOM     80  C   UNL     1      -0.034 -21.515  -5.198  1.00  0.00     0.020 A 
ATOM     81  C   UNL     1      -0.007 -22.337  -6.325  1.00  0.00     0.054 A 
BRANCH  81  82
ATOM     82  S   UNL     1       1.494 -23.265  -6.749  1.00  0.00     0.124 S 
ATOM     83  O   UNL     1       1.117 -24.630  -6.397  1.00  0.00    -0.237 OA
ATOM     84  O   UNL     1       1.639 -22.996  -8.178  1.00  0.00    -0.237 OA
ATOM     85  O   UNL     1       2.519 -22.659  -5.903  1.00  0.00    -0.744 OA
ENDBRANCH  81  82
ENDBRANCH  53  76
BRANCH  65  86
ATOM     86  C   UNL     1      -8.728 -22.773  -3.695  1.00  0.00    -0.014 A 
ATOM     87  C   UNL     1      -8.400 -23.563  -2.579  1.00  0.00     0.010 A 
ATOM     88  C   UNL     1      -9.720 -23.222  -4.586  1.00  0.00     0.010 A 
ATOM     89  C   UNL     1      -9.033 -24.793  -2.375  1.00  0.00     0.020 A 
ATOM     90  C   UNL     1     -10.374 -24.438  -4.370  1.00  0.00     0.020 A 
ATOM     91  C   UNL     1     -10.016 -25.223  -3.272  1.00  0.00     0.054 A 
BRANCH  91  92
ATOM     92  S   UNL     1     -10.855 -26.800  -2.960  1.00  0.00     0.124 S 
ATOM     93  O   UNL     1      -9.826 -27.769  -3.328  1.00  0.00    -0.237 OA
ATOM     94  O   UNL     1     -11.164 -26.723  -1.534  1.00  0.00    -0.237 OA
ATOM     95  O   UNL     1     -12.016 -26.756  -3.845  1.00  0.00    -0.744 OA
ENDBRANCH  91  92
ENDBRANCH  65  86
ENDBRANCH  39  40
ENDBRANCH  31  34
ENDBRANCH  29  30
ENDBRANCH  28  29
ENDBRANCH   1  28
TORSDOF 18
