REMARK SMILES CN(C)C(=O)CCNC(=O)NC[C@H]1CC[C@@H](C(=O)NCCCCNC(=O)c2ccc(-c3c4nc(c(-c5ccc(S(=O)(=O)[O-])cc5)c5ccc([nH]5)c(-c5ccc(S(=O)(=O)[O-])cc5)c5nc(c(-c6ccc(S(=O)(=O)[O-])cc6)c6ccc3[nH]6)C=C5)C=C4)cc2)CC1
REMARK SMILES IDX 20 1 19 2 17 3 18 4 16 6 13 7 14 8 88 9 15 10 87 11 12 12
REMARK SMILES IDX 11 13 8 14 9 15 10 17 7 19 6 20 4 21 1 22 2 23 3 24 5 25
REMARK SMILES IDX 21 26 22 27 23 28 24 29 25 30 26 32 27 33 28 34 86 35 29 36
REMARK SMILES IDX 85 37 30 38 31 39 32 40 79 41 33 42 84 43 78 44 80 45 34 46
REMARK SMILES IDX 83 47 77 48 76 49 35 51 65 52 46 53 64 54 47 55 50 56 63 57
REMARK SMILES IDX 81 58 48 59 49 60 62 62 82 63 51 64 36 65 37 66 45 67 38 68
REMARK SMILES IDX 44 69 39 70 40 71 41 72 42 73 43 74 66 75 67 76 75 77 68 78
REMARK SMILES IDX 74 79 69 80 70 81 71 82 72 83 73 84 52 85 53 86 61 87 54 88
REMARK SMILES IDX 60 89 55 90 56 91 57 92 58 93 59 94
REMARK H PARENT 19 5 8 16 11 18 24 31 80 50 50 61
REMARK Flexibility Score: inf
ROOT
ATOM      1  C   UNL     1      -2.253   4.317   8.379  1.00  0.00     0.116 C 
ENDROOT
BRANCH   1   2
ATOM      2  N   UNL     1      -1.853   5.013   9.578  1.00  0.00    -0.356 N 
ATOM      3  C   UNL     1      -0.728   5.689   9.912  1.00  0.00     0.223 C 
ATOM      4  O   UNL     1      -0.808   6.389  10.931  1.00  0.00    -0.275 OA
ATOM      5  H   UNL     1      -2.531   4.993  10.292  1.00  0.00     0.163 HD
BRANCH   3   6
ATOM      6  C   UNL     1       0.609   5.635   9.153  1.00  0.00     0.078 C 
ATOM      7  C   UNL     1       0.937   4.232   6.486  1.00  0.00     0.008 C 
ATOM      8  C   UNL     1       0.420   5.683   6.573  1.00  0.00     0.006 C 
ATOM      9  C   UNL     1       1.027   3.466   7.818  1.00  0.00     0.006 C 
ATOM     10  C   UNL     1       0.720   6.434   7.861  1.00  0.00     0.014 C 
ATOM     11  C   UNL     1       1.289   4.275   9.077  1.00  0.00     0.014 C 
BRANCH   7  12
ATOM     12  C   UNL     1       0.059   3.414   5.505  1.00  0.00     0.121 C 
BRANCH  12  13
ATOM     13  N   UNL     1       0.022   3.981   4.177  1.00  0.00    -0.338 N 
ATOM     14  N   UNL     1       1.585   2.780   2.886  1.00  0.00    -0.338 N 
ATOM     15  C   UNL     1       0.725   3.787   3.059  1.00  0.00     0.314 C 
ATOM     16  H   UNL     1       2.149   2.885   2.087  1.00  0.00     0.165 HD
ATOM     17  O   UNL     1       0.558   4.576   2.128  1.00  0.00    -0.249 OA
ATOM     18  H   UNL     1      -0.680   4.664   4.073  1.00  0.00     0.165 HD
BRANCH  14  19
ATOM     19  C   UNL     1       1.864   1.563   3.627  1.00  0.00     0.127 C 
BRANCH  19  20
ATOM     20  C   UNL     1       0.777   0.505   3.445  1.00  0.00     0.121 C 
BRANCH  20  21
ATOM     21  C   UNL     1       1.039  -0.228   2.144  1.00  0.00     0.223 C 
ATOM     22  C   UNL     1       0.954  -0.247  -0.291  1.00  0.00     0.146 C 
ATOM     23  N   UNL     1       0.443   0.230   0.982  1.00  0.00    -0.349 N 
ATOM     24  C   UNL     1      -0.716   1.113   0.917  1.00  0.00     0.146 C 
ATOM     25  O   UNL     1       1.868  -1.143   2.136  1.00  0.00    -0.275 OA
ENDBRANCH  20  21
ENDBRANCH  19  20
ENDBRANCH  14  19
ENDBRANCH  12  13
ENDBRANCH   7  12
ENDBRANCH   3   6
ENDBRANCH   1   2
BRANCH   1  26
ATOM     26  C   UNL     1      -2.457   2.813   8.571  1.00  0.00     0.023 C 
BRANCH  26  27
ATOM     27  C   UNL     1      -3.890   2.332   8.364  1.00  0.00     0.023 C 
BRANCH  27  28
ATOM     28  C   UNL     1      -4.516   2.659   7.011  1.00  0.00     0.116 C 
BRANCH  28  29
ATOM     29  N   UNL     1      -3.852   2.064   5.858  1.00  0.00    -0.352 N 
ATOM     30  C   UNL     1      -4.438   1.585   4.702  1.00  0.00     0.251 C 
ATOM     31  H   UNL     1      -2.871   1.996   5.908  1.00  0.00     0.163 HD
ATOM     32  O   UNL     1      -3.752   1.098   3.809  1.00  0.00    -0.269 OA
BRANCH  30  33
ATOM     33  C   UNL     1      -5.916   1.609   4.597  1.00  0.00     0.039 A 
ATOM     34  C   UNL     1      -6.597   0.406   4.401  1.00  0.00     0.014 A 
ATOM     35  C   UNL     1      -6.622   2.789   4.846  1.00  0.00     0.014 A 
ATOM     36  C   UNL     1      -7.983   0.364   4.576  1.00  0.00     0.010 A 
ATOM     37  C   UNL     1      -7.989   2.727   5.101  1.00  0.00     0.010 A 
ATOM     38  C   UNL     1      -8.682   1.510   4.995  1.00  0.00    -0.014 A 
BRANCH  38  39
ATOM     39  C   UNL     1     -10.123   1.452   5.365  1.00  0.00     0.031 A 
ATOM     40  C   UNL     1     -11.130   2.286   4.619  1.00  0.00     0.074 A 
ATOM     41  C   UNL     1     -10.517   0.719   6.428  1.00  0.00     0.049 A 
ATOM     42  N   UNL     1     -12.403   2.456   4.865  1.00  0.00    -0.248 NA
ATOM     43  C   UNL     1     -10.634   3.051   3.463  1.00  0.00     0.031 C 
ATOM     44  C   UNL     1      -9.639  -0.091   7.279  1.00  0.00     0.029 A 
ATOM     45  N   UNL     1     -11.761   0.544   6.985  1.00  0.00    -0.354 N 
ATOM     46  C   UNL     1     -12.856   3.357   3.909  1.00  0.00     0.074 A 
ATOM     47  C   UNL     1     -11.711   3.739   3.112  1.00  0.00     0.031 C 
ATOM     48  C   UNL     1     -10.374  -0.691   8.230  1.00  0.00     0.029 A 
ATOM     49  C   UNL     1     -11.768  -0.282   8.085  1.00  0.00     0.049 A 
ATOM     50  H   UNL     1     -12.573   0.972   6.629  1.00  0.00     0.167 HD
ATOM     51  C   UNL     1     -14.114   3.809   3.693  1.00  0.00     0.031 A 
ATOM     52  C   UNL     1     -12.777  -0.664   8.892  1.00  0.00     0.031 A 
ATOM     53  C   UNL     1     -15.262   3.414   4.465  1.00  0.00     0.049 A 
ATOM     54  C   UNL     1     -14.170  -0.165   8.618  1.00  0.00     0.074 A 
ATOM     55  C   UNL     1     -16.582   3.795   4.298  1.00  0.00     0.029 A 
ATOM     56  N   UNL     1     -15.230   2.538   5.537  1.00  0.00    -0.354 N 
ATOM     57  N   UNL     1     -14.580   0.656   7.681  1.00  0.00    -0.248 NA
ATOM     58  C   UNL     1     -15.238  -0.652   9.502  1.00  0.00     0.031 C 
ATOM     59  C   UNL     1     -17.346   3.165   5.287  1.00  0.00     0.029 A 
ATOM     60  C   UNL     1     -16.507   2.363   6.041  1.00  0.00     0.049 A 
ATOM     61  H   UNL     1     -14.419   2.104   5.888  1.00  0.00     0.167 HD
ATOM     62  C   UNL     1     -15.956   0.761   7.848  1.00  0.00     0.074 A 
ATOM     63  C   UNL     1     -16.312  -0.091   8.963  1.00  0.00     0.031 C 
ATOM     64  C   UNL     1     -16.846   1.499   7.141  1.00  0.00     0.031 A 
BRANCH  51  65
ATOM     65  C   UNL     1     -14.319   4.768   2.552  1.00  0.00    -0.014 A 
ATOM     66  C   UNL     1     -14.247   4.320   1.221  1.00  0.00     0.010 A 
ATOM     67  C   UNL     1     -14.630   6.115   2.808  1.00  0.00     0.010 A 
ATOM     68  C   UNL     1     -14.448   5.209   0.164  1.00  0.00     0.020 A 
ATOM     69  C   UNL     1     -14.857   7.003   1.753  1.00  0.00     0.020 A 
ATOM     70  C   UNL     1     -14.749   6.547   0.437  1.00  0.00     0.054 A 
BRANCH  70  71
ATOM     71  S   UNL     1     -15.037   7.672  -0.956  1.00  0.00     0.124 S 
ATOM     72  O   UNL     1     -13.680   7.892  -1.449  1.00  0.00    -0.237 OA
ATOM     73  O   UNL     1     -15.903   6.886  -1.831  1.00  0.00    -0.237 OA
ATOM     74  O   UNL     1     -15.672   8.833  -0.337  1.00  0.00    -0.744 OA
ENDBRANCH  70  71
ENDBRANCH  51  65
BRANCH  52  75
ATOM     75  C   UNL     1     -12.520  -1.577  10.040  1.00  0.00    -0.014 A 
ATOM     76  C   UNL     1     -12.977  -2.907  10.010  1.00  0.00     0.010 A 
ATOM     77  C   UNL     1     -11.843  -1.112  11.181  1.00  0.00     0.010 A 
ATOM     78  C   UNL     1     -12.794  -3.745  11.115  1.00  0.00     0.020 A 
ATOM     79  C   UNL     1     -11.636  -1.954  12.278  1.00  0.00     0.020 A 
ATOM     80  C   UNL     1     -12.130  -3.260  12.245  1.00  0.00     0.054 A 
BRANCH  80  81
ATOM     81  S   UNL     1     -11.884  -4.365  13.663  1.00  0.00     0.124 S 
ATOM     82  O   UNL     1     -13.195  -4.332  14.302  1.00  0.00    -0.237 OA
ATOM     83  O   UNL     1     -11.521  -5.628  13.025  1.00  0.00    -0.237 OA
ATOM     84  O   UNL     1     -10.805  -3.721  14.410  1.00  0.00    -0.744 OA
ENDBRANCH  80  81
ENDBRANCH  52  75
BRANCH  64  85
ATOM     85  C   UNL     1     -18.297   1.387   7.522  1.00  0.00    -0.014 A 
ATOM     86  C   UNL     1     -18.794   2.005   8.682  1.00  0.00     0.010 A 
ATOM     87  C   UNL     1     -19.184   0.701   6.673  1.00  0.00     0.010 A 
ATOM     88  C   UNL     1     -20.151   1.915   9.002  1.00  0.00     0.020 A 
ATOM     89  C   UNL     1     -20.545   0.628   6.978  1.00  0.00     0.020 A 
ATOM     90  C   UNL     1     -21.018   1.226   8.148  1.00  0.00     0.054 A 
BRANCH  90  91
ATOM     91  S   UNL     1     -22.785   1.164   8.557  1.00  0.00     0.124 S 
ATOM     92  O   UNL     1     -22.815   0.160   9.617  1.00  0.00    -0.237 OA
ATOM     93  O   UNL     1     -23.066   2.534   8.980  1.00  0.00    -0.237 OA
ATOM     94  O   UNL     1     -23.416   0.765   7.301  1.00  0.00    -0.744 OA
ENDBRANCH  90  91
ENDBRANCH  64  85
ENDBRANCH  38  39
ENDBRANCH  30  33
ENDBRANCH  28  29
ENDBRANCH  27  28
ENDBRANCH  26  27
ENDBRANCH   1  26
TORSDOF 19
