REMARK SMILES COC(=O)/C(=C/c1ccc(C)o1)CC(=O)NCCCCNC(=O)c1ccc(-c2c3nc(c(-c4ccc(S(=O)(=O)[O-])cc4)c4ccc([nH]4)c(-c4ccc(S(=O)(=O)[O-])cc4)c4nc(c(-c5ccc(S(=O)(=O)[O-])cc5)c5ccc2[nH]5)C=C4)C=C3)cc1
REMARK SMILES IDX 18 1 17 2 16 3 14 4 15 5 13 7 5 8 6 9 3 10 4 11 2 12 1 13
REMARK SMILES IDX 7 14 8 15 12 16 9 17 10 18 11 19 19 20 20 21 21 22 22 23
REMARK SMILES IDX 23 25 24 26 25 27 83 28 26 29 82 30 27 31 28 32 29 33 76 34
REMARK SMILES IDX 30 35 81 36 75 37 77 38 31 39 80 40 74 41 73 42 32 44 62 45
REMARK SMILES IDX 43 46 61 47 44 48 47 49 60 50 78 51 45 52 46 53 59 55 79 56
REMARK SMILES IDX 48 57 33 58 34 59 42 60 35 61 41 62 36 63 37 64 38 65 39 66
REMARK SMILES IDX 40 67 63 68 64 69 72 70 65 71 71 72 66 73 67 74 68 75 69 76
REMARK SMILES IDX 70 77 49 78 50 79 58 80 51 81 57 82 52 83 53 84 54 85 55 86
REMARK SMILES IDX 56 87
REMARK H PARENT 16 6 21 24 77 43 47 54
REMARK Flexibility Score: inf
ROOT
ATOM      1  C   UNL     1      -2.745  -1.515  -3.258  1.00  0.00     0.023 C 
ENDROOT
BRANCH   1   2
ATOM      2  C   UNL     1      -2.034  -2.363  -4.309  1.00  0.00     0.116 C 
BRANCH   2   3
ATOM      3  N   UNL     1      -0.953  -1.650  -4.956  1.00  0.00    -0.356 N 
ATOM      4  C   UNL     1       0.398  -1.789  -4.867  1.00  0.00     0.224 C 
ATOM      5  O   UNL     1       1.081  -1.099  -5.629  1.00  0.00    -0.275 OA
ATOM      6  H   UNL     1      -1.248  -0.938  -5.569  1.00  0.00     0.163 HD
BRANCH   4   7
ATOM      7  C   UNL     1       1.067  -2.839  -3.978  1.00  0.00     0.143 C 
BRANCH   7   8
ATOM      8  C   UNL     1       0.636  -2.889  -2.537  1.00  0.00     0.050 C 
ATOM      9  C   UNL     1       0.001  -3.882  -1.874  1.00  0.00     0.058 C 
BRANCH   8  10
ATOM     10  C   UNL     1       1.058  -1.652  -1.798  1.00  0.00     0.334 C 
ATOM     11  O   UNL     1       1.844  -0.840  -2.266  1.00  0.00    -0.247 OA
BRANCH  10  12
ATOM     12  O   UNL     1       0.452  -1.528  -0.591  1.00  0.00    -0.466 OA
ATOM     13  C   UNL     1       0.802  -0.324   0.099  1.00  0.00     0.282 C 
ENDBRANCH  10  12
ENDBRANCH   8  10
BRANCH   9  14
ATOM     14  C   UNL     1      -0.535  -5.105  -2.400  1.00  0.00     0.127 A 
ATOM     15  C   UNL     1      -0.593  -5.676  -3.670  1.00  0.00     0.050 A 
ATOM     16  O   UNL     1      -1.237  -5.966  -1.567  1.00  0.00    -0.462 OA
ATOM     17  C   UNL     1      -1.360  -6.862  -3.610  1.00  0.00     0.046 A 
ATOM     18  C   UNL     1      -1.736  -6.995  -2.301  1.00  0.00     0.101 A 
ATOM     19  C   UNL     1      -2.562  -7.988  -1.590  1.00  0.00     0.087 C 
ENDBRANCH   9  14
ENDBRANCH   7   8
ENDBRANCH   4   7
ENDBRANCH   2   3
ENDBRANCH   1   2
BRANCH   1  20
ATOM     20  C   UNL     1      -3.610  -0.396  -3.841  1.00  0.00     0.023 C 
BRANCH  20  21
ATOM     21  C   UNL     1      -4.707  -0.850  -4.801  1.00  0.00     0.116 C 
BRANCH  21  22
ATOM     22  N   UNL     1      -5.670  -1.757  -4.191  1.00  0.00    -0.352 N 
ATOM     23  C   UNL     1      -7.044  -1.728  -4.261  1.00  0.00     0.251 C 
ATOM     24  H   UNL     1      -5.286  -2.489  -3.656  1.00  0.00     0.163 HD
ATOM     25  O   UNL     1      -7.717  -2.507  -3.595  1.00  0.00    -0.269 OA
BRANCH  23  26
ATOM     26  C   UNL     1      -7.701  -0.716  -5.116  1.00  0.00     0.039 A 
ATOM     27  C   UNL     1      -8.669   0.118  -4.551  1.00  0.00     0.014 A 
ATOM     28  C   UNL     1      -7.306  -0.543  -6.445  1.00  0.00     0.014 A 
ATOM     29  C   UNL     1      -9.165   1.195  -5.290  1.00  0.00     0.010 A 
ATOM     30  C   UNL     1      -7.755   0.567  -7.157  1.00  0.00     0.010 A 
ATOM     31  C   UNL     1      -8.666   1.462  -6.576  1.00  0.00    -0.014 A 
BRANCH  31  32
ATOM     32  C   UNL     1      -9.018   2.714  -7.296  1.00  0.00     0.031 A 
ATOM     33  C   UNL     1      -9.760   2.663  -8.602  1.00  0.00     0.074 A 
ATOM     34  C   UNL     1      -8.574   3.895  -6.816  1.00  0.00     0.049 A 
ATOM     35  N   UNL     1     -10.058   3.644  -9.415  1.00  0.00    -0.248 NA
ATOM     36  C   UNL     1     -10.206   1.340  -9.067  1.00  0.00     0.031 C 
ATOM     37  C   UNL     1      -7.801   4.073  -5.582  1.00  0.00     0.029 A 
ATOM     38  N   UNL     1      -8.688   5.169  -7.316  1.00  0.00    -0.354 N 
ATOM     39  C   UNL     1     -10.707   3.058 -10.495  1.00  0.00     0.074 A 
ATOM     40  C   UNL     1     -10.735   1.632 -10.248  1.00  0.00     0.031 C 
ATOM     41  C   UNL     1      -7.518   5.375  -5.421  1.00  0.00     0.029 A 
ATOM     42  C   UNL     1      -8.044   6.121  -6.559  1.00  0.00     0.049 A 
ATOM     43  H   UNL     1      -9.184   5.381  -8.140  1.00  0.00     0.167 HD
ATOM     44  C   UNL     1     -11.239   3.656 -11.587  1.00  0.00     0.031 A 
ATOM     45  C   UNL     1      -7.870   7.442  -6.766  1.00  0.00     0.031 A 
ATOM     46  C   UNL     1     -11.223   5.076 -11.820  1.00  0.00     0.049 A 
ATOM     47  C   UNL     1      -8.456   8.074  -8.000  1.00  0.00     0.074 A 
ATOM     48  C   UNL     1     -11.815   5.780 -12.856  1.00  0.00     0.029 A 
ATOM     49  N   UNL     1     -10.576   6.006 -11.023  1.00  0.00    -0.354 N 
ATOM     50  N   UNL     1      -9.155   7.514  -8.958  1.00  0.00    -0.248 NA
ATOM     51  C   UNL     1      -8.229   9.515  -8.181  1.00  0.00     0.031 C 
ATOM     52  C   UNL     1     -11.470   7.128 -12.720  1.00  0.00     0.029 A 
ATOM     53  C   UNL     1     -10.715   7.272 -11.568  1.00  0.00     0.049 A 
ATOM     54  H   UNL     1     -10.090   5.798 -10.193  1.00  0.00     0.167 HD
ATOM     55  C   UNL     1      -9.464   8.538  -9.846  1.00  0.00     0.074 A 
ATOM     56  C   UNL     1      -8.900   9.754  -9.300  1.00  0.00     0.031 C 
ATOM     57  C   UNL     1     -10.147   8.475 -11.015  1.00  0.00     0.031 A 
BRANCH  44  58
ATOM     58  C   UNL     1     -11.884   2.784 -12.631  1.00  0.00    -0.014 A 
ATOM     59  C   UNL     1     -13.130   2.175 -12.400  1.00  0.00     0.010 A 
ATOM     60  C   UNL     1     -11.283   2.657 -13.897  1.00  0.00     0.010 A 
ATOM     61  C   UNL     1     -13.756   1.442 -13.412  1.00  0.00     0.020 A 
ATOM     62  C   UNL     1     -11.918   1.945 -14.919  1.00  0.00     0.020 A 
ATOM     63  C   UNL     1     -13.148   1.336 -14.667  1.00  0.00     0.054 A 
BRANCH  63  64
ATOM     64  S   UNL     1     -14.018   0.435 -15.979  1.00  0.00     0.124 S 
ATOM     65  O   UNL     1     -13.896  -0.949 -15.527  1.00  0.00    -0.237 OA
ATOM     66  O   UNL     1     -15.364   1.000 -15.916  1.00  0.00    -0.237 OA
ATOM     67  O   UNL     1     -13.263   0.763 -17.186  1.00  0.00    -0.744 OA
ENDBRANCH  63  64
ENDBRANCH  44  58
BRANCH  45  68
ATOM     68  C   UNL     1      -7.076   8.255  -5.803  1.00  0.00    -0.014 A 
ATOM     69  C   UNL     1      -7.693   9.241  -5.014  1.00  0.00     0.010 A 
ATOM     70  C   UNL     1      -5.687   8.060  -5.689  1.00  0.00     0.010 A 
ATOM     71  C   UNL     1      -6.932  10.038  -4.153  1.00  0.00     0.020 A 
ATOM     72  C   UNL     1      -4.928   8.833  -4.806  1.00  0.00     0.020 A 
ATOM     73  C   UNL     1      -5.553   9.831  -4.058  1.00  0.00     0.054 A 
BRANCH  73  74
ATOM     74  S   UNL     1      -4.588  10.862  -2.919  1.00  0.00     0.124 S 
ATOM     75  O   UNL     1      -4.534  12.133  -3.634  1.00  0.00    -0.237 OA
ATOM     76  O   UNL     1      -5.407  10.850  -1.710  1.00  0.00    -0.237 OA
ATOM     77  O   UNL     1      -3.317  10.149  -2.808  1.00  0.00    -0.744 OA
ENDBRANCH  73  74
ENDBRANCH  45  68
BRANCH  57  78
ATOM     78  C   UNL     1     -10.335   9.756 -11.781  1.00  0.00    -0.014 A 
ATOM     79  C   UNL     1      -9.262  10.356 -12.463  1.00  0.00     0.010 A 
ATOM     80  C   UNL     1     -11.616  10.331 -11.877  1.00  0.00     0.010 A 
ATOM     81  C   UNL     1      -9.461  11.520 -13.209  1.00  0.00     0.020 A 
ATOM     82  C   UNL     1     -11.825  11.479 -12.646  1.00  0.00     0.020 A 
ATOM     83  C   UNL     1     -10.743  12.072 -13.299  1.00  0.00     0.054 A 
BRANCH  83  84
ATOM     84  S   UNL     1     -10.985  13.549 -14.324  1.00  0.00     0.124 S 
ATOM     85  O   UNL     1     -10.354  14.588 -13.514  1.00  0.00    -0.237 OA
ATOM     86  O   UNL     1     -10.284  13.201 -15.557  1.00  0.00    -0.237 OA
ATOM     87  O   UNL     1     -12.437  13.652 -14.447  1.00  0.00    -0.744 OA
ENDBRANCH  83  84
ENDBRANCH  57  78
ENDBRANCH  31  32
ENDBRANCH  23  26
ENDBRANCH  21  22
ENDBRANCH  20  21
ENDBRANCH   1  20
TORSDOF 18
