REMARK SMILES CCCC(=O)/C(=C/NC(N)=O)C(=O)NCCCCNC(=O)c1ccc(-c2c3nc(c(-c4ccc(S(=O)(=O)[O-])cc4)c4ccc([nH]4)c(-c4ccc(S(=O)(=O)[O-])cc4)c4nc(c(-c5ccc(S(=O)(=O)[O-])cc5)c5ccc2[nH]5)C=C4)C=C3)cc1
REMARK SMILES IDX 16 1 15 2 14 3 12 4 13 5 6 7 7 8 4 9 5 10 3 11 2 12 1 13
REMARK SMILES IDX 8 14 9 15 10 17 11 18 17 21 18 22 19 23 20 24 21 26 22 27
REMARK SMILES IDX 23 28 81 29 24 30 80 31 25 32 26 33 27 34 74 35 28 36 79 37
REMARK SMILES IDX 73 38 75 39 29 40 78 41 72 42 71 43 30 45 60 46 41 47 59 48
REMARK SMILES IDX 42 49 45 50 58 51 76 52 43 53 44 54 57 56 77 57 46 58 31 59
REMARK SMILES IDX 32 60 40 61 33 62 39 63 34 64 35 65 36 66 37 67 38 68 61 69
REMARK SMILES IDX 62 70 70 71 63 72 69 73 64 74 65 75 66 76 67 77 68 78 47 79
REMARK SMILES IDX 48 80 56 81 49 82 55 83 50 84 51 85 52 86 53 87 54 88
REMARK H PARENT 14 6 8 16 10 19 10 20 19 25 75 44 45 55
REMARK Flexibility Score: inf
ROOT
ATOM      1  C   UNL     1      -0.311   4.521  -2.438  1.00  0.00     0.023 C 
ENDROOT
BRANCH   1   2
ATOM      2  C   UNL     1       0.656   3.959  -1.404  1.00  0.00     0.116 C 
BRANCH   2   3
ATOM      3  N   UNL     1       0.504   4.460  -0.051  1.00  0.00    -0.352 N 
ATOM      4  C   UNL     1       0.869   3.896   1.147  1.00  0.00     0.256 C 
ATOM      5  O   UNL     1       0.808   4.590   2.161  1.00  0.00    -0.269 OA
ATOM      6  H   UNL     1       0.072   5.342   0.020  1.00  0.00     0.163 HD
BRANCH   4   7
ATOM      7  C   UNL     1       1.323   2.473   1.233  1.00  0.00     0.098 C 
ATOM      8  C   UNL     1       2.355   1.982   0.525  1.00  0.00     0.105 C 
BRANCH   7   9
ATOM      9  C   UNL     1       0.550   1.550   2.148  1.00  0.00     0.169 C 
ATOM     10  O   UNL     1      -0.448   1.961   2.747  1.00  0.00    -0.294 OA
BRANCH   9  11
ATOM     11  C   UNL     1       0.927   0.079   2.295  1.00  0.00     0.081 C 
BRANCH  11  12
ATOM     12  C   UNL     1       0.091  -0.827   1.390  1.00  0.00     0.005 C 
ATOM     13  C   UNL     1       0.398  -0.690  -0.094  1.00  0.00     0.004 C 
ENDBRANCH  11  12
ENDBRANCH   9  11
ENDBRANCH   7   9
BRANCH   8  14
ATOM     14  N   UNL     1       3.134   2.660  -0.383  1.00  0.00    -0.314 N 
ATOM     15  C   UNL     1       3.795   1.995  -1.390  1.00  0.00     0.316 C 
ATOM     16  H   UNL     1       3.221   3.638  -0.311  1.00  0.00     0.171 HD
ATOM     17  N   UNL     1       4.211   2.813  -2.388  1.00  0.00    -0.351 N 
ATOM     18  O   UNL     1       3.909   0.783  -1.480  1.00  0.00    -0.249 OA
ATOM     19  H   UNL     1       4.112   3.788  -2.299  1.00  0.00     0.161 HD
ATOM     20  H   UNL     1       4.612   2.431  -3.202  1.00  0.00     0.161 HD
ENDBRANCH   8  14
ENDBRANCH   4   7
ENDBRANCH   2   3
ENDBRANCH   1   2
BRANCH   1  21
ATOM     21  C   UNL     1      -0.303   6.036  -2.647  1.00  0.00     0.023 C 
BRANCH  21  22
ATOM     22  C   UNL     1       1.052   6.736  -2.727  1.00  0.00     0.116 C 
BRANCH  22  23
ATOM     23  N   UNL     1       1.927   6.254  -3.786  1.00  0.00    -0.352 N 
ATOM     24  C   UNL     1       2.596   6.955  -4.768  1.00  0.00     0.251 C 
ATOM     25  H   UNL     1       2.061   5.279  -3.804  1.00  0.00     0.163 HD
ATOM     26  O   UNL     1       3.301   6.345  -5.568  1.00  0.00    -0.269 OA
BRANCH  24  27
ATOM     27  C   UNL     1       2.417   8.419  -4.899  1.00  0.00     0.039 A 
ATOM     28  C   UNL     1       2.076   8.942  -6.151  1.00  0.00     0.014 A 
ATOM     29  C   UNL     1       2.522   9.268  -3.796  1.00  0.00     0.014 A 
ATOM     30  C   UNL     1       1.726  10.291  -6.269  1.00  0.00     0.010 A 
ATOM     31  C   UNL     1       2.096  10.592  -3.900  1.00  0.00     0.010 A 
ATOM     32  C   UNL     1       1.671  11.113  -5.132  1.00  0.00    -0.014 A 
BRANCH  32  33
ATOM     33  C   UNL     1       1.133  12.500  -5.200  1.00  0.00     0.031 A 
ATOM     34  C   UNL     1       2.002  13.674  -4.833  1.00  0.00     0.074 A 
ATOM     35  C   UNL     1      -0.167  12.700  -5.502  1.00  0.00     0.049 A 
ATOM     36  N   UNL     1       1.682  14.940  -4.742  1.00  0.00    -0.248 NA
ATOM     37  C   UNL     1       3.404  13.383  -4.498  1.00  0.00     0.031 C 
ATOM     38  C   UNL     1      -1.136  11.649  -5.825  1.00  0.00     0.029 A 
ATOM     39  N   UNL     1      -0.904  13.858  -5.575  1.00  0.00    -0.354 N 
ATOM     40  C   UNL     1       2.832  15.592  -4.313  1.00  0.00     0.074 A 
ATOM     41  C   UNL     1       3.844  14.575  -4.120  1.00  0.00     0.031 C 
ATOM     42  C   UNL     1      -2.328  12.211  -6.085  1.00  0.00     0.029 A 
ATOM     43  C   UNL     1      -2.223  13.655  -5.909  1.00  0.00     0.049 A 
ATOM     44  H   UNL     1      -0.523  14.749  -5.404  1.00  0.00     0.167 HD
ATOM     45  C   UNL     1       3.037  16.916  -4.114  1.00  0.00     0.031 A 
ATOM     46  C   UNL     1      -3.240  14.529  -6.052  1.00  0.00     0.031 A 
ATOM     47  C   UNL     1       2.039  17.930  -4.326  1.00  0.00     0.049 A 
ATOM     48  C   UNL     1      -2.985  15.997  -5.844  1.00  0.00     0.074 A 
ATOM     49  C   UNL     1       2.171  19.304  -4.212  1.00  0.00     0.029 A 
ATOM     50  N   UNL     1       0.726  17.684  -4.697  1.00  0.00    -0.354 N 
ATOM     51  N   UNL     1      -1.871  16.597  -5.502  1.00  0.00    -0.248 NA
ATOM     52  C   UNL     1      -4.121  16.905  -6.053  1.00  0.00     0.031 C 
ATOM     53  C   UNL     1       0.926  19.886  -4.476  1.00  0.00     0.029 A 
ATOM     54  C   UNL     1       0.033  18.878  -4.803  1.00  0.00     0.049 A 
ATOM     55  H   UNL     1       0.343  16.792  -4.862  1.00  0.00     0.167 HD
ATOM     56  C   UNL     1      -2.165  17.956  -5.482  1.00  0.00     0.074 A 
ATOM     57  C   UNL     1      -3.558  18.090  -5.857  1.00  0.00     0.031 C 
ATOM     58  C   UNL     1      -1.352  18.999  -5.182  1.00  0.00     0.031 A 
BRANCH  45  59
ATOM     59  C   UNL     1       4.401  17.342  -3.638  1.00  0.00    -0.014 A 
ATOM     60  C   UNL     1       5.520  17.269  -4.488  1.00  0.00     0.010 A 
ATOM     61  C   UNL     1       4.563  17.848  -2.336  1.00  0.00     0.010 A 
ATOM     62  C   UNL     1       6.784  17.644  -4.027  1.00  0.00     0.020 A 
ATOM     63  C   UNL     1       5.821  18.251  -1.880  1.00  0.00     0.020 A 
ATOM     64  C   UNL     1       6.928  18.127  -2.723  1.00  0.00     0.054 A 
BRANCH  64  65
ATOM     65  S   UNL     1       8.579  18.613  -2.154  1.00  0.00     0.124 S 
ATOM     66  O   UNL     1       9.216  17.316  -1.939  1.00  0.00    -0.237 OA
ATOM     67  O   UNL     1       9.095  19.386  -3.281  1.00  0.00    -0.237 OA
ATOM     68  O   UNL     1       8.315  19.386  -0.942  1.00  0.00    -0.744 OA
ENDBRANCH  64  65
ENDBRANCH  45  59
BRANCH  46  69
ATOM     69  C   UNL     1      -4.592  14.039  -6.437  1.00  0.00    -0.014 A 
ATOM     70  C   UNL     1      -5.092  14.275  -7.729  1.00  0.00     0.010 A 
ATOM     71  C   UNL     1      -5.380  13.320  -5.519  1.00  0.00     0.010 A 
ATOM     72  C   UNL     1      -6.361  13.814  -8.094  1.00  0.00     0.020 A 
ATOM     73  C   UNL     1      -6.639  12.836  -5.889  1.00  0.00     0.020 A 
ATOM     74  C   UNL     1      -7.125  13.095  -7.172  1.00  0.00     0.054 A 
BRANCH  74  75
ATOM     75  S   UNL     1      -8.743  12.453  -7.686  1.00  0.00     0.124 S 
ATOM     76  O   UNL     1      -9.566  13.658  -7.672  1.00  0.00    -0.237 OA
ATOM     77  O   UNL     1      -8.457  11.896  -9.006  1.00  0.00    -0.237 OA
ATOM     78  O   UNL     1      -9.059  11.464  -6.658  1.00  0.00    -0.744 OA
ENDBRANCH  74  75
ENDBRANCH  46  69
BRANCH  58  79
ATOM     79  C   UNL     1      -1.932  20.384  -5.284  1.00  0.00    -0.014 A 
ATOM     80  C   UNL     1      -2.832  20.870  -4.320  1.00  0.00     0.010 A 
ATOM     81  C   UNL     1      -1.517  21.232  -6.327  1.00  0.00     0.010 A 
ATOM     82  C   UNL     1      -3.328  22.174  -4.413  1.00  0.00     0.020 A 
ATOM     83  C   UNL     1      -1.992  22.543  -6.409  1.00  0.00     0.020 A 
ATOM     84  C   UNL     1      -2.904  23.002  -5.457  1.00  0.00     0.054 A 
BRANCH  84  85
ATOM     85  S   UNL     1      -3.521  24.707  -5.527  1.00  0.00     0.124 S 
ATOM     86  O   UNL     1      -4.884  24.517  -6.014  1.00  0.00    -0.237 OA
ATOM     87  O   UNL     1      -3.405  25.148  -4.139  1.00  0.00    -0.237 OA
ATOM     88  O   UNL     1      -2.610  25.366  -6.461  1.00  0.00    -0.744 OA
ENDBRANCH  84  85
ENDBRANCH  58  79
ENDBRANCH  32  33
ENDBRANCH  24  27
ENDBRANCH  22  23
ENDBRANCH  21  22
ENDBRANCH   1  21
TORSDOF 18
