REMARK SMILES Cc1cc(Br)cc2c1O[C@H](C(F)(F)F)C(C(=O)NCCCCNC(=O)c1ccc(-c3c4nc(c(-c5ccc(S(=O)(=O)[O-])cc5)c5ccc([nH]5)c(-c5ccc(S(=O)(=O)[O-])cc5)c5nc(c(-c6ccc(S(=O)(=O)[O-])cc6)c6ccc3[nH]6)C=C5)C=C4)cc1)=C2
REMARK SMILES IDX 21 1 20 2 19 3 18 4 16 5 17 6 15 8 1 9 2 10 3 11 8 12 4 13
REMARK SMILES IDX 7 14 9 15 5 16 6 17 86 18 10 19 11 20 12 21 13 22 14 23
REMARK SMILES IDX 22 24 23 25 24 26 25 28 26 29 27 30 85 31 28 32 84 33 29 34
REMARK SMILES IDX 30 35 31 36 78 37 32 38 83 39 77 40 79 41 33 42 82 43 76 44
REMARK SMILES IDX 75 45 34 47 64 48 45 49 63 50 46 51 49 52 62 53 80 54 47 55
REMARK SMILES IDX 48 56 61 58 81 59 50 60 35 61 36 62 44 63 37 64 43 65 38 66
REMARK SMILES IDX 39 67 40 68 41 69 42 70 65 71 66 72 74 73 67 74 73 75 68 76
REMARK SMILES IDX 69 77 70 78 71 79 72 80 51 81 52 82 60 83 53 84 59 85 54 86
REMARK SMILES IDX 55 87 56 88 57 89 58 90
REMARK H PARENT 18 7 23 27 79 46 49 57
REMARK Flexibility Score: inf
ROOT
ATOM      1  C   UNL     1      -4.340  -1.267   6.933  1.00  0.00     0.023 C 
ENDROOT
BRANCH   1   2
ATOM      2  C   UNL     1      -3.483  -1.057   5.681  1.00  0.00     0.023 C 
BRANCH   2   3
ATOM      3  C   UNL     1      -4.204  -0.341   4.543  1.00  0.00     0.116 C 
BRANCH   3   4
ATOM      4  N   UNL     1      -4.129   1.103   4.675  1.00  0.00    -0.352 N 
ATOM      5  C   UNL     1      -3.414   2.110   4.122  1.00  0.00     0.251 C 
ATOM      6  O   UNL     1      -3.680   3.239   4.546  1.00  0.00    -0.270 OA
ATOM      7  H   UNL     1      -4.768   1.439   5.345  1.00  0.00     0.163 HD
BRANCH   5   8
ATOM      8  C   UNL     1      -2.364   1.950   3.071  1.00  0.00     0.067 C 
ATOM      9  C   UNL     1       1.251   0.340  -0.242  1.00  0.00     0.048 C 
ATOM     10  C   UNL     1       0.796   1.665   0.299  1.00  0.00    -0.007 A 
ATOM     11  C   UNL     1       1.357   2.846  -0.209  1.00  0.00     0.023 A 
ATOM     12  C   UNL     1      -0.228   1.762   1.253  1.00  0.00     0.130 A 
ATOM     13  C   UNL     1       0.925   4.087   0.259  1.00  0.00     0.019 A 
ATOM     14  C   UNL     1      -0.653   3.007   1.730  1.00  0.00     0.019 A 
ATOM     15  O   UNL     1      -0.756   0.595   1.734  1.00  0.00    -0.475 OA
ATOM     16  Br  UNL     1       1.705   5.667  -0.429  1.00  0.00    -0.051 Br
ATOM     17  C   UNL     1      -0.071   4.175   1.230  1.00  0.00     0.027 A 
ATOM     18  C   UNL     1      -1.675   3.066   2.768  1.00  0.00     0.025 C 
ATOM     19  C   UNL     1      -2.079   0.674   2.333  1.00  0.00     0.314 C 
BRANCH  19  20
ATOM     20  C   UNL     1      -3.139   0.359   1.261  1.00  0.00     0.429 C 
ATOM     21  F   UNL     1      -3.014  -0.923   0.835  1.00  0.00    -0.167 F 
ATOM     22  F   UNL     1      -4.404   0.488   1.725  1.00  0.00    -0.167 F 
ATOM     23  F   UNL     1      -3.035   1.156   0.174  1.00  0.00    -0.167 F 
ENDBRANCH  19  20
ENDBRANCH   5   8
ENDBRANCH   3   4
ENDBRANCH   2   3
ENDBRANCH   1   2
BRANCH   1  24
ATOM     24  C   UNL     1      -5.661  -2.003   6.712  1.00  0.00     0.116 C 
BRANCH  24  25
ATOM     25  N   UNL     1      -5.522  -3.256   5.983  1.00  0.00    -0.352 N 
ATOM     26  C   UNL     1      -6.295  -4.388   6.095  1.00  0.00     0.251 C 
ATOM     27  H   UNL     1      -4.786  -3.297   5.331  1.00  0.00     0.163 HD
ATOM     28  O   UNL     1      -6.013  -5.401   5.464  1.00  0.00    -0.269 OA
BRANCH  26  29
ATOM     29  C   UNL     1      -7.439  -4.374   7.026  1.00  0.00     0.039 A 
ATOM     30  C   UNL     1      -7.487  -5.326   8.045  1.00  0.00     0.014 A 
ATOM     31  C   UNL     1      -8.410  -3.373   6.933  1.00  0.00     0.014 A 
ATOM     32  C   UNL     1      -8.475  -5.229   9.025  1.00  0.00     0.010 A 
ATOM     33  C   UNL     1      -9.360  -3.246   7.941  1.00  0.00     0.010 A 
ATOM     34  C   UNL     1      -9.393  -4.166   9.000  1.00  0.00    -0.014 A 
BRANCH  34  35
ATOM     35  C   UNL     1     -10.390  -3.995  10.083  1.00  0.00     0.031 A 
ATOM     36  C   UNL     1     -11.852  -4.178   9.792  1.00  0.00     0.074 A 
ATOM     37  C   UNL     1      -9.981  -3.626  11.312  1.00  0.00     0.049 A 
ATOM     38  N   UNL     1     -12.874  -4.025  10.593  1.00  0.00    -0.248 NA
ATOM     39  C   UNL     1     -12.212  -4.562   8.418  1.00  0.00     0.031 C 
ATOM     40  C   UNL     1      -8.591  -3.388  11.708  1.00  0.00     0.029 A 
ATOM     41  N   UNL     1     -10.697  -3.387  12.458  1.00  0.00    -0.354 N 
ATOM     42  C   UNL     1     -13.998  -4.286   9.820  1.00  0.00     0.074 A 
ATOM     43  C   UNL     1     -13.536  -4.559   8.476  1.00  0.00     0.031 C 
ATOM     44  C   UNL     1      -8.554  -3.073  13.014  1.00  0.00     0.029 A 
ATOM     45  C   UNL     1      -9.916  -3.054  13.538  1.00  0.00     0.049 A 
ATOM     46  H   UNL     1     -11.679  -3.449  12.502  1.00  0.00     0.167 HD
ATOM     47  C   UNL     1     -15.298  -4.316  10.198  1.00  0.00     0.031 A 
ATOM     48  C   UNL     1     -10.257  -2.771  14.810  1.00  0.00     0.031 A 
ATOM     49  C   UNL     1     -15.756  -4.055  11.535  1.00  0.00     0.049 A 
ATOM     50  C   UNL     1     -11.707  -2.800  15.204  1.00  0.00     0.074 A 
ATOM     51  C   UNL     1     -17.049  -4.093  12.026  1.00  0.00     0.029 A 
ATOM     52  N   UNL     1     -14.933  -3.713  12.598  1.00  0.00    -0.354 N 
ATOM     53  N   UNL     1     -12.754  -3.078  14.466  1.00  0.00    -0.248 NA
ATOM     54  C   UNL     1     -12.020  -2.480  16.604  1.00  0.00     0.031 C 
ATOM     55  C   UNL     1     -17.011  -3.744  13.381  1.00  0.00     0.029 A 
ATOM     56  C   UNL     1     -15.690  -3.526  13.741  1.00  0.00     0.049 A 
ATOM     57  H   UNL     1     -13.954  -3.617  12.547  1.00  0.00     0.167 HD
ATOM     58  C   UNL     1     -13.850  -2.983  15.314  1.00  0.00     0.074 A 
ATOM     59  C   UNL     1     -13.338  -2.632  16.623  1.00  0.00     0.031 C 
ATOM     60  C   UNL     1     -15.162  -3.170  15.033  1.00  0.00     0.031 A 
BRANCH  47  61
ATOM     61  C   UNL     1     -16.311  -4.652   9.140  1.00  0.00    -0.014 A 
ATOM     62  C   UNL     1     -16.428  -5.966   8.651  1.00  0.00     0.010 A 
ATOM     63  C   UNL     1     -17.160  -3.652   8.635  1.00  0.00     0.010 A 
ATOM     64  C   UNL     1     -17.346  -6.265   7.642  1.00  0.00     0.020 A 
ATOM     65  C   UNL     1     -18.096  -3.953   7.641  1.00  0.00     0.020 A 
ATOM     66  C   UNL     1     -18.169  -5.254   7.138  1.00  0.00     0.054 A 
BRANCH  66  67
ATOM     67  S   UNL     1     -19.354  -5.670   5.829  1.00  0.00     0.124 S 
ATOM     68  O   UNL     1     -18.484  -5.780   4.661  1.00  0.00    -0.237 OA
ATOM     69  O   UNL     1     -19.931  -6.925   6.303  1.00  0.00    -0.237 OA
ATOM     70  O   UNL     1     -20.271  -4.532   5.818  1.00  0.00    -0.744 OA
ENDBRANCH  66  67
ENDBRANCH  47  61
BRANCH  48  71
ATOM     71  C   UNL     1      -9.198  -2.473  15.809  1.00  0.00    -0.014 A 
ATOM     72  C   UNL     1      -8.835  -3.443  16.759  1.00  0.00     0.010 A 
ATOM     73  C   UNL     1      -8.521  -1.240  15.792  1.00  0.00     0.010 A 
ATOM     74  C   UNL     1      -7.815  -3.185  17.679  1.00  0.00     0.020 A 
ATOM     75  C   UNL     1      -7.489  -0.986  16.700  1.00  0.00     0.020 A 
ATOM     76  C   UNL     1      -7.146  -1.959  17.641  1.00  0.00     0.054 A 
BRANCH  76  77
ATOM     77  S   UNL     1      -5.775  -1.675  18.797  1.00  0.00     0.124 S 
ATOM     78  O   UNL     1      -6.480  -1.439  20.052  1.00  0.00    -0.237 OA
ATOM     79  O   UNL     1      -5.029  -2.929  18.716  1.00  0.00    -0.237 OA
ATOM     80  O   UNL     1      -5.089  -0.515  18.233  1.00  0.00    -0.744 OA
ENDBRANCH  76  77
ENDBRANCH  48  71
BRANCH  60  81
ATOM     81  C   UNL     1     -16.141  -3.012  16.162  1.00  0.00    -0.014 A 
ATOM     82  C   UNL     1     -16.520  -1.735  16.611  1.00  0.00     0.010 A 
ATOM     83  C   UNL     1     -16.745  -4.150  16.726  1.00  0.00     0.010 A 
ATOM     84  C   UNL     1     -17.479  -1.600  17.617  1.00  0.00     0.020 A 
ATOM     85  C   UNL     1     -17.718  -4.017  17.718  1.00  0.00     0.020 A 
ATOM     86  C   UNL     1     -18.074  -2.742  18.163  1.00  0.00     0.054 A 
BRANCH  86  87
ATOM     87  S   UNL     1     -19.365  -2.537  19.421  1.00  0.00     0.124 S 
ATOM     88  O   UNL     1     -18.583  -2.189  20.605  1.00  0.00    -0.237 OA
ATOM     89  O   UNL     1     -20.184  -1.460  18.870  1.00  0.00    -0.237 OA
ATOM     90  O   UNL     1     -20.015  -3.845  19.465  1.00  0.00    -0.744 OA
ENDBRANCH  86  87
ENDBRANCH  60  81
ENDBRANCH  34  35
ENDBRANCH  26  29
ENDBRANCH  24  25
ENDBRANCH   1  24
TORSDOF 15
