REMARK SMILES COc1cc2nc(SCC(=O)NCCCCNC(=O)c3ccc(-c4c5nc(c(-c6ccc(S(=O)(=O)[O-])cc6)c6ccc([nH]6)c(-c6ccc(S(=O)(=O)[O-])cc6)c6nc(c(-c7ccc(S(=O)(=O)[O-])cc7)c7ccc4[nH]7)C=C6)C=C5)cc3)nc(O)c2cc1OC
REMARK SMILES IDX 14 1 13 2 12 3 10 4 11 5 9 7 8 8 7 9 3 10 4 11 85 12 5 13
REMARK SMILES IDX 84 14 6 15 83 16 81 17 80 18 2 19 1 20 86 21 87 22 82 23
REMARK SMILES IDX 15 25 16 26 17 27 18 28 19 30 20 31 21 32 79 33 22 34 78 35
REMARK SMILES IDX 23 36 24 37 25 38 72 39 26 40 77 41 71 42 73 43 27 44 76 45
REMARK SMILES IDX 70 46 69 47 28 49 58 50 39 51 57 52 40 53 43 54 56 55 74 56
REMARK SMILES IDX 41 57 42 58 55 60 75 61 44 62 29 63 30 64 38 65 31 66 37 67
REMARK SMILES IDX 32 68 33 69 34 70 35 71 36 72 59 73 60 74 68 75 61 76 67 77
REMARK SMILES IDX 62 78 63 79 64 80 65 81 66 82 45 83 46 84 54 85 47 86 53 87
REMARK SMILES IDX 48 88 49 89 50 90 51 91 52 92
REMARK H PARENT 12 6 82 24 17 29 73 48 43 59
REMARK Flexibility Score: inf
ROOT
ATOM      1  C   UNL     1      -2.866  -6.762  -4.592  1.00  0.00     0.023 C 
ENDROOT
BRANCH   1   2
ATOM      2  C   UNL     1      -2.389  -8.211  -4.697  1.00  0.00     0.116 C 
BRANCH   2   3
ATOM      3  N   UNL     1      -0.941  -8.310  -4.716  1.00  0.00    -0.355 N 
ATOM      4  C   UNL     1      -0.083  -8.740  -3.746  1.00  0.00     0.230 C 
ATOM      5  O   UNL     1       1.122  -8.768  -4.015  1.00  0.00    -0.274 OA
ATOM      6  H   UNL     1      -0.514  -8.024  -5.556  1.00  0.00     0.163 HD
BRANCH   4   7
ATOM      7  C   UNL     1      -0.606  -9.267  -2.420  1.00  0.00     0.178 C 
BRANCH   7   8
ATOM      8  S   UNL     1      -1.413  -8.015  -1.379  1.00  0.00    -0.076 SA
BRANCH   8   9
ATOM      9  C   UNL     1      -0.118  -6.819  -1.189  1.00  0.00     0.192 A 
ATOM     10  C   UNL     1       1.122  -2.485   0.249  1.00  0.00     0.162 A 
ATOM     11  C   UNL     1       0.161  -3.489   0.077  1.00  0.00     0.079 A 
ATOM     12  C   UNL     1       2.457  -2.704  -0.115  1.00  0.00     0.161 A 
ATOM     13  C   UNL     1       0.480  -4.715  -0.487  1.00  0.00     0.083 A 
ATOM     14  C   UNL     1       2.790  -3.930  -0.688  1.00  0.00     0.066 A 
ATOM     15  N   UNL     1      -0.474  -5.644  -0.646  1.00  0.00    -0.222 NA
ATOM     16  C   UNL     1       1.803  -4.929  -0.871  1.00  0.00     0.066 A 
ATOM     17  C   UNL     1       2.030  -6.180  -1.421  1.00  0.00     0.223 A 
ATOM     18  N   UNL     1       1.117  -7.141  -1.573  1.00  0.00    -0.187 NA
BRANCH  10  19
ATOM     19  O   UNL     1       0.666  -1.336   0.848  1.00  0.00    -0.493 OA
ATOM     20  C   UNL     1       0.899  -0.172   0.051  1.00  0.00     0.278 C 
ENDBRANCH  10  19
BRANCH  12  21
ATOM     21  O   UNL     1       3.353  -1.709   0.162  1.00  0.00    -0.493 OA
ATOM     22  C   UNL     1       4.664  -1.836  -0.374  1.00  0.00     0.278 C 
ENDBRANCH  12  21
BRANCH  17  23
ATOM     23  O   UNL     1       3.255  -6.539  -1.892  1.00  0.00    -0.493 OA
ATOM     24  H   UNL     1       3.384  -7.391  -2.260  1.00  0.00     0.295 HD
ENDBRANCH  17  23
ENDBRANCH   8   9
ENDBRANCH   7   8
ENDBRANCH   4   7
ENDBRANCH   2   3
ENDBRANCH   1   2
BRANCH   1  25
ATOM     25  C   UNL     1      -2.467  -5.863  -5.765  1.00  0.00     0.023 C 
BRANCH  25  26
ATOM     26  C   UNL     1      -2.947  -6.321  -7.138  1.00  0.00     0.116 C 
BRANCH  26  27
ATOM     27  N   UNL     1      -4.397  -6.370  -7.259  1.00  0.00    -0.352 N 
ATOM     28  C   UNL     1      -5.183  -5.970  -8.317  1.00  0.00     0.251 C 
ATOM     29  H   UNL     1      -4.879  -6.737  -6.483  1.00  0.00     0.163 HD
ATOM     30  O   UNL     1      -6.407  -5.991  -8.225  1.00  0.00    -0.269 OA
BRANCH  28  31
ATOM     31  C   UNL     1      -4.534  -5.463  -9.545  1.00  0.00     0.039 A 
ATOM     32  C   UNL     1      -3.500  -6.182 -10.149  1.00  0.00     0.014 A 
ATOM     33  C   UNL     1      -4.914  -4.216 -10.047  1.00  0.00     0.014 A 
ATOM     34  C   UNL     1      -2.732  -5.577 -11.140  1.00  0.00     0.010 A 
ATOM     35  C   UNL     1      -4.184  -3.640 -11.090  1.00  0.00     0.010 A 
ATOM     36  C   UNL     1      -3.049  -4.289 -11.601  1.00  0.00    -0.014 A 
BRANCH  36  37
ATOM     37  C   UNL     1      -2.156  -3.617 -12.579  1.00  0.00     0.031 A 
ATOM     38  C   UNL     1      -1.356  -2.406 -12.176  1.00  0.00     0.074 A 
ATOM     39  C   UNL     1      -2.015  -4.131 -13.816  1.00  0.00     0.049 A 
ATOM     40  N   UNL     1      -0.504  -1.711 -12.886  1.00  0.00    -0.248 NA
ATOM     41  C   UNL     1      -1.531  -1.910 -10.800  1.00  0.00     0.031 C 
ATOM     42  C   UNL     1      -2.708  -5.320 -14.313  1.00  0.00     0.029 A 
ATOM     43  N   UNL     1      -1.222  -3.740 -14.866  1.00  0.00    -0.354 N 
ATOM     44  C   UNL     1      -0.064  -0.685 -12.058  1.00  0.00     0.074 A 
ATOM     45  C   UNL     1      -0.755  -0.835 -10.796  1.00  0.00     0.031 C 
ATOM     46  C   UNL     1      -2.266  -5.597 -15.549  1.00  0.00     0.029 A 
ATOM     47  C   UNL     1      -1.306  -4.573 -15.955  1.00  0.00     0.049 A 
ATOM     48  H   UNL     1      -0.649  -2.941 -14.840  1.00  0.00     0.167 HD
ATOM     49  C   UNL     1       0.839   0.287 -12.322  1.00  0.00     0.031 A 
ATOM     50  C   UNL     1      -0.688  -4.524 -17.152  1.00  0.00     0.031 A 
ATOM     51  C   UNL     1       1.546   0.418 -13.568  1.00  0.00     0.049 A 
ATOM     52  C   UNL     1       0.275  -3.412 -17.442  1.00  0.00     0.074 A 
ATOM     53  C   UNL     1       2.512   1.348 -13.908  1.00  0.00     0.029 A 
ATOM     54  N   UNL     1       1.367  -0.399 -14.674  1.00  0.00    -0.354 N 
ATOM     55  N   UNL     1       0.680  -2.454 -16.645  1.00  0.00    -0.248 NA
ATOM     56  C   UNL     1       0.857  -3.363 -18.791  1.00  0.00     0.031 C 
ATOM     57  C   UNL     1       2.879   1.128 -15.238  1.00  0.00     0.029 A 
ATOM     58  C   UNL     1       2.181   0.027 -15.710  1.00  0.00     0.049 A 
ATOM     59  H   UNL     1       0.753  -1.167 -14.716  1.00  0.00     0.167 HD
ATOM     60  C   UNL     1       1.567  -1.688 -17.392  1.00  0.00     0.074 A 
ATOM     61  C   UNL     1       1.649  -2.300 -18.702  1.00  0.00     0.031 C 
ATOM     62  C   UNL     1       2.247  -0.578 -17.017  1.00  0.00     0.031 A 
BRANCH  49  63
ATOM     63  C   UNL     1       1.112   1.310 -11.252  1.00  0.00    -0.014 A 
ATOM     64  C   UNL     1       0.655   2.630 -11.424  1.00  0.00     0.010 A 
ATOM     65  C   UNL     1       1.886   0.994 -10.122  1.00  0.00     0.010 A 
ATOM     66  C   UNL     1       0.973   3.619 -10.489  1.00  0.00     0.020 A 
ATOM     67  C   UNL     1       2.187   1.976  -9.173  1.00  0.00     0.020 A 
ATOM     68  C   UNL     1       1.741   3.286  -9.371  1.00  0.00     0.054 A 
BRANCH  68  69
ATOM     69  S   UNL     1       2.127   4.571  -8.149  1.00  0.00     0.124 S 
ATOM     70  O   UNL     1       3.274   5.239  -8.756  1.00  0.00    -0.237 OA
ATOM     71  O   UNL     1       0.893   5.352  -8.099  1.00  0.00    -0.237 OA
ATOM     72  O   UNL     1       2.415   3.807  -6.937  1.00  0.00    -0.744 OA
ENDBRANCH  68  69
ENDBRANCH  49  63
BRANCH  50  73
ATOM     73  C   UNL     1      -0.971  -5.601 -18.137  1.00  0.00    -0.014 A 
ATOM     74  C   UNL     1      -2.229  -5.677 -18.764  1.00  0.00     0.010 A 
ATOM     75  C   UNL     1      -0.042  -6.637 -18.331  1.00  0.00     0.010 A 
ATOM     76  C   UNL     1      -2.583  -6.808 -19.503  1.00  0.00     0.020 A 
ATOM     77  C   UNL     1      -0.385  -7.761 -19.090  1.00  0.00     0.020 A 
ATOM     78  C   UNL     1      -1.667  -7.855 -19.637  1.00  0.00     0.054 A 
BRANCH  78  79
ATOM     79  S   UNL     1      -2.185  -9.364 -20.502  1.00  0.00     0.124 S 
ATOM     80  O   UNL     1      -2.988 -10.030 -19.480  1.00  0.00    -0.237 OA
ATOM     81  O   UNL     1      -2.928  -8.841 -21.645  1.00  0.00    -0.237 OA
ATOM     82  O   UNL     1      -0.921 -10.019 -20.830  1.00  0.00    -0.744 OA
ENDBRANCH  78  79
ENDBRANCH  50  73
BRANCH  62  83
ATOM     83  C   UNL     1       3.143   0.086 -18.026  1.00  0.00    -0.014 A 
ATOM     84  C   UNL     1       4.540   0.012 -17.873  1.00  0.00     0.010 A 
ATOM     85  C   UNL     1       2.602   0.915 -19.023  1.00  0.00     0.010 A 
ATOM     86  C   UNL     1       5.380   0.791 -18.671  1.00  0.00     0.020 A 
ATOM     87  C   UNL     1       3.441   1.681 -19.837  1.00  0.00     0.020 A 
ATOM     88  C   UNL     1       4.824   1.636 -19.636  1.00  0.00     0.054 A 
BRANCH  88  89
ATOM     89  S   UNL     1       5.925   2.689 -20.620  1.00  0.00     0.124 S 
ATOM     90  O   UNL     1       6.222   3.775 -19.692  1.00  0.00    -0.237 OA
ATOM     91  O   UNL     1       7.042   1.796 -20.922  1.00  0.00    -0.237 OA
ATOM     92  O   UNL     1       5.105   3.057 -21.773  1.00  0.00    -0.744 OA
ENDBRANCH  88  89
ENDBRANCH  62  83
ENDBRANCH  36  37
ENDBRANCH  28  31
ENDBRANCH  26  27
ENDBRANCH  25  26
ENDBRANCH   1  25
TORSDOF 19
