REMARK SMILES COc1ccc(/C=C/c2cc(OC)cc(OC)c2/C=C/C(=O)NCCCCNC(=O)c2ccc(-c3c4nc(c(-c5ccc(S(=O)(=O)[O-])cc5)c5ccc([nH]5)c(-c5ccc(S(=O)(=O)[O-])cc5)c5nc(c(-c6ccc(S(=O)(=O)[O-])cc6)c6ccc3[nH]6)C=C5)C=C4)cc2)cc1
REMARK SMILES IDX 25 1 24 2 23 3 21 4 22 5 20 7 19 8 18 9 9 10 10 11 11 12
REMARK SMILES IDX 15 13 14 14 8 15 7 16 6 17 3 18 4 19 92 20 5 21 91 22 2 23
REMARK SMILES IDX 1 24 12 25 13 26 16 27 17 28 26 29 27 30 28 31 29 32 30 34
REMARK SMILES IDX 31 35 32 36 90 37 33 38 89 39 34 40 35 41 36 42 83 43 37 44
REMARK SMILES IDX 88 45 82 46 84 47 38 48 87 49 81 50 80 51 39 53 69 54 50 55
REMARK SMILES IDX 68 56 51 57 54 58 67 59 85 60 52 61 53 62 66 64 86 65 55 66
REMARK SMILES IDX 40 67 41 68 49 69 42 70 48 71 43 72 44 73 45 74 46 75 47 76
REMARK SMILES IDX 70 77 71 78 79 79 72 80 78 81 73 82 74 83 75 84 76 85 77 86
REMARK SMILES IDX 56 87 57 88 65 89 58 90 64 91 59 92 60 93 61 94 62 95 63 96
REMARK H PARENT 23 6 28 33 84 52 54 63
REMARK Flexibility Score: inf
ROOT
ATOM      1  C   UNL     1       3.171   2.445  -5.784  1.00  0.00     0.023 C 
ENDROOT
BRANCH   1   2
ATOM      2  C   UNL     1       4.176   3.230  -4.951  1.00  0.00     0.116 C 
BRANCH   2   3
ATOM      3  N   UNL     1       5.365   3.548  -5.710  1.00  0.00    -0.353 N 
ATOM      4  C   UNL     1       5.841   4.780  -6.029  1.00  0.00     0.244 C 
ATOM      5  O   UNL     1       6.898   4.921  -6.636  1.00  0.00    -0.270 OA
ATOM      6  H   UNL     1       5.891   2.781  -6.035  1.00  0.00     0.163 HD
BRANCH   4   7
ATOM      7  C   UNL     1       5.086   5.969  -5.586  1.00  0.00     0.072 C 
ATOM      8  C   UNL     1       3.894   6.256  -6.132  1.00  0.00     0.018 C 
BRANCH   8   9
ATOM      9  C   UNL     1       3.178   7.511  -5.860  1.00  0.00     0.024 A 
ATOM     10  C   UNL     1       2.002   7.462  -5.055  1.00  0.00    -0.011 A 
ATOM     11  C   UNL     1       1.241   8.627  -4.848  1.00  0.00     0.055 A 
ATOM     12  C   UNL     1       1.610   9.836  -5.427  1.00  0.00     0.123 A 
ATOM     13  C   UNL     1       3.561   8.750  -6.423  1.00  0.00     0.130 A 
ATOM     14  C   UNL     1       2.775   9.891  -6.181  1.00  0.00     0.093 A 
BRANCH  10  15
ATOM     15  C   UNL     1       1.441   6.232  -4.447  1.00  0.00     0.009 C 
ATOM     16  C   UNL     1       1.991   5.609  -3.391  1.00  0.00     0.009 C 
BRANCH  16  17
ATOM     17  C   UNL     1       1.473   4.394  -2.720  1.00  0.00    -0.025 A 
ATOM     18  C   UNL     1       0.557   2.130  -1.278  1.00  0.00     0.118 A 
ATOM     19  C   UNL     1      -0.253   2.749  -2.231  1.00  0.00     0.047 A 
ATOM     20  C   UNL     1       1.843   2.617  -1.072  1.00  0.00     0.047 A 
ATOM     21  C   UNL     1       0.196   3.869  -2.944  1.00  0.00     0.012 A 
ATOM     22  C   UNL     1       2.293   3.740  -1.786  1.00  0.00     0.012 A 
BRANCH  18  23
ATOM     23  O   UNL     1      -0.030   1.091  -0.616  1.00  0.00    -0.497 OA
ATOM     24  C   UNL     1       0.798   0.284   0.213  1.00  0.00     0.278 C 
ENDBRANCH  18  23
ENDBRANCH  16  17
ENDBRANCH  10  15
BRANCH  12  25
ATOM     25  O   UNL     1       0.763  10.887  -5.201  1.00  0.00    -0.497 OA
ATOM     26  C   UNL     1       0.921  12.010  -6.065  1.00  0.00     0.278 C 
ENDBRANCH  12  25
BRANCH  13  27
ATOM     27  O   UNL     1       4.595   9.084  -7.256  1.00  0.00    -0.496 OA
ATOM     28  C   UNL     1       5.572   8.158  -7.689  1.00  0.00     0.278 C 
ENDBRANCH  13  27
ENDBRANCH   8   9
ENDBRANCH   4   7
ENDBRANCH   2   3
ENDBRANCH   1   2
BRANCH   1  29
ATOM     29  C   UNL     1       3.534   0.968  -5.934  1.00  0.00     0.023 C 
BRANCH  29  30
ATOM     30  C   UNL     1       3.651   0.217  -4.613  1.00  0.00     0.116 C 
BRANCH  30  31
ATOM     31  N   UNL     1       2.416   0.241  -3.845  1.00  0.00    -0.352 N 
ATOM     32  C   UNL     1       1.861  -0.777  -3.114  1.00  0.00     0.251 C 
ATOM     33  H   UNL     1       1.918   1.091  -3.851  1.00  0.00     0.163 HD
ATOM     34  O   UNL     1       0.673  -0.744  -2.800  1.00  0.00    -0.269 OA
BRANCH  32  35
ATOM     35  C   UNL     1       2.681  -1.947  -2.750  1.00  0.00     0.039 A 
ATOM     36  C   UNL     1       2.079  -3.204  -2.799  1.00  0.00     0.014 A 
ATOM     37  C   UNL     1       4.037  -1.819  -2.433  1.00  0.00     0.014 A 
ATOM     38  C   UNL     1       2.866  -4.341  -2.660  1.00  0.00     0.010 A 
ATOM     39  C   UNL     1       4.837  -2.952  -2.391  1.00  0.00     0.010 A 
ATOM     40  C   UNL     1       4.259  -4.219  -2.536  1.00  0.00    -0.014 A 
BRANCH  40  41
ATOM     41  C   UNL     1       5.119  -5.417  -2.648  1.00  0.00     0.031 A 
ATOM     42  C   UNL     1       5.957  -5.862  -1.490  1.00  0.00     0.074 A 
ATOM     43  C   UNL     1       5.160  -6.066  -3.829  1.00  0.00     0.049 A 
ATOM     44  N   UNL     1       6.745  -6.900  -1.403  1.00  0.00    -0.248 NA
ATOM     45  C   UNL     1       5.925  -5.025  -0.280  1.00  0.00     0.031 C 
ATOM     46  C   UNL     1       4.426  -5.671  -5.038  1.00  0.00     0.029 A 
ATOM     47  N   UNL     1       5.834  -7.196  -4.210  1.00  0.00    -0.354 N 
ATOM     48  C   UNL     1       7.306  -6.840  -0.135  1.00  0.00     0.074 A 
ATOM     49  C   UNL     1       6.814  -5.633   0.491  1.00  0.00     0.031 C 
ATOM     50  C   UNL     1       4.649  -6.573  -6.005  1.00  0.00     0.029 A 
ATOM     51  C   UNL     1       5.576  -7.581  -5.505  1.00  0.00     0.049 A 
ATOM     52  H   UNL     1       6.445  -7.686  -3.614  1.00  0.00     0.167 HD
ATOM     53  C   UNL     1       8.138  -7.727   0.459  1.00  0.00     0.031 A 
ATOM     54  C   UNL     1       6.034  -8.633  -6.210  1.00  0.00     0.031 A 
ATOM     55  C   UNL     1       8.623  -8.918  -0.187  1.00  0.00     0.049 A 
ATOM     56  C   UNL     1       6.965  -9.597  -5.531  1.00  0.00     0.074 A 
ATOM     57  C   UNL     1       9.435  -9.909   0.333  1.00  0.00     0.029 A 
ATOM     58  N   UNL     1       8.345  -9.273  -1.500  1.00  0.00    -0.354 N 
ATOM     59  N   UNL     1       7.424  -9.568  -4.301  1.00  0.00    -0.248 NA
ATOM     60  C   UNL     1       7.431 -10.740  -6.325  1.00  0.00     0.031 C 
ATOM     61  C   UNL     1       9.699 -10.831  -0.684  1.00  0.00     0.029 A 
ATOM     62  C   UNL     1       8.993 -10.454  -1.817  1.00  0.00     0.049 A 
ATOM     63  H   UNL     1       7.772  -8.761  -2.115  1.00  0.00     0.167 HD
ATOM     64  C   UNL     1       8.213 -10.703  -4.166  1.00  0.00     0.074 A 
ATOM     65  C   UNL     1       8.153 -11.405  -5.433  1.00  0.00     0.031 C 
ATOM     66  C   UNL     1       8.921 -11.129  -3.090  1.00  0.00     0.031 A 
BRANCH  53  67
ATOM     67  C   UNL     1       8.581  -7.427   1.867  1.00  0.00    -0.014 A 
ATOM     68  C   UNL     1       7.671  -7.459   2.940  1.00  0.00     0.010 A 
ATOM     69  C   UNL     1       9.930  -7.124   2.126  1.00  0.00     0.010 A 
ATOM     70  C   UNL     1       8.091  -7.147   4.235  1.00  0.00     0.020 A 
ATOM     71  C   UNL     1      10.361  -6.843   3.425  1.00  0.00     0.020 A 
ATOM     72  C   UNL     1       9.433  -6.838   4.469  1.00  0.00     0.054 A 
BRANCH  72  73
ATOM     73  S   UNL     1       9.951  -6.447   6.163  1.00  0.00     0.124 S 
ATOM     74  O   UNL     1       9.345  -5.133   6.366  1.00  0.00    -0.237 OA
ATOM     75  O   UNL     1       9.361  -7.536   6.936  1.00  0.00    -0.237 OA
ATOM     76  O   UNL     1      11.410  -6.455   6.091  1.00  0.00    -0.744 OA
ENDBRANCH  72  73
ENDBRANCH  53  67
BRANCH  54  77
ATOM     77  C   UNL     1       5.601  -8.829  -7.621  1.00  0.00    -0.014 A 
ATOM     78  C   UNL     1       4.755  -9.897  -7.972  1.00  0.00     0.010 A 
ATOM     79  C   UNL     1       6.010  -7.928  -8.622  1.00  0.00     0.010 A 
ATOM     80  C   UNL     1       4.343 -10.070  -9.297  1.00  0.00     0.020 A 
ATOM     81  C   UNL     1       5.575  -8.079  -9.942  1.00  0.00     0.020 A 
ATOM     82  C   UNL     1       4.753  -9.157 -10.273  1.00  0.00     0.054 A 
BRANCH  82  83
ATOM     83  S   UNL     1       4.165  -9.373 -11.976  1.00  0.00     0.124 S 
ATOM     84  O   UNL     1       4.913 -10.549 -12.409  1.00  0.00    -0.237 OA
ATOM     85  O   UNL     1       2.729  -9.569 -11.790  1.00  0.00    -0.237 OA
ATOM     86  O   UNL     1       4.535  -8.119 -12.628  1.00  0.00    -0.744 OA
ENDBRANCH  82  83
ENDBRANCH  54  77
BRANCH  66  87
ATOM     87  C   UNL     1       9.664 -12.431  -3.228  1.00  0.00    -0.014 A 
ATOM     88  C   UNL     1      10.813 -12.535  -4.032  1.00  0.00     0.010 A 
ATOM     89  C   UNL     1       9.236 -13.550  -2.491  1.00  0.00     0.010 A 
ATOM     90  C   UNL     1      11.502 -13.747  -4.120  1.00  0.00     0.020 A 
ATOM     91  C   UNL     1       9.942 -14.752  -2.550  1.00  0.00     0.020 A 
ATOM     92  C   UNL     1      11.064 -14.847  -3.376  1.00  0.00     0.054 A 
BRANCH  92  93
ATOM     93  S   UNL     1      12.007 -16.392  -3.468  1.00  0.00     0.124 S 
ATOM     94  O   UNL     1      11.674 -16.872  -4.807  1.00  0.00    -0.237 OA
ATOM     95  O   UNL     1      13.383 -15.938  -3.287  1.00  0.00    -0.237 OA
ATOM     96  O   UNL     1      11.471 -17.192  -2.369  1.00  0.00    -0.744 OA
ENDBRANCH  92  93
ENDBRANCH  66  87
ENDBRANCH  40  41
ENDBRANCH  32  35
ENDBRANCH  30  31
ENDBRANCH  29  30
ENDBRANCH   1  29
TORSDOF 20
