REMARK SMILES Cc1cc(C(=O)NCCCCNC(=O)c2ccc(-c3c4nc(c(-c5ccc(S(=O)(=O)[O-])cc5)c5ccc([nH]5)c(-c5ccc(S(=O)(=O)[O-])cc5)c5nc(c(-c6ccc(S(=O)(=O)[O-])cc6)c6ccc3[nH]6)C=C5)C=C4)cc2)ccc1NS(=O)(=O)c1ccc2c(c1)CCC2
REMARK SMILES IDX 9 1 8 2 7 3 5 4 6 5 4 7 1 8 2 9 3 10 77 11 76 12 75 13 78 14
REMARK SMILES IDX 79 16 80 17 81 18 82 19 83 20 87 21 84 22 86 23 85 24 88 25
REMARK SMILES IDX 90 26 89 27 10 28 11 29 12 30 13 31 14 33 15 34 16 35 74 36
REMARK SMILES IDX 17 37 73 38 18 39 19 40 20 41 67 42 21 43 72 44 66 45 68 46
REMARK SMILES IDX 22 47 71 48 65 49 64 50 23 52 53 53 34 54 52 55 35 56 38 57
REMARK SMILES IDX 51 58 69 59 36 60 37 61 50 63 70 64 39 65 24 66 25 67 33 68
REMARK SMILES IDX 26 69 32 70 27 71 28 72 29 73 30 74 31 75 54 76 55 77 63 78
REMARK SMILES IDX 56 79 62 80 57 81 58 82 59 83 60 84 61 85 40 86 41 87 49 88
REMARK SMILES IDX 42 89 48 90 43 91 44 92 45 93 46 94 47 95
REMARK H PARENT 7 6 78 15 12 32 68 51 38 62
REMARK Flexibility Score: inf
ROOT
ATOM      1  C   UNL     1      -4.576  -1.047  -1.630  1.00  0.00     0.023 C 
ENDROOT
BRANCH   1   2
ATOM      2  C   UNL     1      -3.982  -1.171  -0.220  1.00  0.00     0.116 C 
BRANCH   2   3
ATOM      3  N   UNL     1      -3.110  -2.325  -0.029  1.00  0.00    -0.352 N 
ATOM      4  C   UNL     1      -1.788  -2.426   0.345  1.00  0.00     0.251 C 
ATOM      5  O   UNL     1      -1.260  -3.535   0.400  1.00  0.00    -0.269 OA
ATOM      6  H   UNL     1      -3.547  -3.191  -0.197  1.00  0.00     0.163 HD
BRANCH   4   7
ATOM      7  C   UNL     1      -0.948  -1.223   0.568  1.00  0.00     0.040 A 
ATOM      8  C   UNL     1       2.464  -0.071  -0.614  1.00  0.00     0.046 C 
ATOM      9  C   UNL     1       1.063  -0.014  -0.071  1.00  0.00    -0.026 A 
ATOM     10  C   UNL     1       0.329  -1.207  -0.003  1.00  0.00     0.019 A 
ATOM     11  C   UNL     1       0.454   1.174   0.364  1.00  0.00     0.052 A 
ATOM     12  C   UNL     1      -0.662   1.091   1.199  1.00  0.00     0.028 A 
ATOM     13  C   UNL     1      -1.369  -0.114   1.299  1.00  0.00     0.016 A 
BRANCH  11  14
ATOM     14  N   UNL     1       0.872   2.387  -0.258  1.00  0.00    -0.279 N 
ATOM     15  H   UNL     1       1.617   2.304  -0.897  1.00  0.00     0.180 HD
BRANCH  14  16
ATOM     16  S   UNL     1       0.271   3.927  -0.050  1.00  0.00     0.261 S 
ATOM     17  O   UNL     1       0.408   4.273   1.350  1.00  0.00    -0.201 OA
ATOM     18  O   UNL     1       0.917   4.719  -1.078  1.00  0.00    -0.201 OA
BRANCH  16  19
ATOM     19  C   UNL     1      -1.471   3.950  -0.427  1.00  0.00     0.088 A 
ATOM     20  C   UNL     1      -2.173   2.811  -0.853  1.00  0.00     0.022 A 
ATOM     21  C   UNL     1      -2.156   5.130  -0.099  1.00  0.00     0.026 A 
ATOM     22  C   UNL     1      -3.565   2.773  -0.744  1.00  0.00     0.005 A 
ATOM     23  C   UNL     1      -3.535   5.089  -0.042  1.00  0.00    -0.043 A 
ATOM     24  C   UNL     1      -4.222   3.897  -0.280  1.00  0.00    -0.045 A 
ATOM     25  C   UNL     1      -4.497   6.183   0.295  1.00  0.00     0.036 C 
ATOM     26  C   UNL     1      -5.673   4.036   0.065  1.00  0.00     0.036 C 
ATOM     27  C   UNL     1      -5.669   5.362   0.847  1.00  0.00     0.010 C 
ENDBRANCH  16  19
ENDBRANCH  14  16
ENDBRANCH  11  14
ENDBRANCH   4   7
ENDBRANCH   2   3
ENDBRANCH   1   2
BRANCH   1  28
ATOM     28  C   UNL     1      -5.479  -2.189  -2.094  1.00  0.00     0.023 C 
BRANCH  28  29
ATOM     29  C   UNL     1      -6.742  -2.373  -1.255  1.00  0.00     0.116 C 
BRANCH  29  30
ATOM     30  N   UNL     1      -7.978  -2.115  -1.986  1.00  0.00    -0.352 N 
ATOM     31  C   UNL     1      -9.282  -2.398  -1.603  1.00  0.00     0.251 C 
ATOM     32  H   UNL     1      -7.874  -1.685  -2.866  1.00  0.00     0.163 HD
ATOM     33  O   UNL     1     -10.219  -2.265  -2.372  1.00  0.00    -0.269 OA
BRANCH  31  34
ATOM     34  C   UNL     1      -9.514  -2.787  -0.194  1.00  0.00     0.039 A 
ATOM     35  C   UNL     1     -10.267  -1.923   0.609  1.00  0.00     0.014 A 
ATOM     36  C   UNL     1      -8.784  -3.829   0.366  1.00  0.00     0.014 A 
ATOM     37  C   UNL     1     -10.113  -1.971   1.993  1.00  0.00     0.010 A 
ATOM     38  C   UNL     1      -8.544  -3.801   1.724  1.00  0.00     0.010 A 
ATOM     39  C   UNL     1      -9.163  -2.836   2.531  1.00  0.00    -0.014 A 
BRANCH  39  40
ATOM     40  C   UNL     1      -8.657  -2.747   3.897  1.00  0.00     0.031 A 
ATOM     41  C   UNL     1      -8.965  -3.817   4.876  1.00  0.00     0.074 A 
ATOM     42  C   UNL     1      -7.763  -1.781   4.209  1.00  0.00     0.049 A 
ATOM     43  N   UNL     1      -8.798  -3.720   6.153  1.00  0.00    -0.248 NA
ATOM     44  C   UNL     1      -9.564  -5.087   4.474  1.00  0.00     0.031 C 
ATOM     45  C   UNL     1      -6.843  -1.777   5.344  1.00  0.00     0.029 A 
ATOM     46  N   UNL     1      -7.645  -0.492   3.679  1.00  0.00    -0.354 N 
ATOM     47  C   UNL     1      -8.935  -4.987   6.681  1.00  0.00     0.074 A 
ATOM     48  C   UNL     1      -9.528  -5.767   5.622  1.00  0.00     0.031 C 
ATOM     49  C   UNL     1      -6.495  -0.508   5.610  1.00  0.00     0.029 A 
ATOM     50  C   UNL     1      -7.313   0.342   4.760  1.00  0.00     0.049 A 
ATOM     51  H   UNL     1      -7.770  -0.224   2.740  1.00  0.00     0.167 HD
ATOM     52  C   UNL     1      -8.379  -5.275   7.894  1.00  0.00     0.031 A 
ATOM     53  C   UNL     1      -8.092   1.372   5.206  1.00  0.00     0.031 A 
ATOM     54  C   UNL     1      -7.887  -4.067   8.559  1.00  0.00     0.049 A 
ATOM     55  C   UNL     1      -8.475   1.240   6.663  1.00  0.00     0.074 A 
ATOM     56  C   UNL     1      -6.622  -3.533   8.738  1.00  0.00     0.029 A 
ATOM     57  N   UNL     1      -8.789  -3.070   8.913  1.00  0.00    -0.354 N 
ATOM     58  N   UNL     1      -8.371   0.131   7.342  1.00  0.00    -0.248 NA
ATOM     59  C   UNL     1      -9.049   2.324   7.456  1.00  0.00     0.031 C 
ATOM     60  C   UNL     1      -6.772  -2.169   9.105  1.00  0.00     0.029 A 
ATOM     61  C   UNL     1      -8.125  -1.889   9.184  1.00  0.00     0.049 A 
ATOM     62  H   UNL     1      -9.765  -3.189   8.964  1.00  0.00     0.167 HD
ATOM     63  C   UNL     1      -8.845   0.321   8.611  1.00  0.00     0.074 A 
ATOM     64  C   UNL     1      -9.249   1.715   8.639  1.00  0.00     0.031 C 
ATOM     65  C   UNL     1      -8.874  -0.688   9.529  1.00  0.00     0.031 A 
BRANCH  52  66
ATOM     66  C   UNL     1      -8.005  -6.682   8.334  1.00  0.00    -0.014 A 
ATOM     67  C   UNL     1      -7.000  -6.863   9.309  1.00  0.00     0.010 A 
ATOM     68  C   UNL     1      -8.522  -7.864   7.771  1.00  0.00     0.010 A 
ATOM     69  C   UNL     1      -6.473  -8.130   9.618  1.00  0.00     0.020 A 
ATOM     70  C   UNL     1      -7.993  -9.133   8.049  1.00  0.00     0.020 A 
ATOM     71  C   UNL     1      -6.954  -9.258   8.960  1.00  0.00     0.054 A 
BRANCH  71  72
ATOM     72  S   UNL     1      -6.210 -10.875   9.292  1.00  0.00     0.124 S 
ATOM     73  O   UNL     1      -4.810 -10.656   8.938  1.00  0.00    -0.237 OA
ATOM     74  O   UNL     1      -6.481 -11.060  10.715  1.00  0.00    -0.237 OA
ATOM     75  O   UNL     1      -6.934 -11.780   8.401  1.00  0.00    -0.744 OA
ENDBRANCH  71  72
ENDBRANCH  52  66
BRANCH  53  76
ATOM     76  C   UNL     1      -8.940   2.012   4.166  1.00  0.00    -0.014 A 
ATOM     77  C   UNL     1      -8.294   2.835   3.222  1.00  0.00     0.010 A 
ATOM     78  C   UNL     1     -10.204   1.475   3.857  1.00  0.00     0.010 A 
ATOM     79  C   UNL     1      -8.810   2.962   1.933  1.00  0.00     0.020 A 
ATOM     80  C   UNL     1     -10.716   1.596   2.557  1.00  0.00     0.020 A 
ATOM     81  C   UNL     1      -9.972   2.273   1.589  1.00  0.00     0.054 A 
BRANCH  81  82
ATOM     82  S   UNL     1     -10.339   2.081  -0.181  1.00  0.00     0.124 S 
ATOM     83  O   UNL     1     -10.397   3.465  -0.640  1.00  0.00    -0.237 OA
ATOM     84  O   UNL     1      -9.177   1.317  -0.634  1.00  0.00    -0.237 OA
ATOM     85  O   UNL     1     -11.605   1.357  -0.184  1.00  0.00    -0.744 OA
ENDBRANCH  81  82
ENDBRANCH  53  76
BRANCH  65  86
ATOM     86  C   UNL     1      -9.552  -0.627  10.874  1.00  0.00    -0.014 A 
ATOM     87  C   UNL     1     -10.655   0.194  11.158  1.00  0.00     0.010 A 
ATOM     88  C   UNL     1      -9.153  -1.542  11.877  1.00  0.00     0.010 A 
ATOM     89  C   UNL     1     -11.293   0.146  12.405  1.00  0.00     0.020 A 
ATOM     90  C   UNL     1      -9.809  -1.627  13.108  1.00  0.00     0.020 A 
ATOM     91  C   UNL     1     -10.864  -0.762  13.374  1.00  0.00     0.054 A 
BRANCH  91  92
ATOM     92  S   UNL     1     -11.738  -0.870  14.956  1.00  0.00     0.124 S 
ATOM     93  O   UNL     1     -11.019   0.111  15.764  1.00  0.00    -0.237 OA
ATOM     94  O   UNL     1     -13.108  -0.506  14.602  1.00  0.00    -0.237 OA
ATOM     95  O   UNL     1     -11.555  -2.265  15.351  1.00  0.00    -0.744 OA
ENDBRANCH  91  92
ENDBRANCH  65  86
ENDBRANCH  39  40
ENDBRANCH  31  34
ENDBRANCH  29  30
ENDBRANCH  28  29
ENDBRANCH   1  28
TORSDOF 17
