REMARK SMILES COCC[N@H+]1C[C@@H]2CN(c3nc(CO)cs3)C[C@]2(C(=O)NCCCCNC(=O)c2ccc(-c3c4nc(c(-c5ccc(S(=O)(=O)[O-])cc5)c5ccc([nH]5)c(-c5ccc(S(=O)(=O)[O-])cc5)c5nc(c(-c6ccc(S(=O)(=O)[O-])cc6)c6ccc3[nH]6)C=C5)C=C4)cc2)C1
REMARK SMILES IDX 23 1 22 2 21 3 19 4 20 5 18 7 5 8 6 9 89 10 7 12 8 13 17 14
REMARK SMILES IDX 9 15 4 16 3 17 2 18 1 19 10 20 11 21 16 22 12 23 15 24 13 25
REMARK SMILES IDX 14 26 24 28 25 29 26 30 27 31 28 33 29 34 30 35 88 36 31 37
REMARK SMILES IDX 87 38 32 39 33 40 34 41 81 42 35 43 86 44 80 45 82 46 36 47
REMARK SMILES IDX 85 48 79 49 78 50 37 52 67 53 48 54 66 55 49 56 52 57 65 58
REMARK SMILES IDX 83 59 50 60 51 61 64 63 84 64 53 65 38 66 39 67 47 68 40 69
REMARK SMILES IDX 46 70 41 71 42 72 43 73 44 74 45 75 68 76 69 77 77 78 70 79
REMARK SMILES IDX 76 80 71 81 72 82 73 83 74 84 75 85 54 86 55 87 63 88 56 89
REMARK SMILES IDX 62 90 57 91 58 92 59 93 60 94 61 95
REMARK H PARENT 21 6 5 11 14 27 26 32 82 51 52 62
REMARK Flexibility Score: inf
ROOT
ATOM      1  C   UNL     1       1.992   7.126   0.004  1.00  0.00     0.023 C 
ENDROOT
BRANCH   1   2
ATOM      2  C   UNL     1       1.498   5.686   0.133  1.00  0.00     0.116 C 
BRANCH   2   3
ATOM      3  N   UNL     1       0.445   5.447  -0.827  1.00  0.00    -0.355 N 
ATOM      4  C   UNL     1       0.602   4.939  -2.086  1.00  0.00     0.234 C 
ATOM      5  O   UNL     1      -0.234   5.249  -2.939  1.00  0.00    -0.274 OA
ATOM      6  H   UNL     1      -0.472   5.671  -0.547  1.00  0.00     0.163 HD
BRANCH   4   7
ATOM      7  C   UNL     1       1.822   4.052  -2.352  1.00  0.00     0.125 C 
ATOM      8  N   UNL     1       1.312   1.675  -2.158  1.00  0.00    -0.332 N 
ATOM      9  C   UNL     1       2.759   1.746  -2.196  1.00  0.00     0.269 C 
ATOM     10  C   UNL     1       0.822   2.891  -2.854  1.00  0.00     0.281 C 
ATOM     11  H   UNL     1       1.010   1.645  -1.185  1.00  0.00     0.348 HD
ATOM     12  C   UNL     1       2.963   3.118  -2.776  1.00  0.00     0.087 C 
ATOM     13  C   UNL     1       4.238   3.811  -2.376  1.00  0.00     0.129 C 
ATOM     14  C   UNL     1       2.515   5.236  -3.205  1.00  0.00     0.142 C 
ATOM     15  N   UNL     1       3.968   5.139  -2.881  1.00  0.00    -0.346 N 
BRANCH   8  16
ATOM     16  C   UNL     1       0.722   0.441  -2.691  1.00  0.00     0.291 C 
BRANCH  16  17
ATOM     17  C   UNL     1       1.158  -0.857  -1.975  1.00  0.00     0.221 C 
BRANCH  17  18
ATOM     18  O   UNL     1       0.507  -1.094  -0.726  1.00  0.00    -0.379 OA
ATOM     19  C   UNL     1       0.906  -0.199   0.303  1.00  0.00     0.195 C 
ENDBRANCH  17  18
ENDBRANCH  16  17
ENDBRANCH   8  16
BRANCH  15  20
ATOM     20  C   UNL     1       4.622   6.182  -2.308  1.00  0.00     0.185 A 
ATOM     21  N   UNL     1       4.800   6.326  -1.010  1.00  0.00    -0.223 NA
ATOM     22  S   UNL     1       5.370   7.402  -3.269  1.00  0.00    -0.105 S 
ATOM     23  C   UNL     1       5.480   7.508  -0.731  1.00  0.00     0.079 A 
ATOM     24  C   UNL     1       5.930   8.180  -1.851  1.00  0.00     0.095 A 
BRANCH  23  25
ATOM     25  C   UNL     1       5.642   7.961   0.686  1.00  0.00     0.213 C 
BRANCH  25  26
ATOM     26  O   UNL     1       7.000   7.933   1.108  1.00  0.00    -0.390 OA
ATOM     27  H   UNL     1       7.336   7.024   1.060  1.00  0.00     0.211 HD
ENDBRANCH  25  26
ENDBRANCH  23  25
ENDBRANCH  15  20
ENDBRANCH   4   7
ENDBRANCH   2   3
ENDBRANCH   1   2
BRANCH   1  28
ATOM     28  C   UNL     1       1.020   8.199   0.483  1.00  0.00     0.023 C 
BRANCH  28  29
ATOM     29  C   UNL     1       0.662   8.102   1.957  1.00  0.00     0.116 C 
BRANCH  29  30
ATOM     30  N   UNL     1       1.832   8.073   2.826  1.00  0.00    -0.352 N 
ATOM     31  C   UNL     1       2.049   8.747   4.006  1.00  0.00     0.251 C 
ATOM     32  H   UNL     1       2.567   7.491   2.528  1.00  0.00     0.163 HD
ATOM     33  O   UNL     1       3.144   8.721   4.540  1.00  0.00    -0.269 OA
BRANCH  31  34
ATOM     34  C   UNL     1       0.933   9.518   4.591  1.00  0.00     0.039 A 
ATOM     35  C   UNL     1       1.153  10.837   4.990  1.00  0.00     0.014 A 
ATOM     36  C   UNL     1      -0.339   8.947   4.677  1.00  0.00     0.014 A 
ATOM     37  C   UNL     1       0.070  11.611   5.408  1.00  0.00     0.010 A 
ATOM     38  C   UNL     1      -1.425   9.745   5.004  1.00  0.00     0.010 A 
ATOM     39  C   UNL     1      -1.231  11.082   5.378  1.00  0.00    -0.014 A 
BRANCH  39  40
ATOM     40  C   UNL     1      -2.411  11.905   5.734  1.00  0.00     0.031 A 
ATOM     41  C   UNL     1      -3.269  11.516   6.905  1.00  0.00     0.074 A 
ATOM     42  C   UNL     1      -2.761  12.941   4.948  1.00  0.00     0.049 A 
ATOM     43  N   UNL     1      -4.381  12.058   7.330  1.00  0.00    -0.248 NA
ATOM     44  C   UNL     1      -2.843  10.335   7.675  1.00  0.00     0.031 C 
ATOM     45  C   UNL     1      -2.050  13.368   3.740  1.00  0.00     0.029 A 
ATOM     46  N   UNL     1      -3.814  13.815   5.040  1.00  0.00    -0.354 N 
ATOM     47  C   UNL     1      -4.798  11.272   8.396  1.00  0.00     0.074 A 
ATOM     48  C   UNL     1      -3.855  10.182   8.514  1.00  0.00     0.031 C 
ATOM     49  C   UNL     1      -2.674  14.436   3.217  1.00  0.00     0.029 A 
ATOM     50  C   UNL     1      -3.844  14.749   4.032  1.00  0.00     0.049 A 
ATOM     51  H   UNL     1      -4.485  13.776   5.759  1.00  0.00     0.167 HD
ATOM     52  C   UNL     1      -5.857  11.453   9.221  1.00  0.00     0.031 A 
ATOM     53  C   UNL     1      -4.716  15.746   3.790  1.00  0.00     0.031 A 
ATOM     54  C   UNL     1      -6.782  12.547   9.107  1.00  0.00     0.049 A 
ATOM     55  C   UNL     1      -5.860  15.960   4.739  1.00  0.00     0.074 A 
ATOM     56  C   UNL     1      -7.848  12.866   9.928  1.00  0.00     0.029 A 
ATOM     57  N   UNL     1      -6.749  13.505   8.102  1.00  0.00    -0.354 N 
ATOM     58  N   UNL     1      -6.195  15.254   5.794  1.00  0.00    -0.248 NA
ATOM     59  C   UNL     1      -6.732  17.111   4.478  1.00  0.00     0.031 C 
ATOM     60  C   UNL     1      -8.483  13.995   9.397  1.00  0.00     0.029 A 
ATOM     61  C   UNL     1      -7.785  14.406   8.273  1.00  0.00     0.049 A 
ATOM     62  H   UNL     1      -6.085  13.537   7.376  1.00  0.00     0.167 HD
ATOM     63  C   UNL     1      -7.310  15.884   6.332  1.00  0.00     0.074 A 
ATOM     64  C   UNL     1      -7.580  17.038   5.496  1.00  0.00     0.031 C 
ATOM     65  C   UNL     1      -8.044  15.540   7.420  1.00  0.00     0.031 A 
BRANCH  52  66
ATOM     66  C   UNL     1      -6.057  10.430  10.308  1.00  0.00    -0.014 A 
ATOM     67  C   UNL     1      -5.149  10.323  11.379  1.00  0.00     0.010 A 
ATOM     68  C   UNL     1      -7.149   9.546  10.248  1.00  0.00     0.010 A 
ATOM     69  C   UNL     1      -5.286   9.305  12.325  1.00  0.00     0.020 A 
ATOM     70  C   UNL     1      -7.307   8.545  11.211  1.00  0.00     0.020 A 
ATOM     71  C   UNL     1      -6.358   8.414  12.227  1.00  0.00     0.054 A 
BRANCH  71  72
ATOM     72  S   UNL     1      -6.499   7.082  13.451  1.00  0.00     0.124 S 
ATOM     73  O   UNL     1      -5.486   6.139  12.984  1.00  0.00    -0.237 OA
ATOM     74  O   UNL     1      -6.191   7.762  14.706  1.00  0.00    -0.237 OA
ATOM     75  O   UNL     1      -7.881   6.632  13.313  1.00  0.00    -0.744 OA
ENDBRANCH  71  72
ENDBRANCH  52  66
BRANCH  53  76
ATOM     76  C   UNL     1      -4.503  16.631   2.615  1.00  0.00    -0.014 A 
ATOM     77  C   UNL     1      -3.987  17.928   2.785  1.00  0.00     0.010 A 
ATOM     78  C   UNL     1      -4.744  16.155   1.313  1.00  0.00     0.010 A 
ATOM     79  C   UNL     1      -3.712  18.731   1.675  1.00  0.00     0.020 A 
ATOM     80  C   UNL     1      -4.449  16.947   0.200  1.00  0.00     0.020 A 
ATOM     81  C   UNL     1      -3.937  18.233   0.388  1.00  0.00     0.054 A 
BRANCH  81  82
ATOM     82  S   UNL     1      -3.477  19.255  -1.040  1.00  0.00     0.124 S 
ATOM     83  O   UNL     1      -4.551  20.243  -1.064  1.00  0.00    -0.237 OA
ATOM     84  O   UNL     1      -2.161  19.760  -0.656  1.00  0.00    -0.237 OA
ATOM     85  O   UNL     1      -3.471  18.306  -2.151  1.00  0.00    -0.744 OA
ENDBRANCH  81  82
ENDBRANCH  53  76
BRANCH  65  86
ATOM     86  C   UNL     1      -9.205  16.428   7.774  1.00  0.00    -0.014 A 
ATOM     87  C   UNL     1     -10.388  16.412   7.013  1.00  0.00     0.010 A 
ATOM     88  C   UNL     1      -9.130  17.250   8.912  1.00  0.00     0.010 A 
ATOM     89  C   UNL     1     -11.466  17.226   7.370  1.00  0.00     0.020 A 
ATOM     90  C   UNL     1     -10.214  18.047   9.286  1.00  0.00     0.020 A 
ATOM     91  C   UNL     1     -11.371  18.040   8.503  1.00  0.00     0.054 A 
BRANCH  91  92
ATOM     92  S   UNL     1     -12.799  19.056   8.971  1.00  0.00     0.124 S 
ATOM     93  O   UNL     1     -12.729  20.142   7.997  1.00  0.00    -0.237 OA
ATOM     94  O   UNL     1     -13.919  18.134   8.805  1.00  0.00    -0.237 OA
ATOM     95  O   UNL     1     -12.513  19.438  10.352  1.00  0.00    -0.744 OA
ENDBRANCH  91  92
ENDBRANCH  65  86
ENDBRANCH  39  40
ENDBRANCH  31  34
ENDBRANCH  29  30
ENDBRANCH  28  29
ENDBRANCH   1  28
TORSDOF 20
