REMARK SMILES O=C(COc1ccc(Br)cc1/C=C1\NC(=O)N(Cc2ccc(F)cc2)C1=O)NCCCCNC(=O)c1ccc(-c2c3nc(c(-c4ccc(S(=O)(=O)[O-])cc4)c4ccc([nH]4)c(-c4ccc(S(=O)(=O)[O-])cc4)c4nc(c(-c5ccc(S(=O)(=O)[O-])cc5)c5ccc2[nH]5)C=C4)C=C3)cc1
REMARK SMILES IDX 29 1 28 2 1 3 2 4 3 6 4 7 5 8 6 9 11 10 7 11 10 12 8 13 9 14
REMARK SMILES IDX 12 15 13 16 14 17 26 18 15 19 17 21 27 22 16 23 18 24 19 25
REMARK SMILES IDX 20 26 25 27 21 28 24 29 22 30 23 31 30 32 31 33 32 34 33 35
REMARK SMILES IDX 34 36 35 38 36 39 37 40 95 41 38 42 94 43 39 44 40 45 41 46
REMARK SMILES IDX 88 47 42 48 93 49 87 50 89 51 43 52 92 53 86 54 85 55 44 57
REMARK SMILES IDX 74 58 55 59 73 60 56 61 59 62 72 63 90 64 57 65 58 66 71 68
REMARK SMILES IDX 91 69 60 70 45 71 46 72 54 73 47 74 53 75 48 76 49 77 50 78
REMARK SMILES IDX 51 79 52 80 75 81 76 82 84 83 77 84 83 85 78 86 79 87 80 88
REMARK SMILES IDX 81 89 82 90 61 91 62 92 70 93 63 94 69 95 64 96 65 97 66 98
REMARK SMILES IDX 67 99 68 100
REMARK H PARENT 28 5 14 20 33 37 89 56 59 67
REMARK Flexibility Score: inf
ROOT
ATOM      1  C   UNL     1       2.094  -0.823   2.408  1.00  0.00     0.116 C 
ENDROOT
BRANCH   1   2
ATOM      2  N   UNL     1       2.751  -0.354   1.208  1.00  0.00    -0.353 N 
ATOM      3  O   UNL     1       0.920  -0.534  -0.178  1.00  0.00    -0.271 OA
ATOM      4  C   UNL     1       2.077  -0.173   0.017  1.00  0.00     0.257 C 
ATOM      5  H   UNL     1       3.714  -0.156   1.242  1.00  0.00     0.163 HD
BRANCH   4   6
ATOM      6  C   UNL     1       2.896   0.551  -1.050  1.00  0.00     0.329 C 
BRANCH   6   7
ATOM      7  O   UNL     1       3.785   1.545  -0.541  1.00  0.00    -0.483 OA
BRANCH   7   8
ATOM      8  C   UNL     1       3.201   2.770  -0.325  1.00  0.00     0.127 A 
ATOM      9  C   UNL     1       2.222   2.945   0.657  1.00  0.00     0.048 A 
ATOM     10  C   UNL     1       3.722   3.889  -0.997  1.00  0.00     0.020 A 
ATOM     11  C   UNL     1       1.755   4.223   0.969  1.00  0.00     0.019 A 
ATOM     12  C   UNL     1       3.256   5.172  -0.672  1.00  0.00     0.027 A 
ATOM     13  C   UNL     1       2.279   5.330   0.310  1.00  0.00     0.018 A 
ATOM     14  Br  UNL     1       1.678   7.061   0.773  1.00  0.00    -0.051 Br
BRANCH  10  15
ATOM     15  C   UNL     1       4.758   3.759  -2.024  1.00  0.00     0.044 C 
ATOM     16  C   UNL     1       4.542   3.288  -3.254  1.00  0.00     0.109 C 
ATOM     17  N   UNL     1       3.375   2.870  -3.819  1.00  0.00    -0.303 N 
ATOM     18  C   UNL     1       5.599   3.143  -4.295  1.00  0.00     0.278 C 
ATOM     19  C   UNL     1       3.595   2.509  -5.141  1.00  0.00     0.329 C 
ATOM     20  H   UNL     1       2.506   2.830  -3.358  1.00  0.00     0.172 HD
ATOM     21  N   UNL     1       4.929   2.724  -5.416  1.00  0.00    -0.254 N 
ATOM     22  O   UNL     1       6.791   3.341  -4.133  1.00  0.00    -0.267 OA
ATOM     23  O   UNL     1       2.739   2.069  -5.891  1.00  0.00    -0.248 OA
BRANCH  21  24
ATOM     24  C   UNL     1       5.552   2.482  -6.698  1.00  0.00     0.166 C 
BRANCH  24  25
ATOM     25  C   UNL     1       5.791   3.761  -7.478  1.00  0.00    -0.028 A 
ATOM     26  C   UNL     1       6.764   4.684  -7.055  1.00  0.00     0.008 A 
ATOM     27  C   UNL     1       5.055   4.045  -8.639  1.00  0.00     0.008 A 
ATOM     28  C   UNL     1       6.984   5.868  -7.759  1.00  0.00     0.039 A 
ATOM     29  C   UNL     1       5.290   5.223  -9.355  1.00  0.00     0.039 A 
ATOM     30  C   UNL     1       6.247   6.125  -8.905  1.00  0.00     0.123 A 
ATOM     31  F   UNL     1       6.464   7.257  -9.589  1.00  0.00    -0.207 F 
ENDBRANCH  24  25
ENDBRANCH  21  24
ENDBRANCH  10  15
ENDBRANCH   7   8
ENDBRANCH   6   7
ENDBRANCH   4   6
ENDBRANCH   1   2
BRANCH   1  32
ATOM     32  C   UNL     1       2.519  -2.231   2.804  1.00  0.00     0.023 C 
BRANCH  32  33
ATOM     33  C   UNL     1       4.010  -2.392   3.105  1.00  0.00     0.023 C 
BRANCH  33  34
ATOM     34  C   UNL     1       4.569  -1.465   4.181  1.00  0.00     0.116 C 
BRANCH  34  35
ATOM     35  N   UNL     1       3.954  -1.670   5.483  1.00  0.00    -0.352 N 
ATOM     36  C   UNL     1       4.545  -1.912   6.702  1.00  0.00     0.251 C 
ATOM     37  H   UNL     1       2.970  -1.629   5.494  1.00  0.00     0.163 HD
ATOM     38  O   UNL     1       3.846  -2.207   7.668  1.00  0.00    -0.269 OA
BRANCH  36  39
ATOM     39  C   UNL     1       6.018  -1.850   6.843  1.00  0.00     0.039 A 
ATOM     40  C   UNL     1       6.670  -2.861   7.555  1.00  0.00     0.014 A 
ATOM     41  C   UNL     1       6.756  -0.806   6.279  1.00  0.00     0.014 A 
ATOM     42  C   UNL     1       8.066  -2.863   7.636  1.00  0.00     0.010 A 
ATOM     43  C   UNL     1       8.149  -0.853   6.294  1.00  0.00     0.010 A 
ATOM     44  C   UNL     1       8.821  -1.882   6.971  1.00  0.00    -0.014 A 
BRANCH  44  45
ATOM     45  C   UNL     1      10.308  -1.927   6.962  1.00  0.00     0.031 A 
ATOM     46  C   UNL     1      11.109  -0.810   7.576  1.00  0.00     0.074 A 
ATOM     47  C   UNL     1      10.941  -2.946   6.345  1.00  0.00     0.049 A 
ATOM     48  N   UNL     1      12.408  -0.650   7.613  1.00  0.00    -0.248 NA
ATOM     49  C   UNL     1      10.353   0.280   8.213  1.00  0.00     0.031 C 
ATOM     50  C   UNL     1      10.284  -4.072   5.676  1.00  0.00     0.029 A 
ATOM     51  N   UNL     1      12.280  -3.198   6.173  1.00  0.00    -0.354 N 
ATOM     52  C   UNL     1      12.623   0.559   8.264  1.00  0.00     0.074 A 
ATOM     53  C   UNL     1      11.321   1.118   8.554  1.00  0.00     0.031 C 
ATOM     54  C   UNL     1      11.219  -4.904   5.192  1.00  0.00     0.029 A 
ATOM     55  C   UNL     1      12.541  -4.351   5.470  1.00  0.00     0.049 A 
ATOM     56  H   UNL     1      12.988  -2.608   6.520  1.00  0.00     0.167 HD
ATOM     57  C   UNL     1      13.797   1.143   8.608  1.00  0.00     0.031 A 
ATOM     58  C   UNL     1      13.709  -4.900   5.080  1.00  0.00     0.031 A 
ATOM     59  C   UNL     1      15.092   0.585   8.317  1.00  0.00     0.049 A 
ATOM     60  C   UNL     1      14.999  -4.219   5.449  1.00  0.00     0.074 A 
ATOM     61  C   UNL     1      16.338   1.079   8.664  1.00  0.00     0.029 A 
ATOM     62  N   UNL     1      15.311  -0.585   7.605  1.00  0.00    -0.354 N 
ATOM     63  N   UNL     1      15.181  -3.108   6.121  1.00  0.00    -0.248 NA
ATOM     64  C   UNL     1      16.242  -4.874   5.017  1.00  0.00     0.031 C 
ATOM     65  C   UNL     1      17.310   0.241   8.109  1.00  0.00     0.029 A 
ATOM     66  C   UNL     1      16.671  -0.814   7.479  1.00  0.00     0.049 A 
ATOM     67  H   UNL     1      14.604  -1.167   7.244  1.00  0.00     0.167 HD
ATOM     68  C   UNL     1      16.559  -2.946   6.218  1.00  0.00     0.074 A 
ATOM     69  C   UNL     1      17.162  -4.081   5.550  1.00  0.00     0.031 C 
ATOM     70  C   UNL     1      17.261  -1.947   6.809  1.00  0.00     0.031 A 
BRANCH  57  71
ATOM     71  C   UNL     1      13.732   2.462   9.336  1.00  0.00    -0.014 A 
ATOM     72  C   UNL     1      13.237   2.545  10.651  1.00  0.00     0.010 A 
ATOM     73  C   UNL     1      14.210   3.630   8.713  1.00  0.00     0.010 A 
ATOM     74  C   UNL     1      13.179   3.776  11.310  1.00  0.00     0.020 A 
ATOM     75  C   UNL     1      14.184   4.858   9.381  1.00  0.00     0.020 A 
ATOM     76  C   UNL     1      13.651   4.925  10.670  1.00  0.00     0.054 A 
BRANCH  76  77
ATOM     77  S   UNL     1      13.578   6.505  11.559  1.00  0.00     0.124 S 
ATOM     78  O   UNL     1      12.143   6.777  11.569  1.00  0.00    -0.237 OA
ATOM     79  O   UNL     1      14.162   6.169  12.854  1.00  0.00    -0.237 OA
ATOM     80  O   UNL     1      14.376   7.406  10.732  1.00  0.00    -0.744 OA
ENDBRANCH  76  77
ENDBRANCH  57  71
BRANCH  58  81
ATOM     81  C   UNL     1      13.709  -6.167   4.296  1.00  0.00    -0.014 A 
ATOM     82  C   UNL     1      14.185  -7.363   4.862  1.00  0.00     0.010 A 
ATOM     83  C   UNL     1      13.218  -6.186   2.977  1.00  0.00     0.010 A 
ATOM     84  C   UNL     1      14.187  -8.548   4.120  1.00  0.00     0.020 A 
ATOM     85  C   UNL     1      13.188  -7.374   2.243  1.00  0.00     0.020 A 
ATOM     86  C   UNL     1      13.684  -8.546   2.815  1.00  0.00     0.054 A 
BRANCH  86  87
ATOM     87  S   UNL     1      13.647 -10.107   1.891  1.00  0.00     0.124 S 
ATOM     88  O   UNL     1      15.061 -10.325   1.605  1.00  0.00    -0.237 OA
ATOM     89  O   UNL     1      13.044 -11.027   2.852  1.00  0.00    -0.237 OA
ATOM     90  O   UNL     1      12.814  -9.797   0.731  1.00  0.00    -0.744 OA
ENDBRANCH  86  87
ENDBRANCH  58  81
BRANCH  70  91
ATOM     91  C   UNL     1      18.765  -2.050   6.797  1.00  0.00    -0.014 A 
ATOM     92  C   UNL     1      19.503  -1.881   5.612  1.00  0.00     0.010 A 
ATOM     93  C   UNL     1      19.453  -2.265   8.006  1.00  0.00     0.010 A 
ATOM     94  C   UNL     1      20.899  -1.959   5.632  1.00  0.00     0.020 A 
ATOM     95  C   UNL     1      20.849  -2.311   8.035  1.00  0.00     0.020 A 
ATOM     96  C   UNL     1      21.563  -2.171   6.844  1.00  0.00     0.054 A 
BRANCH  96  97
ATOM     97  S   UNL     1      23.376  -2.221   6.848  1.00  0.00     0.124 S 
ATOM     98  O   UNL     1      23.646  -3.499   6.195  1.00  0.00    -0.237 OA
ATOM     99  O   UNL     1      23.730  -1.033   6.076  1.00  0.00    -0.237 OA
ATOM    100  O   UNL     1      23.722  -2.162   8.267  1.00  0.00    -0.744 OA
ENDBRANCH  96  97
ENDBRANCH  70  91
ENDBRANCH  44  45
ENDBRANCH  36  39
ENDBRANCH  34  35
ENDBRANCH  33  34
ENDBRANCH  32  33
ENDBRANCH   1  32
TORSDOF 19
