REMARK SMILES CC(C)(CNC(=O)NCc1cccs1)C(=O)NCCCCNC(=O)c1ccc(-c2c3nc(c(-c4ccc(S(=O)(=O)[O-])cc4)c4ccc([nH]4)c(-c4ccc(S(=O)(=O)[O-])cc4)c4nc(c(-c5ccc(S(=O)(=O)[O-])cc5)c5ccc2[nH]5)C=C4)C=C3)cc1
REMARK SMILES IDX 19 1 18 2 17 3 15 4 16 5 2 7 1 8 3 9 4 10 5 11 6 12 7 14
REMARK SMILES IDX 8 15 9 17 10 18 11 19 14 20 12 21 13 22 20 23 21 24 22 25
REMARK SMILES IDX 23 26 24 28 25 29 26 30 84 31 27 32 83 33 28 34 29 35 30 36
REMARK SMILES IDX 77 37 31 38 82 39 76 40 78 41 32 42 81 43 75 44 74 45 33 47
REMARK SMILES IDX 63 48 44 49 62 50 45 51 48 52 61 53 79 54 46 55 47 56 60 58
REMARK SMILES IDX 80 59 49 60 34 61 35 62 43 63 36 64 42 65 37 66 38 67 39 68
REMARK SMILES IDX 40 69 41 70 64 71 65 72 73 73 66 74 72 75 67 76 68 77 69 78
REMARK SMILES IDX 70 79 71 80 50 81 51 82 59 83 52 84 58 85 53 86 54 87 55 88
REMARK SMILES IDX 56 89 57 90
REMARK H PARENT 17 6 5 13 8 16 22 27 78 46 48 57
REMARK Flexibility Score: inf
ROOT
ATOM      1  C   UNL     1      -1.053   1.399  -4.713  1.00  0.00     0.023 C 
ENDROOT
BRANCH   1   2
ATOM      2  C   UNL     1       0.160   0.621  -4.207  1.00  0.00     0.116 C 
BRANCH   2   3
ATOM      3  N   UNL     1       1.002   1.418  -3.338  1.00  0.00    -0.356 N 
ATOM      4  C   UNL     1       1.352   1.299  -2.030  1.00  0.00     0.227 C 
ATOM      5  O   UNL     1       2.093   2.185  -1.590  1.00  0.00    -0.274 OA
ATOM      6  H   UNL     1       1.399   2.201  -3.783  1.00  0.00     0.163 HD
BRANCH   4   7
ATOM      7  C   UNL     1       0.904   0.131  -1.127  1.00  0.00     0.061 C 
ATOM      8  C   UNL     1       1.507   0.344   0.284  1.00  0.00     0.023 C 
ATOM      9  C   UNL     1       1.492  -1.195  -1.653  1.00  0.00     0.023 C 
BRANCH   7  10
ATOM     10  C   UNL     1      -0.628   0.012  -0.973  1.00  0.00     0.134 C 
BRANCH  10  11
ATOM     11  N   UNL     1      -1.346   1.276  -0.900  1.00  0.00    -0.337 N 
ATOM     12  C   UNL     1      -2.534   1.720  -1.344  1.00  0.00     0.315 C 
ATOM     13  H   UNL     1      -0.844   1.967  -0.410  1.00  0.00     0.165 HD
ATOM     14  O   UNL     1      -2.862   2.872  -1.058  1.00  0.00    -0.249 OA
ATOM     15  N   UNL     1      -3.372   0.985  -2.091  1.00  0.00    -0.333 N 
ATOM     16  H   UNL     1      -4.182   1.462  -2.381  1.00  0.00     0.165 HD
BRANCH  15  17
ATOM     17  C   UNL     1      -3.293  -0.375  -2.542  1.00  0.00     0.164 C 
BRANCH  17  18
ATOM     18  C   UNL     1      -4.339  -0.788  -3.528  1.00  0.00     0.024 A 
ATOM     19  C   UNL     1      -4.337  -1.987  -4.222  1.00  0.00     0.017 A 
ATOM     20  S   UNL     1      -5.665   0.188  -3.986  1.00  0.00    -0.147 S 
ATOM     21  C   UNL     1      -5.412  -2.091  -5.143  1.00  0.00     0.012 A 
ATOM     22  C   UNL     1      -6.211  -0.971  -5.121  1.00  0.00     0.065 A 
ENDBRANCH  17  18
ENDBRANCH  15  17
ENDBRANCH  10  11
ENDBRANCH   7  10
ENDBRANCH   4   7
ENDBRANCH   2   3
ENDBRANCH   1   2
BRANCH   1  23
ATOM     23  C   UNL     1      -0.758   2.475  -5.750  1.00  0.00     0.023 C 
BRANCH  23  24
ATOM     24  C   UNL     1      -0.128   1.969  -7.039  1.00  0.00     0.116 C 
BRANCH  24  25
ATOM     25  N   UNL     1      -0.959   1.012  -7.761  1.00  0.00    -0.352 N 
ATOM     26  C   UNL     1      -1.303   1.010  -9.096  1.00  0.00     0.251 C 
ATOM     27  H   UNL     1      -1.322   0.271  -7.225  1.00  0.00     0.163 HD
ATOM     28  O   UNL     1      -2.086   0.176  -9.539  1.00  0.00    -0.269 OA
BRANCH  26  29
ATOM     29  C   UNL     1      -0.745   2.059  -9.973  1.00  0.00     0.039 A 
ATOM     30  C   UNL     1      -1.611   2.848 -10.733  1.00  0.00     0.014 A 
ATOM     31  C   UNL     1       0.625   2.327  -9.951  1.00  0.00     0.014 A 
ATOM     32  C   UNL     1      -1.114   3.976 -11.392  1.00  0.00     0.010 A 
ATOM     33  C   UNL     1       1.097   3.499 -10.527  1.00  0.00     0.010 A 
ATOM     34  C   UNL     1       0.233   4.342 -11.246  1.00  0.00    -0.014 A 
BRANCH  34  35
ATOM     35  C   UNL     1       0.792   5.587 -11.836  1.00  0.00     0.031 A 
ATOM     36  C   UNL     1       1.945   5.487 -12.799  1.00  0.00     0.074 A 
ATOM     37  C   UNL     1       0.354   6.796 -11.430  1.00  0.00     0.049 A 
ATOM     38  N   UNL     1       2.734   6.428 -13.247  1.00  0.00    -0.248 NA
ATOM     39  C   UNL     1       2.283   4.137 -13.283  1.00  0.00     0.031 C 
ATOM     40  C   UNL     1      -0.737   7.039 -10.482  1.00  0.00     0.029 A 
ATOM     41  N   UNL     1       0.792   8.057 -11.754  1.00  0.00    -0.354 N 
ATOM     42  C   UNL     1       3.689   5.779 -14.021  1.00  0.00     0.074 A 
ATOM     43  C   UNL     1       3.405   4.362 -13.949  1.00  0.00     0.031 C 
ATOM     44  C   UNL     1      -0.899   8.364 -10.324  1.00  0.00     0.029 A 
ATOM     45  C   UNL     1       0.107   9.065 -11.115  1.00  0.00     0.049 A 
ATOM     46  H   UNL     1       1.528   8.225 -12.386  1.00  0.00     0.167 HD
ATOM     47  C   UNL     1       4.701   6.313 -14.744  1.00  0.00     0.031 A 
ATOM     48  C   UNL     1       0.280  10.400 -11.151  1.00  0.00     0.031 A 
ATOM     49  C   UNL     1       4.949   7.724 -14.857  1.00  0.00     0.049 A 
ATOM     50  C   UNL     1       1.389  10.974 -11.991  1.00  0.00     0.074 A 
ATOM     51  C   UNL     1       5.926   8.371 -15.592  1.00  0.00     0.029 A 
ATOM     52  N   UNL     1       4.190   8.707 -14.242  1.00  0.00    -0.354 N 
ATOM     53  N   UNL     1       2.282  10.344 -12.717  1.00  0.00    -0.248 NA
ATOM     54  C   UNL     1       1.511  12.439 -12.023  1.00  0.00     0.031 C 
ATOM     55  C   UNL     1       5.766   9.749 -15.410  1.00  0.00     0.029 A 
ATOM     56  C   UNL     1       4.667   9.957 -14.592  1.00  0.00     0.049 A 
ATOM     57  H   UNL     1       3.426   8.541 -13.644  1.00  0.00     0.167 HD
ATOM     58  C   UNL     1       3.046  11.337 -13.321  1.00  0.00     0.074 A 
ATOM     59  C   UNL     1       2.511  12.608 -12.878  1.00  0.00     0.031 C 
ATOM     60  C   UNL     1       4.096  11.208 -14.167  1.00  0.00     0.031 A 
BRANCH  47  61
ATOM     61  C   UNL     1       5.606   5.360 -15.475  1.00  0.00    -0.014 A 
ATOM     62  C   UNL     1       5.148   4.651 -16.601  1.00  0.00     0.010 A 
ATOM     63  C   UNL     1       6.932   5.179 -15.044  1.00  0.00     0.010 A 
ATOM     64  C   UNL     1       5.983   3.741 -17.252  1.00  0.00     0.020 A 
ATOM     65  C   UNL     1       7.781   4.291 -15.711  1.00  0.00     0.020 A 
ATOM     66  C   UNL     1       7.293   3.562 -16.798  1.00  0.00     0.054 A 
BRANCH  66  67
ATOM     67  S   UNL     1       8.361   2.381 -17.667  1.00  0.00     0.124 S 
ATOM     68  O   UNL     1       7.863   1.102 -17.165  1.00  0.00    -0.237 OA
ATOM     69  O   UNL     1       8.074   2.658 -19.072  1.00  0.00    -0.237 OA
ATOM     70  O   UNL     1       9.706   2.743 -17.226  1.00  0.00    -0.744 OA
ENDBRANCH  66  67
ENDBRANCH  47  61
BRANCH  48  71
ATOM     71  C   UNL     1      -0.630  11.299 -10.389  1.00  0.00    -0.014 A 
ATOM     72  C   UNL     1      -1.576  12.086 -11.072  1.00  0.00     0.010 A 
ATOM     73  C   UNL     1      -0.550  11.390  -8.988  1.00  0.00     0.010 A 
ATOM     74  C   UNL     1      -2.401  12.970 -10.372  1.00  0.00     0.020 A 
ATOM     75  C   UNL     1      -1.392  12.256  -8.282  1.00  0.00     0.020 A 
ATOM     76  C   UNL     1      -2.301  13.053  -8.981  1.00  0.00     0.054 A 
BRANCH  76  77
ATOM     77  S   UNL     1      -3.398  14.191  -8.090  1.00  0.00     0.124 S 
ATOM     78  O   UNL     1      -2.764  15.481  -8.340  1.00  0.00    -0.237 OA
ATOM     79  O   UNL     1      -4.683  13.979  -8.752  1.00  0.00    -0.237 OA
ATOM     80  O   UNL     1      -3.332  13.716  -6.710  1.00  0.00    -0.744 OA
ENDBRANCH  76  77
ENDBRANCH  48  71
BRANCH  60  81
ATOM     81  C   UNL     1       4.694  12.465 -14.733  1.00  0.00    -0.014 A 
ATOM     82  C   UNL     1       5.550  13.274 -13.968  1.00  0.00     0.010 A 
ATOM     83  C   UNL     1       4.461  12.787 -16.083  1.00  0.00     0.010 A 
ATOM     84  C   UNL     1       6.156  14.395 -14.542  1.00  0.00     0.020 A 
ATOM     85  C   UNL     1       5.080  13.895 -16.665  1.00  0.00     0.020 A 
ATOM     86  C   UNL     1       5.919  14.697 -15.888  1.00  0.00     0.054 A 
BRANCH  86  87
ATOM     87  S   UNL     1       6.776  16.111 -16.633  1.00  0.00     0.124 S 
ATOM     88  O   UNL     1       6.011  17.240 -16.111  1.00  0.00    -0.237 OA
ATOM     89  O   UNL     1       8.134  15.977 -16.111  1.00  0.00    -0.237 OA
ATOM     90  O   UNL     1       6.643  15.878 -18.070  1.00  0.00    -0.744 OA
ENDBRANCH  86  87
ENDBRANCH  60  81
ENDBRANCH  34  35
ENDBRANCH  26  29
ENDBRANCH  24  25
ENDBRANCH  23  24
ENDBRANCH   1  23
TORSDOF 18
