REMARK SMILES CCC(=O)N1CCc2cc(C(=O)NC3(C(=O)NCCCCNC(=O)c4ccc(-c5c6nc(c(-c7ccc(S(=O)(=O)[O-])cc7)c7ccc([nH]7)c(-c7ccc(S(=O)(=O)[O-])cc7)c7nc(c(-c8ccc(S(=O)(=O)[O-])cc8)c8ccc5[nH]8)C=C7)C=C6)cc4)CCCC3)ccc21
REMARK SMILES IDX 19 1 18 2 17 3 15 4 16 5 14 7 85 8 88 9 86 10 87 11 13 12
REMARK SMILES IDX 11 13 12 14 10 16 5 17 6 18 91 19 7 20 8 21 90 22 9 23 89 24
REMARK SMILES IDX 3 25 4 26 2 27 1 28 20 29 21 30 22 31 23 32 24 34 25 35
REMARK SMILES IDX 26 36 84 37 27 38 83 39 28 40 29 41 30 42 77 43 31 44 82 45
REMARK SMILES IDX 76 46 78 47 32 48 81 49 75 50 74 51 33 53 63 54 44 55 62 56
REMARK SMILES IDX 45 57 48 58 61 59 79 60 46 61 47 62 60 64 80 65 49 66 34 67
REMARK SMILES IDX 35 68 43 69 36 70 42 71 37 72 38 73 39 74 40 75 41 76 64 77
REMARK SMILES IDX 65 78 73 79 66 80 72 81 67 82 68 83 69 84 70 85 71 86 50 87
REMARK SMILES IDX 51 88 59 89 52 90 58 91 53 92 54 93 55 94 56 95 57 96
REMARK H PARENT 17 6 13 15 22 33 78 52 48 63
REMARK Flexibility Score: inf
ROOT
ATOM      1  C   UNL     1       2.860  -3.148   5.465  1.00  0.00     0.023 C 
ENDROOT
BRANCH   1   2
ATOM      2  C   UNL     1       3.645  -1.848   5.277  1.00  0.00     0.116 C 
BRANCH   2   3
ATOM      3  N   UNL     1       5.050  -2.054   4.960  1.00  0.00    -0.354 N 
ATOM      4  C   UNL     1       5.754  -2.060   3.791  1.00  0.00     0.245 C 
ATOM      5  O   UNL     1       6.985  -2.166   3.898  1.00  0.00    -0.272 OA
ATOM      6  H   UNL     1       5.608  -2.225   5.752  1.00  0.00     0.163 HD
BRANCH   4   7
ATOM      7  C   UNL     1       5.096  -1.998   2.361  1.00  0.00     0.119 C 
ATOM      8  C   UNL     1       4.247  -0.740   2.186  1.00  0.00     0.038 C 
ATOM      9  C   UNL     1       4.192  -3.223   2.199  1.00  0.00     0.038 C 
ATOM     10  C   UNL     1       2.817  -1.198   1.933  1.00  0.00     0.003 C 
ATOM     11  C   UNL     1       2.772  -2.716   1.994  1.00  0.00     0.003 C 
BRANCH   7  12
ATOM     12  N   UNL     1       6.250  -2.046   1.403  1.00  0.00    -0.338 N 
ATOM     13  C   UNL     1       6.473  -1.857   0.060  1.00  0.00     0.252 C 
ATOM     14  O   UNL     1       7.624  -1.947  -0.367  1.00  0.00    -0.269 OA
ATOM     15  H   UNL     1       7.085  -2.279   1.869  1.00  0.00     0.164 HD
BRANCH  13  16
ATOM     16  C   UNL     1       5.414  -1.457  -0.901  1.00  0.00     0.040 A 
ATOM     17  N   UNL     1       2.504   0.293  -3.287  1.00  0.00    -0.312 N 
ATOM     18  C   UNL     1       3.292   1.010  -4.289  1.00  0.00     0.130 C 
ATOM     19  C   UNL     1       3.373  -0.455  -2.494  1.00  0.00     0.047 A 
ATOM     20  C   UNL     1       4.763   0.924  -3.842  1.00  0.00     0.059 C 
ATOM     21  C   UNL     1       4.683  -0.021  -2.682  1.00  0.00    -0.022 A 
ATOM     22  C   UNL     1       3.106  -1.537  -1.687  1.00  0.00     0.027 A 
ATOM     23  C   UNL     1       5.707  -0.474  -1.859  1.00  0.00     0.019 A 
ATOM     24  C   UNL     1       4.158  -2.069  -0.934  1.00  0.00     0.016 A 
BRANCH  17  25
ATOM     25  C   UNL     1       1.131   0.326  -3.287  1.00  0.00     0.226 C 
ATOM     26  O   UNL     1       0.490   0.192  -4.333  1.00  0.00    -0.275 OA
BRANCH  25  27
ATOM     27  C   UNL     1       0.443   0.952  -2.070  1.00  0.00     0.097 C 
ATOM     28  C   UNL     1       0.780   0.463  -0.682  1.00  0.00     0.014 C 
ENDBRANCH  25  27
ENDBRANCH  17  25
ENDBRANCH  13  16
ENDBRANCH   7  12
ENDBRANCH   4   7
ENDBRANCH   2   3
ENDBRANCH   1   2
BRANCH   1  29
ATOM     29  C   UNL     1       2.423  -3.442   6.896  1.00  0.00     0.023 C 
BRANCH  29  30
ATOM     30  C   UNL     1       1.524  -2.388   7.532  1.00  0.00     0.116 C 
BRANCH  30  31
ATOM     31  N   UNL     1       0.261  -2.162   6.841  1.00  0.00    -0.352 N 
ATOM     32  C   UNL     1      -0.929  -1.738   7.401  1.00  0.00     0.251 C 
ATOM     33  H   UNL     1       0.255  -2.330   5.870  1.00  0.00     0.163 HD
ATOM     34  O   UNL     1      -1.941  -1.630   6.725  1.00  0.00    -0.269 OA
BRANCH  32  35
ATOM     35  C   UNL     1      -0.955  -1.477   8.857  1.00  0.00     0.039 A 
ATOM     36  C   UNL     1      -1.833  -2.208   9.660  1.00  0.00     0.014 A 
ATOM     37  C   UNL     1      -0.013  -0.619   9.429  1.00  0.00     0.014 A 
ATOM     38  C   UNL     1      -1.696  -2.152  11.049  1.00  0.00     0.010 A 
ATOM     39  C   UNL     1       0.172  -0.628  10.807  1.00  0.00     0.010 A 
ATOM     40  C   UNL     1      -0.658  -1.406  11.631  1.00  0.00    -0.014 A 
BRANCH  40  41
ATOM     41  C   UNL     1      -0.400  -1.442  13.093  1.00  0.00     0.031 A 
ATOM     42  C   UNL     1      -0.509  -0.182  13.908  1.00  0.00     0.074 A 
ATOM     43  C   UNL     1       0.021  -2.585  13.672  1.00  0.00     0.049 A 
ATOM     44  N   UNL     1      -0.237   0.007  15.173  1.00  0.00    -0.248 NA
ATOM     45  C   UNL     1      -0.946   1.032  13.199  1.00  0.00     0.031 C 
ATOM     46  C   UNL     1       0.231  -3.862  12.983  1.00  0.00     0.029 A 
ATOM     47  N   UNL     1       0.362  -2.855  14.975  1.00  0.00    -0.354 N 
ATOM     48  C   UNL     1      -0.442   1.361  15.405  1.00  0.00     0.074 A 
ATOM     49  C   UNL     1      -0.817   1.955  14.140  1.00  0.00     0.031 C 
ATOM     50  C   UNL     1       0.639  -4.782  13.873  1.00  0.00     0.029 A 
ATOM     51  C   UNL     1       0.753  -4.157  15.187  1.00  0.00     0.049 A 
ATOM     52  H   UNL     1       0.330  -2.179  15.690  1.00  0.00     0.167 HD
ATOM     53  C   UNL     1      -0.348   2.048  16.568  1.00  0.00     0.031 A 
ATOM     54  C   UNL     1       1.159  -4.779  16.311  1.00  0.00     0.031 A 
ATOM     55  C   UNL     1      -0.009   1.452  17.831  1.00  0.00     0.049 A 
ATOM     56  C   UNL     1       1.215  -4.006  17.600  1.00  0.00     0.074 A 
ATOM     57  C   UNL     1       0.041   2.050  19.078  1.00  0.00     0.029 A 
ATOM     58  N   UNL     1       0.333   0.121  18.011  1.00  0.00    -0.354 N 
ATOM     59  N   UNL     1       0.949  -2.739  17.810  1.00  0.00    -0.248 NA
ATOM     60  C   UNL     1       1.611  -4.750  18.804  1.00  0.00     0.031 C 
ATOM     61  C   UNL     1       0.446   1.086  20.008  1.00  0.00     0.029 A 
ATOM     62  C   UNL     1       0.606  -0.120  19.346  1.00  0.00     0.049 A 
ATOM     63  H   UNL     1       0.374  -0.554  17.295  1.00  0.00     0.167 HD
ATOM     64  C   UNL     1       1.125  -2.539  19.175  1.00  0.00     0.074 A 
ATOM     65  C   UNL     1       1.506  -3.817  19.741  1.00  0.00     0.031 C 
ATOM     66  C   UNL     1       0.982  -1.399  19.893  1.00  0.00     0.031 A 
BRANCH  53  67
ATOM     67  C   UNL     1      -0.624   3.526  16.521  1.00  0.00    -0.014 A 
ATOM     68  C   UNL     1      -1.929   4.012  16.323  1.00  0.00     0.010 A 
ATOM     69  C   UNL     1       0.428   4.440  16.702  1.00  0.00     0.010 A 
ATOM     70  C   UNL     1      -2.169   5.386  16.258  1.00  0.00     0.020 A 
ATOM     71  C   UNL     1       0.188   5.817  16.665  1.00  0.00     0.020 A 
ATOM     72  C   UNL     1      -1.107   6.280  16.423  1.00  0.00     0.054 A 
BRANCH  72  73
ATOM     73  S   UNL     1      -1.448   8.060  16.348  1.00  0.00     0.124 S 
ATOM     74  O   UNL     1      -1.608   8.273  14.911  1.00  0.00    -0.237 OA
ATOM     75  O   UNL     1      -2.667   8.189  17.141  1.00  0.00    -0.237 OA
ATOM     76  O   UNL     1      -0.257   8.665  16.938  1.00  0.00    -0.744 OA
ENDBRANCH  72  73
ENDBRANCH  53  67
BRANCH  54  77
ATOM     77  C   UNL     1       1.519  -6.222  16.272  1.00  0.00    -0.014 A 
ATOM     78  C   UNL     1       0.653  -7.184  16.821  1.00  0.00     0.010 A 
ATOM     79  C   UNL     1       2.717  -6.643  15.669  1.00  0.00     0.010 A 
ATOM     80  C   UNL     1       0.985  -8.542  16.779  1.00  0.00     0.020 A 
ATOM     81  C   UNL     1       3.042  -8.002  15.605  1.00  0.00     0.020 A 
ATOM     82  C   UNL     1       2.178  -8.942  16.170  1.00  0.00     0.054 A 
BRANCH  82  83
ATOM     83  S   UNL     1       2.560 -10.713  16.070  1.00  0.00     0.124 S 
ATOM     84  O   UNL     1       3.007 -11.004  17.428  1.00  0.00    -0.237 OA
ATOM     85  O   UNL     1       1.275 -11.294  15.687  1.00  0.00    -0.237 OA
ATOM     86  O   UNL     1       3.595 -10.779  15.040  1.00  0.00    -0.744 OA
ENDBRANCH  82  83
ENDBRANCH  54  77
BRANCH  66  87
ATOM     87  C   UNL     1       1.209  -1.483  21.378  1.00  0.00    -0.014 A 
ATOM     88  C   UNL     1       2.506  -1.584  21.908  1.00  0.00     0.010 A 
ATOM     89  C   UNL     1       0.111  -1.396  22.253  1.00  0.00     0.010 A 
ATOM     90  C   UNL     1       2.700  -1.623  23.291  1.00  0.00     0.020 A 
ATOM     91  C   UNL     1       0.303  -1.412  23.636  1.00  0.00     0.020 A 
ATOM     92  C   UNL     1       1.597  -1.538  24.147  1.00  0.00     0.054 A 
BRANCH  92  93
ATOM     93  S   UNL     1       1.876  -1.540  25.939  1.00  0.00     0.124 S 
ATOM     94  O   UNL     1       2.139  -2.951  26.203  1.00  0.00    -0.237 OA
ATOM     95  O   UNL     1       3.023  -0.647  26.088  1.00  0.00    -0.237 OA
ATOM     96  O   UNL     1       0.621  -1.026  26.484  1.00  0.00    -0.744 OA
ENDBRANCH  92  93
ENDBRANCH  66  87
ENDBRANCH  40  41
ENDBRANCH  32  35
ENDBRANCH  30  31
ENDBRANCH  29  30
ENDBRANCH   1  29
TORSDOF 18
