REMARK SMILES CCNC(=O)c1ccc(N[C@@H]2COC[C@@]2(C)C(=O)NCCCCNC(=O)c2ccc(-c3c4nc(c(-c5ccc(S(=O)(=O)[O-])cc5)c5ccc([nH]5)c(-c5ccc(S(=O)(=O)[O-])cc5)c5nc(c(-c6ccc(S(=O)(=O)[O-])cc6)c6ccc3[nH]6)C=C5)C=C4)cc2)nn1
REMARK SMILES IDX 21 1 20 2 19 3 17 4 18 5 15 7 11 8 12 9 13 10 14 11 16 12
REMARK SMILES IDX 10 13 9 15 6 16 7 17 88 18 8 19 87 20 4 21 3 22 5 24 2 25
REMARK SMILES IDX 1 26 22 27 23 28 24 29 25 30 26 32 27 33 28 34 86 35 29 36
REMARK SMILES IDX 85 37 30 38 31 39 32 40 79 41 33 42 84 43 78 44 80 45 34 46
REMARK SMILES IDX 83 47 77 48 76 49 35 51 65 52 46 53 64 54 47 55 50 56 63 57
REMARK SMILES IDX 81 58 48 59 49 60 62 62 82 63 51 64 36 65 37 66 45 67 38 68
REMARK SMILES IDX 44 69 39 70 40 71 41 72 42 73 43 74 66 75 67 76 75 77 68 78
REMARK SMILES IDX 74 79 69 80 70 81 71 82 72 83 73 84 52 85 53 86 61 87 54 88
REMARK SMILES IDX 60 89 55 90 56 91 57 92 58 93 59 94
REMARK H PARENT 19 6 10 14 3 23 24 31 80 50 50 61
REMARK Flexibility Score: inf
ROOT
ATOM      1  C   UNL     1      -5.575   5.290   0.171  1.00  0.00     0.023 C 
ENDROOT
BRANCH   1   2
ATOM      2  C   UNL     1      -6.563   4.251  -0.339  1.00  0.00     0.116 C 
BRANCH   2   3
ATOM      3  N   UNL     1      -7.274   4.630  -1.532  1.00  0.00    -0.355 N 
ATOM      4  C   UNL     1      -7.301   4.074  -2.775  1.00  0.00     0.230 C 
ATOM      5  O   UNL     1      -8.168   4.532  -3.529  1.00  0.00    -0.274 OA
ATOM      6  H   UNL     1      -7.839   5.430  -1.433  1.00  0.00     0.163 HD
BRANCH   4   7
ATOM      7  C   UNL     1      -6.274   3.039  -3.283  1.00  0.00     0.092 C 
ATOM      8  C   UNL     1      -6.224   1.677  -2.561  1.00  0.00     0.124 C 
ATOM      9  C   UNL     1      -6.020   0.629  -3.657  1.00  0.00     0.186 C 
ATOM     10  O   UNL     1      -6.248   1.258  -4.917  1.00  0.00    -0.378 OA
ATOM     11  C   UNL     1      -6.794   2.557  -4.660  1.00  0.00     0.179 C 
ATOM     12  C   UNL     1      -4.947   3.770  -3.511  1.00  0.00     0.026 C 
BRANCH   8  13
ATOM     13  N   UNL     1      -5.320   1.486  -1.421  1.00  0.00    -0.362 N 
ATOM     14  H   UNL     1      -5.730   1.194  -0.575  1.00  0.00     0.162 HD
BRANCH  13  15
ATOM     15  C   UNL     1      -3.953   1.675  -1.416  1.00  0.00     0.149 A 
ATOM     16  C   UNL     1      -1.301   2.357  -1.434  1.00  0.00     0.150 A 
ATOM     17  C   UNL     1      -2.035   2.608  -0.291  1.00  0.00     0.040 A 
ATOM     18  N   UNL     1      -1.855   1.794  -2.525  1.00  0.00    -0.143 NA
ATOM     19  C   UNL     1      -3.371   2.222  -0.276  1.00  0.00     0.051 A 
ATOM     20  N   UNL     1      -3.196   1.465  -2.508  1.00  0.00    -0.132 NA
BRANCH  16  21
ATOM     21  C   UNL     1       0.129   2.732  -1.522  1.00  0.00     0.271 C 
ATOM     22  N   UNL     1       1.026   2.231  -0.605  1.00  0.00    -0.351 N 
ATOM     23  H   UNL     1       1.919   2.646  -0.615  1.00  0.00     0.163 HD
ATOM     24  O   UNL     1       0.519   3.506  -2.392  1.00  0.00    -0.267 OA
BRANCH  22  25
ATOM     25  C   UNL     1       0.839   1.175   0.375  1.00  0.00     0.113 C 
ATOM     26  C   UNL     1       1.273  -0.169  -0.177  1.00  0.00     0.027 C 
ENDBRANCH  22  25
ENDBRANCH  16  21
ENDBRANCH  13  15
ENDBRANCH   8  13
ENDBRANCH   4   7
ENDBRANCH   2   3
ENDBRANCH   1   2
BRANCH   1  27
ATOM     27  C   UNL     1      -6.197   6.482   0.891  1.00  0.00     0.023 C 
BRANCH  27  28
ATOM     28  C   UNL     1      -7.217   6.144   1.974  1.00  0.00     0.116 C 
BRANCH  28  29
ATOM     29  N   UNL     1      -6.744   5.181   2.961  1.00  0.00    -0.352 N 
ATOM     30  C   UNL     1      -6.965   5.164   4.322  1.00  0.00     0.251 C 
ATOM     31  H   UNL     1      -6.193   4.445   2.609  1.00  0.00     0.163 HD
ATOM     32  O   UNL     1      -6.446   4.306   5.021  1.00  0.00    -0.269 OA
BRANCH  30  33
ATOM     33  C   UNL     1      -7.794   6.231   4.922  1.00  0.00     0.039 A 
ATOM     34  C   UNL     1      -7.273   6.975   5.982  1.00  0.00     0.014 A 
ATOM     35  C   UNL     1      -9.039   6.551   4.375  1.00  0.00     0.014 A 
ATOM     36  C   UNL     1      -7.959   8.105   6.431  1.00  0.00     0.010 A 
ATOM     37  C   UNL     1      -9.681   7.720   4.769  1.00  0.00     0.010 A 
ATOM     38  C   UNL     1      -9.142   8.516   5.792  1.00  0.00    -0.014 A 
BRANCH  38  39
ATOM     39  C   UNL     1      -9.821   9.784   6.158  1.00  0.00     0.031 A 
ATOM     40  C   UNL     1     -11.221   9.757   6.707  1.00  0.00     0.074 A 
ATOM     41  C   UNL     1      -9.214  10.963   5.913  1.00  0.00     0.049 A 
ATOM     42  N   UNL     1     -12.012  10.757   6.996  1.00  0.00    -0.248 NA
ATOM     43  C   UNL     1     -11.821   8.431   6.929  1.00  0.00     0.031 C 
ATOM     44  C   UNL     1      -7.878  11.129   5.332  1.00  0.00     0.029 A 
ATOM     45  N   UNL     1      -9.648  12.251   6.112  1.00  0.00    -0.354 N 
ATOM     46  C   UNL     1     -13.209  10.184   7.408  1.00  0.00     0.074 A 
ATOM     47  C   UNL     1     -13.056   8.751   7.287  1.00  0.00     0.031 C 
ATOM     48  C   UNL     1      -7.593  12.438   5.247  1.00  0.00     0.029 A 
ATOM     49  C   UNL     1      -8.736  13.207   5.731  1.00  0.00     0.049 A 
ATOM     50  H   UNL     1     -10.529  12.469   6.492  1.00  0.00     0.167 HD
ATOM     51  C   UNL     1     -14.329  10.793   7.864  1.00  0.00     0.031 A 
ATOM     52  C   UNL     1      -8.811  14.552   5.763  1.00  0.00     0.031 A 
ATOM     53  C   UNL     1     -14.472  12.216   8.009  1.00  0.00     0.049 A 
ATOM     54  C   UNL     1     -10.056  15.205   6.295  1.00  0.00     0.074 A 
ATOM     55  C   UNL     1     -15.543  12.926   8.523  1.00  0.00     0.029 A 
ATOM     56  N   UNL     1     -13.512  13.148   7.644  1.00  0.00    -0.354 N 
ATOM     57  N   UNL     1     -11.155  14.642   6.739  1.00  0.00    -0.248 NA
ATOM     58  C   UNL     1     -10.067  16.674   6.341  1.00  0.00     0.031 C 
ATOM     59  C   UNL     1     -15.245  14.290   8.436  1.00  0.00     0.029 A 
ATOM     60  C   UNL     1     -13.970  14.426   7.909  1.00  0.00     0.049 A 
ATOM     61  H   UNL     1     -12.635  12.931   7.253  1.00  0.00     0.167 HD
ATOM     62  C   UNL     1     -11.978  15.688   7.140  1.00  0.00     0.074 A 
ATOM     63  C   UNL     1     -11.247  16.915   6.898  1.00  0.00     0.031 C 
ATOM     64  C   UNL     1     -13.228  15.636   7.663  1.00  0.00     0.031 A 
BRANCH  51  65
ATOM     65  C   UNL     1     -15.488   9.911   8.243  1.00  0.00    -0.014 A 
ATOM     66  C   UNL     1     -15.435   9.101   9.393  1.00  0.00     0.010 A 
ATOM     67  C   UNL     1     -16.652   9.905   7.454  1.00  0.00     0.010 A 
ATOM     68  C   UNL     1     -16.505   8.264   9.718  1.00  0.00     0.020 A 
ATOM     69  C   UNL     1     -17.735   9.089   7.791  1.00  0.00     0.020 A 
ATOM     70  C   UNL     1     -17.646   8.258   8.910  1.00  0.00     0.054 A 
BRANCH  70  71
ATOM     71  S   UNL     1     -19.024   7.168   9.360  1.00  0.00     0.124 S 
ATOM     72  O   UNL     1     -18.522   5.862   8.938  1.00  0.00    -0.237 OA
ATOM     73  O   UNL     1     -19.131   7.362  10.803  1.00  0.00    -0.237 OA
ATOM     74  O   UNL     1     -20.144   7.687   8.579  1.00  0.00    -0.744 OA
ENDBRANCH  70  71
ENDBRANCH  51  65
BRANCH  52  75
ATOM     75  C   UNL     1      -7.659  15.372   5.300  1.00  0.00    -0.014 A 
ATOM     76  C   UNL     1      -6.854  16.050   6.232  1.00  0.00     0.010 A 
ATOM     77  C   UNL     1      -7.352  15.467   3.931  1.00  0.00     0.010 A 
ATOM     78  C   UNL     1      -5.771  16.823   5.802  1.00  0.00     0.020 A 
ATOM     79  C   UNL     1      -6.256  16.221   3.499  1.00  0.00     0.020 A 
ATOM     80  C   UNL     1      -5.479  16.903   4.438  1.00  0.00     0.054 A 
BRANCH  80  81
ATOM     81  S   UNL     1      -4.035  17.865   3.905  1.00  0.00     0.124 S 
ATOM     82  O   UNL     1      -4.525  19.235   4.021  1.00  0.00    -0.237 OA
ATOM     83  O   UNL     1      -3.017  17.472   4.876  1.00  0.00    -0.237 OA
ATOM     84  O   UNL     1      -3.798  17.395   2.542  1.00  0.00    -0.744 OA
ENDBRANCH  80  81
ENDBRANCH  52  75
BRANCH  64  85
ATOM     85  C   UNL     1     -13.873  16.941   8.041  1.00  0.00    -0.014 A 
ATOM     86  C   UNL     1     -14.379  17.812   7.061  1.00  0.00     0.010 A 
ATOM     87  C   UNL     1     -14.025  17.270   9.400  1.00  0.00     0.010 A 
ATOM     88  C   UNL     1     -15.003  19.005   7.434  1.00  0.00     0.020 A 
ATOM     89  C   UNL     1     -14.670  18.451   9.777  1.00  0.00     0.020 A 
ATOM     90  C   UNL     1     -15.144  19.317   8.790  1.00  0.00     0.054 A 
BRANCH  90  91
ATOM     91  S   UNL     1     -16.001  20.848   9.252  1.00  0.00     0.124 S 
ATOM     92  O   UNL     1     -14.983  21.859   8.983  1.00  0.00    -0.237 OA
ATOM     93  O   UNL     1     -17.151  20.858   8.350  1.00  0.00    -0.237 OA
ATOM     94  O   UNL     1     -16.326  20.649  10.662  1.00  0.00    -0.744 OA
ENDBRANCH  90  91
ENDBRANCH  64  85
ENDBRANCH  38  39
ENDBRANCH  30  33
ENDBRANCH  28  29
ENDBRANCH  27  28
ENDBRANCH   1  27
TORSDOF 18
