REMARK SMILES CC(C)[NH2+][C@]1(C(=O)NCCCCNC(=O)c2ccc(-c3c4nc(c(-c5ccc(S(=O)(=O)[O-])cc5)c5ccc([nH]5)c(-c5ccc(S(=O)(=O)[O-])cc5)c5nc(c(-c6ccc(S(=O)(=O)[O-])cc6)c6ccc3[nH]6)C=C5)C=C4)cc2)CCC[C@H]([N@H+](C)C2CCCCC2)C1
REMARK SMILES IDX 11 1 10 2 9 3 8 4 6 5 7 6 5 8 76 9 88 10 77 11 79 12 78 13
REMARK SMILES IDX 4 14 2 17 1 18 3 19 80 20 81 21 82 23 83 24 87 25 84 26
REMARK SMILES IDX 86 27 85 28 12 29 13 30 14 31 15 33 16 34 17 35 75 36 18 37
REMARK SMILES IDX 74 38 19 39 20 40 21 41 68 42 22 43 73 44 67 45 69 46 23 47
REMARK SMILES IDX 72 48 66 49 65 50 24 52 54 53 35 54 53 55 36 56 39 57 52 58
REMARK SMILES IDX 70 59 37 60 38 61 51 63 71 64 40 65 25 66 26 67 34 68 27 69
REMARK SMILES IDX 33 70 28 71 29 72 30 73 31 74 32 75 55 76 56 77 64 78 57 79
REMARK SMILES IDX 63 80 58 81 59 82 60 83 61 84 62 85 41 86 42 87 50 88 43 89
REMARK SMILES IDX 49 90 44 91 45 92 46 93 47 94 48 95
REMARK H PARENT 8 7 4 15 4 16 80 22 13 32 69 51 39 62
REMARK Flexibility Score: inf
ROOT
ATOM      1  C   UNL     1       3.015   1.059   1.751  1.00  0.00     0.023 C 
ENDROOT
BRANCH   1   2
ATOM      2  C   UNL     1       2.241   0.035   2.585  1.00  0.00     0.023 C 
BRANCH   2   3
ATOM      3  C   UNL     1       0.783   0.410   2.829  1.00  0.00     0.116 C 
BRANCH   3   4
ATOM      4  N   UNL     1      -0.009   0.220   1.639  1.00  0.00    -0.351 N 
ATOM      5  C   UNL     1      -0.833  -0.759   1.202  1.00  0.00     0.281 C 
ATOM      6  O   UNL     1      -1.243  -0.583   0.043  1.00  0.00    -0.268 OA
ATOM      7  H   UNL     1       0.067   0.969   1.005  1.00  0.00     0.163 HD
BRANCH   5   8
ATOM      8  C   UNL     1      -1.300  -2.016   2.032  1.00  0.00     0.181 C 
ATOM      9  C   UNL     1      -0.908  -3.181   1.071  1.00  0.00     0.079 C 
ATOM     10  C   UNL     1      -0.643  -2.328   3.398  1.00  0.00     0.144 C 
ATOM     11  C   UNL     1      -1.018  -4.599   1.610  1.00  0.00     0.013 C 
ATOM     12  C   UNL     1      -1.017  -3.713   4.034  1.00  0.00     0.190 C 
ATOM     13  C   UNL     1      -0.513  -4.767   3.038  1.00  0.00     0.065 C 
BRANCH   8  14
ATOM     14  N   UNL     1      -2.787  -1.982   2.196  1.00  0.00    -0.331 N 
ATOM     15  H   UNL     1      -3.195  -2.382   1.351  1.00  0.00     0.347 HD
ATOM     16  H   UNL     1      -2.961  -2.499   3.058  1.00  0.00     0.347 HD
BRANCH  14  17
ATOM     17  C   UNL     1      -3.428  -0.673   2.416  1.00  0.00     0.176 C 
ATOM     18  C   UNL     1      -4.940  -0.903   2.531  1.00  0.00     0.075 C 
ATOM     19  C   UNL     1      -2.971   0.103   3.654  1.00  0.00     0.075 C 
ENDBRANCH  14  17
ENDBRANCH   8  14
BRANCH  12  20
ATOM     20  N   UNL     1      -2.426  -3.678   4.542  1.00  0.00    -0.332 N 
ATOM     21  C   UNL     1      -2.418  -2.941   5.834  1.00  0.00     0.333 C 
ATOM     22  H   UNL     1      -2.924  -3.234   3.771  1.00  0.00     0.348 HD
BRANCH  20  23
ATOM     23  C   UNL     1      -3.236  -4.937   4.697  1.00  0.00     0.184 C 
ATOM     24  C   UNL     1      -4.635  -4.596   5.307  1.00  0.00     0.065 C 
ATOM     25  C   UNL     1      -3.486  -5.707   3.383  1.00  0.00     0.065 C 
ATOM     26  C   UNL     1      -5.629  -5.755   5.358  1.00  0.00     0.006 C 
ATOM     27  C   UNL     1      -4.482  -6.859   3.470  1.00  0.00     0.006 C 
ATOM     28  C   UNL     1      -5.821  -6.387   3.994  1.00  0.00     0.000 C 
ENDBRANCH  20  23
ENDBRANCH  12  20
ENDBRANCH   5   8
ENDBRANCH   3   4
ENDBRANCH   2   3
ENDBRANCH   1   2
BRANCH   1  29
ATOM     29  C   UNL     1       2.886   2.505   2.223  1.00  0.00     0.116 C 
BRANCH  29  30
ATOM     30  N   UNL     1       3.117   2.671   3.651  1.00  0.00    -0.352 N 
ATOM     31  C   UNL     1       3.580   3.786   4.311  1.00  0.00     0.251 C 
ATOM     32  H   UNL     1       2.916   1.889   4.214  1.00  0.00     0.163 HD
ATOM     33  O   UNL     1       3.784   3.763   5.513  1.00  0.00    -0.269 OA
BRANCH  31  34
ATOM     34  C   UNL     1       3.870   4.992   3.513  1.00  0.00     0.039 A 
ATOM     35  C   UNL     1       5.165   5.511   3.536  1.00  0.00     0.014 A 
ATOM     36  C   UNL     1       2.890   5.537   2.680  1.00  0.00     0.014 A 
ATOM     37  C   UNL     1       5.499   6.546   2.664  1.00  0.00     0.010 A 
ATOM     38  C   UNL     1       3.243   6.525   1.769  1.00  0.00     0.010 A 
ATOM     39  C   UNL     1       4.551   7.034   1.749  1.00  0.00    -0.014 A 
BRANCH  39  40
ATOM     40  C   UNL     1       4.914   8.069   0.751  1.00  0.00     0.031 A 
ATOM     41  C   UNL     1       4.267   9.425   0.813  1.00  0.00     0.074 A 
ATOM     42  C   UNL     1       5.763   7.760  -0.249  1.00  0.00     0.049 A 
ATOM     43  N   UNL     1       4.403  10.437  -0.004  1.00  0.00    -0.248 NA
ATOM     44  C   UNL     1       3.324   9.666   1.918  1.00  0.00     0.031 C 
ATOM     45  C   UNL     1       6.407   6.458  -0.448  1.00  0.00     0.029 A 
ATOM     46  N   UNL     1       6.221   8.516  -1.298  1.00  0.00    -0.354 N 
ATOM     47  C   UNL     1       3.542  11.420   0.469  1.00  0.00     0.074 A 
ATOM     48  C   UNL     1       2.864  10.874   1.623  1.00  0.00     0.031 C 
ATOM     49  C   UNL     1       7.188   6.514  -1.539  1.00  0.00     0.029 A 
ATOM     50  C   UNL     1       7.078   7.840  -2.136  1.00  0.00     0.049 A 
ATOM     51  H   UNL     1       5.961   9.456  -1.438  1.00  0.00     0.167 HD
ATOM     52  C   UNL     1       3.346  12.671  -0.009  1.00  0.00     0.031 A 
ATOM     53  C   UNL     1       7.699   8.244  -3.261  1.00  0.00     0.031 A 
ATOM     54  C   UNL     1       4.056  13.223  -1.131  1.00  0.00     0.049 A 
ATOM     55  C   UNL     1       7.491   9.654  -3.745  1.00  0.00     0.074 A 
ATOM     56  C   UNL     1       3.999  14.512  -1.630  1.00  0.00     0.029 A 
ATOM     57  N   UNL     1       4.951  12.523  -1.923  1.00  0.00    -0.354 N 
ATOM     58  N   UNL     1       6.746  10.601  -3.225  1.00  0.00    -0.248 NA
ATOM     59  C   UNL     1       8.218  10.054  -4.958  1.00  0.00     0.031 C 
ATOM     60  C   UNL     1       4.830  14.581  -2.753  1.00  0.00     0.029 A 
ATOM     61  C   UNL     1       5.438  13.347  -2.923  1.00  0.00     0.049 A 
ATOM     62  H   UNL     1       5.202  11.580  -1.795  1.00  0.00     0.167 HD
ATOM     63  C   UNL     1       6.939  11.716  -4.032  1.00  0.00     0.074 A 
ATOM     64  C   UNL     1       7.880  11.332  -5.064  1.00  0.00     0.031 C 
ATOM     65  C   UNL     1       6.386  12.949  -3.930  1.00  0.00     0.031 A 
BRANCH  52  66
ATOM     66  C   UNL     1       2.329  13.537   0.680  1.00  0.00    -0.014 A 
ATOM     67  C   UNL     1       2.591  14.096   1.944  1.00  0.00     0.010 A 
ATOM     68  C   UNL     1       1.129  13.858   0.021  1.00  0.00     0.010 A 
ATOM     69  C   UNL     1       1.659  14.947   2.545  1.00  0.00     0.020 A 
ATOM     70  C   UNL     1       0.205  14.727   0.610  1.00  0.00     0.020 A 
ATOM     71  C   UNL     1       0.473  15.258   1.873  1.00  0.00     0.054 A 
BRANCH  71  72
ATOM     72  S   UNL     1      -0.689  16.414   2.650  1.00  0.00     0.124 S 
ATOM     73  O   UNL     1      -1.282  15.585   3.696  1.00  0.00    -0.237 OA
ATOM     74  O   UNL     1       0.188  17.484   3.119  1.00  0.00    -0.237 OA
ATOM     75  O   UNL     1      -1.590  16.784   1.562  1.00  0.00    -0.744 OA
ENDBRANCH  71  72
ENDBRANCH  52  66
BRANCH  53  76
ATOM     76  C   UNL     1       8.584   7.312  -4.011  1.00  0.00    -0.014 A 
ATOM     77  C   UNL     1       9.976   7.510  -4.030  1.00  0.00     0.010 A 
ATOM     78  C   UNL     1       8.035   6.240  -4.737  1.00  0.00     0.010 A 
ATOM     79  C   UNL     1      10.800   6.678  -4.795  1.00  0.00     0.020 A 
ATOM     80  C   UNL     1       8.858   5.390  -5.482  1.00  0.00     0.020 A 
ATOM     81  C   UNL     1      10.234   5.628  -5.523  1.00  0.00     0.054 A 
BRANCH  81  82
ATOM     82  S   UNL     1      11.318   4.553  -6.503  1.00  0.00     0.124 S 
ATOM     83  O   UNL     1      11.578   5.377  -7.679  1.00  0.00    -0.237 OA
ATOM     84  O   UNL     1      12.456   4.347  -5.609  1.00  0.00    -0.237 OA
ATOM     85  O   UNL     1      10.498   3.366  -6.735  1.00  0.00    -0.744 OA
ENDBRANCH  81  82
ENDBRANCH  53  76
BRANCH  65  86
ATOM     86  C   UNL     1       6.816  13.986  -4.930  1.00  0.00    -0.014 A 
ATOM     87  C   UNL     1       6.361  13.945  -6.259  1.00  0.00     0.010 A 
ATOM     88  C   UNL     1       7.639  15.048  -4.515  1.00  0.00     0.010 A 
ATOM     89  C   UNL     1       6.747  14.936  -7.165  1.00  0.00     0.020 A 
ATOM     90  C   UNL     1       8.007  16.053  -5.411  1.00  0.00     0.020 A 
ATOM     91  C   UNL     1       7.569  15.983  -6.736  1.00  0.00     0.054 A 
BRANCH  91  92
ATOM     92  S   UNL     1       8.019  17.284  -7.916  1.00  0.00     0.124 S 
ATOM     93  O   UNL     1       9.048  16.626  -8.715  1.00  0.00    -0.237 OA
ATOM     94  O   UNL     1       6.758  17.544  -8.607  1.00  0.00    -0.237 OA
ATOM     95  O   UNL     1       8.491  18.374  -7.065  1.00  0.00    -0.744 OA
ENDBRANCH  91  92
ENDBRANCH  65  86
ENDBRANCH  39  40
ENDBRANCH  31  34
ENDBRANCH  29  30
ENDBRANCH   1  29
TORSDOF 18
