REMARK SMILES COc1ccc2cc([C@@H](C)C(=O)NCCCCNC(=O)c3ccc(-c4c5nc(c(-c6ccc(S(=O)(=O)[O-])cc6)c6ccc([nH]6)c(-c6ccc(S(=O)(=O)[O-])cc6)c6nc(c(-c7ccc(S(=O)(=O)[O-])cc7)c7ccc4[nH]7)C=C6)C=C5)cc3)ccc2c1
REMARK SMILES IDX 16 1 15 2 14 3 13 4 11 5 12 6 9 8 10 9 8 10 3 11 4 12 84 13
REMARK SMILES IDX 5 14 83 15 6 16 82 17 7 18 81 19 2 20 1 21 17 22 18 23 19 24
REMARK SMILES IDX 20 26 21 27 22 28 80 29 23 30 79 31 24 32 25 33 26 34 73 35
REMARK SMILES IDX 27 36 78 37 72 38 74 39 28 40 77 41 71 42 70 43 29 45 59 46
REMARK SMILES IDX 40 47 58 48 41 49 44 50 57 51 75 52 42 53 43 54 56 56 76 57
REMARK SMILES IDX 45 58 30 59 31 60 39 61 32 62 38 63 33 64 34 65 35 66 36 67
REMARK SMILES IDX 37 68 60 69 61 70 69 71 62 72 68 73 63 74 64 75 65 76 66 77
REMARK SMILES IDX 67 78 46 79 47 80 55 81 48 82 54 83 49 84 50 85 51 86 52 87
REMARK SMILES IDX 53 88
REMARK H PARENT 13 7 18 25 74 44 44 55
REMARK Flexibility Score: inf
ROOT
ATOM      1  C   UNL     1       5.607  -4.935  -4.112  1.00  0.00     0.023 C 
ENDROOT
BRANCH   1   2
ATOM      2  C   UNL     1       4.467  -4.284  -4.891  1.00  0.00     0.023 C 
BRANCH   2   3
ATOM      3  C   UNL     1       4.427  -4.610  -6.385  1.00  0.00     0.116 C 
BRANCH   3   4
ATOM      4  N   UNL     1       3.630  -5.786  -6.666  1.00  0.00    -0.356 N 
ATOM      5  C   UNL     1       2.326  -5.935  -7.027  1.00  0.00     0.227 C 
ATOM      6  O   UNL     1       1.912  -7.097  -7.129  1.00  0.00    -0.274 OA
ATOM      7  H   UNL     1       4.122  -6.635  -6.580  1.00  0.00     0.163 HD
BRANCH   5   8
ATOM      8  C   UNL     1       1.373  -4.762  -7.318  1.00  0.00     0.105 C 
ATOM      9  C   UNL     1       1.820  -3.859  -8.467  1.00  0.00     0.023 C 
BRANCH   8  10
ATOM     10  C   UNL     1       0.882  -4.056  -6.062  1.00  0.00    -0.035 A 
ATOM     11  C   UNL     1       0.508  -1.494  -1.676  1.00  0.00     0.119 A 
ATOM     12  C   UNL     1       1.665  -1.040  -2.304  1.00  0.00     0.047 A 
ATOM     13  C   UNL     1      -0.282  -2.458  -2.310  1.00  0.00     0.055 A 
ATOM     14  C   UNL     1       2.003  -1.513  -3.575  1.00  0.00     0.012 A 
ATOM     15  C   UNL     1       0.066  -2.971  -3.571  1.00  0.00    -0.015 A 
ATOM     16  C   UNL     1       1.211  -2.473  -4.221  1.00  0.00    -0.018 A 
ATOM     17  C   UNL     1      -0.679  -3.984  -4.191  1.00  0.00     0.009 A 
ATOM     18  C   UNL     1       1.566  -2.980  -5.484  1.00  0.00     0.013 A 
ATOM     19  C   UNL     1      -0.260  -4.537  -5.405  1.00  0.00     0.005 A 
BRANCH  11  20
ATOM     20  O   UNL     1       0.055  -1.091  -0.450  1.00  0.00    -0.497 OA
ATOM     21  C   UNL     1       0.723   0.018   0.141  1.00  0.00     0.278 C 
ENDBRANCH  11  20
ENDBRANCH   8  10
ENDBRANCH   5   8
ENDBRANCH   3   4
ENDBRANCH   2   3
ENDBRANCH   1   2
BRANCH   1  22
ATOM     22  C   UNL     1       7.009  -4.504  -4.527  1.00  0.00     0.116 C 
BRANCH  22  23
ATOM     23  N   UNL     1       7.237  -3.067  -4.449  1.00  0.00    -0.352 N 
ATOM     24  C   UNL     1       8.404  -2.401  -4.139  1.00  0.00     0.251 C 
ATOM     25  H   UNL     1       6.457  -2.498  -4.642  1.00  0.00     0.163 HD
ATOM     26  O   UNL     1       8.413  -1.183  -4.042  1.00  0.00    -0.269 OA
BRANCH  24  27
ATOM     27  C   UNL     1       9.630  -3.188  -3.877  1.00  0.00     0.039 A 
ATOM     28  C   UNL     1      10.350  -2.942  -2.705  1.00  0.00     0.014 A 
ATOM     29  C   UNL     1      10.024  -4.207  -4.747  1.00  0.00     0.014 A 
ATOM     30  C   UNL     1      11.414  -3.779  -2.362  1.00  0.00     0.010 A 
ATOM     31  C   UNL     1      11.034  -5.084  -4.367  1.00  0.00     0.010 A 
ATOM     32  C   UNL     1      11.733  -4.885  -3.167  1.00  0.00    -0.014 A 
BRANCH  32  33
ATOM     33  C   UNL     1      12.776  -5.861  -2.762  1.00  0.00     0.031 A 
ATOM     34  C   UNL     1      14.007  -6.044  -3.606  1.00  0.00     0.074 A 
ATOM     35  C   UNL     1      12.574  -6.641  -1.681  1.00  0.00     0.049 A 
ATOM     36  N   UNL     1      14.987  -6.899  -3.459  1.00  0.00    -0.248 NA
ATOM     37  C   UNL     1      14.140  -5.175  -4.787  1.00  0.00     0.031 C 
ATOM     38  C   UNL     1      11.393  -6.603  -0.813  1.00  0.00     0.029 A 
ATOM     39  N   UNL     1      13.354  -7.628  -1.131  1.00  0.00    -0.354 N 
ATOM     40  C   UNL     1      15.837  -6.689  -4.538  1.00  0.00     0.074 A 
ATOM     41  C   UNL     1      15.237  -5.656  -5.355  1.00  0.00     0.031 C 
ATOM     42  C   UNL     1      11.538  -7.507   0.170  1.00  0.00     0.029 A 
ATOM     43  C   UNL     1      12.803  -8.211  -0.014  1.00  0.00     0.049 A 
ATOM     44  H   UNL     1      14.226  -7.894  -1.503  1.00  0.00     0.167 HD
ATOM     45  C   UNL     1      17.020  -7.287  -4.815  1.00  0.00     0.031 A 
ATOM     46  C   UNL     1      13.262  -9.203   0.773  1.00  0.00     0.031 A 
ATOM     47  C   UNL     1      17.629  -8.291  -3.986  1.00  0.00     0.049 A 
ATOM     48  C   UNL     1      14.594  -9.828   0.463  1.00  0.00     0.074 A 
ATOM     49  C   UNL     1      18.859  -8.907  -4.144  1.00  0.00     0.029 A 
ATOM     50  N   UNL     1      17.058  -8.825  -2.841  1.00  0.00    -0.354 N 
ATOM     51  N   UNL     1      15.416  -9.564  -0.524  1.00  0.00    -0.248 NA
ATOM     52  C   UNL     1      15.066 -10.874   1.380  1.00  0.00     0.031 C 
ATOM     53  C   UNL     1      19.016  -9.839  -3.112  1.00  0.00     0.029 A 
ATOM     54  C   UNL     1      17.903  -9.772  -2.289  1.00  0.00     0.049 A 
ATOM     55  H   UNL     1      16.181  -8.568  -2.475  1.00  0.00     0.167 HD
ATOM     56  C   UNL     1      16.513 -10.397  -0.334  1.00  0.00     0.074 A 
ATOM     57  C   UNL     1      16.256 -11.160   0.870  1.00  0.00     0.031 C 
ATOM     58  C   UNL     1      17.632 -10.520  -1.089  1.00  0.00     0.031 A 
BRANCH  45  59
ATOM     59  C   UNL     1      17.737  -6.861  -6.068  1.00  0.00    -0.014 A 
ATOM     60  C   UNL     1      18.351  -5.599  -6.155  1.00  0.00     0.010 A 
ATOM     61  C   UNL     1      17.833  -7.747  -7.156  1.00  0.00     0.010 A 
ATOM     62  C   UNL     1      19.014  -5.215  -7.323  1.00  0.00     0.020 A 
ATOM     63  C   UNL     1      18.518  -7.376  -8.316  1.00  0.00     0.020 A 
ATOM     64  C   UNL     1      19.090  -6.105  -8.398  1.00  0.00     0.054 A 
BRANCH  64  65
ATOM     65  S   UNL     1      19.980  -5.591  -9.893  1.00  0.00     0.124 S 
ATOM     66  O   UNL     1      19.028  -4.667 -10.505  1.00  0.00    -0.237 OA
ATOM     67  O   UNL     1      21.190  -4.977  -9.352  1.00  0.00    -0.237 OA
ATOM     68  O   UNL     1      20.190  -6.841 -10.618  1.00  0.00    -0.744 OA
ENDBRANCH  64  65
ENDBRANCH  45  59
BRANCH  46  69
ATOM     69  C   UNL     1      12.466  -9.653   1.947  1.00  0.00    -0.014 A 
ATOM     70  C   UNL     1      12.880  -9.334   3.252  1.00  0.00     0.010 A 
ATOM     71  C   UNL     1      11.289 -10.402   1.766  1.00  0.00     0.010 A 
ATOM     72  C   UNL     1      12.145  -9.773   4.356  1.00  0.00     0.020 A 
ATOM     73  C   UNL     1      10.538 -10.823   2.867  1.00  0.00     0.020 A 
ATOM     74  C   UNL     1      10.978 -10.517   4.157  1.00  0.00     0.054 A 
BRANCH  74  75
ATOM     75  S   UNL     1      10.014 -11.042   5.602  1.00  0.00     0.124 S 
ATOM     76  O   UNL     1      10.798 -12.170   6.095  1.00  0.00    -0.237 OA
ATOM     77  O   UNL     1      10.025  -9.847   6.442  1.00  0.00    -0.237 OA
ATOM     78  O   UNL     1       8.711 -11.382   5.035  1.00  0.00    -0.744 OA
ENDBRANCH  74  75
ENDBRANCH  46  69
BRANCH  58  79
ATOM     79  C   UNL     1      18.676 -11.494  -0.620  1.00  0.00    -0.014 A 
ATOM     80  C   UNL     1      18.489 -12.880  -0.758  1.00  0.00     0.010 A 
ATOM     81  C   UNL     1      19.882 -11.011  -0.080  1.00  0.00     0.010 A 
ATOM     82  C   UNL     1      19.480 -13.770  -0.336  1.00  0.00     0.020 A 
ATOM     83  C   UNL     1      20.885 -11.898   0.321  1.00  0.00     0.020 A 
ATOM     84  C   UNL     1      20.671 -13.273   0.204  1.00  0.00     0.054 A 
BRANCH  84  85
ATOM     85  S   UNL     1      21.961 -14.444   0.706  1.00  0.00     0.124 S 
ATOM     86  O   UNL     1      21.442 -14.941   1.976  1.00  0.00    -0.237 OA
ATOM     87  O   UNL     1      21.967 -15.409  -0.392  1.00  0.00    -0.237 OA
ATOM     88  O   UNL     1      23.161 -13.616   0.803  1.00  0.00    -0.744 OA
ENDBRANCH  84  85
ENDBRANCH  58  79
ENDBRANCH  32  33
ENDBRANCH  24  27
ENDBRANCH  22  23
ENDBRANCH   1  22
TORSDOF 16
