REMARK SMILES Cc1nn(C)cc1-c1ccnc2nc(CCC(=O)NCCCCNC(=O)c3ccc(-c4c5nc(c(-c6ccc(S(=O)(=O)[O-])cc6)c6ccc([nH]6)c(-c6ccc(S(=O)(=O)[O-])cc6)c6nc(c(-c7ccc(S(=O)(=O)[O-])cc7)c7ccc4[nH]7)C=C6)C=C5)cc3)nn12
REMARK SMILES IDX 21 1 20 2 19 3 17 4 18 5 16 7 15 8 14 9 8 10 9 11 88 12
REMARK SMILES IDX 10 13 12 14 87 15 11 16 13 17 7 18 1 19 2 20 3 21 4 22 6 23
REMARK SMILES IDX 5 24 22 25 23 26 24 27 25 28 26 30 27 31 28 32 86 33 29 34
REMARK SMILES IDX 85 35 30 36 31 37 32 38 79 39 33 40 84 41 78 42 80 43 34 44
REMARK SMILES IDX 83 45 77 46 76 47 35 49 65 50 46 51 64 52 47 53 50 54 63 55
REMARK SMILES IDX 81 56 48 57 49 58 62 60 82 61 51 62 36 63 37 64 45 65 38 66
REMARK SMILES IDX 44 67 39 68 40 69 41 70 42 71 43 72 66 73 67 74 75 75 68 76
REMARK SMILES IDX 74 77 69 78 70 79 71 80 72 81 73 82 52 83 53 84 61 85 54 86
REMARK SMILES IDX 60 87 55 88 56 89 57 90 58 91 59 92
REMARK H PARENT 19 6 24 29 80 48 50 59
REMARK Flexibility Score: inf
ROOT
ATOM      1  C   UNL     1       0.704  -4.920   0.409  1.00  0.00     0.023 C 
ENDROOT
BRANCH   1   2
ATOM      2  C   UNL     1       1.825  -5.359   1.355  1.00  0.00     0.116 C 
BRANCH   2   3
ATOM      3  N   UNL     1       2.033  -4.460   2.479  1.00  0.00    -0.356 N 
ATOM      4  C   UNL     1       1.339  -4.321   3.641  1.00  0.00     0.220 C 
ATOM      5  O   UNL     1       1.744  -3.506   4.472  1.00  0.00    -0.275 OA
ATOM      6  H   UNL     1       2.801  -3.853   2.384  1.00  0.00     0.163 HD
BRANCH   4   7
ATOM      7  C   UNL     1       0.139  -5.193   3.920  1.00  0.00     0.108 C 
BRANCH   7   8
ATOM      8  C   UNL     1      -1.082  -4.342   4.269  1.00  0.00     0.089 C 
BRANCH   8   9
ATOM      9  C   UNL     1      -1.740  -3.771   3.062  1.00  0.00     0.153 A 
ATOM     10  C   UNL     1      -2.383  -1.499   0.464  1.00  0.00     0.081 A 
ATOM     11  C   UNL     1      -3.183  -1.766  -0.590  1.00  0.00     0.049 A 
ATOM     12  N   UNL     1      -2.257  -2.501   1.455  1.00  0.00    -0.196 N 
ATOM     13  C   UNL     1      -3.826  -3.098  -0.638  1.00  0.00     0.117 A 
ATOM     14  C   UNL     1      -2.928  -3.737   1.323  1.00  0.00     0.252 A 
ATOM     15  N   UNL     1      -1.500  -2.545   2.593  1.00  0.00    -0.149 NA
ATOM     16  N   UNL     1      -3.723  -4.030   0.254  1.00  0.00    -0.220 NA
ATOM     17  N   UNL     1      -2.604  -4.523   2.325  1.00  0.00    -0.194 NA
BRANCH  10  18
ATOM     18  C   UNL     1      -1.634  -0.273   0.484  1.00  0.00     0.041 A 
ATOM     19  C   UNL     1      -3.478   1.588   0.239  1.00  0.00     0.069 C 
ATOM     20  C   UNL     1      -2.093   1.063   0.316  1.00  0.00     0.069 A 
ATOM     21  N   UNL     1      -1.074   1.923   0.196  1.00  0.00    -0.178 NA
ATOM     22  N   UNL     1       0.022   1.159   0.307  1.00  0.00    -0.275 N 
ATOM     23  C   UNL     1      -0.262  -0.156   0.535  1.00  0.00     0.119 A 
ATOM     24  C   UNL     1       1.329   1.743   0.123  1.00  0.00     0.173 C 
ENDBRANCH  10  18
ENDBRANCH   8   9
ENDBRANCH   7   8
ENDBRANCH   4   7
ENDBRANCH   2   3
ENDBRANCH   1   2
BRANCH   1  25
ATOM     25  C   UNL     1       0.876  -3.482  -0.075  1.00  0.00     0.023 C 
BRANCH  25  26
ATOM     26  C   UNL     1       1.050  -3.297  -1.575  1.00  0.00     0.116 C 
BRANCH  26  27
ATOM     27  N   UNL     1      -0.213  -3.244  -2.294  1.00  0.00    -0.352 N 
ATOM     28  C   UNL     1      -0.844  -2.275  -3.042  1.00  0.00     0.251 C 
ATOM     29  H   UNL     1      -0.728  -4.082  -2.233  1.00  0.00     0.163 HD
ATOM     30  O   UNL     1      -1.986  -2.539  -3.431  1.00  0.00    -0.269 OA
BRANCH  28  31
ATOM     31  C   UNL     1      -0.273  -0.931  -3.369  1.00  0.00     0.039 A 
ATOM     32  C   UNL     1      -1.167   0.086  -3.751  1.00  0.00     0.014 A 
ATOM     33  C   UNL     1       1.087  -0.632  -3.393  1.00  0.00     0.014 A 
ATOM     34  C   UNL     1      -0.713   1.366  -4.112  1.00  0.00     0.010 A 
ATOM     35  C   UNL     1       1.536   0.670  -3.651  1.00  0.00     0.010 A 
ATOM     36  C   UNL     1       0.648   1.683  -4.044  1.00  0.00    -0.014 A 
BRANCH  36  37
ATOM     37  C   UNL     1       1.197   3.011  -4.457  1.00  0.00     0.031 A 
ATOM     38  C   UNL     1       2.236   3.077  -5.556  1.00  0.00     0.074 A 
ATOM     39  C   UNL     1       0.837   4.149  -3.828  1.00  0.00     0.049 A 
ATOM     40  N   UNL     1       3.005   4.074  -5.915  1.00  0.00    -0.248 NA
ATOM     41  C   UNL     1       2.461   1.843  -6.328  1.00  0.00     0.031 C 
ATOM     42  C   UNL     1      -0.161   4.260  -2.763  1.00  0.00     0.029 A 
ATOM     43  N   UNL     1       1.294   5.438  -3.986  1.00  0.00    -0.354 N 
ATOM     44  C   UNL     1       3.830   3.576  -6.920  1.00  0.00     0.074 A 
ATOM     45  C   UNL     1       3.497   2.178  -7.084  1.00  0.00     0.031 C 
ATOM     46  C   UNL     1      -0.251   5.543  -2.375  1.00  0.00     0.029 A 
ATOM     47  C   UNL     1       0.721   6.340  -3.118  1.00  0.00     0.049 A 
ATOM     48  H   UNL     1       1.967   5.691  -4.658  1.00  0.00     0.167 HD
ATOM     49  C   UNL     1       4.767   4.221  -7.656  1.00  0.00     0.031 A 
ATOM     50  C   UNL     1       0.968   7.652  -2.920  1.00  0.00     0.031 A 
ATOM     51  C   UNL     1       5.072   5.622  -7.536  1.00  0.00     0.049 A 
ATOM     52  C   UNL     1       2.039   8.341  -3.729  1.00  0.00     0.074 A 
ATOM     53  C   UNL     1       5.988   6.367  -8.260  1.00  0.00     0.029 A 
ATOM     54  N   UNL     1       4.455   6.494  -6.655  1.00  0.00    -0.354 N 
ATOM     55  N   UNL     1       2.814   7.849  -4.666  1.00  0.00    -0.248 NA
ATOM     56  C   UNL     1       2.266   9.769  -3.453  1.00  0.00     0.031 C 
ATOM     57  C   UNL     1       5.951   7.683  -7.790  1.00  0.00     0.029 A 
ATOM     58  C   UNL     1       4.973   7.769  -6.814  1.00  0.00     0.049 A 
ATOM     59  H   UNL     1       3.752   6.246  -6.012  1.00  0.00     0.167 HD
ATOM     60  C   UNL     1       3.587   8.916  -5.117  1.00  0.00     0.074 A 
ATOM     61  C   UNL     1       3.184  10.079  -4.358  1.00  0.00     0.031 C 
ATOM     62  C   UNL     1       4.545   8.928  -6.076  1.00  0.00     0.031 A 
BRANCH  49  63
ATOM     63  C   UNL     1       5.538   3.417  -8.672  1.00  0.00    -0.014 A 
ATOM     64  C   UNL     1       4.922   2.952  -9.847  1.00  0.00     0.010 A 
ATOM     65  C   UNL     1       6.911   3.176  -8.478  1.00  0.00     0.010 A 
ATOM     66  C   UNL     1       5.655   2.229 -10.792  1.00  0.00     0.020 A 
ATOM     67  C   UNL     1       7.655   2.480  -9.435  1.00  0.00     0.020 A 
ATOM     68  C   UNL     1       7.018   1.998 -10.580  1.00  0.00     0.054 A 
BRANCH  68  69
ATOM     69  S   UNL     1       7.949   1.087 -11.841  1.00  0.00     0.124 S 
ATOM     70  O   UNL     1       7.454  -0.274 -11.655  1.00  0.00    -0.237 OA
ATOM     71  O   UNL     1       7.537   1.742 -13.079  1.00  0.00    -0.237 OA
ATOM     72  O   UNL     1       9.345   1.299 -11.462  1.00  0.00    -0.744 OA
ENDBRANCH  68  69
ENDBRANCH  49  63
BRANCH  50  73
ATOM     73  C   UNL     1       0.198   8.421  -1.899  1.00  0.00    -0.014 A 
ATOM     74  C   UNL     1      -0.691   9.436  -2.297  1.00  0.00     0.010 A 
ATOM     75  C   UNL     1       0.381   8.175  -0.526  1.00  0.00     0.010 A 
ATOM     76  C   UNL     1      -1.350  10.217  -1.343  1.00  0.00     0.020 A 
ATOM     77  C   UNL     1      -0.302   8.931   0.431  1.00  0.00     0.020 A 
ATOM     78  C   UNL     1      -1.148   9.962   0.016  1.00  0.00     0.054 A 
BRANCH  78  79
ATOM     79  S   UNL     1      -2.021  10.983   1.236  1.00  0.00     0.124 S 
ATOM     80  O   UNL     1      -1.285  12.240   1.162  1.00  0.00    -0.237 OA
ATOM     81  O   UNL     1      -3.382  11.013   0.708  1.00  0.00    -0.237 OA
ATOM     82  O   UNL     1      -1.861  10.236   2.483  1.00  0.00    -0.744 OA
ENDBRANCH  78  79
ENDBRANCH  50  73
BRANCH  62  83
ATOM     83  C   UNL     1       5.179  10.250  -6.422  1.00  0.00    -0.014 A 
ATOM     84  C   UNL     1       6.097  10.875  -5.560  1.00  0.00     0.010 A 
ATOM     85  C   UNL     1       4.903  10.840  -7.670  1.00  0.00     0.010 A 
ATOM     86  C   UNL     1       6.707  12.078  -5.929  1.00  0.00     0.020 A 
ATOM     87  C   UNL     1       5.531  12.027  -8.054  1.00  0.00     0.020 A 
ATOM     88  C   UNL     1       6.422  12.645  -7.175  1.00  0.00     0.054 A 
BRANCH  88  89
ATOM     89  S   UNL     1       7.270  14.175  -7.655  1.00  0.00     0.124 S 
ATOM     90  O   UNL     1       6.599  15.170  -6.823  1.00  0.00    -0.237 OA
ATOM     91  O   UNL     1       8.660  13.895  -7.302  1.00  0.00    -0.237 OA
ATOM     92  O   UNL     1       7.008  14.283  -9.088  1.00  0.00    -0.744 OA
ENDBRANCH  88  89
ENDBRANCH  62  83
ENDBRANCH  36  37
ENDBRANCH  28  31
ENDBRANCH  26  27
ENDBRANCH  25  26
ENDBRANCH   1  25
TORSDOF 17
