REMARK SMILES C[C@H]1[C@@H](C(=O)NCCCCNC(=O)c2ccc(-c3c4nc(c(-c5ccc(S(=O)(=O)[O-])cc5)c5ccc([nH]5)c(-c5ccc(S(=O)(=O)[O-])cc5)c5nc(c(-c6ccc(S(=O)(=O)[O-])cc6)c6ccc3[nH]6)C=C5)C=C4)cc2)CCN1C(=O)/C=C/c1cccc(F)c1
REMARK SMILES IDX 8 1 7 2 6 3 4 4 5 5 3 7 1 8 2 9 76 10 74 11 75 12 77 13
REMARK SMILES IDX 78 14 79 15 80 16 81 17 82 18 87 19 83 20 85 21 84 22 86 23
REMARK SMILES IDX 9 24 10 25 11 26 12 27 13 29 14 30 15 31 73 32 16 33 72 34
REMARK SMILES IDX 17 35 18 36 19 37 66 38 20 39 71 40 65 41 67 42 21 43 70 44
REMARK SMILES IDX 64 45 63 46 22 48 52 49 33 50 51 51 34 52 37 53 50 54 68 55
REMARK SMILES IDX 35 56 36 57 49 59 69 60 38 61 23 62 24 63 32 64 25 65 31 66
REMARK SMILES IDX 26 67 27 68 28 69 29 70 30 71 53 72 54 73 62 74 55 75 61 76
REMARK SMILES IDX 56 77 57 78 58 79 59 80 60 81 39 82 40 83 48 84 41 85 47 86
REMARK SMILES IDX 42 87 43 88 44 89 45 90 46 91
REMARK H PARENT 6 6 11 28 67 47 37 58
REMARK Flexibility Score: inf
ROOT
ATOM      1  C   UNL     1       3.450   0.532  -1.995  1.00  0.00     0.023 C 
ENDROOT
BRANCH   1   2
ATOM      2  C   UNL     1       2.709   1.639  -1.242  1.00  0.00     0.116 C 
BRANCH   2   3
ATOM      3  N   UNL     1       1.402   1.855  -1.834  1.00  0.00    -0.356 N 
ATOM      4  C   UNL     1       0.169   1.410  -1.460  1.00  0.00     0.225 C 
ATOM      5  O   UNL     1      -0.753   1.601  -2.254  1.00  0.00    -0.275 OA
ATOM      6  H   UNL     1       1.407   2.419  -2.641  1.00  0.00     0.163 HD
BRANCH   4   7
ATOM      7  C   UNL     1      -0.072   0.808  -0.074  1.00  0.00     0.102 C 
ATOM      8  C   UNL     1       1.233  -1.362  -0.789  1.00  0.00     0.032 C 
ATOM      9  C   UNL     1       0.616  -0.519   0.321  1.00  0.00     0.094 C 
ATOM     10  N   UNL     1      -0.428  -1.316   0.967  1.00  0.00    -0.336 N 
ATOM     11  C   UNL     1      -1.576   0.565   0.214  1.00  0.00     0.037 C 
ATOM     12  C   UNL     1      -1.715  -0.928   0.441  1.00  0.00     0.121 C 
BRANCH  10  13
ATOM     13  C   UNL     1      -0.271  -2.461   1.725  1.00  0.00     0.246 C 
ATOM     14  O   UNL     1      -1.201  -3.178   2.080  1.00  0.00    -0.270 OA
BRANCH  13  15
ATOM     15  C   UNL     1       1.126  -2.901   1.992  1.00  0.00     0.072 C 
ATOM     16  C   UNL     1       1.982  -2.146   2.698  1.00  0.00     0.014 C 
BRANCH  16  17
ATOM     17  C   UNL     1       3.431  -2.379   2.845  1.00  0.00    -0.023 A 
ATOM     18  C   UNL     1       4.175  -1.463   3.608  1.00  0.00     0.008 A 
ATOM     19  C   UNL     1       4.120  -3.413   2.199  1.00  0.00     0.047 A 
ATOM     20  C   UNL     1       5.565  -1.574   3.724  1.00  0.00     0.004 A 
ATOM     21  C   UNL     1       5.505  -3.518   2.323  1.00  0.00     0.123 A 
ATOM     22  C   UNL     1       6.234  -2.607   3.076  1.00  0.00     0.039 A 
ATOM     23  F   UNL     1       6.146  -4.513   1.695  1.00  0.00    -0.207 F 
ENDBRANCH  16  17
ENDBRANCH  13  15
ENDBRANCH  10  13
ENDBRANCH   4   7
ENDBRANCH   2   3
ENDBRANCH   1   2
BRANCH   1  24
ATOM     24  C   UNL     1       4.282   0.976  -3.182  1.00  0.00     0.023 C 
BRANCH  24  25
ATOM     25  C   UNL     1       5.540   1.734  -2.812  1.00  0.00     0.116 C 
BRANCH  25  26
ATOM     26  N   UNL     1       6.442   0.994  -1.933  1.00  0.00    -0.352 N 
ATOM     27  C   UNL     1       7.803   0.818  -2.049  1.00  0.00     0.251 C 
ATOM     28  H   UNL     1       6.022   0.565  -1.154  1.00  0.00     0.163 HD
ATOM     29  O   UNL     1       8.413   0.106  -1.256  1.00  0.00    -0.269 OA
BRANCH  27  30
ATOM     30  C   UNL     1       8.500   1.463  -3.178  1.00  0.00     0.039 A 
ATOM     31  C   UNL     1       9.306   0.690  -4.016  1.00  0.00     0.014 A 
ATOM     32  C   UNL     1       8.232   2.799  -3.478  1.00  0.00     0.014 A 
ATOM     33  C   UNL     1       9.756   1.236  -5.218  1.00  0.00     0.010 A 
ATOM     34  C   UNL     1       8.571   3.291  -4.727  1.00  0.00     0.010 A 
ATOM     35  C   UNL     1       9.342   2.520  -5.610  1.00  0.00    -0.014 A 
BRANCH  35  36
ATOM     36  C   UNL     1       9.714   3.100  -6.924  1.00  0.00     0.031 A 
ATOM     37  C   UNL     1      10.474   4.400  -6.967  1.00  0.00     0.074 A 
ATOM     38  C   UNL     1       9.290   2.521  -8.066  1.00  0.00     0.049 A 
ATOM     39  N   UNL     1      10.789   5.138  -7.999  1.00  0.00    -0.248 NA
ATOM     40  C   UNL     1      10.889   4.971  -5.673  1.00  0.00     0.031 C 
ATOM     41  C   UNL     1       8.486   1.298  -8.157  1.00  0.00     0.029 A 
ATOM     42  N   UNL     1       9.474   2.890  -9.374  1.00  0.00    -0.354 N 
ATOM     43  C   UNL     1      11.397   6.273  -7.475  1.00  0.00     0.074 A 
ATOM     44  C   UNL     1      11.349   6.157  -6.035  1.00  0.00     0.031 C 
ATOM     45  C   UNL     1       8.282   0.999  -9.451  1.00  0.00     0.029 A 
ATOM     46  C   UNL     1       8.905   2.025 -10.280  1.00  0.00     0.049 A 
ATOM     47  H   UNL     1       9.967   3.700  -9.640  1.00  0.00     0.167 HD
ATOM     48  C   UNL     1      11.975   7.305  -8.131  1.00  0.00     0.031 A 
ATOM     49  C   UNL     1       8.892   2.055 -11.626  1.00  0.00     0.031 A 
ATOM     50  C   UNL     1      12.073   7.387  -9.561  1.00  0.00     0.049 A 
ATOM     51  C   UNL     1       9.593   3.180 -12.336  1.00  0.00     0.074 A 
ATOM     52  C   UNL     1      12.709   8.346 -10.327  1.00  0.00     0.029 A 
ATOM     53  N   UNL     1      11.533   6.460 -10.440  1.00  0.00    -0.354 N 
ATOM     54  N   UNL     1      10.219   4.213 -11.823  1.00  0.00    -0.248 NA
ATOM     55  C   UNL     1       9.598   3.138 -13.805  1.00  0.00     0.031 C 
ATOM     56  C   UNL     1      12.528   8.015 -11.674  1.00  0.00     0.029 A 
ATOM     57  C   UNL     1      11.816   6.828 -11.742  1.00  0.00     0.049 A 
ATOM     58  H   UNL     1      11.024   5.660 -10.175  1.00  0.00     0.167 HD
ATOM     59  C   UNL     1      10.713   4.931 -12.906  1.00  0.00     0.074 A 
ATOM     60  C   UNL     1      10.325   4.207 -14.100  1.00  0.00     0.031 C 
ATOM     61  C   UNL     1      11.423   6.086 -12.913  1.00  0.00     0.031 A 
BRANCH  48  62
ATOM     62  C   UNL     1      12.558   8.413  -7.295  1.00  0.00    -0.014 A 
ATOM     63  C   UNL     1      13.709   8.202  -6.514  1.00  0.00     0.010 A 
ATOM     64  C   UNL     1      11.950   9.681  -7.290  1.00  0.00     0.010 A 
ATOM     65  C   UNL     1      14.209   9.221  -5.700  1.00  0.00     0.020 A 
ATOM     66  C   UNL     1      12.465  10.712  -6.500  1.00  0.00     0.020 A 
ATOM     67  C   UNL     1      13.579  10.468  -5.693  1.00  0.00     0.054 A 
BRANCH  67  68
ATOM     68  S   UNL     1      14.252  11.776  -4.633  1.00  0.00     0.124 S 
ATOM     69  O   UNL     1      13.785  11.361  -3.312  1.00  0.00    -0.237 OA
ATOM     70  O   UNL     1      15.691  11.662  -4.854  1.00  0.00    -0.237 OA
ATOM     71  O   UNL     1      13.639  12.995  -5.156  1.00  0.00    -0.744 OA
ENDBRANCH  67  68
ENDBRANCH  48  62
BRANCH  49  72
ATOM     72  C   UNL     1       8.228   0.964 -12.391  1.00  0.00    -0.014 A 
ATOM     73  C   UNL     1       9.000   0.005 -13.071  1.00  0.00     0.010 A 
ATOM     74  C   UNL     1       6.826   0.867 -12.434  1.00  0.00     0.010 A 
ATOM     75  C   UNL     1       8.384  -1.020 -13.794  1.00  0.00     0.020 A 
ATOM     76  C   UNL     1       6.206  -0.171 -13.137  1.00  0.00     0.020 A 
ATOM     77  C   UNL     1       6.989  -1.102 -13.822  1.00  0.00     0.054 A 
BRANCH  77  78
ATOM     78  S   UNL     1       6.210  -2.471 -14.723  1.00  0.00     0.124 S 
ATOM     79  O   UNL     1       6.359  -2.045 -16.111  1.00  0.00    -0.237 OA
ATOM     80  O   UNL     1       7.022  -3.618 -14.322  1.00  0.00    -0.237 OA
ATOM     81  O   UNL     1       4.841  -2.479 -14.212  1.00  0.00    -0.744 OA
ENDBRANCH  77  78
ENDBRANCH  49  72
BRANCH  61  82
ATOM     82  C   UNL     1      11.855   6.622 -14.249  1.00  0.00    -0.014 A 
ATOM     83  C   UNL     1      10.937   7.250 -15.107  1.00  0.00     0.010 A 
ATOM     84  C   UNL     1      13.210   6.553 -14.617  1.00  0.00     0.010 A 
ATOM     85  C   UNL     1      11.364   7.780 -16.327  1.00  0.00     0.020 A 
ATOM     86  C   UNL     1      13.645   7.103 -15.824  1.00  0.00     0.020 A 
ATOM     87  C   UNL     1      12.716   7.702 -16.678  1.00  0.00     0.054 A 
BRANCH  87  88
ATOM     88  S   UNL     1      13.258   8.443 -18.242  1.00  0.00     0.124 S 
ATOM     89  O   UNL     1      12.805   7.456 -19.217  1.00  0.00    -0.237 OA
ATOM     90  O   UNL     1      12.544   9.718 -18.259  1.00  0.00    -0.237 OA
ATOM     91  O   UNL     1      14.707   8.551 -18.089  1.00  0.00    -0.744 OA
ENDBRANCH  87  88
ENDBRANCH  61  82
ENDBRANCH  35  36
ENDBRANCH  27  30
ENDBRANCH  25  26
ENDBRANCH  24  25
ENDBRANCH   1  24
TORSDOF 17
