REMARK SMILES O=C(NCCCCNC(=O)C1(n2ccnc2)CCN(C(=O)[C@@H]2CC(=O)N(C3CC3)C2)CC1)c1ccc(-c2c3nc(c(-c4ccc(S(=O)(=O)[O-])cc4)c4ccc([nH]4)c(-c4ccc(S(=O)(=O)[O-])cc4)c4nc(c(-c5ccc(S(=O)(=O)[O-])cc5)c5ccc2[nH]5)C=C4)C=C3)cc1
REMARK SMILES IDX 5 1 4 2 3 3 1 4 2 5 33 7 34 8 92 9 35 10 91 11 36 12 37 13
REMARK SMILES IDX 38 14 85 15 39 16 90 17 84 18 86 19 40 20 89 21 83 22 82 23
REMARK SMILES IDX 41 25 71 26 52 27 70 28 53 29 56 30 69 31 87 32 54 33 55 34
REMARK SMILES IDX 68 36 88 37 57 38 42 39 43 40 51 41 44 42 50 43 45 44 46 45
REMARK SMILES IDX 47 46 48 47 49 48 72 49 73 50 81 51 74 52 80 53 75 54 76 55
REMARK SMILES IDX 77 56 78 57 79 58 58 59 59 60 67 61 60 62 66 63 61 64 62 65
REMARK SMILES IDX 63 66 64 67 65 68 6 69 7 70 8 71 9 72 10 74 11 75 17 76
REMARK SMILES IDX 32 77 18 78 31 79 19 80 20 81 21 82 12 83 13 84 16 85 14 86
REMARK SMILES IDX 15 87 22 88 23 89 30 90 24 91 26 92 25 93 27 94 28 95 29 96
REMARK H PARENT 3 6 86 24 56 35 8 73
REMARK Flexibility Score: inf
ROOT
ATOM      1  C   UNL     1       5.141  -1.758  -0.650  1.00  0.00     0.023 C 
ENDROOT
BRANCH   1   2
ATOM      2  C   UNL     1       4.803  -0.279  -0.857  1.00  0.00     0.116 C 
BRANCH   2   3
ATOM      3  N   UNL     1       3.410   0.028  -1.110  1.00  0.00    -0.352 N 
ATOM      4  O   UNL     1       1.328   0.725  -0.858  1.00  0.00    -0.269 OA
ATOM      5  C   UNL     1       2.319   0.235  -0.311  1.00  0.00     0.251 C 
ATOM      6  H   UNL     1       3.202   0.103  -2.070  1.00  0.00     0.163 HD
BRANCH   5   7
ATOM      7  C   UNL     1       2.226  -0.176   1.114  1.00  0.00     0.039 A 
ATOM      8  C   UNL     1       3.290  -0.634   1.889  1.00  0.00     0.014 A 
ATOM      9  C   UNL     1       0.936  -0.177   1.674  1.00  0.00     0.014 A 
ATOM     10  C   UNL     1       3.058  -1.249   3.111  1.00  0.00     0.010 A 
ATOM     11  C   UNL     1       0.702  -0.741   2.921  1.00  0.00     0.010 A 
ATOM     12  C   UNL     1       1.758  -1.337   3.604  1.00  0.00    -0.014 A 
BRANCH  12  13
ATOM     13  C   UNL     1       1.570  -1.957   4.908  1.00  0.00     0.031 A 
ATOM     14  C   UNL     1       2.213  -1.234   6.042  1.00  0.00     0.074 A 
ATOM     15  C   UNL     1       0.764  -3.018   5.103  1.00  0.00     0.049 A 
ATOM     16  N   UNL     1       3.125  -1.656   6.856  1.00  0.00    -0.248 NA
ATOM     17  C   UNL     1       1.869   0.187   6.211  1.00  0.00     0.031 C 
ATOM     18  C   UNL     1      -0.146  -3.644   4.140  1.00  0.00     0.029 A 
ATOM     19  N   UNL     1       0.491  -3.680   6.260  1.00  0.00    -0.354 N 
ATOM     20  C   UNL     1       3.336  -0.620   7.764  1.00  0.00     0.074 A 
ATOM     21  C   UNL     1       2.654   0.532   7.231  1.00  0.00     0.031 C 
ATOM     22  C   UNL     1      -1.040  -4.406   4.809  1.00  0.00     0.029 A 
ATOM     23  C   UNL     1      -0.678  -4.428   6.217  1.00  0.00     0.049 A 
ATOM     24  H   UNL     1       1.070  -3.633   7.055  1.00  0.00     0.167 HD
ATOM     25  C   UNL     1       3.868  -0.827   9.001  1.00  0.00     0.031 A 
ATOM     26  C   UNL     1      -1.349  -4.944   7.277  1.00  0.00     0.031 A 
ATOM     27  C   UNL     1       4.530  -2.098   9.104  1.00  0.00     0.049 A 
ATOM     28  C   UNL     1      -0.401  -5.005   8.417  1.00  0.00     0.074 A 
ATOM     29  C   UNL     1       5.606  -2.693   8.478  1.00  0.00     0.029 A 
ATOM     30  N   UNL     1       3.851  -3.115   9.732  1.00  0.00    -0.354 N 
ATOM     31  N   UNL     1       0.647  -5.780   8.437  1.00  0.00    -0.248 NA
ATOM     32  C   UNL     1      -0.363  -3.885   9.345  1.00  0.00     0.031 C 
ATOM     33  C   UNL     1       5.244  -4.066   8.351  1.00  0.00     0.029 A 
ATOM     34  C   UNL     1       3.994  -4.234   8.953  1.00  0.00     0.049 A 
ATOM     35  H   UNL     1       3.356  -3.053  10.581  1.00  0.00     0.167 HD
ATOM     36  C   UNL     1       1.638  -5.027   9.051  1.00  0.00     0.074 A 
ATOM     37  C   UNL     1       0.931  -3.912   9.676  1.00  0.00     0.031 C 
ATOM     38  C   UNL     1       2.959  -5.227   8.764  1.00  0.00     0.031 A 
BRANCH  25  39
ATOM     39  C   UNL     1       3.441  -0.049  10.225  1.00  0.00    -0.014 A 
ATOM     40  C   UNL     1       4.080  -0.304  11.456  1.00  0.00     0.010 A 
ATOM     41  C   UNL     1       2.245   0.699  10.269  1.00  0.00     0.010 A 
ATOM     42  C   UNL     1       3.501   0.090  12.670  1.00  0.00     0.020 A 
ATOM     43  C   UNL     1       1.685   1.136  11.469  1.00  0.00     0.020 A 
ATOM     44  C   UNL     1       2.294   0.790  12.666  1.00  0.00     0.054 A 
BRANCH  44  45
ATOM     45  S   UNL     1       1.478   1.163  14.237  1.00  0.00     0.124 S 
ATOM     46  O   UNL     1       1.125  -0.170  14.714  1.00  0.00    -0.237 OA
ATOM     47  O   UNL     1       2.534   1.845  14.981  1.00  0.00    -0.237 OA
ATOM     48  O   UNL     1       0.353   2.009  13.845  1.00  0.00    -0.744 OA
ENDBRANCH  44  45
ENDBRANCH  25  39
BRANCH  26  49
ATOM     49  C   UNL     1      -2.822  -5.030   7.446  1.00  0.00    -0.014 A 
ATOM     50  C   UNL     1      -3.400  -5.812   8.462  1.00  0.00     0.010 A 
ATOM     51  C   UNL     1      -3.658  -4.118   6.767  1.00  0.00     0.010 A 
ATOM     52  C   UNL     1      -4.753  -5.652   8.816  1.00  0.00     0.020 A 
ATOM     53  C   UNL     1      -5.005  -3.958   7.109  1.00  0.00     0.020 A 
ATOM     54  C   UNL     1      -5.542  -4.712   8.148  1.00  0.00     0.054 A 
BRANCH  54  55
ATOM     55  S   UNL     1      -7.237  -4.390   8.719  1.00  0.00     0.124 S 
ATOM     56  O   UNL     1      -7.934  -5.611   8.326  1.00  0.00    -0.237 OA
ATOM     57  O   UNL     1      -7.058  -4.198  10.155  1.00  0.00    -0.237 OA
ATOM     58  O   UNL     1      -7.627  -3.189   7.981  1.00  0.00    -0.744 OA
ENDBRANCH  54  55
ENDBRANCH  26  49
BRANCH  38  59
ATOM     59  C   UNL     1       3.342  -6.448   7.959  1.00  0.00    -0.014 A 
ATOM     60  C   UNL     1       2.901  -6.674   6.639  1.00  0.00     0.010 A 
ATOM     61  C   UNL     1       4.309  -7.314   8.498  1.00  0.00     0.010 A 
ATOM     62  C   UNL     1       3.398  -7.751   5.890  1.00  0.00     0.020 A 
ATOM     63  C   UNL     1       4.821  -8.378   7.752  1.00  0.00     0.020 A 
ATOM     64  C   UNL     1       4.358  -8.597   6.453  1.00  0.00     0.054 A 
BRANCH  64  65
ATOM     65  S   UNL     1       5.042  -9.953   5.459  1.00  0.00     0.124 S 
ATOM     66  O   UNL     1       3.906 -10.863   5.339  1.00  0.00    -0.237 OA
ATOM     67  O   UNL     1       5.443  -9.281   4.225  1.00  0.00    -0.237 OA
ATOM     68  O   UNL     1       6.152 -10.454   6.269  1.00  0.00    -0.744 OA
ENDBRANCH  64  65
ENDBRANCH  38  59
ENDBRANCH  12  13
ENDBRANCH   5   7
ENDBRANCH   2   3
ENDBRANCH   1   2
BRANCH   1  69
ATOM     69  C   UNL     1       4.607  -2.720  -1.706  1.00  0.00     0.023 C 
BRANCH  69  70
ATOM     70  C   UNL     1       4.867  -2.317  -3.143  1.00  0.00     0.116 C 
BRANCH  70  71
ATOM     71  N   UNL     1       6.273  -2.248  -3.470  1.00  0.00    -0.354 N 
ATOM     72  C   UNL     1       6.900  -2.434  -4.659  1.00  0.00     0.246 C 
ATOM     73  H   UNL     1       6.867  -2.033  -2.715  1.00  0.00     0.163 HD
ATOM     74  O   UNL     1       8.045  -1.970  -4.724  1.00  0.00    -0.272 OA
BRANCH  72  75
ATOM     75  C   UNL     1       6.256  -3.176  -5.869  1.00  0.00     0.127 C 
ATOM     76  C   UNL     1       5.814  -4.638  -5.524  1.00  0.00     0.061 C 
ATOM     77  C   UNL     1       7.357  -3.261  -6.971  1.00  0.00     0.061 C 
ATOM     78  C   UNL     1       6.965  -5.648  -5.371  1.00  0.00     0.122 C 
ATOM     79  C   UNL     1       8.464  -4.240  -6.609  1.00  0.00     0.122 C 
ATOM     80  N   UNL     1       7.880  -5.556  -6.507  1.00  0.00    -0.342 N 
ATOM     81  C   UNL     1       8.002  -6.610  -7.395  1.00  0.00     0.227 C 
ATOM     82  O   UNL     1       7.414  -7.677  -7.176  1.00  0.00    -0.274 OA
BRANCH  75  83
ATOM     83  N   UNL     1       5.136  -2.354  -6.399  1.00  0.00    -0.322 N 
ATOM     84  C   UNL     1       3.790  -2.504  -6.173  1.00  0.00     0.108 A 
ATOM     85  C   UNL     1       5.259  -1.249  -7.210  1.00  0.00     0.200 A 
ATOM     86  C   UNL     1       3.191  -1.401  -6.734  1.00  0.00     0.130 A 
ATOM     87  N   UNL     1       4.108  -0.648  -7.407  1.00  0.00    -0.245 NA
ENDBRANCH  75  83
BRANCH  81  88
ATOM     88  C   UNL     1       8.782  -6.515  -8.717  1.00  0.00     0.107 C 
ATOM     89  C   UNL     1      10.271  -6.205  -8.658  1.00  0.00     0.115 C 
ATOM     90  C   UNL     1       8.200  -5.522  -9.700  1.00  0.00     0.133 C 
ATOM     91  C   UNL     1      10.402  -4.832  -9.276  1.00  0.00     0.223 C 
ATOM     92  N   UNL     1       9.149  -4.437  -9.746  1.00  0.00    -0.339 N 
ATOM     93  O   UNL     1      11.443  -4.181  -9.275  1.00  0.00    -0.275 OA
BRANCH  92  94
ATOM     94  C   UNL     1       8.725  -3.104 -10.070  1.00  0.00     0.085 C 
ATOM     95  C   UNL     1       9.346  -1.894  -9.411  1.00  0.00     0.027 C 
ATOM     96  C   UNL     1       9.528  -2.132 -10.881  1.00  0.00     0.027 C 
ENDBRANCH  92  94
ENDBRANCH  81  88
ENDBRANCH  72  75
ENDBRANCH  70  71
ENDBRANCH  69  70
ENDBRANCH   1  69
TORSDOF 17
