REMARK SMILES C#Cc1cc(Cl)c2c(c1)C=C(C(=O)NCCCCNC(=O)c1ccc(-c3c4nc(c(-c5ccc(S(=O)(=O)[O-])cc5)c5ccc([nH]5)c(-c5ccc(S(=O)(=O)[O-])cc5)c5nc(c(-c6ccc(S(=O)(=O)[O-])cc6)c6ccc3[nH]6)C=C5)C=C4)cc1)[C@@H](C(F)(F)F)O2
REMARK SMILES IDX 17 1 16 2 15 3 14 4 12 5 13 6 11 8 3 9 4 10 9 11 5 12 8 13
REMARK SMILES IDX 6 14 7 15 10 16 87 17 82 18 2 19 1 20 83 21 84 22 85 23
REMARK SMILES IDX 86 24 18 25 19 26 20 27 21 29 22 30 23 31 81 32 24 33 80 34
REMARK SMILES IDX 25 35 26 36 27 37 74 38 28 39 79 40 73 41 75 42 29 43 78 44
REMARK SMILES IDX 72 45 71 46 30 48 60 49 41 50 59 51 42 52 45 53 58 54 76 55
REMARK SMILES IDX 43 56 44 57 57 59 77 60 46 61 31 62 32 63 40 64 33 65 39 66
REMARK SMILES IDX 34 67 35 68 36 69 37 70 38 71 61 72 62 73 70 74 63 75 69 76
REMARK SMILES IDX 64 77 65 78 66 79 67 80 68 81 47 82 48 83 56 84 49 85 55 86
REMARK SMILES IDX 50 87 51 88 52 89 53 90 54 91
REMARK H PARENT 14 7 19 28 75 47 45 58
REMARK Flexibility Score: inf
ROOT
ATOM      1  C   UNL     1     -10.855   3.540   1.577  1.00  0.00     0.023 C 
ENDROOT
BRANCH   1   2
ATOM      2  C   UNL     1      -9.795   2.454   1.433  1.00  0.00     0.023 C 
BRANCH   2   3
ATOM      3  C   UNL     1      -9.043   2.524   0.111  1.00  0.00     0.116 C 
BRANCH   3   4
ATOM      4  N   UNL     1      -7.937   3.467   0.156  1.00  0.00    -0.352 N 
ATOM      5  C   UNL     1      -6.585   3.408   0.083  1.00  0.00     0.251 C 
ATOM      6  O   UNL     1      -5.995   4.492   0.117  1.00  0.00    -0.270 OA
ATOM      7  H   UNL     1      -8.254   4.392   0.271  1.00  0.00     0.163 HD
BRANCH   5   8
ATOM      8  C   UNL     1      -5.796   2.144  -0.028  1.00  0.00     0.067 C 
ATOM      9  C   UNL     1      -1.486  -0.058  -0.052  1.00  0.00     0.027 A 
ATOM     10  C   UNL     1      -2.112  -1.305  -0.053  1.00  0.00     0.041 A 
ATOM     11  C   UNL     1      -2.247   1.116  -0.025  1.00  0.00     0.029 A 
ATOM     12  C   UNL     1      -3.501  -1.377  -0.028  1.00  0.00     0.084 A 
ATOM     13  C   UNL     1      -3.644   1.046  -0.001  1.00  0.00     0.020 A 
ATOM     14  Cl  UNL     1      -4.247  -2.936  -0.019  1.00  0.00    -0.080 Cl
ATOM     15  C   UNL     1      -4.266  -0.207  -0.009  1.00  0.00     0.146 A 
ATOM     16  C   UNL     1      -4.460   2.254   0.087  1.00  0.00     0.025 C 
ATOM     17  O   UNL     1      -5.620  -0.345   0.055  1.00  0.00    -0.474 OA
ATOM     18  C   UNL     1      -6.425   0.807  -0.282  1.00  0.00     0.314 C 
BRANCH   9  19
ATOM     19  C   UNL     1      -0.059   0.001  -0.060  1.00  0.00    -0.070 C 
ATOM     20  C   UNL     1       1.143   0.013  -0.059  1.00  0.00     0.010 C 
ENDBRANCH   9  19
BRANCH  18  21
ATOM     21  C   UNL     1      -6.934   0.663  -1.729  1.00  0.00     0.429 C 
ATOM     22  F   UNL     1      -7.842  -0.341  -1.815  1.00  0.00    -0.167 F 
ATOM     23  F   UNL     1      -7.553   1.778  -2.184  1.00  0.00    -0.167 F 
ATOM     24  F   UNL     1      -5.937   0.387  -2.600  1.00  0.00    -0.167 F 
ENDBRANCH  18  21
ENDBRANCH   5   8
ENDBRANCH   3   4
ENDBRANCH   2   3
ENDBRANCH   1   2
BRANCH   1  25
ATOM     25  C   UNL     1     -11.854   3.602   0.427  1.00  0.00     0.116 C 
BRANCH  25  26
ATOM     26  N   UNL     1     -12.520   2.329   0.171  1.00  0.00    -0.352 N 
ATOM     27  C   UNL     1     -13.863   2.105  -0.016  1.00  0.00     0.251 C 
ATOM     28  H   UNL     1     -11.938   1.537   0.127  1.00  0.00     0.163 HD
ATOM     29  O   UNL     1     -14.310   0.967  -0.092  1.00  0.00    -0.269 OA
BRANCH  27  30
ATOM     30  C   UNL     1     -14.754   3.278  -0.082  1.00  0.00     0.039 A 
ATOM     31  C   UNL     1     -15.829   3.362   0.801  1.00  0.00     0.014 A 
ATOM     32  C   UNL     1     -14.436   4.339  -0.935  1.00  0.00     0.014 A 
ATOM     33  C   UNL     1     -16.551   4.552   0.876  1.00  0.00     0.010 A 
ATOM     34  C   UNL     1     -15.092   5.552  -0.785  1.00  0.00     0.010 A 
ATOM     35  C   UNL     1     -16.163   5.667   0.114  1.00  0.00    -0.014 A 
BRANCH  35  36
ATOM     36  C   UNL     1     -16.886   6.957   0.223  1.00  0.00     0.031 A 
ATOM     37  C   UNL     1     -17.616   7.501  -0.973  1.00  0.00     0.074 A 
ATOM     38  C   UNL     1     -16.865   7.645   1.382  1.00  0.00     0.049 A 
ATOM     39  N   UNL     1     -18.299   8.610  -1.085  1.00  0.00    -0.248 NA
ATOM     40  C   UNL     1     -17.555   6.707  -2.213  1.00  0.00     0.031 C 
ATOM     41  C   UNL     1     -16.170   7.229   2.603  1.00  0.00     0.029 A 
ATOM     42  N   UNL     1     -17.454   8.835   1.727  1.00  0.00    -0.354 N 
ATOM     43  C   UNL     1     -18.748   8.644  -2.399  1.00  0.00     0.074 A 
ATOM     44  C   UNL     1     -18.199   7.487  -3.067  1.00  0.00     0.031 C 
ATOM     45  C   UNL     1     -16.415   8.123   3.574  1.00  0.00     0.029 A 
ATOM     46  C   UNL     1     -17.241   9.199   3.036  1.00  0.00     0.049 A 
ATOM     47  H   UNL     1     -17.980   9.378   1.096  1.00  0.00     0.167 HD
ATOM     48  C   UNL     1     -19.572   9.539  -2.989  1.00  0.00     0.031 A 
ATOM     49  C   UNL     1     -17.665  10.277   3.726  1.00  0.00     0.031 A 
ATOM     50  C   UNL     1     -20.116  10.689  -2.318  1.00  0.00     0.049 A 
ATOM     51  C   UNL     1     -18.532  11.292   3.030  1.00  0.00     0.074 A 
ATOM     52  C   UNL     1     -20.983  11.642  -2.819  1.00  0.00     0.029 A 
ATOM     53  N   UNL     1     -19.843  11.042  -1.005  1.00  0.00    -0.354 N 
ATOM     54  N   UNL     1     -18.992  11.278   1.801  1.00  0.00    -0.248 NA
ATOM     55  C   UNL     1     -18.945  12.463   3.815  1.00  0.00     0.031 C 
ATOM     56  C   UNL     1     -21.180  12.610  -1.831  1.00  0.00     0.029 A 
ATOM     57  C   UNL     1     -20.499  12.219  -0.689  1.00  0.00     0.049 A 
ATOM     58  H   UNL     1     -19.269  10.532  -0.389  1.00  0.00     0.167 HD
ATOM     59  C   UNL     1     -19.768  12.425   1.673  1.00  0.00     0.074 A 
ATOM     60  C   UNL     1     -19.731  13.098   2.956  1.00  0.00     0.031 C 
ATOM     61  C   UNL     1     -20.448  12.880   0.592  1.00  0.00     0.031 A 
BRANCH  48  62
ATOM     62  C   UNL     1     -19.938   9.307  -4.431  1.00  0.00    -0.014 A 
ATOM     63  C   UNL     1     -20.751   8.221  -4.805  1.00  0.00     0.010 A 
ATOM     64  C   UNL     1     -19.509  10.212  -5.418  1.00  0.00     0.010 A 
ATOM     65  C   UNL     1     -21.098   8.025  -6.144  1.00  0.00     0.020 A 
ATOM     66  C   UNL     1     -19.883  10.039  -6.753  1.00  0.00     0.020 A 
ATOM     67  C   UNL     1     -20.666   8.938  -7.109  1.00  0.00     0.054 A 
BRANCH  67  68
ATOM     68  S   UNL     1     -21.163   8.673  -8.832  1.00  0.00     0.124 S 
ATOM     69  O   UNL     1     -20.442   7.448  -9.170  1.00  0.00    -0.237 OA
ATOM     70  O   UNL     1     -22.614   8.539  -8.725  1.00  0.00    -0.237 OA
ATOM     71  O   UNL     1     -20.699   9.876  -9.518  1.00  0.00    -0.744 OA
ENDBRANCH  67  68
ENDBRANCH  48  62
BRANCH  49  72
ATOM     72  C   UNL     1     -17.296  10.433   5.161  1.00  0.00    -0.014 A 
ATOM     73  C   UNL     1     -18.274  10.328   6.165  1.00  0.00     0.010 A 
ATOM     74  C   UNL     1     -15.958  10.659   5.535  1.00  0.00     0.010 A 
ATOM     75  C   UNL     1     -17.924  10.452   7.513  1.00  0.00     0.020 A 
ATOM     76  C   UNL     1     -15.599  10.753   6.883  1.00  0.00     0.020 A 
ATOM     77  C   UNL     1     -16.587  10.654   7.864  1.00  0.00     0.054 A 
BRANCH  77  78
ATOM     78  S   UNL     1     -16.152  10.748   9.623  1.00  0.00     0.124 S 
ATOM     79  O   UNL     1     -16.798  11.991  10.032  1.00  0.00    -0.237 OA
ATOM     80  O   UNL     1     -16.742   9.522  10.155  1.00  0.00    -0.237 OA
ATOM     81  O   UNL     1     -14.691  10.775   9.615  1.00  0.00    -0.744 OA
ENDBRANCH  77  78
ENDBRANCH  49  72
BRANCH  61  82
ATOM     82  C   UNL     1     -21.227  14.161   0.740  1.00  0.00    -0.014 A 
ATOM     83  C   UNL     1     -20.573  15.400   0.861  1.00  0.00     0.010 A 
ATOM     84  C   UNL     1     -22.633  14.133   0.665  1.00  0.00     0.010 A 
ATOM     85  C   UNL     1     -21.311  16.584   0.929  1.00  0.00     0.020 A 
ATOM     86  C   UNL     1     -23.372  15.318   0.697  1.00  0.00     0.020 A 
ATOM     87  C   UNL     1     -22.706  16.536   0.840  1.00  0.00     0.054 A 
BRANCH  87  88
ATOM     88  S   UNL     1     -23.631  18.095   0.875  1.00  0.00     0.124 S 
ATOM     89  O   UNL     1     -23.405  18.552   2.243  1.00  0.00    -0.237 OA
ATOM     90  O   UNL     1     -22.971  18.878  -0.167  1.00  0.00    -0.237 OA
ATOM     91  O   UNL     1     -25.003  17.693   0.573  1.00  0.00    -0.744 OA
ENDBRANCH  87  88
ENDBRANCH  61  82
ENDBRANCH  35  36
ENDBRANCH  27  30
ENDBRANCH  25  26
ENDBRANCH   1  25
TORSDOF 16
