REMARK SMILES CC[C@]1(C(=O)NCCCCNC(=O)c2ccc(-c3c4nc(c(-c5ccc(S(=O)(=O)[O-])cc5)c5ccc([nH]5)c(-c5ccc(S(=O)(=O)[O-])cc5)c5nc(c(-c6ccc(S(=O)(=O)[O-])cc6)c6ccc3[nH]6)C=C5)C=C4)cc2)CCC[N@@H+](Cc2cc(OC)ccc2F)C1
REMARK SMILES IDX 8 1 7 2 6 3 4 4 5 5 3 7 74 8 88 9 75 10 77 11 76 12 2 14
REMARK SMILES IDX 1 15 78 16 79 17 80 18 86 19 81 20 85 21 87 22 84 23 82 24
REMARK SMILES IDX 83 25 9 26 10 27 11 28 12 29 13 31 14 32 15 33 73 34 16 35
REMARK SMILES IDX 72 36 17 37 18 38 19 39 66 40 20 41 71 42 65 43 67 44 21 45
REMARK SMILES IDX 70 46 64 47 63 48 22 50 52 51 33 52 51 53 34 54 37 55 50 56
REMARK SMILES IDX 68 57 35 58 36 59 49 61 69 62 38 63 23 64 24 65 32 66 25 67
REMARK SMILES IDX 31 68 26 69 27 70 28 71 29 72 30 73 53 74 54 75 62 76 55 77
REMARK SMILES IDX 61 78 56 79 57 80 58 81 59 82 60 83 39 84 40 85 48 86 41 87
REMARK SMILES IDX 47 88 42 89 43 90 44 91 45 92 46 93
REMARK H PARENT 6 6 77 13 11 30 67 49 37 60
REMARK Flexibility Score: inf
ROOT
ATOM      1  C   UNL     1       3.736   4.316  -3.209  1.00  0.00     0.023 C 
ENDROOT
BRANCH   1   2
ATOM      2  C   UNL     1       2.302   4.086  -2.751  1.00  0.00     0.116 C 
BRANCH   2   3
ATOM      3  N   UNL     1       1.923   2.680  -2.774  1.00  0.00    -0.355 N 
ATOM      4  C   UNL     1       1.272   1.893  -1.866  1.00  0.00     0.231 C 
ATOM      5  O   UNL     1       0.909   0.790  -2.285  1.00  0.00    -0.274 OA
ATOM      6  H   UNL     1       2.186   2.209  -3.597  1.00  0.00     0.163 HD
BRANCH   4   7
ATOM      7  C   UNL     1       0.961   2.368  -0.423  1.00  0.00     0.098 C 
ATOM      8  C   UNL     1       2.255   2.804   0.310  1.00  0.00     0.028 C 
ATOM      9  C   UNL     1      -0.060   3.537  -0.575  1.00  0.00     0.279 C 
ATOM     10  C   UNL     1       1.989   3.769   1.464  1.00  0.00     0.063 C 
ATOM     11  N   UNL     1      -0.177   4.486   0.542  1.00  0.00    -0.330 N 
ATOM     12  C   UNL     1       1.121   4.947   1.032  1.00  0.00     0.262 C 
ATOM     13  H   UNL     1      -0.595   3.975   1.319  1.00  0.00     0.348 HD
BRANCH   7  14
ATOM     14  C   UNL     1       0.262   1.235   0.406  1.00  0.00     0.019 C 
ATOM     15  C   UNL     1       0.987  -0.110   0.490  1.00  0.00     0.005 C 
ENDBRANCH   7  14
BRANCH  11  16
ATOM     16  C   UNL     1      -1.100   5.603   0.218  1.00  0.00     0.302 C 
BRANCH  16  17
ATOM     17  C   UNL     1      -0.660   6.578  -0.860  1.00  0.00     0.046 A 
ATOM     18  C   UNL     1      -0.032   7.790  -0.529  1.00  0.00     0.059 A 
ATOM     19  C   UNL     1      -0.862   6.301  -2.216  1.00  0.00     0.132 A 
ATOM     20  C   UNL     1       0.407   8.674  -1.526  1.00  0.00     0.119 A 
ATOM     21  C   UNL     1      -0.369   7.137  -3.214  1.00  0.00     0.043 A 
ATOM     22  F   UNL     1      -1.514   5.191  -2.587  1.00  0.00    -0.206 F 
ATOM     23  C   UNL     1       0.280   8.321  -2.870  1.00  0.00     0.049 A 
BRANCH  20  24
ATOM     24  O   UNL     1       0.951   9.844  -1.067  1.00  0.00    -0.497 OA
ATOM     25  C   UNL     1       1.048  10.900  -2.020  1.00  0.00     0.278 C 
ENDBRANCH  20  24
ENDBRANCH  16  17
ENDBRANCH  11  16
ENDBRANCH   4   7
ENDBRANCH   2   3
ENDBRANCH   1   2
BRANCH   1  26
ATOM     26  C   UNL     1       3.983   4.041  -4.692  1.00  0.00     0.023 C 
BRANCH  26  27
ATOM     27  C   UNL     1       3.077   4.800  -5.659  1.00  0.00     0.116 C 
BRANCH  27  28
ATOM     28  N   UNL     1       3.157   6.247  -5.506  1.00  0.00    -0.352 N 
ATOM     29  C   UNL     1       3.375   7.206  -6.467  1.00  0.00     0.251 C 
ATOM     30  H   UNL     1       3.037   6.584  -4.588  1.00  0.00     0.163 HD
ATOM     31  O   UNL     1       3.514   8.383  -6.145  1.00  0.00    -0.269 OA
BRANCH  29  32
ATOM     32  C   UNL     1       3.468   6.802  -7.886  1.00  0.00     0.039 A 
ATOM     33  C   UNL     1       4.582   7.192  -8.634  1.00  0.00     0.014 A 
ATOM     34  C   UNL     1       2.478   5.999  -8.458  1.00  0.00     0.014 A 
ATOM     35  C   UNL     1       4.745   6.704  -9.934  1.00  0.00     0.010 A 
ATOM     36  C   UNL     1       2.674   5.464  -9.728  1.00  0.00     0.010 A 
ATOM     37  C   UNL     1       3.815   5.800 -10.474  1.00  0.00    -0.014 A 
BRANCH  37  38
ATOM     38  C   UNL     1       4.023   5.167 -11.802  1.00  0.00     0.031 A 
ATOM     39  C   UNL     1       3.058   5.433 -12.925  1.00  0.00     0.074 A 
ATOM     40  C   UNL     1       5.026   4.282 -11.972  1.00  0.00     0.049 A 
ATOM     41  N   UNL     1       3.003   4.885 -14.112  1.00  0.00    -0.248 NA
ATOM     42  C   UNL     1       2.006   6.430 -12.672  1.00  0.00     0.031 C 
ATOM     43  C   UNL     1       6.014   3.911 -10.955  1.00  0.00     0.029 A 
ATOM     44  N   UNL     1       5.372   3.520 -13.061  1.00  0.00    -0.354 N 
ATOM     45  C   UNL     1       1.902   5.454 -14.740  1.00  0.00     0.074 A 
ATOM     46  C   UNL     1       1.295   6.361 -13.789  1.00  0.00     0.031 C 
ATOM     47  C   UNL     1       6.861   3.007 -11.473  1.00  0.00     0.029 A 
ATOM     48  C   UNL     1       6.453   2.699 -12.840  1.00  0.00     0.049 A 
ATOM     49  H   UNL     1       4.891   3.558 -13.919  1.00  0.00     0.167 HD
ATOM     50  C   UNL     1       1.445   5.253 -15.999  1.00  0.00     0.031 A 
ATOM     51  C   UNL     1       7.042   1.788 -13.640  1.00  0.00     0.031 A 
ATOM     52  C   UNL     1       2.053   4.359 -16.948  1.00  0.00     0.049 A 
ATOM     53  C   UNL     1       6.498   1.561 -15.024  1.00  0.00     0.074 A 
ATOM     54  C   UNL     1       1.691   4.126 -18.264  1.00  0.00     0.029 A 
ATOM     55  N   UNL     1       3.147   3.550 -16.685  1.00  0.00    -0.354 N 
ATOM     56  N   UNL     1       5.486   2.147 -15.616  1.00  0.00    -0.248 NA
ATOM     57  C   UNL     1       7.179   0.552 -15.847  1.00  0.00     0.031 C 
ATOM     58  C   UNL     1       2.541   3.143 -18.783  1.00  0.00     0.029 A 
ATOM     59  C   UNL     1       3.461   2.800 -17.806  1.00  0.00     0.049 A 
ATOM     60  H   UNL     1       3.630   3.514 -15.828  1.00  0.00     0.167 HD
ATOM     61  C   UNL     1       5.420   1.591 -16.889  1.00  0.00     0.074 A 
ATOM     62  C   UNL     1       6.504   0.634 -16.986  1.00  0.00     0.031 C 
ATOM     63  C   UNL     1       4.541   1.850 -17.887  1.00  0.00     0.031 A 
BRANCH  50  64
ATOM     64  C   UNL     1       0.218   6.017 -16.421  1.00  0.00    -0.014 A 
ATOM     65  C   UNL     1       0.276   7.402 -16.658  1.00  0.00     0.010 A 
ATOM     66  C   UNL     1      -0.998   5.338 -16.618  1.00  0.00     0.010 A 
ATOM     67  C   UNL     1      -0.870   8.102 -17.043  1.00  0.00     0.020 A 
ATOM     68  C   UNL     1      -2.141   6.031 -17.028  1.00  0.00     0.020 A 
ATOM     69  C   UNL     1      -2.073   7.412 -17.220  1.00  0.00     0.054 A 
BRANCH  69  70
ATOM     70  S   UNL     1      -3.541   8.344 -17.735  1.00  0.00     0.124 S 
ATOM     71  O   UNL     1      -3.904   9.037 -16.501  1.00  0.00    -0.237 OA
ATOM     72  O   UNL     1      -3.024   9.195 -18.803  1.00  0.00    -0.237 OA
ATOM     73  O   UNL     1      -4.476   7.308 -18.165  1.00  0.00    -0.744 OA
ENDBRANCH  69  70
ENDBRANCH  50  64
BRANCH  51  74
ATOM     74  C   UNL     1       8.218   1.018 -13.152  1.00  0.00    -0.014 A 
ATOM     75  C   UNL     1       9.501   1.282 -13.662  1.00  0.00     0.010 A 
ATOM     76  C   UNL     1       8.063   0.021 -12.171  1.00  0.00     0.010 A 
ATOM     77  C   UNL     1      10.605   0.552 -13.214  1.00  0.00     0.020 A 
ATOM     78  C   UNL     1       9.169  -0.694 -11.703  1.00  0.00     0.020 A 
ATOM     79  C   UNL     1      10.432  -0.431 -12.236  1.00  0.00     0.054 A 
BRANCH  79  80
ATOM     80  S   UNL     1      11.887  -1.331 -11.631  1.00  0.00     0.124 S 
ATOM     81  O   UNL     1      12.149  -2.257 -12.729  1.00  0.00    -0.237 OA
ATOM     82  O   UNL     1      12.870  -0.264 -11.455  1.00  0.00    -0.237 OA
ATOM     83  O   UNL     1      11.417  -1.944 -10.391  1.00  0.00    -0.744 OA
ENDBRANCH  79  80
ENDBRANCH  51  74
BRANCH  63  84
ATOM     84  C   UNL     1       4.725   1.107 -19.183  1.00  0.00    -0.014 A 
ATOM     85  C   UNL     1       4.372  -0.249 -19.296  1.00  0.00     0.010 A 
ATOM     86  C   UNL     1       5.198   1.792 -20.316  1.00  0.00     0.010 A 
ATOM     87  C   UNL     1       4.511  -0.914 -20.518  1.00  0.00     0.020 A 
ATOM     88  C   UNL     1       5.315   1.137 -21.545  1.00  0.00     0.020 A 
ATOM     89  C   UNL     1       4.981  -0.216 -21.635  1.00  0.00     0.054 A 
BRANCH  89  90
ATOM     90  S   UNL     1       5.099  -1.085 -23.223  1.00  0.00     0.124 S 
ATOM     91  O   UNL     1       6.290  -1.907 -23.032  1.00  0.00    -0.237 OA
ATOM     92  O   UNL     1       3.835  -1.815 -23.285  1.00  0.00    -0.237 OA
ATOM     93  O   UNL     1       5.235  -0.006 -24.198  1.00  0.00    -0.744 OA
ENDBRANCH  89  90
ENDBRANCH  63  84
ENDBRANCH  37  38
ENDBRANCH  29  32
ENDBRANCH  27  28
ENDBRANCH  26  27
ENDBRANCH   1  26
TORSDOF 18
