REMARK SMILES CC(C)[C@H](NC(=O)[C@H](Cc1ccccc1)n1c(=O)[nH]c2ccccc2c1=O)C(=O)NCCCCNC(=O)c1ccc(-c2c3nc(c(-c4ccc(S(=O)(=O)[O-])cc4)c4ccc([nH]4)c(-c4ccc(S(=O)(=O)[O-])cc4)c4nc(c(-c5ccc(S(=O)(=O)[O-])cc5)c5ccc2[nH]5)C=C4)C=C3)cc1
REMARK SMILES IDX 32 1 31 2 30 3 28 4 29 5 4 7 2 8 1 9 3 10 5 11 6 12 7 14
REMARK SMILES IDX 8 15 16 16 17 17 26 18 18 19 19 20 25 21 27 22 20 23 24 25
REMARK SMILES IDX 21 26 23 27 22 28 9 29 10 30 11 31 15 32 12 33 14 34 13 35
REMARK SMILES IDX 33 36 34 37 35 38 36 39 37 41 38 42 39 43 97 44 40 45 96 46
REMARK SMILES IDX 41 47 42 48 43 49 90 50 44 51 95 52 89 53 91 54 45 55 94 56
REMARK SMILES IDX 88 57 87 58 46 60 76 61 57 62 75 63 58 64 61 65 74 66 92 67
REMARK SMILES IDX 59 68 60 69 73 71 93 72 62 73 47 74 48 75 56 76 49 77 55 78
REMARK SMILES IDX 50 79 51 80 52 81 53 82 54 83 77 84 78 85 86 86 79 87 85 88
REMARK SMILES IDX 80 89 81 90 82 91 83 92 84 93 63 94 64 95 72 96 65 97 71 98
REMARK SMILES IDX 66 99 67 100 68 101 69 102 70 103
REMARK H PARENT 30 6 5 13 19 24 35 40 91 59 61 70
REMARK Flexibility Score: inf
ROOT
ATOM      1  C   UNL     1      -4.386  -6.330  -2.415  1.00  0.00     0.023 C 
ENDROOT
BRANCH   1   2
ATOM      2  C   UNL     1      -3.644  -5.148  -1.793  1.00  0.00     0.116 C 
BRANCH   2   3
ATOM      3  N   UNL     1      -4.380  -4.616  -0.672  1.00  0.00    -0.354 N 
ATOM      4  C   UNL     1      -4.244  -4.881   0.654  1.00  0.00     0.242 C 
ATOM      5  O   UNL     1      -5.057  -4.351   1.419  1.00  0.00    -0.273 OA
ATOM      6  H   UNL     1      -5.083  -3.966  -0.901  1.00  0.00     0.163 HD
BRANCH   4   7
ATOM      7  C   UNL     1      -3.037  -5.669   1.233  1.00  0.00     0.173 C 
BRANCH   7   8
ATOM      8  C   UNL     1      -1.761  -4.851   1.373  1.00  0.00     0.015 C 
ATOM      9  C   UNL     1      -1.904  -3.345   1.610  1.00  0.00     0.010 C 
ATOM     10  C   UNL     1      -0.881  -5.470   2.466  1.00  0.00     0.010 C 
ENDBRANCH   7   8
BRANCH   7  11
ATOM     11  N   UNL     1      -2.856  -6.997   0.604  1.00  0.00    -0.342 N 
ATOM     12  C   UNL     1      -2.107  -7.656  -0.300  1.00  0.00     0.244 C 
ATOM     13  H   UNL     1      -3.519  -7.619   0.981  1.00  0.00     0.164 HD
ATOM     14  O   UNL     1      -2.792  -8.566  -0.810  1.00  0.00    -0.273 OA
BRANCH  12  15
ATOM     15  C   UNL     1      -0.673  -7.380  -0.919  1.00  0.00     0.189 C 
BRANCH  15  16
ATOM     16  N   UNL     1       0.483  -6.637  -0.293  1.00  0.00    -0.247 N 
ATOM     17  C   UNL     1       1.446  -7.296   0.452  1.00  0.00     0.329 A 
ATOM     18  C   UNL     1       0.687  -5.297  -0.671  1.00  0.00     0.264 A 
ATOM     19  O   UNL     1       1.513  -8.495   0.671  1.00  0.00    -0.248 OA
ATOM     20  N   UNL     1       2.458  -6.565   0.992  1.00  0.00    -0.307 N 
ATOM     21  C   UNL     1       1.669  -4.505   0.111  1.00  0.00     0.064 A 
ATOM     22  O   UNL     1       0.072  -4.731  -1.574  1.00  0.00    -0.268 OA
ATOM     23  C   UNL     1       2.561  -5.193   0.916  1.00  0.00     0.055 A 
ATOM     24  H   UNL     1       3.167  -7.051   1.472  1.00  0.00     0.171 HD
ATOM     25  C   UNL     1       1.681  -3.108   0.115  1.00  0.00     0.016 A 
ATOM     26  C   UNL     1       3.510  -4.524   1.687  1.00  0.00     0.027 A 
ATOM     27  C   UNL     1       2.592  -2.424   0.928  1.00  0.00     0.001 A 
ATOM     28  C   UNL     1       3.515  -3.131   1.702  1.00  0.00     0.002 A 
ENDBRANCH  15  16
BRANCH  15  29
ATOM     29  C   UNL     1      -0.226  -8.707  -1.641  1.00  0.00     0.071 C 
BRANCH  29  30
ATOM     30  C   UNL     1      -0.259 -10.048  -0.909  1.00  0.00    -0.045 A 
ATOM     31  C   UNL     1       0.034 -11.210  -1.637  1.00  0.00     0.004 A 
ATOM     32  C   UNL     1      -0.547 -10.193   0.459  1.00  0.00     0.004 A 
ATOM     33  C   UNL     1       0.078 -12.458  -1.008  1.00  0.00     0.000 A 
ATOM     34  C   UNL     1      -0.485 -11.433   1.093  1.00  0.00     0.000 A 
ATOM     35  C   UNL     1      -0.166 -12.567   0.359  1.00  0.00     0.000 A 
ENDBRANCH  29  30
ENDBRANCH  15  29
ENDBRANCH  12  15
ENDBRANCH   7  11
ENDBRANCH   4   7
ENDBRANCH   2   3
ENDBRANCH   1   2
BRANCH   1  36
ATOM     36  C   UNL     1      -5.602  -5.928  -3.248  1.00  0.00     0.023 C 
BRANCH  36  37
ATOM     37  C   UNL     1      -5.283  -5.007  -4.415  1.00  0.00     0.116 C 
BRANCH  37  38
ATOM     38  N   UNL     1      -4.351  -5.595  -5.366  1.00  0.00    -0.352 N 
ATOM     39  C   UNL     1      -4.353  -5.461  -6.734  1.00  0.00     0.251 C 
ATOM     40  H   UNL     1      -3.635  -6.153  -4.985  1.00  0.00     0.163 HD
ATOM     41  O   UNL     1      -3.594  -6.123  -7.432  1.00  0.00    -0.269 OA
BRANCH  39  42
ATOM     42  C   UNL     1      -5.319  -4.526  -7.344  1.00  0.00     0.039 A 
ATOM     43  C   UNL     1      -6.141  -4.974  -8.378  1.00  0.00     0.014 A 
ATOM     44  C   UNL     1      -5.454  -3.230  -6.837  1.00  0.00     0.014 A 
ATOM     45  C   UNL     1      -7.136  -4.131  -8.874  1.00  0.00     0.010 A 
ATOM     46  C   UNL     1      -6.505  -2.431  -7.266  1.00  0.00     0.010 A 
ATOM     47  C   UNL     1      -7.344  -2.864  -8.303  1.00  0.00    -0.014 A 
BRANCH  47  48
ATOM     48  C   UNL     1      -8.402  -1.954  -8.807  1.00  0.00     0.031 A 
ATOM     49  C   UNL     1      -8.016  -0.627  -9.407  1.00  0.00     0.074 A 
ATOM     50  C   UNL     1      -9.700  -2.292  -8.683  1.00  0.00     0.049 A 
ATOM     51  N   UNL     1      -8.785   0.329  -9.858  1.00  0.00    -0.248 NA
ATOM     52  C   UNL     1      -6.576  -0.321  -9.482  1.00  0.00     0.031 C 
ATOM     53  C   UNL     1     -10.202  -3.531  -8.083  1.00  0.00     0.029 A 
ATOM     54  N   UNL     1     -10.838  -1.621  -9.055  1.00  0.00    -0.354 N 
ATOM     55  C   UNL     1      -7.927   1.350 -10.251  1.00  0.00     0.074 A 
ATOM     56  C   UNL     1      -6.585   0.926  -9.925  1.00  0.00     0.031 C 
ATOM     57  C   UNL     1     -11.543  -3.545  -8.160  1.00  0.00     0.029 A 
ATOM     58  C   UNL     1     -12.000  -2.301  -8.772  1.00  0.00     0.049 A 
ATOM     59  H   UNL     1     -10.824  -0.734  -9.483  1.00  0.00     0.167 HD
ATOM     60  C   UNL     1      -8.225   2.525 -10.854  1.00  0.00     0.031 A 
ATOM     61  C   UNL     1     -13.287  -1.959  -8.980  1.00  0.00     0.031 A 
ATOM     62  C   UNL     1      -9.561   2.935 -11.191  1.00  0.00     0.049 A 
ATOM     63  C   UNL     1     -13.594  -0.642  -9.641  1.00  0.00     0.074 A 
ATOM     64  C   UNL     1      -9.967   4.080 -11.852  1.00  0.00     0.029 A 
ATOM     65  N   UNL     1     -10.708   2.213 -10.896  1.00  0.00    -0.354 N 
ATOM     66  N   UNL     1     -12.764   0.282 -10.065  1.00  0.00    -0.248 NA
ATOM     67  C   UNL     1     -15.011  -0.328  -9.867  1.00  0.00     0.031 C 
ATOM     68  C   UNL     1     -11.364   4.080 -11.903  1.00  0.00     0.029 A 
ATOM     69  C   UNL     1     -11.824   2.901 -11.339  1.00  0.00     0.049 A 
ATOM     70  H   UNL     1     -10.725   1.342 -10.438  1.00  0.00     0.167 HD
ATOM     71  C   UNL     1     -13.558   1.270 -10.639  1.00  0.00     0.074 A 
ATOM     72  C   UNL     1     -14.931   0.823 -10.520  1.00  0.00     0.031 C 
ATOM     73  C   UNL     1     -13.184   2.439 -11.216  1.00  0.00     0.031 A 
BRANCH  60  74
ATOM     74  C   UNL     1      -7.081   3.450 -11.183  1.00  0.00    -0.014 A 
ATOM     75  C   UNL     1      -6.133   3.115 -12.167  1.00  0.00     0.010 A 
ATOM     76  C   UNL     1      -6.973   4.688 -10.524  1.00  0.00     0.010 A 
ATOM     77  C   UNL     1      -5.074   3.979 -12.454  1.00  0.00     0.020 A 
ATOM     78  C   UNL     1      -5.934   5.571 -10.833  1.00  0.00     0.020 A 
ATOM     79  C   UNL     1      -4.981   5.203 -11.785  1.00  0.00     0.054 A 
BRANCH  79  80
ATOM     80  S   UNL     1      -3.612   6.317 -12.199  1.00  0.00     0.124 S 
ATOM     81  O   UNL     1      -2.468   5.618 -11.618  1.00  0.00    -0.237 OA
ATOM     82  O   UNL     1      -3.655   6.346 -13.659  1.00  0.00    -0.237 OA
ATOM     83  O   UNL     1      -3.973   7.571 -11.542  1.00  0.00    -0.744 OA
ENDBRANCH  79  80
ENDBRANCH  60  74
BRANCH  61  84
ATOM     84  C   UNL     1     -14.381  -2.885  -8.574  1.00  0.00    -0.014 A 
ATOM     85  C   UNL     1     -15.171  -3.529  -9.543  1.00  0.00     0.010 A 
ATOM     86  C   UNL     1     -14.639  -3.130  -7.213  1.00  0.00     0.010 A 
ATOM     87  C   UNL     1     -16.213  -4.379  -9.160  1.00  0.00     0.020 A 
ATOM     88  C   UNL     1     -15.659  -4.004  -6.825  1.00  0.00     0.020 A 
ATOM     89  C   UNL     1     -16.450  -4.612  -7.802  1.00  0.00     0.054 A 
BRANCH  89  90
ATOM     90  S   UNL     1     -17.782  -5.749  -7.330  1.00  0.00     0.124 S 
ATOM     91  O   UNL     1     -18.974  -4.973  -7.657  1.00  0.00    -0.237 OA
ATOM     92  O   UNL     1     -17.525  -6.907  -8.183  1.00  0.00    -0.237 OA
ATOM     93  O   UNL     1     -17.552  -5.972  -5.904  1.00  0.00    -0.744 OA
ENDBRANCH  89  90
ENDBRANCH  61  84
BRANCH  73  94
ATOM     94  C   UNL     1     -14.268   3.300 -11.811  1.00  0.00    -0.014 A 
ATOM     95  C   UNL     1     -15.188   3.988 -11.000  1.00  0.00     0.010 A 
ATOM     96  C   UNL     1     -14.325   3.468 -13.207  1.00  0.00     0.010 A 
ATOM     97  C   UNL     1     -16.167   4.801 -11.578  1.00  0.00     0.020 A 
ATOM     98  C   UNL     1     -15.280   4.306 -13.786  1.00  0.00     0.020 A 
ATOM     99  C   UNL     1     -16.206   4.956 -12.968  1.00  0.00     0.054 A 
BRANCH  99 100
ATOM    100  S   UNL     1     -17.458   6.051 -13.689  1.00  0.00     0.124 S 
ATOM    101  O   UNL     1     -18.682   5.277 -13.504  1.00  0.00    -0.237 OA
ATOM    102  O   UNL     1     -17.343   7.253 -12.867  1.00  0.00    -0.237 OA
ATOM    103  O   UNL     1     -17.025   6.208 -15.076  1.00  0.00    -0.744 OA
ENDBRANCH  99 100
ENDBRANCH  73  94
ENDBRANCH  47  48
ENDBRANCH  39  42
ENDBRANCH  37  38
ENDBRANCH  36  37
ENDBRANCH   1  36
TORSDOF 20
