REMARK SMILES Cc1nc(-c2ccccc2)sc1C(=O)N[C@@H](CC1=c2ccccc2=NC1)C(=O)NCCCCNC(=O)c1ccc(-c2c3nc(c(-c4ccc(S(=O)(=O)[O-])cc4)c4ccc([nH]4)c(-c4ccc(S(=O)(=O)[O-])cc4)c4nc(c(-c5ccc(S(=O)(=O)[O-])cc5)c5ccc2[nH]5)C=C4)C=C3)cc1
REMARK SMILES IDX 31 1 30 2 29 3 27 4 28 5 16 7 15 8 13 9 14 10 12 12 1 13
REMARK SMILES IDX 2 14 3 15 4 16 11 17 5 18 6 19 10 20 7 21 9 22 8 23 17 24
REMARK SMILES IDX 18 25 19 26 26 27 20 28 24 29 25 30 21 31 23 32 22 33 32 34
REMARK SMILES IDX 33 35 34 36 35 37 36 39 37 40 38 41 96 42 39 43 95 44 40 45
REMARK SMILES IDX 41 46 42 47 89 48 43 49 94 50 88 51 90 52 44 53 93 54 87 55
REMARK SMILES IDX 86 56 45 58 75 59 56 60 74 61 57 62 60 63 73 64 91 65 58 66
REMARK SMILES IDX 59 67 72 69 92 70 61 71 46 72 47 73 55 74 48 75 54 76 49 77
REMARK SMILES IDX 50 78 51 79 52 80 53 81 76 82 77 83 85 84 78 85 84 86 79 87
REMARK SMILES IDX 80 88 81 89 82 90 83 91 62 92 63 93 71 94 64 95 70 96 65 97
REMARK SMILES IDX 66 98 67 99 68 100 69 101
REMARK H PARENT 29 6 15 11 34 38 90 57 60 68
REMARK Flexibility Score: inf
ROOT
ATOM      1  C   UNL     1      -3.012  -6.399   2.249  1.00  0.00     0.023 C 
ENDROOT
BRANCH   1   2
ATOM      2  C   UNL     1      -3.466  -5.284   1.323  1.00  0.00     0.116 C 
BRANCH   2   3
ATOM      3  N   UNL     1      -3.879  -4.070   1.985  1.00  0.00    -0.354 N 
ATOM      4  C   UNL     1      -3.942  -2.803   1.491  1.00  0.00     0.242 C 
ATOM      5  O   UNL     1      -4.752  -2.037   2.026  1.00  0.00    -0.273 OA
ATOM      6  H   UNL     1      -4.154  -4.172   2.924  1.00  0.00     0.163 HD
BRANCH   4   7
ATOM      7  C   UNL     1      -3.131  -2.311   0.270  1.00  0.00     0.175 C 
BRANCH   7   8
ATOM      8  N   UNL     1      -1.720  -2.658   0.267  1.00  0.00    -0.339 N 
ATOM      9  C   UNL     1      -0.560  -1.958   0.078  1.00  0.00     0.263 C 
ATOM     10  O   UNL     1       0.424  -2.712   0.043  1.00  0.00    -0.268 OA
ATOM     11  H   UNL     1      -1.563  -3.614   0.442  1.00  0.00     0.164 HD
BRANCH   9  12
ATOM     12  C   UNL     1      -0.430  -0.507  -0.049  1.00  0.00     0.115 A 
ATOM     13  C   UNL     1      -2.675   0.788  -0.585  1.00  0.00     0.068 C 
ATOM     14  C   UNL     1      -1.232   0.612  -0.283  1.00  0.00     0.062 A 
ATOM     15  N   UNL     1      -0.567   1.830  -0.247  1.00  0.00    -0.241 NA
ATOM     16  C   UNL     1       0.719   1.675  -0.078  1.00  0.00     0.124 A 
ATOM     17  S   UNL     1       1.230   0.068   0.100  1.00  0.00    -0.108 S 
BRANCH  16  18
ATOM     18  C   UNL     1       1.645   2.799  -0.028  1.00  0.00     0.010 A 
ATOM     19  C   UNL     1       1.474   3.772   0.966  1.00  0.00     0.011 A 
ATOM     20  C   UNL     1       2.604   3.001  -1.029  1.00  0.00     0.011 A 
ATOM     21  C   UNL     1       2.240   4.937   0.956  1.00  0.00     0.001 A 
ATOM     22  C   UNL     1       3.364   4.172  -1.043  1.00  0.00     0.001 A 
ATOM     23  C   UNL     1       3.178   5.140  -0.055  1.00  0.00     0.000 A 
ENDBRANCH  16  18
ENDBRANCH   9  12
ENDBRANCH   7   8
BRANCH   7  24
ATOM     24  C   UNL     1      -3.801  -2.536  -1.111  1.00  0.00     0.068 C 
BRANCH  24  25
ATOM     25  C   UNL     1      -4.009  -3.943  -1.580  1.00  0.00    -0.037 C 
ATOM     26  C   UNL     1      -3.113  -4.862  -1.940  1.00  0.00     0.001 A 
ATOM     27  C   UNL     1      -5.397  -4.516  -1.643  1.00  0.00     0.174 C 
ATOM     28  C   UNL     1      -1.692  -4.905  -2.070  1.00  0.00     0.010 A 
ATOM     29  C   UNL     1      -3.928  -6.089  -2.015  1.00  0.00     0.065 A 
ATOM     30  N   UNL     1      -5.212  -5.967  -1.872  1.00  0.00    -0.280 NA
ATOM     31  C   UNL     1      -1.087  -6.100  -2.168  1.00  0.00     0.001 A 
ATOM     32  C   UNL     1      -3.192  -7.366  -2.132  1.00  0.00     0.028 A 
ATOM     33  C   UNL     1      -1.849  -7.338  -2.168  1.00  0.00     0.002 A 
ENDBRANCH  24  25
ENDBRANCH   7  24
ENDBRANCH   4   7
ENDBRANCH   2   3
ENDBRANCH   1   2
BRANCH   1  34
ATOM     34  C   UNL     1      -4.080  -6.930   3.199  1.00  0.00     0.023 C 
BRANCH  34  35
ATOM     35  C   UNL     1      -5.447  -7.202   2.579  1.00  0.00     0.116 C 
BRANCH  35  36
ATOM     36  N   UNL     1      -5.409  -8.130   1.457  1.00  0.00    -0.352 N 
ATOM     37  C   UNL     1      -6.090  -9.316   1.292  1.00  0.00     0.251 C 
ATOM     38  H   UNL     1      -4.816  -7.875   0.714  1.00  0.00     0.163 HD
ATOM     39  O   UNL     1      -5.853 -10.048   0.340  1.00  0.00    -0.269 OA
BRANCH  37  40
ATOM     40  C   UNL     1      -7.085  -9.707   2.312  1.00  0.00     0.039 A 
ATOM     41  C   UNL     1      -6.975 -10.953   2.930  1.00  0.00     0.014 A 
ATOM     42  C   UNL     1      -8.065  -8.796   2.717  1.00  0.00     0.014 A 
ATOM     43  C   UNL     1      -7.788 -11.248   4.026  1.00  0.00     0.010 A 
ATOM     44  C   UNL     1      -8.811  -9.058   3.860  1.00  0.00     0.010 A 
ATOM     45  C   UNL     1      -8.675 -10.282   4.533  1.00  0.00    -0.014 A 
BRANCH  45  46
ATOM     46  C   UNL     1      -9.456 -10.522   5.773  1.00  0.00     0.031 A 
ATOM     47  C   UNL     1     -10.960 -10.525   5.727  1.00  0.00     0.074 A 
ATOM     48  C   UNL     1      -8.816 -10.653   6.954  1.00  0.00     0.049 A 
ATOM     49  N   UNL     1     -11.815 -10.640   6.710  1.00  0.00    -0.248 NA
ATOM     50  C   UNL     1     -11.585 -10.342   4.406  1.00  0.00     0.031 C 
ATOM     51  C   UNL     1      -7.364 -10.607   7.144  1.00  0.00     0.029 A 
ATOM     52  N   UNL     1      -9.309 -10.843   8.221  1.00  0.00    -0.354 N 
ATOM     53  C   UNL     1     -13.073 -10.518   6.132  1.00  0.00     0.074 A 
ATOM     54  C   UNL     1     -12.869 -10.270   4.722  1.00  0.00     0.031 C 
ATOM     55  C   UNL     1      -7.084 -10.796   8.445  1.00  0.00     0.029 A 
ATOM     56  C   UNL     1      -8.332 -10.939   9.186  1.00  0.00     0.049 A 
ATOM     57  H   UNL     1     -10.271 -10.905   8.421  1.00  0.00     0.167 HD
ATOM     58  C   UNL     1     -14.290 -10.626   6.716  1.00  0.00     0.031 A 
ATOM     59  C   UNL     1      -8.430 -11.121  10.517  1.00  0.00     0.031 A 
ATOM     60  C   UNL     1     -14.492 -10.899   8.113  1.00  0.00     0.049 A 
ATOM     61  C   UNL     1      -9.792 -11.267  11.139  1.00  0.00     0.074 A 
ATOM     62  C   UNL     1     -15.684 -11.092   8.789  1.00  0.00     0.029 A 
ATOM     63  N   UNL     1     -13.476 -11.026   9.048  1.00  0.00    -0.354 N 
ATOM     64  N   UNL     1     -10.969 -11.215  10.563  1.00  0.00    -0.248 NA
ATOM     65  C   UNL     1      -9.837 -11.509  12.588  1.00  0.00     0.031 C 
ATOM     66  C   UNL     1     -15.391 -11.299  10.141  1.00  0.00     0.029 A 
ATOM     67  C   UNL     1     -14.014 -11.282  10.298  1.00  0.00     0.049 A 
ATOM     68  H   UNL     1     -12.515 -10.946   8.852  1.00  0.00     0.167 HD
ATOM     69  C   UNL     1     -11.895 -11.444  11.575  1.00  0.00     0.074 A 
ATOM     70  C   UNL     1     -11.140 -11.648  12.795  1.00  0.00     0.031 C 
ATOM     71  C   UNL     1     -13.248 -11.484  11.501  1.00  0.00     0.031 A 
BRANCH  58  72
ATOM     72  C   UNL     1     -15.497 -10.451   5.834  1.00  0.00    -0.014 A 
ATOM     73  C   UNL     1     -15.838 -11.421   4.874  1.00  0.00     0.010 A 
ATOM     74  C   UNL     1     -16.312  -9.314   5.979  1.00  0.00     0.010 A 
ATOM     75  C   UNL     1     -16.945 -11.235   4.042  1.00  0.00     0.020 A 
ATOM     76  C   UNL     1     -17.437  -9.138   5.167  1.00  0.00     0.020 A 
ATOM     77  C   UNL     1     -17.734 -10.091   4.191  1.00  0.00     0.054 A 
BRANCH  77  78
ATOM     78  S   UNL     1     -19.174  -9.881   3.107  1.00  0.00     0.124 S 
ATOM     79  O   UNL     1     -18.546  -9.492   1.847  1.00  0.00    -0.237 OA
ATOM     80  O   UNL     1     -19.784 -11.208   3.121  1.00  0.00    -0.237 OA
ATOM     81  O   UNL     1     -19.952  -8.834   3.765  1.00  0.00    -0.744 OA
ENDBRANCH  77  78
ENDBRANCH  58  72
BRANCH  59  82
ATOM     82  C   UNL     1      -7.199 -11.210  11.349  1.00  0.00    -0.014 A 
ATOM     83  C   UNL     1      -6.789 -12.445  11.880  1.00  0.00     0.010 A 
ATOM     84  C   UNL     1      -6.425 -10.064  11.604  1.00  0.00     0.010 A 
ATOM     85  C   UNL     1      -5.637 -12.531  12.667  1.00  0.00     0.020 A 
ATOM     86  C   UNL     1      -5.258 -10.150  12.370  1.00  0.00     0.020 A 
ATOM     87  C   UNL     1      -4.878 -11.382  12.907  1.00  0.00     0.054 A 
BRANCH  87  88
ATOM     88  S   UNL     1      -3.356 -11.525  13.885  1.00  0.00     0.124 S 
ATOM     89  O   UNL     1      -3.878 -11.644  15.242  1.00  0.00    -0.237 OA
ATOM     90  O   UNL     1      -2.738 -12.730  13.336  1.00  0.00    -0.237 OA
ATOM     91  O   UNL     1      -2.645 -10.282  13.592  1.00  0.00    -0.744 OA
ENDBRANCH  87  88
ENDBRANCH  59  82
BRANCH  71  92
ATOM     92  C   UNL     1     -14.001 -11.794  12.765  1.00  0.00    -0.014 A 
ATOM     93  C   UNL     1     -14.127 -10.839  13.789  1.00  0.00     0.010 A 
ATOM     94  C   UNL     1     -14.634 -13.042  12.906  1.00  0.00     0.010 A 
ATOM     95  C   UNL     1     -14.851 -11.139  14.946  1.00  0.00     0.020 A 
ATOM     96  C   UNL     1     -15.379 -13.336  14.050  1.00  0.00     0.020 A 
ATOM     97  C   UNL     1     -15.471 -12.386  15.070  1.00  0.00     0.054 A 
BRANCH  97  98
ATOM     98  S   UNL     1     -16.440 -12.738  16.562  1.00  0.00     0.124 S 
ATOM     99  O   UNL     1     -15.396 -12.995  17.549  1.00  0.00    -0.237 OA
ATOM    100  O   UNL     1     -17.196 -11.502  16.755  1.00  0.00    -0.237 OA
ATOM    101  O   UNL     1     -17.244 -13.899  16.187  1.00  0.00    -0.744 OA
ENDBRANCH  97  98
ENDBRANCH  71  92
ENDBRANCH  45  46
ENDBRANCH  37  40
ENDBRANCH  35  36
ENDBRANCH  34  35
ENDBRANCH   1  34
TORSDOF 19
