REMARK SMILES COc1c[nH]c(C[N@H+]2CCC[C@@H](c3ccc(C(=O)NCCCCNC(=O)c4ccc(-c5c6nc(c(-c7ccc(S(=O)(=O)[O-])cc7)c7ccc([nH]7)c(-c7ccc(S(=O)(=O)[O-])cc7)c7nc(c(-c8ccc(S(=O)(=O)[O-])cc8)c8ccc5[nH]8)C=C7)C=C6)cc4)cc3)C2)cc1=O
REMARK SMILES IDX 21 1 20 2 19 3 17 4 18 5 16 7 13 8 14 9 88 10 15 11 87 12
REMARK SMILES IDX 12 13 8 14 9 15 89 16 10 18 11 19 7 20 6 21 3 22 4 23 91 24
REMARK SMILES IDX 5 25 90 26 92 27 2 29 1 30 22 31 23 32 24 33 25 34 26 36
REMARK SMILES IDX 27 37 28 38 86 39 29 40 85 41 30 42 31 43 32 44 79 45 33 46
REMARK SMILES IDX 84 47 78 48 80 49 34 50 83 51 77 52 76 53 35 55 65 56 46 57
REMARK SMILES IDX 64 58 47 59 50 60 63 61 81 62 48 63 49 64 62 66 82 67 51 68
REMARK SMILES IDX 36 69 37 70 45 71 38 72 44 73 39 74 40 75 41 76 42 77 43 78
REMARK SMILES IDX 66 79 67 80 75 81 68 82 74 83 69 84 70 85 71 86 72 87 73 88
REMARK SMILES IDX 52 89 53 90 61 91 54 92 60 93 55 94 56 95 57 96 58 97 59 98
REMARK H PARENT 19 6 8 17 5 28 24 35 80 54 50 65
REMARK Flexibility Score: inf
ROOT
ATOM      1  C   UNL     1      -6.750  -1.294 -11.273  1.00  0.00     0.023 C 
ENDROOT
BRANCH   1   2
ATOM      2  C   UNL     1      -6.770  -0.499  -9.966  1.00  0.00     0.116 C 
BRANCH   2   3
ATOM      3  N   UNL     1      -6.893  -1.383  -8.825  1.00  0.00    -0.352 N 
ATOM      4  C   UNL     1      -5.949  -1.914  -7.984  1.00  0.00     0.251 C 
ATOM      5  O   UNL     1      -6.338  -2.594  -7.035  1.00  0.00    -0.269 OA
ATOM      6  H   UNL     1      -7.818  -1.649  -8.616  1.00  0.00     0.163 HD
BRANCH   4   7
ATOM      7  C   UNL     1      -4.489  -1.657  -8.135  1.00  0.00     0.039 A 
ATOM      8  C   UNL     1      -1.712  -1.115  -8.223  1.00  0.00    -0.039 A 
ATOM      9  C   UNL     1      -2.347  -1.424  -7.011  1.00  0.00     0.005 A 
ATOM     10  C   UNL     1      -2.468  -1.161  -9.397  1.00  0.00     0.005 A 
ATOM     11  C   UNL     1      -3.720  -1.676  -6.966  1.00  0.00     0.014 A 
ATOM     12  C   UNL     1      -3.835  -1.450  -9.351  1.00  0.00     0.014 A 
BRANCH   8  13
ATOM     13  C   UNL     1      -0.240  -0.741  -8.300  1.00  0.00     0.074 C 
ATOM     14  N   UNL     1       1.565   0.632  -7.191  1.00  0.00    -0.329 N 
ATOM     15  C   UNL     1       2.409  -0.567  -7.079  1.00  0.00     0.262 C 
ATOM     16  C   UNL     1       0.139   0.283  -7.210  1.00  0.00     0.270 C 
ATOM     17  H   UNL     1       1.780   1.072  -8.086  1.00  0.00     0.348 HD
ATOM     18  C   UNL     1       2.121  -1.570  -8.199  1.00  0.00     0.062 C 
ATOM     19  C   UNL     1       0.652  -1.982  -8.210  1.00  0.00     0.020 C 
BRANCH  14  20
ATOM     20  C   UNL     1       1.883   1.635  -6.149  1.00  0.00     0.317 C 
BRANCH  20  21
ATOM     21  C   UNL     1       1.670   1.197  -4.701  1.00  0.00     0.074 A 
ATOM     22  C   UNL     1       1.007   0.102  -2.148  1.00  0.00     0.182 A 
ATOM     23  C   UNL     1       0.082   0.552  -3.007  1.00  0.00     0.133 A 
ATOM     24  C   UNL     1       2.444   0.285  -2.561  1.00  0.00     0.223 A 
ATOM     25  N   UNL     1       0.379   1.143  -4.205  1.00  0.00    -0.357 N 
ATOM     26  C   UNL     1       2.707   0.835  -3.923  1.00  0.00     0.083 A 
ATOM     27  O   UNL     1       3.392  -0.024  -1.845  1.00  0.00    -0.286 OA
ATOM     28  H   UNL     1      -0.350   1.543  -4.732  1.00  0.00     0.166 HD
BRANCH  22  29
ATOM     29  O   UNL     1       0.636  -0.574  -1.003  1.00  0.00    -0.491 OA
ATOM     30  C   UNL     1       1.164   0.016   0.178  1.00  0.00     0.278 C 
ENDBRANCH  22  29
ENDBRANCH  20  21
ENDBRANCH  14  20
ENDBRANCH   8  13
ENDBRANCH   4   7
ENDBRANCH   2   3
ENDBRANCH   1   2
BRANCH   1  31
ATOM     31  C   UNL     1      -8.119  -1.785 -11.740  1.00  0.00     0.023 C 
BRANCH  31  32
ATOM     32  C   UNL     1      -9.097  -0.680 -12.114  1.00  0.00     0.116 C 
BRANCH  32  33
ATOM     33  N   UNL     1      -8.609   0.185 -13.179  1.00  0.00    -0.352 N 
ATOM     34  C   UNL     1      -9.354   0.866 -14.115  1.00  0.00     0.251 C 
ATOM     35  H   UNL     1      -7.633   0.295 -13.237  1.00  0.00     0.163 HD
ATOM     36  O   UNL     1      -8.812   1.489 -15.017  1.00  0.00    -0.269 OA
BRANCH  34  37
ATOM     37  C   UNL     1     -10.825   0.784 -14.027  1.00  0.00     0.039 A 
ATOM     38  C   UNL     1     -11.541   0.302 -15.125  1.00  0.00     0.014 A 
ATOM     39  C   UNL     1     -11.473   1.093 -12.829  1.00  0.00     0.014 A 
ATOM     40  C   UNL     1     -12.908   0.055 -14.995  1.00  0.00     0.010 A 
ATOM     41  C   UNL     1     -12.821   0.789 -12.684  1.00  0.00     0.010 A 
ATOM     42  C   UNL     1     -13.547   0.259 -13.762  1.00  0.00    -0.014 A 
BRANCH  42  43
ATOM     43  C   UNL     1     -14.976  -0.080 -13.559  1.00  0.00     0.031 A 
ATOM     44  C   UNL     1     -15.960   1.014 -13.253  1.00  0.00     0.074 A 
ATOM     45  C   UNL     1     -15.365  -1.370 -13.546  1.00  0.00     0.049 A 
ATOM     46  N   UNL     1     -17.214   0.917 -12.897  1.00  0.00    -0.248 NA
ATOM     47  C   UNL     1     -15.458   2.395 -13.330  1.00  0.00     0.031 C 
ATOM     48  C   UNL     1     -14.495  -2.522 -13.796  1.00  0.00     0.029 A 
ATOM     49  N   UNL     1     -16.591  -1.930 -13.290  1.00  0.00    -0.354 N 
ATOM     50  C   UNL     1     -17.642   2.221 -12.676  1.00  0.00     0.074 A 
ATOM     51  C   UNL     1     -16.506   3.086 -12.907  1.00  0.00     0.031 C 
ATOM     52  C   UNL     1     -15.218  -3.650 -13.692  1.00  0.00     0.029 A 
ATOM     53  C   UNL     1     -16.589  -3.305 -13.327  1.00  0.00     0.049 A 
ATOM     54  H   UNL     1     -17.397  -1.398 -13.099  1.00  0.00     0.167 HD
ATOM     55  C   UNL     1     -18.874   2.658 -12.324  1.00  0.00     0.031 A 
ATOM     56  C   UNL     1     -17.575  -4.188 -13.080  1.00  0.00     0.031 A 
ATOM     57  C   UNL     1     -20.005   1.795 -12.118  1.00  0.00     0.049 A 
ATOM     58  C   UNL     1     -18.938  -3.680 -12.697  1.00  0.00     0.074 A 
ATOM     59  C   UNL     1     -21.308   2.145 -11.812  1.00  0.00     0.029 A 
ATOM     60  N   UNL     1     -19.968   0.412 -12.203  1.00  0.00    -0.354 N 
ATOM     61  N   UNL     1     -19.336  -2.440 -12.538  1.00  0.00    -0.248 NA
ATOM     62  C   UNL     1     -19.984  -4.685 -12.465  1.00  0.00     0.031 C 
ATOM     63  C   UNL     1     -22.054   0.969 -11.680  1.00  0.00     0.029 A 
ATOM     64  C   UNL     1     -21.223  -0.109 -11.945  1.00  0.00     0.049 A 
ATOM     65  H   UNL     1     -19.168  -0.121 -12.416  1.00  0.00     0.167 HD
ATOM     66  C   UNL     1     -20.686  -2.516 -12.215  1.00  0.00     0.074 A 
ATOM     67  C   UNL     1     -21.037  -3.921 -12.204  1.00  0.00     0.031 C 
ATOM     68  C   UNL     1     -21.556  -1.511 -11.954  1.00  0.00     0.031 A 
BRANCH  55  69
ATOM     69  C   UNL     1     -19.053   4.138 -12.133  1.00  0.00    -0.014 A 
ATOM     70  C   UNL     1     -19.059   5.014 -13.233  1.00  0.00     0.010 A 
ATOM     71  C   UNL     1     -19.239   4.658 -10.840  1.00  0.00     0.010 A 
ATOM     72  C   UNL     1     -19.201   6.390 -13.039  1.00  0.00     0.020 A 
ATOM     73  C   UNL     1     -19.407   6.032 -10.644  1.00  0.00     0.020 A 
ATOM     74  C   UNL     1     -19.366   6.891 -11.744  1.00  0.00     0.054 A 
BRANCH  74  75
ATOM     75  S   UNL     1     -19.556   8.681 -11.519  1.00  0.00     0.124 S 
ATOM     76  O   UNL     1     -18.182   9.150 -11.680  1.00  0.00    -0.237 OA
ATOM     77  O   UNL     1     -20.474   9.046 -12.595  1.00  0.00    -0.237 OA
ATOM     78  O   UNL     1     -20.103   8.803 -10.170  1.00  0.00    -0.744 OA
ENDBRANCH  74  75
ENDBRANCH  55  69
BRANCH  56  79
ATOM     79  C   UNL     1     -17.310  -5.647 -13.198  1.00  0.00    -0.014 A 
ATOM     80  C   UNL     1     -17.816  -6.372 -14.291  1.00  0.00     0.010 A 
ATOM     81  C   UNL     1     -16.533  -6.314 -12.234  1.00  0.00     0.010 A 
ATOM     82  C   UNL     1     -17.560  -7.741 -14.412  1.00  0.00     0.020 A 
ATOM     83  C   UNL     1     -16.257  -7.678 -12.363  1.00  0.00     0.020 A 
ATOM     84  C   UNL     1     -16.782  -8.386 -13.446  1.00  0.00     0.054 A 
BRANCH  84  85
ATOM     85  S   UNL     1     -16.412 -10.150 -13.653  1.00  0.00     0.124 S 
ATOM     86  O   UNL     1     -17.665 -10.773 -13.238  1.00  0.00    -0.237 OA
ATOM     87  O   UNL     1     -16.099 -10.245 -15.077  1.00  0.00    -0.237 OA
ATOM     88  O   UNL     1     -15.276 -10.366 -12.759  1.00  0.00    -0.744 OA
ENDBRANCH  84  85
ENDBRANCH  56  79
BRANCH  68  89
ATOM     89  C   UNL     1     -22.986  -1.879 -11.676  1.00  0.00    -0.014 A 
ATOM     90  C   UNL     1     -23.373  -2.384 -10.423  1.00  0.00     0.010 A 
ATOM     91  C   UNL     1     -23.968  -1.620 -12.649  1.00  0.00     0.010 A 
ATOM     92  C   UNL     1     -24.722  -2.628 -10.150  1.00  0.00     0.020 A 
ATOM     93  C   UNL     1     -25.318  -1.845 -12.373  1.00  0.00     0.020 A 
ATOM     94  C   UNL     1     -25.686  -2.352 -11.125  1.00  0.00     0.054 A 
BRANCH  94  95
ATOM     95  S   UNL     1     -27.437  -2.594 -10.718  1.00  0.00     0.124 S 
ATOM     96  O   UNL     1     -27.572  -4.045 -10.803  1.00  0.00    -0.237 OA
ATOM     97  O   UNL     1     -27.536  -2.031  -9.373  1.00  0.00    -0.237 OA
ATOM     98  O   UNL     1     -28.140  -1.840 -11.754  1.00  0.00    -0.744 OA
ENDBRANCH  94  95
ENDBRANCH  68  89
ENDBRANCH  42  43
ENDBRANCH  34  37
ENDBRANCH  32  33
ENDBRANCH  31  32
ENDBRANCH   1  31
TORSDOF 18
