REMARK SMILES [NH3+][C@H](CS[C@@H]1CC(=O)N(c2ccc3ccccc3c2)C1=O)C(=O)NCCCCNC(=O)c1ccc(-c2c3nc(c(-c4ccc(S(=O)(=O)[O-])cc4)c4ccc([nH]4)c(-c4ccc(S(=O)(=O)[O-])cc4)c4nc(c(-c5ccc(S(=O)(=O)[O-])cc5)c5ccc2[nH]5)C=C4)C=C3)cc1
REMARK SMILES IDX 26 1 25 2 24 3 22 4 23 5 2 7 1 8 3 12 4 13 5 14 6 15 20 16
REMARK SMILES IDX 7 17 9 18 21 19 8 20 10 21 11 22 19 23 12 24 18 25 13 26
REMARK SMILES IDX 17 27 14 28 16 29 15 30 27 31 28 32 29 33 30 34 31 36 32 37
REMARK SMILES IDX 33 38 91 39 34 40 90 41 35 42 36 43 37 44 84 45 38 46 89 47
REMARK SMILES IDX 83 48 85 49 39 50 88 51 82 52 81 53 40 55 70 56 51 57 69 58
REMARK SMILES IDX 52 59 55 60 68 61 86 62 53 63 54 64 67 66 87 67 56 68 41 69
REMARK SMILES IDX 42 70 50 71 43 72 49 73 44 74 45 75 46 76 47 77 48 78 71 79
REMARK SMILES IDX 72 80 80 81 73 82 79 83 74 84 75 85 76 86 77 87 78 88 57 89
REMARK SMILES IDX 58 90 66 91 59 92 65 93 60 94 61 95 62 96 63 97 64 98
REMARK H PARENT 24 6 1 9 1 10 1 11 29 35 85 54 55 65
REMARK Flexibility Score: inf
ROOT
ATOM      1  C   UNL     1      -1.439   2.114   1.804  1.00  0.00     0.023 C 
ENDROOT
BRANCH   1   2
ATOM      2  C   UNL     1      -1.182   0.621   1.978  1.00  0.00     0.116 C 
BRANCH   2   3
ATOM      3  N   UNL     1      -1.758  -0.136   0.886  1.00  0.00    -0.351 N 
ATOM      4  C   UNL     1      -1.236  -1.167   0.162  1.00  0.00     0.279 C 
ATOM      5  O   UNL     1      -1.939  -1.657  -0.726  1.00  0.00    -0.268 OA
ATOM      6  H   UNL     1      -2.668   0.135   0.626  1.00  0.00     0.163 HD
BRANCH   4   7
ATOM      7  C   UNL     1       0.193  -1.686   0.419  1.00  0.00     0.280 C 
BRANCH   7   8
ATOM      8  N   UNL     1       0.290  -2.115   1.834  1.00  0.00    -0.347 N 
ATOM      9  H   UNL     1      -0.449  -2.789   2.036  1.00  0.00     0.345 HD
ATOM     10  H   UNL     1       0.187  -1.304   2.443  1.00  0.00     0.345 HD
ATOM     11  H   UNL     1       1.199  -2.549   1.996  1.00  0.00     0.345 HD
ENDBRANCH   7   8
BRANCH   7  12
ATOM     12  C   UNL     1       1.243  -0.660  -0.057  1.00  0.00     0.145 C 
BRANCH  12  13
ATOM     13  S   UNL     1       2.923  -1.281  -0.515  1.00  0.00    -0.141 SA
BRANCH  13  14
ATOM     14  C   UNL     1       3.438  -2.111   1.012  1.00  0.00     0.146 C 
ATOM     15  C   UNL     1       4.936  -2.102   1.230  1.00  0.00     0.125 C 
ATOM     16  C   UNL     1       3.121  -3.588   1.005  1.00  0.00     0.247 C 
ATOM     17  C   UNL     1       5.152  -3.377   1.999  1.00  0.00     0.235 C 
ATOM     18  N   UNL     1       4.116  -4.235   1.705  1.00  0.00    -0.250 N 
ATOM     19  O   UNL     1       2.079  -4.064   0.575  1.00  0.00    -0.273 OA
ATOM     20  O   UNL     1       6.147  -3.572   2.682  1.00  0.00    -0.274 OA
BRANCH  18  21
ATOM     21  C   UNL     1       4.019  -5.591   2.119  1.00  0.00     0.052 A 
ATOM     22  C   UNL     1       4.616  -6.034   3.304  1.00  0.00     0.027 A 
ATOM     23  C   UNL     1       3.283  -6.521   1.365  1.00  0.00     0.035 A 
ATOM     24  C   UNL     1       4.441  -7.351   3.746  1.00  0.00     0.011 A 
ATOM     25  C   UNL     1       3.121  -7.853   1.777  1.00  0.00    -0.016 A 
ATOM     26  C   UNL     1       3.696  -8.272   2.994  1.00  0.00    -0.018 A 
ATOM     27  C   UNL     1       2.395  -8.772   1.002  1.00  0.00     0.009 A 
ATOM     28  C   UNL     1       3.507  -9.597   3.419  1.00  0.00     0.009 A 
ATOM     29  C   UNL     1       2.228 -10.089   1.430  1.00  0.00     0.001 A 
ATOM     30  C   UNL     1       2.779 -10.499   2.640  1.00  0.00     0.001 A 
ENDBRANCH  18  21
ENDBRANCH  13  14
ENDBRANCH  12  13
ENDBRANCH   7  12
ENDBRANCH   4   7
ENDBRANCH   2   3
ENDBRANCH   1   2
BRANCH   1  31
ATOM     31  C   UNL     1      -2.904   2.522   1.961  1.00  0.00     0.023 C 
BRANCH  31  32
ATOM     32  C   UNL     1      -3.533   2.143   3.298  1.00  0.00     0.116 C 
BRANCH  32  33
ATOM     33  N   UNL     1      -2.843   2.744   4.429  1.00  0.00    -0.352 N 
ATOM     34  C   UNL     1      -3.384   3.409   5.504  1.00  0.00     0.251 C 
ATOM     35  H   UNL     1      -1.862   2.663   4.426  1.00  0.00     0.163 HD
ATOM     36  O   UNL     1      -2.658   3.994   6.302  1.00  0.00    -0.269 OA
BRANCH  34  37
ATOM     37  C   UNL     1      -4.851   3.433   5.663  1.00  0.00     0.039 A 
ATOM     38  C   UNL     1      -5.495   4.659   5.840  1.00  0.00     0.014 A 
ATOM     39  C   UNL     1      -5.587   2.247   5.583  1.00  0.00     0.014 A 
ATOM     40  C   UNL     1      -6.891   4.703   5.870  1.00  0.00     0.010 A 
ATOM     41  C   UNL     1      -6.976   2.302   5.544  1.00  0.00     0.010 A 
ATOM     42  C   UNL     1      -7.641   3.529   5.686  1.00  0.00    -0.014 A 
BRANCH  42  43
ATOM     43  C   UNL     1      -9.124   3.563   5.637  1.00  0.00     0.031 A 
ATOM     44  C   UNL     1      -9.927   2.859   6.696  1.00  0.00     0.074 A 
ATOM     45  C   UNL     1      -9.745   4.164   4.603  1.00  0.00     0.049 A 
ATOM     46  N   UNL     1     -11.224   2.717   6.788  1.00  0.00    -0.248 NA
ATOM     47  C   UNL     1      -9.172   2.206   7.778  1.00  0.00     0.031 C 
ATOM     48  C   UNL     1      -9.076   4.839   3.487  1.00  0.00     0.029 A 
ATOM     49  N   UNL     1     -11.080   4.296   4.317  1.00  0.00    -0.354 N 
ATOM     50  C   UNL     1     -11.439   1.946   7.923  1.00  0.00     0.074 A 
ATOM     51  C   UNL     1     -10.139   1.609   8.459  1.00  0.00     0.031 C 
ATOM     52  C   UNL     1     -10.005   5.331   2.651  1.00  0.00     0.029 A 
ATOM     53  C   UNL     1     -11.330   4.978   3.149  1.00  0.00     0.049 A 
ATOM     54  H   UNL     1     -11.792   3.936   4.893  1.00  0.00     0.167 HD
ATOM     55  C   UNL     1     -12.614   1.569   8.483  1.00  0.00     0.031 A 
ATOM     56  C   UNL     1     -12.495   5.280   2.544  1.00  0.00     0.031 A 
ATOM     57  C   UNL     1     -13.906   1.916   7.956  1.00  0.00     0.049 A 
ATOM     58  C   UNL     1     -13.787   4.860   3.188  1.00  0.00     0.074 A 
ATOM     59  C   UNL     1     -15.154   1.626   8.477  1.00  0.00     0.029 A 
ATOM     60  N   UNL     1     -14.116   2.631   6.786  1.00  0.00    -0.354 N 
ATOM     61  N   UNL     1     -13.971   4.184   4.297  1.00  0.00    -0.248 NA
ATOM     62  C   UNL     1     -15.027   5.255   2.507  1.00  0.00     0.031 C 
ATOM     63  C   UNL     1     -16.121   2.133   7.601  1.00  0.00     0.029 A 
ATOM     64  C   UNL     1     -15.473   2.780   6.561  1.00  0.00     0.049 A 
ATOM     65  H   UNL     1     -13.404   2.981   6.203  1.00  0.00     0.167 HD
ATOM     66  C   UNL     1     -15.349   4.092   4.459  1.00  0.00     0.074 A 
ATOM     67  C   UNL     1     -15.949   4.794   3.343  1.00  0.00     0.031 C 
ATOM     68  C   UNL     1     -16.053   3.482   5.444  1.00  0.00     0.031 A 
BRANCH  55  69
ATOM     69  C   UNL     1     -12.545   0.737   9.736  1.00  0.00    -0.014 A 
ATOM     70  C   UNL     1     -12.108   1.294  10.952  1.00  0.00     0.010 A 
ATOM     71  C   UNL     1     -12.939  -0.613   9.704  1.00  0.00     0.010 A 
ATOM     72  C   UNL     1     -12.020   0.505  12.101  1.00  0.00     0.020 A 
ATOM     73  C   UNL     1     -12.879  -1.399  10.859  1.00  0.00     0.020 A 
ATOM     74  C   UNL     1     -12.400  -0.839  12.046  1.00  0.00     0.054 A 
BRANCH  74  75
ATOM     75  S   UNL     1     -12.284  -1.838  13.555  1.00  0.00     0.124 S 
ATOM     76  O   UNL     1     -10.844  -2.063  13.656  1.00  0.00    -0.237 OA
ATOM     77  O   UNL     1     -12.854  -0.956  14.570  1.00  0.00    -0.237 OA
ATOM     78  O   UNL     1     -13.080  -3.024  13.247  1.00  0.00    -0.744 OA
ENDBRANCH  74  75
ENDBRANCH  55  69
BRANCH  56  79
ATOM     79  C   UNL     1     -12.489   6.041   1.265  1.00  0.00    -0.014 A 
ATOM     80  C   UNL     1     -12.890   7.388   1.235  1.00  0.00     0.010 A 
ATOM     81  C   UNL     1     -12.058   5.428   0.074  1.00  0.00     0.010 A 
ATOM     82  C   UNL     1     -12.875   8.105   0.036  1.00  0.00     0.020 A 
ATOM     83  C   UNL     1     -12.018   6.149  -1.123  1.00  0.00     0.020 A 
ATOM     84  C   UNL     1     -12.437   7.481  -1.136  1.00  0.00     0.054 A 
BRANCH  84  85
ATOM     85  S   UNL     1     -12.366   8.449  -2.670  1.00  0.00     0.124 S 
ATOM     86  O   UNL     1     -13.773   8.521  -3.049  1.00  0.00    -0.237 OA
ATOM     87  O   UNL     1     -11.765   9.704  -2.225  1.00  0.00    -0.237 OA
ATOM     88  O   UNL     1     -11.520   7.639  -3.544  1.00  0.00    -0.744 OA
ENDBRANCH  84  85
ENDBRANCH  56  79
BRANCH  68  89
ATOM     89  C   UNL     1     -17.554   3.571   5.378  1.00  0.00    -0.014 A 
ATOM     90  C   UNL     1     -18.286   2.818   4.443  1.00  0.00     0.010 A 
ATOM     91  C   UNL     1     -18.242   4.377   6.303  1.00  0.00     0.010 A 
ATOM     92  C   UNL     1     -19.681   2.892   4.418  1.00  0.00     0.020 A 
ATOM     93  C   UNL     1     -19.637   4.434   6.296  1.00  0.00     0.020 A 
ATOM     94  C   UNL     1     -20.348   3.701   5.344  1.00  0.00     0.054 A 
BRANCH  94  95
ATOM     95  S   UNL     1     -22.161   3.745   5.322  1.00  0.00     0.124 S 
ATOM     96  O   UNL     1     -22.430   4.583   4.157  1.00  0.00    -0.237 OA
ATOM     97  O   UNL     1     -22.516   2.335   5.177  1.00  0.00    -0.237 OA
ATOM     98  O   UNL     1     -22.509   4.338   6.611  1.00  0.00    -0.744 OA
ENDBRANCH  94  95
ENDBRANCH  68  89
ENDBRANCH  42  43
ENDBRANCH  34  37
ENDBRANCH  32  33
ENDBRANCH  31  32
ENDBRANCH   1  31
TORSDOF 19
