REMARK SMILES CC1(C)CCC[C@@H]1[NH2+]Cc1cc(C(=O)NCCCCNC(=O)c2ccc(-c3c4nc(c(-c5ccc(S(=O)(=O)[O-])cc5)c5ccc([nH]5)c(-c5ccc(S(=O)(=O)[O-])cc5)c5nc(c(-c6ccc(S(=O)(=O)[O-])cc6)c6ccc3[nH]6)C=C5)C=C4)cc2)cs1
REMARK SMILES IDX 17 1 16 2 15 3 13 4 14 5 12 7 10 8 11 9 84 10 83 11 9 12
REMARK SMILES IDX 8 13 7 16 1 17 2 18 3 19 4 20 5 21 6 22 18 23 19 24 20 25
REMARK SMILES IDX 21 26 22 28 23 29 24 30 82 31 25 32 81 33 26 34 27 35 28 36
REMARK SMILES IDX 75 37 29 38 80 39 74 40 76 41 30 42 79 43 73 44 72 45 31 47
REMARK SMILES IDX 61 48 42 49 60 50 43 51 46 52 59 53 77 54 44 55 45 56 58 58
REMARK SMILES IDX 78 59 47 60 32 61 33 62 41 63 34 64 40 65 35 66 36 67 37 68
REMARK SMILES IDX 38 69 39 70 62 71 63 72 71 73 64 74 70 75 65 76 66 77 67 78
REMARK SMILES IDX 68 79 69 80 48 81 49 82 57 83 50 84 56 85 51 86 52 87 53 88
REMARK SMILES IDX 54 89 55 90
REMARK H PARENT 15 6 8 14 8 15 20 27 76 46 46 57
REMARK Flexibility Score: inf
ROOT
ATOM      1  C   UNL     1      -0.821   7.007  -0.029  1.00  0.00     0.023 C 
ENDROOT
BRANCH   1   2
ATOM      2  C   UNL     1      -1.103   6.677  -1.496  1.00  0.00     0.116 C 
BRANCH   2   3
ATOM      3  N   UNL     1      -0.237   7.435  -2.378  1.00  0.00    -0.352 N 
ATOM      4  C   UNL     1       0.943   7.094  -2.988  1.00  0.00     0.252 C 
ATOM      5  O   UNL     1       1.431   7.907  -3.779  1.00  0.00    -0.269 OA
ATOM      6  H   UNL     1      -0.549   8.349  -2.571  1.00  0.00     0.163 HD
BRANCH   4   7
ATOM      7  C   UNL     1       1.565   5.789  -2.759  1.00  0.00     0.051 A 
ATOM      8  C   UNL     1       2.017   3.663  -1.847  1.00  0.00     0.059 A 
ATOM      9  C   UNL     1       1.471   4.913  -1.629  1.00  0.00     0.035 A 
ATOM     10  S   UNL     1       2.908   3.637  -3.303  1.00  0.00    -0.142 S 
ATOM     11  C   UNL     1       2.422   5.230  -3.694  1.00  0.00     0.079 A 
BRANCH   8  12
ATOM     12  C   UNL     1       1.879   2.440  -0.980  1.00  0.00     0.308 C 
BRANCH  12  13
ATOM     13  N   UNL     1       0.461   2.118  -0.847  1.00  0.00    -0.339 N 
ATOM     14  H   UNL     1      -0.014   2.959  -0.520  1.00  0.00     0.346 HD
ATOM     15  H   UNL     1       0.181   1.792  -1.772  1.00  0.00     0.346 HD
BRANCH  13  16
ATOM     16  C   UNL     1       0.100   1.032   0.057  1.00  0.00     0.188 C 
ATOM     17  C   UNL     1       2.097  -0.441   0.723  1.00  0.00     0.017 C 
ATOM     18  C   UNL     1       0.778  -0.360  -0.057  1.00  0.00     0.017 C 
ATOM     19  C   UNL     1       0.997  -0.821  -1.511  1.00  0.00     0.017 C 
ATOM     20  C   UNL     1      -0.278  -1.256   0.625  1.00  0.00     0.013 C 
ATOM     21  C   UNL     1      -1.607  -0.751   0.091  1.00  0.00     0.007 C 
ATOM     22  C   UNL     1      -1.411   0.748  -0.121  1.00  0.00     0.065 C 
ENDBRANCH  13  16
ENDBRANCH  12  13
ENDBRANCH   8  12
ENDBRANCH   4   7
ENDBRANCH   2   3
ENDBRANCH   1   2
BRANCH   1  23
ATOM     23  C   UNL     1      -1.433   8.326   0.444  1.00  0.00     0.023 C 
BRANCH  23  24
ATOM     24  C   UNL     1      -2.954   8.380   0.383  1.00  0.00     0.116 C 
BRANCH  24  25
ATOM     25  N   UNL     1      -3.601   7.341   1.172  1.00  0.00    -0.352 N 
ATOM     26  C   UNL     1      -4.792   7.419   1.855  1.00  0.00     0.251 C 
ATOM     27  H   UNL     1      -3.129   6.479   1.222  1.00  0.00     0.163 HD
ATOM     28  O   UNL     1      -5.158   6.497   2.575  1.00  0.00    -0.269 OA
BRANCH  26  29
ATOM     29  C   UNL     1      -5.597   8.652   1.738  1.00  0.00     0.039 A 
ATOM     30  C   UNL     1      -6.011   9.303   2.901  1.00  0.00     0.014 A 
ATOM     31  C   UNL     1      -5.874   9.196   0.481  1.00  0.00     0.014 A 
ATOM     32  C   UNL     1      -6.647  10.542   2.802  1.00  0.00     0.010 A 
ATOM     33  C   UNL     1      -6.434  10.464   0.390  1.00  0.00     0.010 A 
ATOM     34  C   UNL     1      -6.828  11.151   1.548  1.00  0.00    -0.014 A 
BRANCH  34  35
ATOM     35  C   UNL     1      -7.426  12.504   1.427  1.00  0.00     0.031 A 
ATOM     36  C   UNL     1      -8.725  12.688   0.690  1.00  0.00     0.074 A 
ATOM     37  C   UNL     1      -6.771  13.573   1.923  1.00  0.00     0.049 A 
ATOM     38  N   UNL     1      -9.375  13.793   0.430  1.00  0.00    -0.248 NA
ATOM     39  C   UNL     1      -9.364  11.475   0.152  1.00  0.00     0.031 C 
ATOM     40  C   UNL     1      -5.483  13.531   2.620  1.00  0.00     0.029 A 
ATOM     41  N   UNL     1      -7.096  14.907   1.912  1.00  0.00    -0.354 N 
ATOM     42  C   UNL     1     -10.487  13.411  -0.312  1.00  0.00     0.074 A 
ATOM     43  C   UNL     1     -10.394  11.982  -0.509  1.00  0.00     0.031 C 
ATOM     44  C   UNL     1      -5.144  14.775   2.996  1.00  0.00     0.029 A 
ATOM     45  C   UNL     1      -6.164  15.708   2.530  1.00  0.00     0.049 A 
ATOM     46  H   UNL     1      -7.919  15.257   1.501  1.00  0.00     0.167 HD
ATOM     47  C   UNL     1     -11.506  14.177  -0.769  1.00  0.00     0.031 A 
ATOM     48  C   UNL     1      -6.130  17.045   2.697  1.00  0.00     0.031 A 
ATOM     49  C   UNL     1     -11.599  15.598  -0.561  1.00  0.00     0.049 A 
ATOM     50  C   UNL     1      -7.267  17.877   2.166  1.00  0.00     0.074 A 
ATOM     51  C   UNL     1     -12.618  16.455  -0.937  1.00  0.00     0.029 A 
ATOM     52  N   UNL     1     -10.639  16.370   0.075  1.00  0.00    -0.354 N 
ATOM     53  N   UNL     1      -8.345  17.488   1.527  1.00  0.00    -0.248 NA
ATOM     54  C   UNL     1      -7.189  19.327   2.389  1.00  0.00     0.031 C 
ATOM     55  C   UNL     1     -12.248  17.755  -0.579  1.00  0.00     0.029 A 
ATOM     56  C   UNL     1     -11.030  17.698   0.080  1.00  0.00     0.049 A 
ATOM     57  H   UNL     1      -9.804  16.025   0.465  1.00  0.00     0.167 HD
ATOM     58  C   UNL     1      -9.087  18.642   1.300  1.00  0.00     0.074 A 
ATOM     59  C   UNL     1      -8.343  19.739   1.883  1.00  0.00     0.031 C 
ATOM     60  C   UNL     1     -10.279  18.780   0.667  1.00  0.00     0.031 A 
BRANCH  47  61
ATOM     61  C   UNL     1     -12.602  13.491  -1.542  1.00  0.00    -0.014 A 
ATOM     62  C   UNL     1     -13.492  12.603  -0.909  1.00  0.00     0.010 A 
ATOM     63  C   UNL     1     -12.774  13.771  -2.909  1.00  0.00     0.010 A 
ATOM     64  C   UNL     1     -14.507  11.978  -1.638  1.00  0.00     0.020 A 
ATOM     65  C   UNL     1     -13.808  13.171  -3.635  1.00  0.00     0.020 A 
ATOM     66  C   UNL     1     -14.658  12.266  -2.997  1.00  0.00     0.054 A 
BRANCH  66  67
ATOM     67  S   UNL     1     -16.002  11.461  -3.910  1.00  0.00     0.124 S 
ATOM     68  O   UNL     1     -15.525  10.083  -3.996  1.00  0.00    -0.237 OA
ATOM     69  O   UNL     1     -17.153  11.673  -3.035  1.00  0.00    -0.237 OA
ATOM     70  O   UNL     1     -16.045  12.185  -5.178  1.00  0.00    -0.744 OA
ENDBRANCH  66  67
ENDBRANCH  47  61
BRANCH  48  71
ATOM     71  C   UNL     1      -4.987  17.681   3.408  1.00  0.00    -0.014 A 
ATOM     72  C   UNL     1      -5.168  18.269   4.673  1.00  0.00     0.010 A 
ATOM     73  C   UNL     1      -3.706  17.701   2.825  1.00  0.00     0.010 A 
ATOM     74  C   UNL     1      -4.098  18.886   5.329  1.00  0.00     0.020 A 
ATOM     75  C   UNL     1      -2.627  18.289   3.491  1.00  0.00     0.020 A 
ATOM     76  C   UNL     1      -2.833  18.890   4.734  1.00  0.00     0.054 A 
BRANCH  76  77
ATOM     77  S   UNL     1      -1.451  19.658   5.623  1.00  0.00     0.124 S 
ATOM     78  O   UNL     1      -1.765  21.078   5.503  1.00  0.00    -0.237 OA
ATOM     79  O   UNL     1      -1.585  19.091   6.963  1.00  0.00    -0.237 OA
ATOM     80  O   UNL     1      -0.276  19.210   4.880  1.00  0.00    -0.744 OA
ENDBRANCH  76  77
ENDBRANCH  48  71
BRANCH  60  81
ATOM     81  C   UNL     1     -10.877  20.160   0.604  1.00  0.00    -0.014 A 
ATOM     82  C   UNL     1     -10.327  21.161  -0.216  1.00  0.00     0.010 A 
ATOM     83  C   UNL     1     -12.046  20.440   1.336  1.00  0.00     0.010 A 
ATOM     84  C   UNL     1     -10.917  22.426  -0.278  1.00  0.00     0.020 A 
ATOM     85  C   UNL     1     -12.657  21.693   1.252  1.00  0.00     0.020 A 
ATOM     86  C   UNL     1     -12.080  22.684   0.456  1.00  0.00     0.054 A 
BRANCH  86  87
ATOM     87  S   UNL     1     -12.852  24.319   0.321  1.00  0.00     0.124 S 
ATOM     88  O   UNL     1     -11.921  25.157   1.071  1.00  0.00    -0.237 OA
ATOM     89  O   UNL     1     -12.877  24.543  -1.122  1.00  0.00    -0.237 OA
ATOM     90  O   UNL     1     -14.163  24.136   0.940  1.00  0.00    -0.744 OA
ENDBRANCH  86  87
ENDBRANCH  60  81
ENDBRANCH  34  35
ENDBRANCH  26  29
ENDBRANCH  24  25
ENDBRANCH  23  24
ENDBRANCH   1  23
TORSDOF 17
