REMARK SMILES O=C(NCCCCNC(=O)[C@H](CO)NC(=O)[C@H](Cc1c[nH]c2ccccc12)NC(=O)[C@H](Cc1ccc(O)cc1)NC(=O)c1ccc(F)cc1)c1ccc(-c2c3nc(c(-c4ccc(S(=O)(=O)[O-])cc4)c4ccc([nH]4)c(-c4ccc(S(=O)(=O)[O-])cc4)c4nc(c(-c5ccc(S(=O)(=O)[O-])cc5)c5ccc2[nH]5)C=C4)C=C3)cc1
REMARK SMILES IDX 8 1 9 2 10 3 7 5 6 6 5 7 4 8 3 9 1 10 2 11 50 13 51 14
REMARK SMILES IDX 109 15 52 16 108 17 53 18 54 19 55 20 102 21 56 22 107 23
REMARK SMILES IDX 101 24 103 25 57 26 106 27 100 28 99 29 58 31 88 32 69 33
REMARK SMILES IDX 87 34 70 35 73 36 86 37 104 38 71 39 72 40 85 42 105 43
REMARK SMILES IDX 74 44 59 45 60 46 68 47 61 48 67 49 62 50 63 51 64 52 65 53
REMARK SMILES IDX 66 54 89 55 90 56 98 57 91 58 97 59 92 60 93 61 94 62 95 63
REMARK SMILES IDX 96 64 75 65 76 66 84 67 77 68 83 69 78 70 79 71 80 72 81 73
REMARK SMILES IDX 82 74 11 75 14 76 15 77 16 79 17 80 28 81 29 82 30 84 31 85
REMARK SMILES IDX 40 86 41 87 42 89 43 90 44 91 49 92 45 93 48 94 46 95 47 96
REMARK SMILES IDX 32 97 33 98 34 99 39 100 35 101 38 102 36 103 37 104 18 106
REMARK SMILES IDX 19 107 20 108 27 109 21 110 22 111 26 112 23 114 25 115
REMARK SMILES IDX 24 116 12 117 13 118
REMARK H PARENT 8 4 3 12 103 30 73 41 14 78 28 83 40 88 37 105 21 113 13 119
REMARK Flexibility Score: inf
ROOT
ATOM      1  N   UNL     1       6.375  -7.075   0.407  1.00  0.00    -0.354 N 
ATOM      2  C   UNL     1       7.138  -8.126   0.001  1.00  0.00     0.244 C 
ATOM      3  O   UNL     1       7.229  -9.090   0.768  1.00  0.00    -0.273 OA
ATOM      4  H   UNL     1       5.534  -7.302   0.866  1.00  0.00     0.163 HD
ENDROOT
BRANCH   1   5
ATOM      5  C   UNL     1       6.652  -5.663   0.244  1.00  0.00     0.116 C 
BRANCH   5   6
ATOM      6  C   UNL     1       5.398  -4.818   0.062  1.00  0.00     0.023 C 
BRANCH   6   7
ATOM      7  C   UNL     1       4.380  -4.892   1.198  1.00  0.00     0.023 C 
BRANCH   7   8
ATOM      8  C   UNL     1       4.953  -4.813   2.607  1.00  0.00     0.116 C 
BRANCH   8   9
ATOM      9  N   UNL     1       5.774  -3.633   2.830  1.00  0.00    -0.352 N 
ATOM     10  O   UNL     1       6.387  -1.671   3.749  1.00  0.00    -0.269 OA
ATOM     11  C   UNL     1       5.657  -2.647   3.783  1.00  0.00     0.251 C 
ATOM     12  H   UNL     1       6.528  -3.524   2.206  1.00  0.00     0.163 HD
BRANCH  11  13
ATOM     13  C   UNL     1       4.613  -2.768   4.822  1.00  0.00     0.039 A 
ATOM     14  C   UNL     1       4.436  -3.967   5.516  1.00  0.00     0.014 A 
ATOM     15  C   UNL     1       3.788  -1.672   5.082  1.00  0.00     0.014 A 
ATOM     16  C   UNL     1       3.336  -4.120   6.349  1.00  0.00     0.010 A 
ATOM     17  C   UNL     1       2.736  -1.800   5.992  1.00  0.00     0.010 A 
ATOM     18  C   UNL     1       2.480  -3.035   6.605  1.00  0.00    -0.014 A 
BRANCH  18  19
ATOM     19  C   UNL     1       1.363  -3.207   7.565  1.00  0.00     0.031 A 
ATOM     20  C   UNL     1      -0.070  -3.104   7.122  1.00  0.00     0.074 A 
ATOM     21  C   UNL     1       1.660  -3.492   8.848  1.00  0.00     0.049 A 
ATOM     22  N   UNL     1      -1.160  -3.251   7.833  1.00  0.00    -0.248 NA
ATOM     23  C   UNL     1      -0.317  -2.789   5.706  1.00  0.00     0.031 C 
ATOM     24  C   UNL     1       3.017  -3.612   9.391  1.00  0.00     0.029 A 
ATOM     25  N   UNL     1       0.850  -3.756   9.921  1.00  0.00    -0.354 N 
ATOM     26  C   UNL     1      -2.219  -3.024   6.961  1.00  0.00     0.074 A 
ATOM     27  C   UNL     1      -1.641  -2.711   5.671  1.00  0.00     0.031 C 
ATOM     28  C   UNL     1       2.945  -3.982  10.677  1.00  0.00     0.029 A 
ATOM     29  C   UNL     1       1.543  -4.058  11.068  1.00  0.00     0.049 A 
ATOM     30  H   UNL     1      -0.133  -3.732   9.874  1.00  0.00     0.167 HD
ATOM     31  C   UNL     1      -3.549  -3.073   7.215  1.00  0.00     0.031 A 
ATOM     32  C   UNL     1       1.104  -4.349  12.306  1.00  0.00     0.031 A 
ATOM     33  C   UNL     1      -4.115  -3.388   8.502  1.00  0.00     0.049 A 
ATOM     34  C   UNL     1      -0.372  -4.377  12.564  1.00  0.00     0.074 A 
ATOM     35  C   UNL     1      -5.450  -3.491   8.854  1.00  0.00     0.029 A 
ATOM     36  N   UNL     1      -3.379  -3.647   9.649  1.00  0.00    -0.354 N 
ATOM     37  N   UNL     1      -1.356  -4.179  11.720  1.00  0.00    -0.248 NA
ATOM     38  C   UNL     1      -0.797  -4.663  13.940  1.00  0.00     0.031 C 
ATOM     39  C   UNL     1      -5.521  -3.767  10.225  1.00  0.00     0.029 A 
ATOM     40  C   UNL     1      -4.230  -3.886  10.716  1.00  0.00     0.049 A 
ATOM     41  H   UNL     1      -2.396  -3.660   9.698  1.00  0.00     0.167 HD
ATOM     42  C   UNL     1      -2.521  -4.322  12.463  1.00  0.00     0.074 A 
ATOM     43  C   UNL     1      -2.117  -4.647  13.817  1.00  0.00     0.031 C 
ATOM     44  C   UNL     1      -3.809  -4.191  12.059  1.00  0.00     0.031 A 
BRANCH  31  45
ATOM     45  C   UNL     1      -4.488  -2.746   6.083  1.00  0.00    -0.014 A 
ATOM     46  C   UNL     1      -4.687  -3.640   5.016  1.00  0.00     0.010 A 
ATOM     47  C   UNL     1      -5.212  -1.540   6.106  1.00  0.00     0.010 A 
ATOM     48  C   UNL     1      -5.561  -3.316   3.973  1.00  0.00     0.020 A 
ATOM     49  C   UNL     1      -6.104  -1.222   5.078  1.00  0.00     0.020 A 
ATOM     50  C   UNL     1      -6.259  -2.105   4.008  1.00  0.00     0.054 A 
BRANCH  50  51
ATOM     51  S   UNL     1      -7.394  -1.711   2.648  1.00  0.00     0.124 S 
ATOM     52  O   UNL     1      -6.467  -1.347   1.579  1.00  0.00    -0.237 OA
ATOM     53  O   UNL     1      -8.113  -2.968   2.453  1.00  0.00    -0.237 OA
ATOM     54  O   UNL     1      -8.200  -0.613   3.175  1.00  0.00    -0.744 OA
ENDBRANCH  50  51
ENDBRANCH  31  45
BRANCH  32  55
ATOM     55  C   UNL     1       2.090  -4.621  13.385  1.00  0.00    -0.014 A 
ATOM     56  C   UNL     1       2.267  -5.924  13.879  1.00  0.00     0.010 A 
ATOM     57  C   UNL     1       2.899  -3.581  13.880  1.00  0.00     0.010 A 
ATOM     58  C   UNL     1       3.237  -6.183  14.851  1.00  0.00     0.020 A 
ATOM     59  C   UNL     1       3.887  -3.841  14.832  1.00  0.00     0.020 A 
ATOM     60  C   UNL     1       4.045  -5.141  15.318  1.00  0.00     0.054 A 
BRANCH  60  61
ATOM     61  S   UNL     1       5.351  -5.512  16.521  1.00  0.00     0.124 S 
ATOM     62  O   UNL     1       4.592  -5.644  17.760  1.00  0.00    -0.237 OA
ATOM     63  O   UNL     1       5.926  -6.748  15.994  1.00  0.00    -0.237 OA
ATOM     64  O   UNL     1       6.227  -4.345  16.442  1.00  0.00    -0.744 OA
ENDBRANCH  60  61
ENDBRANCH  32  55
BRANCH  44  65
ATOM     65  C   UNL     1      -4.872  -4.412  13.099  1.00  0.00    -0.014 A 
ATOM     66  C   UNL     1      -5.122  -3.450  14.093  1.00  0.00     0.010 A 
ATOM     67  C   UNL     1      -5.650  -5.583  13.062  1.00  0.00     0.010 A 
ATOM     68  C   UNL     1      -6.112  -3.671  15.054  1.00  0.00     0.020 A 
ATOM     69  C   UNL     1      -6.656  -5.796  14.007  1.00  0.00     0.020 A 
ATOM     70  C   UNL     1      -6.871  -4.845  15.006  1.00  0.00     0.054 A 
BRANCH  70  71
ATOM     71  S   UNL     1      -8.174  -5.095  16.243  1.00  0.00     0.124 S 
ATOM     72  O   UNL     1      -7.402  -5.473  17.424  1.00  0.00    -0.237 OA
ATOM     73  O   UNL     1      -8.816  -3.785  16.305  1.00  0.00    -0.237 OA
ATOM     74  O   UNL     1      -8.995  -6.158  15.668  1.00  0.00    -0.744 OA
ENDBRANCH  70  71
ENDBRANCH  44  65
ENDBRANCH  18  19
ENDBRANCH  11  13
ENDBRANCH   8   9
ENDBRANCH   7   8
ENDBRANCH   6   7
ENDBRANCH   5   6
ENDBRANCH   1   5
BRANCH   2  75
ATOM     75  C   UNL     1       7.947  -8.109  -1.314  1.00  0.00     0.197 C 
BRANCH  75  76
ATOM     76  N   UNL     1       7.308  -7.372  -2.416  1.00  0.00    -0.340 N 
ATOM     77  C   UNL     1       6.692  -7.809  -3.554  1.00  0.00     0.243 C 
ATOM     78  H   UNL     1       7.327  -6.393  -2.314  1.00  0.00     0.164 HD
ATOM     79  O   UNL     1       5.917  -7.015  -4.090  1.00  0.00    -0.273 OA
BRANCH  77  80
ATOM     80  C   UNL     1       6.898  -9.246  -4.079  1.00  0.00     0.175 C 
BRANCH  80  81
ATOM     81  N   UNL     1       5.631  -9.981  -4.007  1.00  0.00    -0.342 N 
ATOM     82  C   UNL     1       5.278 -11.222  -3.578  1.00  0.00     0.243 C 
ATOM     83  H   UNL     1       4.867  -9.461  -4.345  1.00  0.00     0.164 HD
ATOM     84  O   UNL     1       4.197 -11.661  -3.987  1.00  0.00    -0.273 OA
BRANCH  82  85
ATOM     85  C   UNL     1       6.049 -12.003  -2.488  1.00  0.00     0.176 C 
BRANCH  85  86
ATOM     86  N   UNL     1       7.489 -12.105  -2.781  1.00  0.00    -0.340 N 
ATOM     87  C   UNL     1       8.300 -13.147  -3.118  1.00  0.00     0.251 C 
ATOM     88  H   UNL     1       7.962 -11.244  -2.723  1.00  0.00     0.164 HD
ATOM     89  O   UNL     1       9.478 -12.913  -3.377  1.00  0.00    -0.269 OA
BRANCH  87  90
ATOM     90  C   UNL     1       7.834 -14.539  -3.027  1.00  0.00     0.040 A 
ATOM     91  C   UNL     1       6.674 -14.996  -3.657  1.00  0.00     0.017 A 
ATOM     92  C   UNL     1       8.619 -15.414  -2.260  1.00  0.00     0.017 A 
ATOM     93  C   UNL     1       6.260 -16.314  -3.452  1.00  0.00     0.040 A 
ATOM     94  C   UNL     1       8.207 -16.730  -2.069  1.00  0.00     0.040 A 
ATOM     95  C   UNL     1       7.024 -17.163  -2.654  1.00  0.00     0.123 A 
ATOM     96  F   UNL     1       6.613 -18.421  -2.449  1.00  0.00    -0.207 F 
ENDBRANCH  87  90
ENDBRANCH  85  86
BRANCH  85  97
ATOM     97  C   UNL     1       5.836 -11.430  -1.075  1.00  0.00     0.070 C 
BRANCH  97  98
ATOM     98  C   UNL     1       4.477 -10.870  -0.728  1.00  0.00    -0.045 A 
ATOM     99  C   UNL     1       3.545 -11.622  -0.003  1.00  0.00     0.007 A 
ATOM    100  C   UNL     1       4.137  -9.556  -1.093  1.00  0.00     0.007 A 
ATOM    101  C   UNL     1       2.308 -11.070   0.354  1.00  0.00     0.046 A 
ATOM    102  C   UNL     1       2.902  -9.009  -0.751  1.00  0.00     0.046 A 
ATOM    103  C   UNL     1       1.999  -9.768  -0.025  1.00  0.00     0.115 A 
BRANCH 103 104
ATOM    104  O   UNL     1       0.813  -9.183   0.304  1.00  0.00    -0.508 OA
ATOM    105  H   UNL     1       0.175  -9.663   0.795  1.00  0.00     0.293 HD
ENDBRANCH 103 104
ENDBRANCH  97  98
ENDBRANCH  85  97
ENDBRANCH  82  85
ENDBRANCH  80  81
BRANCH  80 106
ATOM    106  C   UNL     1       7.473  -9.274  -5.516  1.00  0.00     0.072 C 
BRANCH 106 107
ATOM    107  C   UNL     1       6.667  -8.573  -6.577  1.00  0.00    -0.020 A 
ATOM    108  C   UNL     1       5.401  -8.906  -7.022  1.00  0.00     0.087 A 
ATOM    109  C   UNL     1       7.079  -7.432  -7.347  1.00  0.00     0.003 A 
ATOM    110  N   UNL     1       4.995  -7.962  -7.926  1.00  0.00    -0.361 N 
ATOM    111  C   UNL     1       6.009  -7.066  -8.164  1.00  0.00     0.046 A 
ATOM    112  C   UNL     1       8.263  -6.667  -7.418  1.00  0.00     0.010 A 
ATOM    113  H   UNL     1       4.105  -7.929  -8.345  1.00  0.00     0.166 HD
ATOM    114  C   UNL     1       6.053  -5.966  -9.030  1.00  0.00     0.026 A 
ATOM    115  C   UNL     1       8.331  -5.575  -8.292  1.00  0.00     0.001 A 
ATOM    116  C   UNL     1       7.238  -5.228  -9.080  1.00  0.00     0.002 A 
ENDBRANCH 106 107
ENDBRANCH  80 106
ENDBRANCH  77  80
ENDBRANCH  75  76
BRANCH  75 117
ATOM    117  C   UNL     1       9.397  -7.693  -1.049  1.00  0.00     0.191 C 
BRANCH 117 118
ATOM    118  O   UNL     1       9.550  -6.289  -0.878  1.00  0.00    -0.394 OA
ATOM    119  H   UNL     1       9.280  -5.833  -1.690  1.00  0.00     0.210 HD
ENDBRANCH 117 118
ENDBRANCH  75 117
ENDBRANCH   2  75
TORSDOF 27
