REMARK SMILES C[C@@H](Oc1ccc(/C=C2\C(=O)[NH+]=C(NCCCCNC(=O)c3ccc(-c4c5nc(c(-c6ccc(S(=O)(=O)[O-])cc6)c6ccc([nH]6)c(-c6ccc(S(=O)(=O)[O-])cc6)c6nc(c(-c7ccc(S(=O)(=O)[O-])cc7)c7ccc4[nH]7)C=C6)C=C5)cc3)N(c3ccc4c(c3)OCO4)C2=O)cc1)C(=O)[O-]
REMARK SMILES IDX 16 1 15 2 14 3 8 4 9 5 10 6 92 7 11 8 12 9 82 10 93 11 13 12
REMARK SMILES IDX 7 15 4 16 5 17 95 18 6 19 94 20 3 21 2 22 1 23 96 24 97 25
REMARK SMILES IDX 98 26 83 27 84 28 88 29 85 30 87 31 86 32 89 33 91 34 90 35
REMARK SMILES IDX 17 36 18 37 19 38 20 39 21 41 22 42 23 43 81 44 24 45 80 46
REMARK SMILES IDX 25 47 26 48 27 49 74 50 28 51 79 52 73 53 75 54 29 55 78 56
REMARK SMILES IDX 72 57 71 58 30 60 60 61 41 62 59 63 42 64 45 65 58 66 76 67
REMARK SMILES IDX 43 68 44 69 57 71 77 72 46 73 31 74 32 75 40 76 33 77 39 78
REMARK SMILES IDX 34 79 35 80 36 81 37 82 38 83 61 84 62 85 70 86 63 87 69 88
REMARK SMILES IDX 64 89 65 90 66 91 67 92 68 93 47 94 48 95 56 96 49 97 55 98
REMARK SMILES IDX 50 99 51 100 52 101 53 102 54 103
REMARK H PARENT 12 13 14 14 19 40 75 59 45 70
REMARK Flexibility Score: inf
ROOT
ATOM      1  C   UNL     1       8.264   8.270   6.288  1.00  0.00     0.039 C 
ENDROOT
BRANCH   1   2
ATOM      2  C   UNL     1       7.840   8.396   4.828  1.00  0.00     0.197 C 
BRANCH   2   3
ATOM      3  N   UNL     1       8.600   7.483   3.996  1.00  0.00    -0.277 N 
ATOM      4  C   UNL     1       6.317   3.468   1.351  1.00  0.00     0.031 C 
ATOM      5  C   UNL     1       6.994   4.144   2.300  1.00  0.00     0.138 C 
ATOM      6  C   UNL     1       6.477   4.641   3.583  1.00  0.00     0.321 C 
ATOM      7  C   UNL     1       8.417   4.416   2.018  1.00  0.00     0.328 C 
ATOM      8  O   UNL     1       5.644   4.023   4.237  1.00  0.00    -0.250 OA
ATOM      9  N   UNL     1       6.979   5.848   3.972  1.00  0.00    -0.210 N 
ATOM     10  N   UNL     1       8.931   5.506   2.711  1.00  0.00    -0.162 N 
ATOM     11  O   UNL     1       9.046   3.727   1.214  1.00  0.00    -0.249 OA
ATOM     12  C   UNL     1       8.147   6.256   3.579  1.00  0.00     0.366 C 
ATOM     13  H   UNL     1       6.443   6.423   4.564  1.00  0.00     0.270 HD
ATOM     14  H   UNL     1       9.500   7.762   3.712  1.00  0.00     0.260 HD
BRANCH   4  15
ATOM     15  C   UNL     1       4.904   3.074   1.251  1.00  0.00    -0.024 A 
ATOM     16  C   UNL     1       2.239   2.276   0.812  1.00  0.00     0.120 A 
ATOM     17  C   UNL     1       2.518   3.372   1.624  1.00  0.00     0.047 A 
ATOM     18  C   UNL     1       3.280   1.607   0.179  1.00  0.00     0.047 A 
ATOM     19  C   UNL     1       3.842   3.776   1.832  1.00  0.00     0.012 A 
ATOM     20  C   UNL     1       4.601   1.993   0.410  1.00  0.00     0.012 A 
BRANCH  16  21
ATOM     21  O   UNL     1       0.931   1.991   0.546  1.00  0.00    -0.485 OA
BRANCH  21  22
ATOM     22  C   UNL     1       0.502   0.702   1.006  1.00  0.00     0.216 C 
ATOM     23  C   UNL     1       0.709  -0.381  -0.049  1.00  0.00     0.059 C 
BRANCH  22  24
ATOM     24  C   UNL     1      -0.993   0.776   1.298  1.00  0.00     0.082 C 
ATOM     25  O   UNL     1      -1.568   0.241   2.234  1.00  0.00    -0.546 OA
ATOM     26  O   UNL     1      -1.707   1.433   0.359  1.00  0.00    -0.546 OA
ENDBRANCH  22  24
ENDBRANCH  21  22
ENDBRANCH  16  21
ENDBRANCH   4  15
BRANCH  10  27
ATOM     27  C   UNL     1      10.267   5.869   2.397  1.00  0.00     0.115 A 
ATOM     28  C   UNL     1      11.308   5.564   3.301  1.00  0.00     0.048 A 
ATOM     29  C   UNL     1      10.550   6.351   1.112  1.00  0.00     0.094 A 
ATOM     30  C   UNL     1      12.643   5.681   2.897  1.00  0.00     0.054 A 
ATOM     31  C   UNL     1      11.870   6.435   0.744  1.00  0.00     0.169 A 
ATOM     32  C   UNL     1      12.888   6.091   1.603  1.00  0.00     0.166 A 
ATOM     33  O   UNL     1      12.323   6.778  -0.492  1.00  0.00    -0.453 OA
ATOM     34  O   UNL     1      14.105   6.157   0.999  1.00  0.00    -0.454 OA
ATOM     35  C   UNL     1      13.708   6.392  -0.369  1.00  0.00     0.468 C 
ENDBRANCH  10  27
ENDBRANCH   2   3
ENDBRANCH   1   2
BRANCH   1  36
ATOM     36  C   UNL     1       9.725   8.636   6.560  1.00  0.00     0.024 C 
BRANCH  36  37
ATOM     37  C   UNL     1      10.153  10.019   6.079  1.00  0.00     0.116 C 
BRANCH  37  38
ATOM     38  N   UNL     1       9.380  11.095   6.679  1.00  0.00    -0.352 N 
ATOM     39  C   UNL     1       9.821  12.264   7.253  1.00  0.00     0.251 C 
ATOM     40  H   UNL     1       8.404  10.968   6.674  1.00  0.00     0.163 HD
ATOM     41  O   UNL     1       9.027  12.996   7.836  1.00  0.00    -0.269 OA
BRANCH  39  42
ATOM     42  C   UNL     1      11.256  12.619   7.196  1.00  0.00     0.039 A 
ATOM     43  C   UNL     1      11.888  13.059   8.362  1.00  0.00     0.014 A 
ATOM     44  C   UNL     1      11.981  12.505   6.006  1.00  0.00     0.014 A 
ATOM     45  C   UNL     1      13.261  13.316   8.351  1.00  0.00     0.010 A 
ATOM     46  C   UNL     1      13.361  12.689   6.015  1.00  0.00     0.010 A 
ATOM     47  C   UNL     1      14.018  13.094   7.188  1.00  0.00    -0.014 A 
BRANCH  47  48
ATOM     48  C   UNL     1      15.494  13.271   7.183  1.00  0.00     0.031 A 
ATOM     49  C   UNL     1      16.132  14.312   6.302  1.00  0.00     0.074 A 
ATOM     50  C   UNL     1      16.267  12.456   7.930  1.00  0.00     0.049 A 
ATOM     51  N   UNL     1      17.402  14.564   6.111  1.00  0.00    -0.248 NA
ATOM     52  C   UNL     1      15.226  15.165   5.515  1.00  0.00     0.031 C 
ATOM     53  C   UNL     1      15.777  11.380   8.796  1.00  0.00     0.029 A 
ATOM     54  N   UNL     1      17.632  12.398   8.073  1.00  0.00    -0.354 N 
ATOM     55  C   UNL     1      17.447  15.599   5.184  1.00  0.00     0.074 A 
ATOM     56  C   UNL     1      16.081  15.887   4.805  1.00  0.00     0.031 C 
ATOM     57  C   UNL     1      16.822  10.783   9.391  1.00  0.00     0.029 A 
ATOM     58  C   UNL     1      18.057  11.400   8.920  1.00  0.00     0.049 A 
ATOM     59  H   UNL     1      18.248  13.012   7.613  1.00  0.00     0.167 HD
ATOM     60  C   UNL     1      18.525  16.269   4.711  1.00  0.00     0.031 A 
ATOM     61  C   UNL     1      19.301  11.013   9.267  1.00  0.00     0.031 A 
ATOM     62  C   UNL     1      19.884  15.984   5.088  1.00  0.00     0.049 A 
ATOM     63  C   UNL     1      20.484  11.755   8.706  1.00  0.00     0.074 A 
ATOM     64  C   UNL     1      21.042  16.626   4.684  1.00  0.00     0.029 A 
ATOM     65  N   UNL     1      20.270  14.976   5.959  1.00  0.00    -0.354 N 
ATOM     66  N   UNL     1      20.501  12.766   7.871  1.00  0.00    -0.248 NA
ATOM     67  C   UNL     1      21.815  11.314   9.146  1.00  0.00     0.031 C 
ATOM     68  C   UNL     1      22.131  15.975   5.272  1.00  0.00     0.029 A 
ATOM     69  C   UNL     1      21.649  14.968   6.092  1.00  0.00     0.049 A 
ATOM     70  H   UNL     1      19.655  14.357   6.416  1.00  0.00     0.167 HD
ATOM     71  C   UNL     1      21.842  13.099   7.708  1.00  0.00     0.074 A 
ATOM     72  C   UNL     1      22.602  12.195   8.546  1.00  0.00     0.031 C 
ATOM     73  C   UNL     1      22.393  14.066   6.933  1.00  0.00     0.031 A 
BRANCH  60  74
ATOM     74  C   UNL     1      18.276  17.389   3.734  1.00  0.00    -0.014 A 
ATOM     75  C   UNL     1      17.665  18.586   4.150  1.00  0.00     0.010 A 
ATOM     76  C   UNL     1      18.705  17.270   2.399  1.00  0.00     0.010 A 
ATOM     77  C   UNL     1      17.455  19.628   3.244  1.00  0.00     0.020 A 
ATOM     78  C   UNL     1      18.524  18.322   1.496  1.00  0.00     0.020 A 
ATOM     79  C   UNL     1      17.887  19.489   1.922  1.00  0.00     0.054 A 
BRANCH  79  80
ATOM     80  S   UNL     1      17.631  20.873   0.778  1.00  0.00     0.124 S 
ATOM     81  O   UNL     1      16.184  20.838   0.582  1.00  0.00    -0.237 OA
ATOM     82  O   UNL     1      18.134  22.014   1.540  1.00  0.00    -0.237 OA
ATOM     83  O   UNL     1      18.427  20.509  -0.392  1.00  0.00    -0.744 OA
ENDBRANCH  79  80
ENDBRANCH  60  74
BRANCH  61  84
ATOM     84  C   UNL     1      19.493   9.856  10.186  1.00  0.00    -0.014 A 
ATOM     85  C   UNL     1      20.007  10.040  11.482  1.00  0.00     0.010 A 
ATOM     86  C   UNL     1      19.170   8.554   9.760  1.00  0.00     0.010 A 
ATOM     87  C   UNL     1      20.224   8.943  12.322  1.00  0.00     0.020 A 
ATOM     88  C   UNL     1      19.354   7.459  10.608  1.00  0.00     0.020 A 
ATOM     89  C   UNL     1      19.896   7.659  11.879  1.00  0.00     0.054 A 
BRANCH  89  90
ATOM     90  S   UNL     1      20.158   6.252  12.995  1.00  0.00     0.124 S 
ATOM     91  O   UNL     1      21.611   6.118  12.976  1.00  0.00    -0.237 OA
ATOM     92  O   UNL     1      19.581   6.732  14.248  1.00  0.00    -0.237 OA
ATOM     93  O   UNL     1      19.419   5.166  12.353  1.00  0.00    -0.744 OA
ENDBRANCH  89  90
ENDBRANCH  61  84
BRANCH  73  94
ATOM     94  C   UNL     1      23.890  14.227   6.983  1.00  0.00    -0.014 A 
ATOM     95  C   UNL     1      24.749  13.276   6.405  1.00  0.00     0.010 A 
ATOM     96  C   UNL     1      24.443  15.381   7.571  1.00  0.00     0.010 A 
ATOM     97  C   UNL     1      26.134  13.459   6.443  1.00  0.00     0.020 A 
ATOM     98  C   UNL     1      25.825  15.582   7.584  1.00  0.00     0.020 A 
ATOM     99  C   UNL     1      26.663  14.612   7.032  1.00  0.00     0.054 A 
BRANCH  99 100
ATOM    100  S   UNL     1      28.462  14.847   7.028  1.00  0.00     0.124 S 
ATOM    101  O   UNL     1      28.898  13.867   8.019  1.00  0.00    -0.237 OA
ATOM    102  O   UNL     1      28.821  14.544   5.645  1.00  0.00    -0.237 OA
ATOM    103  O   UNL     1      28.630  16.245   7.418  1.00  0.00    -0.744 OA
ENDBRANCH  99 100
ENDBRANCH  73  94
ENDBRANCH  47  48
ENDBRANCH  39  42
ENDBRANCH  37  38
ENDBRANCH  36  37
ENDBRANCH   1  36
TORSDOF 18
