REMARK SMILES NC(=O)c1c(-c2ccc(Cl)cc2)csc1NC(=O)[C@H]1[C@@H](C(=O)NCCCCNC(=O)c2ccc(-c3c4nc(c(-c5ccc(S(=O)(=O)[O-])cc5)c5ccc([nH]5)c(-c5ccc(S(=O)(=O)[O-])cc5)c5nc(c(-c6ccc(S(=O)(=O)[O-])cc6)c6ccc3[nH]6)C=C5)C=C4)cc2)[C@@H]2CC[C@H]1O2
REMARK SMILES IDX 25 1 24 2 23 3 21 4 22 5 20 7 19 8 94 9 91 10 93 11 95 12
REMARK SMILES IDX 92 13 17 14 16 15 18 17 15 18 4 19 5 20 13 21 14 22 2 23
REMARK SMILES IDX 1 24 3 27 6 28 7 29 12 30 8 31 11 32 9 33 10 34 26 35 27 36
REMARK SMILES IDX 28 37 29 38 30 40 31 41 32 42 90 43 33 44 89 45 34 46 35 47
REMARK SMILES IDX 36 48 83 49 37 50 88 51 82 52 84 53 38 54 87 55 81 56 80 57
REMARK SMILES IDX 39 59 69 60 50 61 68 62 51 63 54 64 67 65 85 66 52 67 53 68
REMARK SMILES IDX 66 70 86 71 55 72 40 73 41 74 49 75 42 76 48 77 43 78 44 79
REMARK SMILES IDX 45 80 46 81 47 82 70 83 71 84 79 85 72 86 78 87 73 88 74 89
REMARK SMILES IDX 75 90 76 91 77 92 56 93 57 94 65 95 58 96 64 97 59 98 60 99
REMARK SMILES IDX 61 100 62 101 63 102
REMARK H PARENT 23 6 16 16 1 25 1 26 28 39 84 58 54 69
REMARK Flexibility Score: inf
ROOT
ATOM      1  C   UNL     1       2.961   8.389  -3.674  1.00  0.00     0.023 C 
ENDROOT
BRANCH   1   2
ATOM      2  C   UNL     1       2.184   7.473  -2.746  1.00  0.00     0.116 C 
BRANCH   2   3
ATOM      3  N   UNL     1       2.498   7.582  -1.351  1.00  0.00    -0.356 N 
ATOM      4  C   UNL     1       1.675   7.365  -0.296  1.00  0.00     0.226 C 
ATOM      5  O   UNL     1       2.211   7.334   0.820  1.00  0.00    -0.275 OA
ATOM      6  H   UNL     1       3.421   7.847  -1.133  1.00  0.00     0.163 HD
BRANCH   4   7
ATOM      7  C   UNL     1       0.153   7.310  -0.377  1.00  0.00     0.122 C 
ATOM      8  C   UNL     1      -0.725   6.330  -1.185  1.00  0.00     0.123 C 
ATOM      9  C   UNL     1      -1.865   7.239  -1.566  1.00  0.00     0.132 C 
ATOM     10  C   UNL     1      -0.453   8.675  -0.755  1.00  0.00     0.132 C 
ATOM     11  C   UNL     1      -2.640   7.851  -0.399  1.00  0.00     0.035 C 
ATOM     12  O   UNL     1      -1.115   8.393  -2.010  1.00  0.00    -0.373 OA
ATOM     13  C   UNL     1      -1.697   8.955   0.083  1.00  0.00     0.035 C 
BRANCH   8  14
ATOM     14  C   UNL     1      -0.114   5.452  -2.285  1.00  0.00     0.231 C 
ATOM     15  N   UNL     1      -0.092   5.573  -3.644  1.00  0.00    -0.317 N 
ATOM     16  H   UNL     1       0.356   4.798  -4.054  1.00  0.00     0.170 HD
ATOM     17  O   UNL     1       0.555   4.486  -1.864  1.00  0.00    -0.274 OA
BRANCH  15  18
ATOM     18  C   UNL     1      -0.516   6.470  -4.626  1.00  0.00     0.108 A 
ATOM     19  C   UNL     1       0.066   6.657  -5.887  1.00  0.00     0.082 A 
ATOM     20  C   UNL     1      -0.468   7.848  -6.527  1.00  0.00     0.007 A 
ATOM     21  C   UNL     1      -1.522   8.369  -5.812  1.00  0.00     0.076 A 
ATOM     22  S   UNL     1      -1.979   7.310  -4.576  1.00  0.00    -0.125 S 
BRANCH  19  23
ATOM     23  C   UNL     1       1.110   5.766  -6.368  1.00  0.00     0.252 C 
ATOM     24  N   UNL     1       1.846   6.172  -7.430  1.00  0.00    -0.365 N 
ATOM     25  H   UNL     1       2.561   5.595  -7.783  1.00  0.00     0.159 HD
ATOM     26  H   UNL     1       1.666   7.045  -7.849  1.00  0.00     0.159 HD
ATOM     27  O   UNL     1       1.379   4.715  -5.788  1.00  0.00    -0.269 OA
ENDBRANCH  19  23
BRANCH  20  28
ATOM     28  C   UNL     1      -0.148   8.449  -7.812  1.00  0.00    -0.017 A 
ATOM     29  C   UNL     1       0.401   9.735  -7.896  1.00  0.00     0.010 A 
ATOM     30  C   UNL     1      -0.419   7.728  -8.982  1.00  0.00     0.010 A 
ATOM     31  C   UNL     1       0.667  10.296  -9.149  1.00  0.00     0.021 A 
ATOM     32  C   UNL     1      -0.143   8.286 -10.229  1.00  0.00     0.021 A 
ATOM     33  C   UNL     1       0.390   9.571 -10.308  1.00  0.00     0.041 A 
ATOM     34  Cl  UNL     1       0.698  10.267 -11.850  1.00  0.00    -0.084 Cl
ENDBRANCH  20  28
ENDBRANCH  15  18
ENDBRANCH   8  14
ENDBRANCH   4   7
ENDBRANCH   2   3
ENDBRANCH   1   2
BRANCH   1  35
ATOM     35  C   UNL     1       4.448   8.094  -3.827  1.00  0.00     0.023 C 
BRANCH  35  36
ATOM     36  C   UNL     1       4.843   6.636  -4.053  1.00  0.00     0.116 C 
BRANCH  36  37
ATOM     37  N   UNL     1       4.214   6.009  -5.212  1.00  0.00    -0.352 N 
ATOM     38  C   UNL     1       4.791   5.456  -6.332  1.00  0.00     0.251 C 
ATOM     39  H   UNL     1       3.231   5.977  -5.188  1.00  0.00     0.163 HD
ATOM     40  O   UNL     1       4.133   5.040  -7.281  1.00  0.00    -0.269 OA
BRANCH  38  41
ATOM     41  C   UNL     1       6.242   5.375  -6.426  1.00  0.00     0.039 A 
ATOM     42  C   UNL     1       6.868   5.854  -7.579  1.00  0.00     0.014 A 
ATOM     43  C   UNL     1       6.960   4.824  -5.368  1.00  0.00     0.014 A 
ATOM     44  C   UNL     1       8.252   5.849  -7.636  1.00  0.00     0.010 A 
ATOM     45  C   UNL     1       8.335   4.918  -5.382  1.00  0.00     0.010 A 
ATOM     46  C   UNL     1       8.985   5.423  -6.519  1.00  0.00    -0.014 A 
BRANCH  46  47
ATOM     47  C   UNL     1      10.455   5.477  -6.508  1.00  0.00     0.031 A 
ATOM     48  C   UNL     1      11.224   4.198  -6.381  1.00  0.00     0.074 A 
ATOM     49  C   UNL     1      11.057   6.680  -6.508  1.00  0.00     0.049 A 
ATOM     50  N   UNL     1      12.506   4.026  -6.214  1.00  0.00    -0.248 NA
ATOM     51  C   UNL     1      10.443   2.946  -6.400  1.00  0.00     0.031 C 
ATOM     52  C   UNL     1      10.370   7.974  -6.581  1.00  0.00     0.029 A 
ATOM     53  N   UNL     1      12.381   7.012  -6.429  1.00  0.00    -0.354 N 
ATOM     54  C   UNL     1      12.681   2.656  -6.076  1.00  0.00     0.074 A 
ATOM     55  C   UNL     1      11.373   2.045  -6.124  1.00  0.00     0.031 C 
ATOM     56  C   UNL     1      11.283   8.958  -6.570  1.00  0.00     0.029 A 
ATOM     57  C   UNL     1      12.608   8.367  -6.435  1.00  0.00     0.049 A 
ATOM     58  H   UNL     1      13.102   6.344  -6.373  1.00  0.00     0.167 HD
ATOM     59  C   UNL     1      13.839   1.973  -5.938  1.00  0.00     0.031 A 
ATOM     60  C   UNL     1      13.761   9.050  -6.326  1.00  0.00     0.031 A 
ATOM     61  C   UNL     1      15.126   2.611  -5.911  1.00  0.00     0.049 A 
ATOM     62  C   UNL     1      15.036   8.265  -6.190  1.00  0.00     0.074 A 
ATOM     63  C   UNL     1      16.376   2.027  -5.840  1.00  0.00     0.029 A 
ATOM     64  N   UNL     1      15.324   3.985  -5.957  1.00  0.00    -0.354 N 
ATOM     65  N   UNL     1      15.196   6.964  -6.124  1.00  0.00    -0.248 NA
ATOM     66  C   UNL     1      16.282   9.035  -6.128  1.00  0.00     0.031 C 
ATOM     67  C   UNL     1      17.327   3.050  -5.785  1.00  0.00     0.029 A 
ATOM     68  C   UNL     1      16.675   4.270  -5.892  1.00  0.00     0.049 A 
ATOM     69  H   UNL     1      14.607   4.657  -6.025  1.00  0.00     0.167 HD
ATOM     70  C   UNL     1      16.566   6.755  -6.038  1.00  0.00     0.074 A 
ATOM     71  C   UNL     1      17.187   8.066  -6.080  1.00  0.00     0.031 C 
ATOM     72  C   UNL     1      17.253   5.590  -5.934  1.00  0.00     0.031 A 
BRANCH  59  73
ATOM     73  C   UNL     1      13.757   0.476  -5.799  1.00  0.00    -0.014 A 
ATOM     74  C   UNL     1      13.329  -0.335  -6.866  1.00  0.00     0.010 A 
ATOM     75  C   UNL     1      14.140  -0.132  -4.590  1.00  0.00     0.010 A 
ATOM     76  C   UNL     1      13.251  -1.722  -6.716  1.00  0.00     0.020 A 
ATOM     77  C   UNL     1      14.095  -1.522  -4.446  1.00  0.00     0.020 A 
ATOM     78  C   UNL     1      13.637  -2.307  -5.506  1.00  0.00     0.054 A 
BRANCH  78  79
ATOM     79  S   UNL     1      13.568  -4.113  -5.356  1.00  0.00     0.124 S 
ATOM     80  O   UNL     1      12.129  -4.357  -5.311  1.00  0.00    -0.237 OA
ATOM     81  O   UNL     1      14.243  -4.560  -6.572  1.00  0.00    -0.237 OA
ATOM     82  O   UNL     1      14.285  -4.386  -4.113  1.00  0.00    -0.744 OA
ENDBRANCH  78  79
ENDBRANCH  59  73
BRANCH  60  83
ATOM     83  C   UNL     1      13.751  10.537  -6.359  1.00  0.00    -0.014 A 
ATOM     84  C   UNL     1      14.272  11.230  -7.465  1.00  0.00     0.010 A 
ATOM     85  C   UNL     1      13.180  11.269  -5.301  1.00  0.00     0.010 A 
ATOM     86  C   UNL     1      14.240  12.627  -7.504  1.00  0.00     0.020 A 
ATOM     87  C   UNL     1      13.119  12.664  -5.350  1.00  0.00     0.020 A 
ATOM     88  C   UNL     1      13.660  13.336  -6.448  1.00  0.00     0.054 A 
BRANCH  88  89
ATOM     89  S   UNL     1      13.582  15.146  -6.548  1.00  0.00     0.124 S 
ATOM     90  O   UNL     1      14.978  15.521  -6.353  1.00  0.00    -0.237 OA
ATOM     91  O   UNL     1      13.048  15.363  -7.890  1.00  0.00    -0.237 OA
ATOM     92  O   UNL     1      12.677  15.510  -5.460  1.00  0.00    -0.744 OA
ENDBRANCH  88  89
ENDBRANCH  60  83
BRANCH  72  93
ATOM     93  C   UNL     1      18.753   5.684  -5.895  1.00  0.00    -0.014 A 
ATOM     94  C   UNL     1      19.423   6.184  -4.765  1.00  0.00     0.010 A 
ATOM     95  C   UNL     1      19.501   5.208  -6.987  1.00  0.00     0.010 A 
ATOM     96  C   UNL     1      20.818   6.238  -4.743  1.00  0.00     0.020 A 
ATOM     97  C   UNL     1      20.895   5.229  -6.955  1.00  0.00     0.020 A 
ATOM     98  C   UNL     1      21.545   5.759  -5.838  1.00  0.00     0.054 A 
BRANCH  98  99
ATOM     99  S   UNL     1      23.355   5.801  -5.766  1.00  0.00     0.124 S 
ATOM    100  O   UNL     1      23.631   7.227  -5.915  1.00  0.00    -0.237 OA
ATOM    101  O   UNL     1      23.635   5.240  -4.446  1.00  0.00    -0.237 OA
ATOM    102  O   UNL     1      23.766   4.965  -6.892  1.00  0.00    -0.744 OA
ENDBRANCH  98  99
ENDBRANCH  72  93
ENDBRANCH  46  47
ENDBRANCH  38  41
ENDBRANCH  36  37
ENDBRANCH  35  36
ENDBRANCH   1  35
TORSDOF 18
