REMARK SMILES O=C(NCCCCNC(=O)c1cccc(Oc2ncc([N+](=O)[O-])cc2Br)c1)c1ccc(-c2c3nc(c(-c4ccc(S(=O)(=O)[O-])cc4)c4ccc([nH]4)c(-c4ccc(S(=O)(=O)[O-])cc4)c4nc(c(-c5ccc(S(=O)(=O)[O-])cc5)c5ccc2[nH]5)C=C4)C=C3)cc1
REMARK SMILES IDX 5 1 4 2 3 3 1 4 2 5 28 7 29 8 87 9 30 10 86 11 31 12 32 13
REMARK SMILES IDX 33 14 80 15 34 16 85 17 79 18 81 19 35 20 84 21 78 22 77 23
REMARK SMILES IDX 36 25 66 26 47 27 65 28 48 29 51 30 64 31 82 32 49 33 50 34
REMARK SMILES IDX 63 36 83 37 52 38 37 39 38 40 46 41 39 42 45 43 40 44 41 45
REMARK SMILES IDX 42 46 43 47 44 48 67 49 68 50 76 51 69 52 75 53 70 54 71 55
REMARK SMILES IDX 72 56 73 57 74 58 53 59 54 60 62 61 55 62 61 63 56 64 57 65
REMARK SMILES IDX 58 66 59 67 60 68 6 69 7 70 8 71 9 72 10 74 11 75 12 76
REMARK SMILES IDX 27 77 13 78 15 79 14 80 16 81 17 82 18 83 25 84 19 85 24 86
REMARK SMILES IDX 26 87 20 88 21 89 22 90 23 91
REMARK H PARENT 3 6 81 24 51 35 8 73
REMARK Flexibility Score: inf
ROOT
ATOM      1  C   UNL     1       4.929  -1.881  -1.893  1.00  0.00     0.023 C 
ENDROOT
BRANCH   1   2
ATOM      2  C   UNL     1       4.604  -0.536  -1.260  1.00  0.00     0.116 C 
BRANCH   2   3
ATOM      3  N   UNL     1       3.172  -0.288  -1.161  1.00  0.00    -0.352 N 
ATOM      4  O   UNL     1       1.183  -0.021  -0.129  1.00  0.00    -0.269 OA
ATOM      5  C   UNL     1       2.409  -0.056  -0.041  1.00  0.00     0.251 C 
ATOM      6  H   UNL     1       2.682  -0.288  -2.015  1.00  0.00     0.163 HD
BRANCH   5   7
ATOM      7  C   UNL     1       3.071   0.120   1.268  1.00  0.00     0.039 A 
ATOM      8  C   UNL     1       4.189   0.947   1.385  1.00  0.00     0.014 A 
ATOM      9  C   UNL     1       2.589  -0.573   2.381  1.00  0.00     0.014 A 
ATOM     10  C   UNL     1       4.921   0.951   2.566  1.00  0.00     0.010 A 
ATOM     11  C   UNL     1       3.271  -0.488   3.599  1.00  0.00     0.010 A 
ATOM     12  C   UNL     1       4.463   0.247   3.692  1.00  0.00    -0.014 A 
BRANCH  12  13
ATOM     13  C   UNL     1       5.214   0.360   4.969  1.00  0.00     0.031 A 
ATOM     14  C   UNL     1       5.867  -0.836   5.606  1.00  0.00     0.074 A 
ATOM     15  C   UNL     1       5.325   1.577   5.538  1.00  0.00     0.049 A 
ATOM     16  N   UNL     1       6.576  -0.892   6.706  1.00  0.00    -0.248 NA
ATOM     17  C   UNL     1       5.700  -2.135   4.935  1.00  0.00     0.031 C 
ATOM     18  C   UNL     1       4.726   2.809   5.015  1.00  0.00     0.029 A 
ATOM     19  N   UNL     1       5.992   1.986   6.663  1.00  0.00    -0.354 N 
ATOM     20  C   UNL     1       6.920  -2.229   6.872  1.00  0.00     0.074 A 
ATOM     21  C   UNL     1       6.325  -2.955   5.770  1.00  0.00     0.031 C 
ATOM     22  C   UNL     1       5.094   3.840   5.788  1.00  0.00     0.029 A 
ATOM     23  C   UNL     1       5.892   3.337   6.899  1.00  0.00     0.049 A 
ATOM     24  H   UNL     1       6.495   1.372   7.247  1.00  0.00     0.167 HD
ATOM     25  C   UNL     1       7.664  -2.796   7.854  1.00  0.00     0.031 A 
ATOM     26  C   UNL     1       6.367   4.091   7.906  1.00  0.00     0.031 A 
ATOM     27  C   UNL     1       8.253  -2.064   8.947  1.00  0.00     0.049 A 
ATOM     28  C   UNL     1       7.170   3.435   8.989  1.00  0.00     0.074 A 
ATOM     29  C   UNL     1       9.054  -2.544   9.969  1.00  0.00     0.029 A 
ATOM     30  N   UNL     1       8.102  -0.703   9.165  1.00  0.00    -0.354 N 
ATOM     31  N   UNL     1       7.512   2.174   9.108  1.00  0.00    -0.248 NA
ATOM     32  C   UNL     1       7.651   4.300  10.073  1.00  0.00     0.031 C 
ATOM     33  C   UNL     1       9.340  -1.484  10.836  1.00  0.00     0.029 A 
ATOM     34  C   UNL     1       8.771  -0.331  10.321  1.00  0.00     0.049 A 
ATOM     35  H   UNL     1       7.595  -0.090   8.585  1.00  0.00     0.167 HD
ATOM     36  C   UNL     1       8.263   2.097  10.274  1.00  0.00     0.074 A 
ATOM     37  C   UNL     1       8.343   3.441  10.810  1.00  0.00     0.031 C 
ATOM     38  C   UNL     1       8.833   1.009  10.849  1.00  0.00     0.031 A 
BRANCH  25  39
ATOM     39  C   UNL     1       7.862  -4.290   7.815  1.00  0.00    -0.014 A 
ATOM     40  C   UNL     1       8.697  -4.895   6.859  1.00  0.00     0.010 A 
ATOM     41  C   UNL     1       7.251  -5.097   8.794  1.00  0.00     0.010 A 
ATOM     42  C   UNL     1       8.892  -6.280   6.863  1.00  0.00     0.020 A 
ATOM     43  C   UNL     1       7.463  -6.479   8.817  1.00  0.00     0.020 A 
ATOM     44  C   UNL     1       8.271  -7.064   7.840  1.00  0.00     0.054 A 
BRANCH  44  45
ATOM     45  S   UNL     1       8.564  -8.855   7.837  1.00  0.00     0.124 S 
ATOM     46  O   UNL     1       7.791  -9.283   6.674  1.00  0.00    -0.237 OA
ATOM     47  O   UNL     1      10.015  -8.943   7.693  1.00  0.00    -0.237 OA
ATOM     48  O   UNL     1       8.041  -9.295   9.128  1.00  0.00    -0.744 OA
ENDBRANCH  44  45
ENDBRANCH  25  39
BRANCH  26  49
ATOM     49  C   UNL     1       6.067   5.548   7.934  1.00  0.00    -0.014 A 
ATOM     50  C   UNL     1       7.079   6.495   7.706  1.00  0.00     0.010 A 
ATOM     51  C   UNL     1       4.748   5.991   8.147  1.00  0.00     0.010 A 
ATOM     52  C   UNL     1       6.779   7.860   7.699  1.00  0.00     0.020 A 
ATOM     53  C   UNL     1       4.439   7.352   8.110  1.00  0.00     0.020 A 
ATOM     54  C   UNL     1       5.459   8.279   7.896  1.00  0.00     0.054 A 
BRANCH  54  55
ATOM     55  S   UNL     1       5.082  10.052   7.819  1.00  0.00     0.124 S 
ATOM     56  O   UNL     1       5.618  10.531   9.089  1.00  0.00    -0.237 OA
ATOM     57  O   UNL     1       5.806  10.477   6.624  1.00  0.00    -0.237 OA
ATOM     58  O   UNL     1       3.626  10.085   7.700  1.00  0.00    -0.744 OA
ENDBRANCH  54  55
ENDBRANCH  26  49
BRANCH  38  59
ATOM     59  C   UNL     1       9.615   1.234  12.115  1.00  0.00    -0.014 A 
ATOM     60  C   UNL     1       8.968   1.529  13.328  1.00  0.00     0.010 A 
ATOM     61  C   UNL     1      11.016   1.109  12.095  1.00  0.00     0.010 A 
ATOM     62  C   UNL     1       9.713   1.731  14.493  1.00  0.00     0.020 A 
ATOM     63  C   UNL     1      11.761   1.282  13.264  1.00  0.00     0.020 A 
ATOM     64  C   UNL     1      11.105   1.608  14.453  1.00  0.00     0.054 A 
BRANCH  64  65
ATOM     65  S   UNL     1      12.047   1.839  15.986  1.00  0.00     0.124 S 
ATOM     66  O   UNL     1      11.987   3.287  16.163  1.00  0.00    -0.237 OA
ATOM     67  O   UNL     1      11.283   1.055  16.953  1.00  0.00    -0.237 OA
ATOM     68  O   UNL     1      13.368   1.305  15.664  1.00  0.00    -0.744 OA
ENDBRANCH  64  65
ENDBRANCH  38  59
ENDBRANCH  12  13
ENDBRANCH   5   7
ENDBRANCH   2   3
ENDBRANCH   1   2
BRANCH   1  69
ATOM     69  C   UNL     1       4.449  -2.048  -3.332  1.00  0.00     0.023 C 
BRANCH  69  70
ATOM     70  C   UNL     1       4.892  -0.948  -4.290  1.00  0.00     0.116 C 
BRANCH  70  71
ATOM     71  N   UNL     1       6.340  -0.866  -4.409  1.00  0.00    -0.352 N 
ATOM     72  C   UNL     1       7.107  -0.905  -5.543  1.00  0.00     0.251 C 
ATOM     73  H   UNL     1       6.834  -0.769  -3.562  1.00  0.00     0.163 HD
ATOM     74  O   UNL     1       8.333  -1.002  -5.472  1.00  0.00    -0.269 OA
BRANCH  72  75
ATOM     75  C   UNL     1       6.458  -0.823  -6.864  1.00  0.00     0.043 A 
ATOM     76  C   UNL     1       6.793  -1.746  -7.854  1.00  0.00     0.014 A 
ATOM     77  C   UNL     1       5.542   0.203  -7.125  1.00  0.00     0.061 A 
ATOM     78  C   UNL     1       6.164  -1.676  -9.095  1.00  0.00     0.005 A 
ATOM     79  C   UNL     1       4.911   0.277  -8.366  1.00  0.00     0.130 A 
ATOM     80  C   UNL     1       5.222  -0.672  -9.346  1.00  0.00     0.047 A 
BRANCH  79  81
ATOM     81  O   UNL     1       4.011   1.253  -8.742  1.00  0.00    -0.438 OA
BRANCH  81  82
ATOM     82  C   UNL     1       3.523   2.089  -7.761  1.00  0.00     0.234 A 
ATOM     83  N   UNL     1       2.309   1.744  -7.257  1.00  0.00    -0.214 NA
ATOM     84  C   UNL     1       4.213   3.242  -7.378  1.00  0.00     0.087 A 
ATOM     85  C   UNL     1       1.772   2.565  -6.319  1.00  0.00     0.200 A 
ATOM     86  C   UNL     1       3.662   4.048  -6.383  1.00  0.00     0.108 A 
ATOM     87  Br  UNL     1       5.870   3.747  -8.144  1.00  0.00    -0.045 Br
ATOM     88  C   UNL     1       2.416   3.703  -5.855  1.00  0.00     0.288 A 
BRANCH  88  89
ATOM     89  N   UNL     1       1.781   4.532  -4.842  1.00  0.00     0.064 N 
ATOM     90  O   UNL     1       0.581   4.337  -4.613  1.00  0.00    -0.258 OA
ATOM     91  O   UNL     1       2.482   5.386  -4.285  1.00  0.00    -0.258 OA
ENDBRANCH  88  89
ENDBRANCH  81  82
ENDBRANCH  79  81
ENDBRANCH  72  75
ENDBRANCH  70  71
ENDBRANCH  69  70
ENDBRANCH   1  69
TORSDOF 17
