REMARK SMILES COC(=O)C1=C(C)NC(C)=C(C(=O)OC)C1c1ccc(C(=O)NCCCCNC(=O)c2ccc(-c3c4nc(c(-c5ccc(S(=O)(=O)[O-])cc5)c5ccc([nH]5)c(-c5ccc(S(=O)(=O)[O-])cc5)c5nc(c(-c6ccc(S(=O)(=O)[O-])cc6)c6ccc3[nH]6)C=C5)C=C4)cc2)cc1
REMARK SMILES IDX 25 1 24 2 23 3 21 4 22 5 20 7 17 8 18 9 92 10 19 11 91 12
REMARK SMILES IDX 16 13 5 14 6 15 7 16 8 17 11 18 9 19 10 21 3 22 4 23 2 24
REMARK SMILES IDX 1 25 12 26 13 27 14 28 15 29 26 30 27 31 28 32 29 33 30 35
REMARK SMILES IDX 31 36 32 37 90 38 33 39 89 40 34 41 35 42 36 43 83 44 37 45
REMARK SMILES IDX 88 46 82 47 84 48 38 49 87 50 81 51 80 52 39 54 69 55 50 56
REMARK SMILES IDX 68 57 51 58 54 59 67 60 85 61 52 62 53 63 66 65 86 66 55 67
REMARK SMILES IDX 40 68 41 69 49 70 42 71 48 72 43 73 44 74 45 75 46 76 47 77
REMARK SMILES IDX 70 78 71 79 79 80 72 81 78 82 73 83 74 84 75 85 76 86 77 87
REMARK SMILES IDX 56 88 57 89 65 90 58 91 64 92 59 93 60 94 61 95 62 96 63 97
REMARK H PARENT 23 6 8 20 28 34 84 53 54 64
REMARK Flexibility Score: inf
ROOT
ATOM      1  C   UNL     1       6.802   1.555   3.778  1.00  0.00     0.023 C 
ENDROOT
BRANCH   1   2
ATOM      2  C   UNL     1       5.571   1.621   4.682  1.00  0.00     0.116 C 
BRANCH   2   3
ATOM      3  N   UNL     1       5.613   2.790   5.542  1.00  0.00    -0.352 N 
ATOM      4  C   UNL     1       4.869   3.942   5.494  1.00  0.00     0.251 C 
ATOM      5  O   UNL     1       4.983   4.783   6.383  1.00  0.00    -0.269 OA
ATOM      6  H   UNL     1       6.276   2.751   6.270  1.00  0.00     0.163 HD
BRANCH   4   7
ATOM      7  C   UNL     1       3.893   4.172   4.405  1.00  0.00     0.039 A 
ATOM      8  C   UNL     1       1.975   4.643   2.405  1.00  0.00    -0.035 A 
ATOM      9  C   UNL     1       1.648   4.819   3.759  1.00  0.00     0.005 A 
ATOM     10  C   UNL     1       3.280   4.234   2.070  1.00  0.00     0.005 A 
ATOM     11  C   UNL     1       2.608   4.603   4.750  1.00  0.00     0.014 A 
ATOM     12  C   UNL     1       4.235   4.017   3.061  1.00  0.00     0.014 A 
BRANCH   8  13
ATOM     13  C   UNL     1       0.973   4.899   1.278  1.00  0.00     0.098 C 
ATOM     14  C   UNL     1       0.063   3.704   1.009  1.00  0.00     0.068 C 
ATOM     15  C   UNL     1      -1.236   3.869   0.674  1.00  0.00     0.023 C 
ATOM     16  C   UNL     1      -2.200   2.749   0.370  1.00  0.00     0.065 C 
ATOM     17  N   UNL     1      -1.767   5.145   0.621  1.00  0.00    -0.362 N 
ATOM     18  C   UNL     1       0.197   6.220   1.405  1.00  0.00     0.068 C 
ATOM     19  C   UNL     1      -1.108   6.290   1.046  1.00  0.00     0.023 C 
ATOM     20  H   UNL     1      -2.675   5.249   0.256  1.00  0.00     0.166 HD
ATOM     21  C   UNL     1      -1.958   7.536   1.064  1.00  0.00     0.065 C 
BRANCH  14  22
ATOM     22  C   UNL     1       0.620   2.342   1.117  1.00  0.00     0.336 C 
ATOM     23  O   UNL     1       0.858   1.780   2.172  1.00  0.00    -0.246 OA
BRANCH  22  24
ATOM     24  O   UNL     1       0.748   1.806  -0.125  1.00  0.00    -0.466 OA
ATOM     25  C   UNL     1       1.097   0.419  -0.120  1.00  0.00     0.282 C 
ENDBRANCH  22  24
ENDBRANCH  14  22
BRANCH  18  26
ATOM     26  C   UNL     1       0.879   7.393   2.008  1.00  0.00     0.336 C 
ATOM     27  O   UNL     1       0.344   8.166   2.789  1.00  0.00    -0.246 OA
BRANCH  26  28
ATOM     28  O   UNL     1       2.180   7.431   1.629  1.00  0.00    -0.466 OA
ATOM     29  C   UNL     1       2.994   8.292   2.432  1.00  0.00     0.282 C 
ENDBRANCH  26  28
ENDBRANCH  18  26
ENDBRANCH   8  13
ENDBRANCH   4   7
ENDBRANCH   2   3
ENDBRANCH   1   2
BRANCH   1  30
ATOM     30  C   UNL     1       8.098   1.171   4.497  1.00  0.00     0.023 C 
BRANCH  30  31
ATOM     31  C   UNL     1       8.097  -0.214   5.135  1.00  0.00     0.116 C 
BRANCH  31  32
ATOM     32  N   UNL     1       7.838  -1.282   4.181  1.00  0.00    -0.352 N 
ATOM     33  C   UNL     1       8.338  -2.562   4.177  1.00  0.00     0.251 C 
ATOM     34  H   UNL     1       7.226  -1.059   3.444  1.00  0.00     0.163 HD
ATOM     35  O   UNL     1       8.110  -3.310   3.231  1.00  0.00    -0.269 OA
BRANCH  33  36
ATOM     36  C   UNL     1       9.185  -3.013   5.301  1.00  0.00     0.039 A 
ATOM     37  C   UNL     1      10.405  -3.630   5.018  1.00  0.00     0.014 A 
ATOM     38  C   UNL     1       8.790  -2.799   6.624  1.00  0.00     0.014 A 
ATOM     39  C   UNL     1      11.262  -3.975   6.066  1.00  0.00     0.010 A 
ATOM     40  C   UNL     1       9.672  -3.083   7.662  1.00  0.00     0.010 A 
ATOM     41  C   UNL     1      10.916  -3.674   7.393  1.00  0.00    -0.014 A 
BRANCH  41  42
ATOM     42  C   UNL     1      11.849  -3.960   8.511  1.00  0.00     0.031 A 
ATOM     43  C   UNL     1      11.483  -4.969   9.564  1.00  0.00     0.074 A 
ATOM     44  C   UNL     1      12.995  -3.258   8.615  1.00  0.00     0.049 A 
ATOM     45  N   UNL     1      12.150  -5.324  10.631  1.00  0.00    -0.248 NA
ATOM     46  C   UNL     1      10.185  -5.647   9.414  1.00  0.00     0.031 C 
ATOM     47  C   UNL     1      13.432  -2.209   7.691  1.00  0.00     0.029 A 
ATOM     48  N   UNL     1      13.996  -3.315   9.550  1.00  0.00    -0.354 N 
ATOM     49  C   UNL     1      11.347  -6.247  11.290  1.00  0.00     0.074 A 
ATOM     50  C   UNL     1      10.124  -6.364  10.526  1.00  0.00     0.031 C 
ATOM     51  C   UNL     1      14.622  -1.736   8.095  1.00  0.00     0.029 A 
ATOM     52  C   UNL     1      15.018  -2.425   9.319  1.00  0.00     0.049 A 
ATOM     53  H   UNL     1      13.985  -3.935  10.315  1.00  0.00     0.167 HD
ATOM     54  C   UNL     1      11.610  -6.946  12.420  1.00  0.00     0.031 A 
ATOM     55  C   UNL     1      16.147  -2.187  10.014  1.00  0.00     0.031 A 
ATOM     56  C   UNL     1      12.834  -6.839  13.168  1.00  0.00     0.049 A 
ATOM     57  C   UNL     1      16.433  -2.999  11.247  1.00  0.00     0.074 A 
ATOM     58  C   UNL     1      13.228  -7.559  14.282  1.00  0.00     0.029 A 
ATOM     59  N   UNL     1      13.861  -5.953  12.880  1.00  0.00    -0.354 N 
ATOM     60  N   UNL     1      15.699  -3.931  11.807  1.00  0.00    -0.248 NA
ATOM     61  C   UNL     1      17.707  -2.740  11.931  1.00  0.00     0.031 C 
ATOM     62  C   UNL     1      14.475  -7.078  14.694  1.00  0.00     0.029 A 
ATOM     63  C   UNL     1      14.880  -6.093  13.807  1.00  0.00     0.049 A 
ATOM     64  H   UNL     1      13.865  -5.318  12.128  1.00  0.00     0.167 HD
ATOM     65  C   UNL     1      16.431  -4.384  12.898  1.00  0.00     0.074 A 
ATOM     66  C   UNL     1      17.672  -3.635  12.908  1.00  0.00     0.031 C 
ATOM     67  C   UNL     1      16.105  -5.335  13.808  1.00  0.00     0.031 A 
BRANCH  54  68
ATOM     68  C   UNL     1      10.542  -7.885  12.916  1.00  0.00    -0.014 A 
ATOM     69  C   UNL     1      10.236  -9.070  12.222  1.00  0.00     0.010 A 
ATOM     70  C   UNL     1       9.850  -7.591  14.105  1.00  0.00     0.010 A 
ATOM     71  C   UNL     1       9.223  -9.917  12.679  1.00  0.00     0.020 A 
ATOM     72  C   UNL     1       8.854  -8.449  14.581  1.00  0.00     0.020 A 
ATOM     73  C   UNL     1       8.533  -9.597  13.852  1.00  0.00     0.054 A 
BRANCH  73  74
ATOM     74  S   UNL     1       7.228 -10.717  14.429  1.00  0.00     0.124 S 
ATOM     75  O   UNL     1       6.141 -10.414  13.500  1.00  0.00    -0.237 OA
ATOM     76  O   UNL     1       7.839 -12.034  14.269  1.00  0.00    -0.237 OA
ATOM     77  O   UNL     1       7.001 -10.302  15.811  1.00  0.00    -0.744 OA
ENDBRANCH  73  74
ENDBRANCH  54  68
BRANCH  55  78
ATOM     78  C   UNL     1      17.101  -1.149   9.539  1.00  0.00    -0.014 A 
ATOM     79  C   UNL     1      18.318  -1.519   8.943  1.00  0.00     0.010 A 
ATOM     80  C   UNL     1      16.778   0.216   9.649  1.00  0.00     0.010 A 
ATOM     81  C   UNL     1      19.202  -0.543   8.473  1.00  0.00     0.020 A 
ATOM     82  C   UNL     1      17.649   1.194   9.159  1.00  0.00     0.020 A 
ATOM     83  C   UNL     1      18.860   0.808   8.582  1.00  0.00     0.054 A 
BRANCH  83  84
ATOM     84  S   UNL     1      19.989   2.055   7.902  1.00  0.00     0.124 S 
ATOM     85  O   UNL     1      21.048   2.085   8.905  1.00  0.00    -0.237 OA
ATOM     86  O   UNL     1      20.357   1.480   6.610  1.00  0.00    -0.237 OA
ATOM     87  O   UNL     1      19.162   3.257   7.825  1.00  0.00    -0.744 OA
ENDBRANCH  83  84
ENDBRANCH  55  78
BRANCH  67  88
ATOM     88  C   UNL     1      17.117  -5.636  14.881  1.00  0.00    -0.014 A 
ATOM     89  C   UNL     1      17.344  -4.740  15.940  1.00  0.00     0.010 A 
ATOM     90  C   UNL     1      17.816  -6.857  14.852  1.00  0.00     0.010 A 
ATOM     91  C   UNL     1      18.277  -5.044  16.933  1.00  0.00     0.020 A 
ATOM     92  C   UNL     1      18.732  -7.176  15.857  1.00  0.00     0.020 A 
ATOM     93  C   UNL     1      18.968  -6.259  16.884  1.00  0.00     0.054 A 
BRANCH  93  94
ATOM     94  S   UNL     1      20.149  -6.649  18.204  1.00  0.00     0.124 S 
ATOM     95  O   UNL     1      21.292  -5.814  17.845  1.00  0.00    -0.237 OA
ATOM     96  O   UNL     1      19.430  -6.245  19.410  1.00  0.00    -0.237 OA
ATOM     97  O   UNL     1      20.360  -8.089  18.065  1.00  0.00    -0.744 OA
ENDBRANCH  93  94
ENDBRANCH  67  88
ENDBRANCH  41  42
ENDBRANCH  33  36
ENDBRANCH  31  32
ENDBRANCH  30  31
ENDBRANCH   1  30
TORSDOF 19
