REMARK SMILES CC(C)c1cc(OCC(=O)NCCCCNC(=O)c2ccc(-c3c4nc(c(-c5ccc(S(=O)(=O)[O-])cc5)c5ccc([nH]5)c(-c5ccc(S(=O)(=O)[O-])cc5)c5nc(c(-c6ccc(S(=O)(=O)[O-])cc6)c6ccc3[nH]6)C=C5)C=C4)cc2)nc(Nc2ccc(F)cc2F)n1
REMARK SMILES IDX 13 1 12 2 11 3 9 4 10 5 8 7 7 8 6 9 4 10 5 11 90 12 80 13
REMARK SMILES IDX 79 14 2 15 1 16 3 17 81 18 82 20 83 21 88 22 84 23 87 24
REMARK SMILES IDX 89 25 85 26 86 27 14 28 15 29 16 30 17 31 18 33 19 34 20 35
REMARK SMILES IDX 78 36 21 37 77 38 22 39 23 40 24 41 71 42 25 43 76 44 70 45
REMARK SMILES IDX 72 46 26 47 75 48 69 49 68 50 27 52 57 53 38 54 56 55 39 56
REMARK SMILES IDX 42 57 55 58 73 59 40 60 41 61 54 63 74 64 43 65 28 66 29 67
REMARK SMILES IDX 37 68 30 69 36 70 31 71 32 72 33 73 34 74 35 75 58 76 59 77
REMARK SMILES IDX 67 78 60 79 66 80 61 81 62 82 63 83 64 84 65 85 44 86 45 87
REMARK SMILES IDX 53 88 46 89 52 90 47 91 48 92 49 93 50 94 51 95
REMARK H PARENT 11 6 81 19 16 32 72 51 42 62
REMARK Flexibility Score: inf
ROOT
ATOM      1  C   UNL     1      -4.559  -0.894  -2.644  1.00  0.00     0.023 C 
ENDROOT
BRANCH   1   2
ATOM      2  C   UNL     1      -4.388  -2.250  -1.964  1.00  0.00     0.116 C 
BRANCH   2   3
ATOM      3  N   UNL     1      -2.997  -2.577  -1.722  1.00  0.00    -0.353 N 
ATOM      4  C   UNL     1      -2.344  -2.659  -0.529  1.00  0.00     0.258 C 
ATOM      5  O   UNL     1      -1.156  -2.989  -0.517  1.00  0.00    -0.271 OA
ATOM      6  H   UNL     1      -2.454  -2.763  -2.522  1.00  0.00     0.163 HD
BRANCH   4   7
ATOM      7  C   UNL     1      -3.095  -2.362   0.777  1.00  0.00     0.331 C 
BRANCH   7   8
ATOM      8  O   UNL     1      -3.678  -1.079   0.924  1.00  0.00    -0.467 OA
BRANCH   8   9
ATOM      9  C   UNL     1      -2.855   0.012   0.884  1.00  0.00     0.218 A 
ATOM     10  C   UNL     1      -0.811   1.157   0.732  1.00  0.00     0.052 A 
ATOM     11  C   UNL     1      -1.479  -0.037   0.889  1.00  0.00     0.092 A 
ATOM     12  N   UNL     1      -1.489   2.317   0.692  1.00  0.00    -0.217 NA
ATOM     13  C   UNL     1      -2.829   2.293   0.734  1.00  0.00     0.230 A 
ATOM     14  N   UNL     1      -3.541   1.166   0.834  1.00  0.00    -0.177 NA
BRANCH  10  15
ATOM     15  C   UNL     1       0.707   1.241   0.662  1.00  0.00     0.032 C 
ATOM     16  C   UNL     1       1.362   0.018   0.005  1.00  0.00     0.014 C 
ATOM     17  C   UNL     1       1.173   2.500  -0.087  1.00  0.00     0.014 C 
ENDBRANCH  10  15
BRANCH  13  18
ATOM     18  N   UNL     1      -3.533   3.492   0.792  1.00  0.00    -0.322 N 
ATOM     19  H   UNL     1      -4.502   3.416   0.951  1.00  0.00     0.170 HD
BRANCH  18  20
ATOM     20  C   UNL     1      -3.034   4.792   0.651  1.00  0.00     0.077 A 
ATOM     21  C   UNL     1      -3.352   5.755   1.620  1.00  0.00     0.032 A 
ATOM     22  C   UNL     1      -2.126   5.149  -0.362  1.00  0.00     0.149 A 
ATOM     23  C   UNL     1      -2.765   7.023   1.580  1.00  0.00     0.041 A 
ATOM     24  C   UNL     1      -1.550   6.414  -0.419  1.00  0.00     0.080 A 
ATOM     25  F   UNL     1      -1.830   4.280  -1.341  1.00  0.00    -0.205 F 
ATOM     26  C   UNL     1      -1.869   7.338   0.564  1.00  0.00     0.126 A 
ATOM     27  F   UNL     1      -1.303   8.552   0.539  1.00  0.00    -0.207 F 
ENDBRANCH  18  20
ENDBRANCH  13  18
ENDBRANCH   8   9
ENDBRANCH   7   8
ENDBRANCH   4   7
ENDBRANCH   2   3
ENDBRANCH   1   2
BRANCH   1  28
ATOM     28  C   UNL     1      -3.923  -0.775  -4.032  1.00  0.00     0.023 C 
BRANCH  28  29
ATOM     29  C   UNL     1      -4.313  -1.854  -5.038  1.00  0.00     0.116 C 
BRANCH  29  30
ATOM     30  N   UNL     1      -5.745  -1.920  -5.282  1.00  0.00    -0.352 N 
ATOM     31  C   UNL     1      -6.423  -2.000  -6.475  1.00  0.00     0.251 C 
ATOM     32  H   UNL     1      -6.311  -1.906  -4.476  1.00  0.00     0.163 HD
ATOM     33  O   UNL     1      -7.650  -1.928  -6.485  1.00  0.00    -0.269 OA
BRANCH  31  34
ATOM     34  C   UNL     1      -5.679  -2.138  -7.747  1.00  0.00     0.039 A 
ATOM     35  C   UNL     1      -6.040  -1.331  -8.829  1.00  0.00     0.014 A 
ATOM     36  C   UNL     1      -4.627  -3.049  -7.876  1.00  0.00     0.014 A 
ATOM     37  C   UNL     1      -5.301  -1.386 -10.015  1.00  0.00     0.010 A 
ATOM     38  C   UNL     1      -3.848  -3.051  -9.032  1.00  0.00     0.010 A 
ATOM     39  C   UNL     1      -4.174  -2.218 -10.113  1.00  0.00    -0.014 A 
BRANCH  39  40
ATOM     40  C   UNL     1      -3.317  -2.216 -11.328  1.00  0.00     0.031 A 
ATOM     41  C   UNL     1      -3.178  -3.460 -12.165  1.00  0.00     0.074 A 
ATOM     42  C   UNL     1      -2.608  -1.112 -11.643  1.00  0.00     0.049 A 
ATOM     43  N   UNL     1      -2.432  -3.664 -13.221  1.00  0.00    -0.248 NA
ATOM     44  C   UNL     1      -3.959  -4.636 -11.746  1.00  0.00     0.031 C 
ATOM     45  C   UNL     1      -2.620   0.146 -10.891  1.00  0.00     0.029 A 
ATOM     46  N   UNL     1      -1.732  -0.872 -12.672  1.00  0.00    -0.354 N 
ATOM     47  C   UNL     1      -2.638  -4.991 -13.581  1.00  0.00     0.074 A 
ATOM     48  C   UNL     1      -3.543  -5.557 -12.604  1.00  0.00     0.031 C 
ATOM     49  C   UNL     1      -1.811   1.029 -11.497  1.00  0.00     0.029 A 
ATOM     50  C   UNL     1      -1.188   0.392 -12.653  1.00  0.00     0.049 A 
ATOM     51  H   UNL     1      -1.513  -1.541 -13.360  1.00  0.00     0.167 HD
ATOM     52  C   UNL     1      -2.133  -5.673 -14.636  1.00  0.00     0.031 A 
ATOM     53  C   UNL     1      -0.282   0.972 -13.465  1.00  0.00     0.031 A 
ATOM     54  C   UNL     1      -1.241  -5.105 -15.614  1.00  0.00     0.049 A 
ATOM     55  C   UNL     1       0.271   0.191 -14.626  1.00  0.00     0.074 A 
ATOM     56  C   UNL     1      -0.728  -5.697 -16.755  1.00  0.00     0.029 A 
ATOM     57  N   UNL     1      -0.726  -3.819 -15.565  1.00  0.00    -0.354 N 
ATOM     58  N   UNL     1       0.003  -1.040 -14.992  1.00  0.00    -0.248 NA
ATOM     59  C   UNL     1       1.239   0.880 -15.490  1.00  0.00     0.031 C 
ATOM     60  C   UNL     1       0.144  -4.789 -17.364  1.00  0.00     0.029 A 
ATOM     61  C   UNL     1       0.123  -3.608 -16.639  1.00  0.00     0.049 A 
ATOM     62  H   UNL     1      -0.933  -3.153 -14.869  1.00  0.00     0.167 HD
ATOM     63  C   UNL     1       0.748  -1.262 -16.146  1.00  0.00     0.074 A 
ATOM     64  C   UNL     1       1.463  -0.033 -16.425  1.00  0.00     0.031 C 
ATOM     65  C   UNL     1       0.829  -2.381 -16.907  1.00  0.00     0.031 A 
BRANCH  52  66
ATOM     66  C   UNL     1      -2.524  -7.121 -14.787  1.00  0.00    -0.014 A 
ATOM     67  C   UNL     1      -3.836  -7.490 -15.137  1.00  0.00     0.010 A 
ATOM     68  C   UNL     1      -1.553  -8.126 -14.625  1.00  0.00     0.010 A 
ATOM     69  C   UNL     1      -4.178  -8.837 -15.283  1.00  0.00     0.020 A 
ATOM     70  C   UNL     1      -1.884  -9.473 -14.800  1.00  0.00     0.020 A 
ATOM     71  C   UNL     1      -3.199  -9.821 -15.111  1.00  0.00     0.054 A 
BRANCH  71  72
ATOM     72  S   UNL     1      -3.667 -11.559 -15.333  1.00  0.00     0.124 S 
ATOM     73  O   UNL     1      -4.471 -11.809 -14.139  1.00  0.00    -0.237 OA
ATOM     74  O   UNL     1      -4.406 -11.534 -16.592  1.00  0.00    -0.237 OA
ATOM     75  O   UNL     1      -2.387 -12.261 -15.378  1.00  0.00    -0.744 OA
ENDBRANCH  71  72
ENDBRANCH  52  66
BRANCH  53  76
ATOM     76  C   UNL     1       0.157   2.373 -13.211  1.00  0.00    -0.014 A 
ATOM     77  C   UNL     1      -0.211   3.408 -14.089  1.00  0.00     0.010 A 
ATOM     78  C   UNL     1       0.943   2.680 -12.086  1.00  0.00     0.010 A 
ATOM     79  C   UNL     1       0.220   4.719 -13.860  1.00  0.00     0.020 A 
ATOM     80  C   UNL     1       1.350   3.994 -11.837  1.00  0.00     0.020 A 
ATOM     81  C   UNL     1       0.996   5.003 -12.734  1.00  0.00     0.054 A 
BRANCH  81  82
ATOM     82  S   UNL     1       1.508   6.718 -12.434  1.00  0.00     0.124 S 
ATOM     83  O   UNL     1       2.531   6.913 -13.457  1.00  0.00    -0.237 OA
ATOM     84  O   UNL     1       0.264   7.458 -12.634  1.00  0.00    -0.237 OA
ATOM     85  O   UNL     1       1.995   6.694 -11.057  1.00  0.00    -0.744 OA
ENDBRANCH  81  82
ENDBRANCH  53  76
BRANCH  65  86
ATOM     86  C   UNL     1       1.694  -2.324 -18.139  1.00  0.00    -0.014 A 
ATOM     87  C   UNL     1       3.097  -2.290 -18.048  1.00  0.00     0.010 A 
ATOM     88  C   UNL     1       1.091  -2.362 -19.410  1.00  0.00     0.010 A 
ATOM     89  C   UNL     1       3.879  -2.264 -19.206  1.00  0.00     0.020 A 
ATOM     90  C   UNL     1       1.870  -2.366 -20.569  1.00  0.00     0.020 A 
ATOM     91  C   UNL     1       3.261  -2.303 -20.460  1.00  0.00     0.054 A 
BRANCH  91  92
ATOM     92  S   UNL     1       4.300  -2.314 -21.947  1.00  0.00     0.124 S 
ATOM     93  O   UNL     1       4.784  -0.937 -21.989  1.00  0.00    -0.237 OA
ATOM     94  O   UNL     1       5.305  -3.324 -21.627  1.00  0.00    -0.237 OA
ATOM     95  O   UNL     1       3.373  -2.682 -23.015  1.00  0.00    -0.744 OA
ENDBRANCH  91  92
ENDBRANCH  65  86
ENDBRANCH  39  40
ENDBRANCH  31  34
ENDBRANCH  29  30
ENDBRANCH  28  29
ENDBRANCH   1  28
TORSDOF 19
