REMARK SMILES Cc1cccc(NC(=O)COc2ccc(N3C[C@@H](C(=O)NCCCCNC(=O)c4ccc(-c5c6nc(c(-c7ccc(S(=O)(=O)[O-])cc7)c7ccc([nH]7)c(-c7ccc(S(=O)(=O)[O-])cc7)c7nc(c(-c8ccc(S(=O)(=O)[O-])cc8)c8ccc5[nH]8)C=C7)C=C6)cc4)CC3=O)cc2)c1
REMARK SMILES IDX 22 1 21 2 19 3 20 4 18 6 16 7 17 8 90 9 89 10 91 11 15 12
REMARK SMILES IDX 12 13 13 14 93 15 14 16 92 17 11 18 10 19 8 20 7 21 9 23
REMARK SMILES IDX 6 24 1 25 2 26 3 27 94 28 4 29 5 30 23 31 24 32 25 33 26 34
REMARK SMILES IDX 27 35 28 37 29 38 30 39 88 40 31 41 87 42 32 43 33 44 34 45
REMARK SMILES IDX 81 46 35 47 86 48 80 49 82 50 36 51 85 52 79 53 78 54 37 56
REMARK SMILES IDX 67 57 48 58 66 59 49 60 52 61 65 62 83 63 50 64 51 65 64 67
REMARK SMILES IDX 84 68 53 69 38 70 39 71 47 72 40 73 46 74 41 75 42 76 43 77
REMARK SMILES IDX 44 78 45 79 68 80 69 81 77 82 70 83 76 84 71 85 72 86 73 87
REMARK SMILES IDX 74 88 75 89 54 90 55 91 63 92 56 93 62 94 57 95 58 96 59 97
REMARK SMILES IDX 60 98 61 99
REMARK H PARENT 21 5 7 22 26 36 82 55 52 66
REMARK Flexibility Score: inf
ROOT
ATOM      1  C   UNL     1      -6.848   5.499  -7.426  1.00  0.00     0.116 C 
ENDROOT
BRANCH   1   2
ATOM      2  N   UNL     1      -7.366   4.676  -8.513  1.00  0.00    -0.356 N 
ATOM      3  C   UNL     1      -6.993   3.483  -9.037  1.00  0.00     0.225 C 
ATOM      4  O   UNL     1      -7.682   3.029  -9.957  1.00  0.00    -0.275 OA
ATOM      5  H   UNL     1      -8.150   5.070  -8.960  1.00  0.00     0.163 HD
BRANCH   3   6
ATOM      6  C   UNL     1      -5.808   2.679  -8.546  1.00  0.00     0.107 C 
ATOM      7  N   UNL     1      -4.804   2.403  -6.427  1.00  0.00    -0.312 N 
ATOM      8  C   UNL     1      -6.011   2.101  -7.159  1.00  0.00     0.139 C 
ATOM      9  C   UNL     1      -3.916   3.189  -7.159  1.00  0.00     0.227 C 
ATOM     10  C   UNL     1      -4.482   3.411  -8.534  1.00  0.00     0.116 C 
ATOM     11  O   UNL     1      -2.814   3.604  -6.827  1.00  0.00    -0.274 OA
BRANCH   7  12
ATOM     12  C   UNL     1      -4.614   1.984  -5.087  1.00  0.00     0.044 A 
ATOM     13  C   UNL     1      -4.231   1.154  -2.419  1.00  0.00     0.120 A 
ATOM     14  C   UNL     1      -4.979   0.375  -3.298  1.00  0.00     0.048 A 
ATOM     15  C   UNL     1      -3.658   2.337  -2.872  1.00  0.00     0.048 A 
ATOM     16  C   UNL     1      -5.196   0.801  -4.613  1.00  0.00     0.030 A 
ATOM     17  C   UNL     1      -3.838   2.739  -4.201  1.00  0.00     0.030 A 
BRANCH  13  18
ATOM     18  O   UNL     1      -4.036   0.635  -1.173  1.00  0.00    -0.484 OA
BRANCH  18  19
ATOM     19  C   UNL     1      -4.247   1.530  -0.093  1.00  0.00     0.329 C 
BRANCH  19  20
ATOM     20  C   UNL     1      -3.136   2.501   0.308  1.00  0.00     0.262 C 
ATOM     21  N   UNL     1      -1.820   2.160   0.378  1.00  0.00    -0.323 N 
ATOM     22  H   UNL     1      -1.236   2.937   0.536  1.00  0.00     0.170 HD
ATOM     23  O   UNL     1      -3.418   3.675   0.581  1.00  0.00    -0.271 OA
BRANCH  21  24
ATOM     24  C   UNL     1      -1.105   0.958   0.276  1.00  0.00     0.041 A 
ATOM     25  C   UNL     1       2.603   0.098  -0.092  1.00  0.00     0.044 C 
ATOM     26  C   UNL     1       1.118  -0.048   0.046  1.00  0.00    -0.049 A 
ATOM     27  C   UNL     1       0.537  -1.317   0.070  1.00  0.00     0.003 A 
ATOM     28  C   UNL     1       0.290   1.079   0.154  1.00  0.00     0.029 A 
ATOM     29  C   UNL     1      -0.842  -1.450   0.213  1.00  0.00     0.002 A 
ATOM     30  C   UNL     1      -1.657  -0.319   0.327  1.00  0.00     0.026 A 
ENDBRANCH  21  24
ENDBRANCH  19  20
ENDBRANCH  18  19
ENDBRANCH  13  18
ENDBRANCH   7  12
ENDBRANCH   3   6
ENDBRANCH   1   2
BRANCH   1  31
ATOM     31  C   UNL     1      -6.118   6.764  -7.907  1.00  0.00     0.023 C 
BRANCH  31  32
ATOM     32  C   UNL     1      -6.859   7.613  -8.944  1.00  0.00     0.023 C 
BRANCH  32  33
ATOM     33  C   UNL     1      -8.153   8.229  -8.429  1.00  0.00     0.116 C 
BRANCH  33  34
ATOM     34  N   UNL     1      -8.089   9.676  -8.258  1.00  0.00    -0.352 N 
ATOM     35  C   UNL     1      -9.153  10.528  -8.054  1.00  0.00     0.251 C 
ATOM     36  H   UNL     1      -7.194  10.086  -8.293  1.00  0.00     0.163 HD
ATOM     37  O   UNL     1      -9.100  11.735  -8.255  1.00  0.00    -0.269 OA
BRANCH  35  38
ATOM     38  C   UNL     1     -10.345   9.936  -7.408  1.00  0.00     0.039 A 
ATOM     39  C   UNL     1     -10.531  10.221  -6.050  1.00  0.00     0.014 A 
ATOM     40  C   UNL     1     -11.038   8.905  -8.036  1.00  0.00     0.014 A 
ATOM     41  C   UNL     1     -11.289   9.354  -5.271  1.00  0.00     0.010 A 
ATOM     42  C   UNL     1     -11.714   7.999  -7.244  1.00  0.00     0.010 A 
ATOM     43  C   UNL     1     -11.794   8.194  -5.856  1.00  0.00    -0.014 A 
BRANCH  43  44
ATOM     44  C   UNL     1     -12.358   7.089  -5.092  1.00  0.00     0.031 A 
ATOM     45  C   UNL     1     -13.824   6.882  -5.080  1.00  0.00     0.074 A 
ATOM     46  C   UNL     1     -11.542   6.214  -4.463  1.00  0.00     0.049 A 
ATOM     47  N   UNL     1     -14.458   6.168  -4.211  1.00  0.00    -0.248 NA
ATOM     48  C   UNL     1     -14.713   7.561  -6.021  1.00  0.00     0.031 C 
ATOM     49  C   UNL     1     -11.903   4.903  -3.930  1.00  0.00     0.029 A 
ATOM     50  N   UNL     1     -10.256   6.438  -3.962  1.00  0.00    -0.354 N 
ATOM     51  C   UNL     1     -15.752   6.030  -4.661  1.00  0.00     0.074 A 
ATOM     52  C   UNL     1     -15.891   7.023  -5.697  1.00  0.00     0.031 C 
ATOM     53  C   UNL     1     -11.036   4.584  -2.957  1.00  0.00     0.029 A 
ATOM     54  C   UNL     1     -10.190   5.745  -2.740  1.00  0.00     0.049 A 
ATOM     55  H   UNL     1      -9.542   6.972  -4.380  1.00  0.00     0.167 HD
ATOM     56  C   UNL     1     -16.504   4.983  -4.218  1.00  0.00     0.031 A 
ATOM     57  C   UNL     1      -9.977   6.349  -1.534  1.00  0.00     0.031 A 
ATOM     58  C   UNL     1     -15.889   4.341  -3.055  1.00  0.00     0.049 A 
ATOM     59  C   UNL     1     -11.099   6.102  -0.545  1.00  0.00     0.074 A 
ATOM     60  C   UNL     1     -15.198   3.156  -2.870  1.00  0.00     0.029 A 
ATOM     61  N   UNL     1     -15.695   5.093  -1.898  1.00  0.00    -0.354 N 
ATOM     62  N   UNL     1     -12.268   5.622  -0.873  1.00  0.00    -0.248 NA
ATOM     63  C   UNL     1     -11.011   6.419   0.878  1.00  0.00     0.031 C 
ATOM     64  C   UNL     1     -14.479   3.259  -1.645  1.00  0.00     0.029 A 
ATOM     65  C   UNL     1     -14.775   4.482  -1.068  1.00  0.00     0.049 A 
ATOM     66  H   UNL     1     -16.151   5.942  -1.700  1.00  0.00     0.167 HD
ATOM     67  C   UNL     1     -13.074   5.568   0.233  1.00  0.00     0.074 A 
ATOM     68  C   UNL     1     -12.236   6.065   1.310  1.00  0.00     0.031 C 
ATOM     69  C   UNL     1     -14.367   5.131   0.174  1.00  0.00     0.031 A 
BRANCH  56  70
ATOM     70  C   UNL     1     -17.655   4.377  -5.008  1.00  0.00    -0.014 A 
ATOM     71  C   UNL     1     -18.167   3.113  -4.646  1.00  0.00     0.010 A 
ATOM     72  C   UNL     1     -18.193   4.932  -6.188  1.00  0.00     0.010 A 
ATOM     73  C   UNL     1     -19.104   2.426  -5.444  1.00  0.00     0.020 A 
ATOM     74  C   UNL     1     -19.131   4.266  -6.989  1.00  0.00     0.020 A 
ATOM     75  C   UNL     1     -19.567   3.003  -6.624  1.00  0.00     0.054 A 
BRANCH  75  76
ATOM     76  S   UNL     1     -20.712   2.092  -7.692  1.00  0.00     0.124 S 
ATOM     77  O   UNL     1     -19.918   0.931  -8.084  1.00  0.00    -0.237 OA
ATOM     78  O   UNL     1     -21.832   1.820  -6.796  1.00  0.00    -0.237 OA
ATOM     79  O   UNL     1     -21.002   3.033  -8.774  1.00  0.00    -0.744 OA
ENDBRANCH  75  76
ENDBRANCH  56  70
BRANCH  57  80
ATOM     80  C   UNL     1      -9.146   7.584  -1.603  1.00  0.00    -0.014 A 
ATOM     81  C   UNL     1      -7.785   7.429  -1.946  1.00  0.00     0.010 A 
ATOM     82  C   UNL     1      -9.750   8.842  -1.773  1.00  0.00     0.010 A 
ATOM     83  C   UNL     1      -7.099   8.445  -2.616  1.00  0.00     0.020 A 
ATOM     84  C   UNL     1      -9.059   9.867  -2.438  1.00  0.00     0.020 A 
ATOM     85  C   UNL     1      -7.766   9.632  -2.918  1.00  0.00     0.054 A 
BRANCH  85  86
ATOM     86  S   UNL     1      -6.990  10.767  -4.110  1.00  0.00     0.124 S 
ATOM     87  O   UNL     1      -5.721  11.082  -3.465  1.00  0.00    -0.237 OA
ATOM     88  O   UNL     1      -6.898   9.931  -5.309  1.00  0.00    -0.237 OA
ATOM     89  O   UNL     1      -7.946  11.867  -4.194  1.00  0.00    -0.744 OA
ENDBRANCH  85  86
ENDBRANCH  57  80
BRANCH  69  90
ATOM     90  C   UNL     1     -15.366   5.211   1.303  1.00  0.00    -0.014 A 
ATOM     91  C   UNL     1     -15.326   6.178   2.320  1.00  0.00     0.010 A 
ATOM     92  C   UNL     1     -16.488   4.348   1.279  1.00  0.00     0.010 A 
ATOM     93  C   UNL     1     -16.323   6.239   3.306  1.00  0.00     0.020 A 
ATOM     94  C   UNL     1     -17.508   4.428   2.232  1.00  0.00     0.020 A 
ATOM     95  C   UNL     1     -17.404   5.359   3.259  1.00  0.00     0.054 A 
BRANCH  95  96
ATOM     96  S   UNL     1     -18.721   5.480   4.497  1.00  0.00     0.124 S 
ATOM     97  O   UNL     1     -18.241   4.572   5.535  1.00  0.00    -0.237 OA
ATOM     98  O   UNL     1     -18.712   6.897   4.852  1.00  0.00    -0.237 OA
ATOM     99  O   UNL     1     -19.909   5.035   3.773  1.00  0.00    -0.744 OA
ENDBRANCH  95  96
ENDBRANCH  69  90
ENDBRANCH  43  44
ENDBRANCH  35  38
ENDBRANCH  33  34
ENDBRANCH  32  33
ENDBRANCH  31  32
ENDBRANCH   1  31
TORSDOF 19
