REMARK SMILES O=C(CCCCCc1cc2c(cc1Br)OCCCO2)NCCCCNC(=O)c1ccc(-c2c3nc(c(-c4ccc(S(=O)(=O)[O-])cc4)c4ccc([nH]4)c(-c4ccc(S(=O)(=O)[O-])cc4)c4nc(c(-c5ccc(S(=O)(=O)[O-])cc5)c5ccc2[nH]5)C=C4)C=C3)cc1
REMARK SMILES IDX 1 1 2 2 20 3 3 5 4 6 5 7 6 8 7 9 8 10 9 11 13 12 10 13 12 14
REMARK SMILES IDX 14 15 11 16 19 17 18 18 17 19 15 21 16 22 21 24 22 25 23 26
REMARK SMILES IDX 24 27 25 28 26 29 27 31 28 32 29 33 87 34 30 35 86 36 31 37
REMARK SMILES IDX 32 38 33 39 80 40 34 41 85 42 79 43 81 44 35 45 84 46 78 47
REMARK SMILES IDX 77 48 36 50 66 51 47 52 65 53 48 54 51 55 64 56 82 57 49 58
REMARK SMILES IDX 50 59 63 61 83 62 52 63 37 64 38 65 46 66 39 67 45 68 40 69
REMARK SMILES IDX 41 70 42 71 43 72 44 73 67 74 68 75 76 76 69 77 75 78 70 79
REMARK SMILES IDX 71 80 72 81 73 82 74 83 53 84 54 85 62 86 55 87 61 88 56 89
REMARK SMILES IDX 57 90 58 91 59 92 60 93
REMARK H PARENT 20 4 25 30 81 49 51 60
REMARK Flexibility Score: 90.00
ROOT
ATOM      1  O   UNL     1       0.880   0.452  -0.526  1.00  0.00    -0.275 OA
ATOM      2  C   UNL     1       1.952   0.097  -0.046  1.00  0.00     0.219 C 
ATOM      3  N   UNL     1       2.509   0.658   1.082  1.00  0.00    -0.356 N 
ATOM      4  H   UNL     1       3.336   0.271   1.451  1.00  0.00     0.163 HD
ENDROOT
BRANCH   2   5
ATOM      5  C   UNL     1       2.811  -0.976  -0.688  1.00  0.00     0.100 C 
BRANCH   5   6
ATOM      6  C   UNL     1       3.767  -0.387  -1.725  1.00  0.00     0.010 C 
BRANCH   6   7
ATOM      7  C   UNL     1       4.861   0.524  -1.157  1.00  0.00     0.001 C 
BRANCH   7   8
ATOM      8  C   UNL     1       5.898  -0.173  -0.261  1.00  0.00     0.005 C 
BRANCH   8   9
ATOM      9  C   UNL     1       6.888  -1.092  -1.007  1.00  0.00     0.037 C 
BRANCH   9  10
ATOM     10  C   UNL     1       7.665  -0.439  -2.133  1.00  0.00    -0.030 A 
ATOM     11  C   UNL     1       8.058   0.906  -2.015  1.00  0.00     0.055 A 
ATOM     12  C   UNL     1       8.025  -1.121  -3.311  1.00  0.00     0.025 A 
ATOM     13  C   UNL     1       8.614   1.591  -3.092  1.00  0.00     0.161 A 
ATOM     14  C   UNL     1       8.650  -0.447  -4.369  1.00  0.00     0.066 A 
ATOM     15  Br  UNL     1       7.695  -2.977  -3.561  1.00  0.00    -0.050 Br
ATOM     16  C   UNL     1       8.895   0.919  -4.276  1.00  0.00     0.162 A 
BRANCH  13  17
ATOM     17  O   UNL     1       8.885   2.917  -2.906  1.00  0.00    -0.490 OA
BRANCH  17  18
ATOM     18  C   UNL     1       8.072   3.731  -3.754  1.00  0.00     0.233 C 
BRANCH  18  19
ATOM     19  C   UNL     1       8.664   3.853  -5.150  1.00  0.00     0.083 CG0
ATOM     20  G   UNL     1       8.603   2.532  -5.907  1.00  0.00     0.000 G0
ENDBRANCH  18  19
ENDBRANCH  17  18
ENDBRANCH  13  17
BRANCH  16  21
ATOM     21  O   UNL     1       9.467   1.535  -5.355  1.00  0.00    -0.490 OA
BRANCH  21  22
ATOM     22  C   UNL     1       8.603   2.532  -5.907  1.00  0.00     0.233 CG0
ATOM     23  G   UNL     1       8.664   3.853  -5.150  1.00  0.00     0.000 G0
ENDBRANCH  21  22
ENDBRANCH  16  21
ENDBRANCH   9  10
ENDBRANCH   8   9
ENDBRANCH   7   8
ENDBRANCH   6   7
ENDBRANCH   5   6
ENDBRANCH   2   5
BRANCH   3  24
ATOM     24  C   UNL     1       1.912   1.801   1.740  1.00  0.00     0.116 C 
BRANCH  24  25
ATOM     25  C   UNL     1       2.321   1.920   3.207  1.00  0.00     0.023 C 
BRANCH  25  26
ATOM     26  C   UNL     1       3.819   2.111   3.462  1.00  0.00     0.023 C 
BRANCH  26  27
ATOM     27  C   UNL     1       4.444   3.350   2.828  1.00  0.00     0.116 C 
BRANCH  27  28
ATOM     28  N   UNL     1       3.950   4.593   3.402  1.00  0.00    -0.352 N 
ATOM     29  C   UNL     1       4.640   5.623   4.001  1.00  0.00     0.251 C 
ATOM     30  H   UNL     1       2.975   4.716   3.355  1.00  0.00     0.163 HD
ATOM     31  O   UNL     1       4.021   6.531   4.551  1.00  0.00    -0.269 OA
BRANCH  29  32
ATOM     32  C   UNL     1       6.122   5.622   4.022  1.00  0.00     0.039 A 
ATOM     33  C   UNL     1       6.859   5.300   2.882  1.00  0.00     0.014 A 
ATOM     34  C   UNL     1       6.784   5.938   5.213  1.00  0.00     0.014 A 
ATOM     35  C   UNL     1       8.237   5.117   2.978  1.00  0.00     0.010 A 
ATOM     36  C   UNL     1       8.178   5.833   5.286  1.00  0.00     0.010 A 
ATOM     37  C   UNL     1       8.911   5.365   4.185  1.00  0.00    -0.014 A 
BRANCH  37  38
ATOM     38  C   UNL     1      10.374   5.109   4.275  1.00  0.00     0.031 A 
ATOM     39  C   UNL     1      10.913   4.021   5.167  1.00  0.00     0.074 A 
ATOM     40  C   UNL     1      11.221   5.816   3.501  1.00  0.00     0.049 A 
ATOM     41  N   UNL     1      12.149   3.612   5.308  1.00  0.00    -0.248 NA
ATOM     42  C   UNL     1       9.947   3.296   6.010  1.00  0.00     0.031 C 
ATOM     43  C   UNL     1      10.822   6.883   2.582  1.00  0.00     0.029 A 
ATOM     44  N   UNL     1      12.580   5.721   3.333  1.00  0.00    -0.354 N 
ATOM     45  C   UNL     1      12.113   2.603   6.263  1.00  0.00     0.074 A 
ATOM     46  C   UNL     1      10.737   2.476   6.690  1.00  0.00     0.031 C 
ATOM     47  C   UNL     1      11.898   7.292   1.895  1.00  0.00     0.029 A 
ATOM     48  C   UNL     1      13.074   6.564   2.365  1.00  0.00     0.049 A 
ATOM     49  H   UNL     1      13.147   5.108   3.855  1.00  0.00     0.167 HD
ATOM     50  C   UNL     1      13.130   1.843   6.733  1.00  0.00     0.031 A 
ATOM     51  C   UNL     1      14.327   6.736   1.898  1.00  0.00     0.031 A 
ATOM     52  C   UNL     1      14.496   1.954   6.292  1.00  0.00     0.049 A 
ATOM     53  C   UNL     1      15.446   5.910   2.461  1.00  0.00     0.074 A 
ATOM     54  C   UNL     1      15.583   1.191   6.681  1.00  0.00     0.029 A 
ATOM     55  N   UNL     1      14.965   2.881   5.374  1.00  0.00    -0.354 N 
ATOM     56  N   UNL     1      15.386   4.948   3.350  1.00  0.00    -0.248 NA
ATOM     57  C   UNL     1      16.801   6.194   1.968  1.00  0.00     0.031 C 
ATOM     58  C   UNL     1      16.721   1.697   6.046  1.00  0.00     0.029 A 
ATOM     59  C   UNL     1      16.332   2.733   5.212  1.00  0.00     0.049 A 
ATOM     60  H   UNL     1      14.409   3.545   4.907  1.00  0.00     0.167 HD
ATOM     61  C   UNL     1      16.693   4.507   3.520  1.00  0.00     0.074 A 
ATOM     62  C   UNL     1      17.521   5.297   2.631  1.00  0.00     0.031 C 
ATOM     63  C   UNL     1      17.157   3.535   4.342  1.00  0.00     0.031 A 
BRANCH  50  64
ATOM     64  C   UNL     1      12.822   0.819   7.795  1.00  0.00    -0.014 A 
ATOM     65  C   UNL     1      13.313   1.004   9.101  1.00  0.00     0.010 A 
ATOM     66  C   UNL     1      12.134  -0.368   7.485  1.00  0.00     0.010 A 
ATOM     67  C   UNL     1      13.136   0.017  10.074  1.00  0.00     0.020 A 
ATOM     68  C   UNL     1      11.933  -1.347   8.463  1.00  0.00     0.020 A 
ATOM     69  C   UNL     1      12.451  -1.156   9.747  1.00  0.00     0.054 A 
BRANCH  69  70
ATOM     70  S   UNL     1      12.219  -2.425  11.023  1.00  0.00     0.124 S 
ATOM     71  O   UNL     1      13.515  -3.095  11.031  1.00  0.00    -0.237 OA
ATOM     72  O   UNL     1      11.908  -1.634  12.212  1.00  0.00    -0.237 OA
ATOM     73  O   UNL     1      11.105  -3.220  10.510  1.00  0.00    -0.744 OA
ENDBRANCH  69  70
ENDBRANCH  50  64
BRANCH  51  74
ATOM     74  C   UNL     1      14.549   7.719   0.803  1.00  0.00    -0.014 A 
ATOM     75  C   UNL     1      14.405   9.098   1.045  1.00  0.00     0.010 A 
ATOM     76  C   UNL     1      14.767   7.272  -0.511  1.00  0.00     0.010 A 
ATOM     77  C   UNL     1      14.394  10.005  -0.017  1.00  0.00     0.020 A 
ATOM     78  C   UNL     1      14.784   8.180  -1.574  1.00  0.00     0.020 A 
ATOM     79  C   UNL     1      14.558   9.536  -1.323  1.00  0.00     0.054 A 
BRANCH  79  80
ATOM     80  S   UNL     1      14.430  10.715  -2.696  1.00  0.00     0.124 S 
ATOM     81  O   UNL     1      12.986  10.915  -2.783  1.00  0.00    -0.237 OA
ATOM     82  O   UNL     1      15.195  11.859  -2.209  1.00  0.00    -0.237 OA
ATOM     83  O   UNL     1      15.030   9.999  -3.819  1.00  0.00    -0.744 OA
ENDBRANCH  79  80
ENDBRANCH  51  74
BRANCH  63  84
ATOM     84  C   UNL     1      18.637   3.259   4.354  1.00  0.00    -0.014 A 
ATOM     85  C   UNL     1      19.127   2.046   3.834  1.00  0.00     0.010 A 
ATOM     86  C   UNL     1      19.523   4.133   5.007  1.00  0.00     0.010 A 
ATOM     87  C   UNL     1      20.468   1.694   4.001  1.00  0.00     0.020 A 
ATOM     88  C   UNL     1      20.872   3.794   5.154  1.00  0.00     0.020 A 
ATOM     89  C   UNL     1      21.329   2.564   4.674  1.00  0.00     0.054 A 
BRANCH  89  90
ATOM     90  S   UNL     1      23.058   2.072   4.920  1.00  0.00     0.124 S 
ATOM     91  O   UNL     1      22.954   1.133   6.033  1.00  0.00    -0.237 OA
ATOM     92  O   UNL     1      23.413   1.483   3.631  1.00  0.00    -0.237 OA
ATOM     93  O   UNL     1      23.732   3.332   5.226  1.00  0.00    -0.744 OA
ENDBRANCH  89  90
ENDBRANCH  63  84
ENDBRANCH  37  38
ENDBRANCH  29  32
ENDBRANCH  27  28
ENDBRANCH  26  27
ENDBRANCH  25  26
ENDBRANCH  24  25
ENDBRANCH   3  24
TORSDOF 19
