REMARK SMILES C[C@]1(C(=O)NCc2ccc(C(=O)NCCCCNC(=O)c3ccc(-c4c5nc(c(-c6ccc(S(=O)(=O)[O-])cc6)c6ccc([nH]6)c(-c6ccc(S(=O)(=O)[O-])cc6)c6nc(c(-c7ccc(S(=O)(=O)[O-])cc7)c7ccc4[nH]7)C=C6)C=C5)cc3)o2)CCC[NH2+]C1
REMARK SMILES IDX 15 1 14 2 13 3 11 4 12 5 10 7 7 8 8 9 81 10 9 11 6 12 5 13
REMARK SMILES IDX 3 14 4 15 2 17 1 18 82 19 86 20 83 21 85 22 84 23 16 26
REMARK SMILES IDX 17 27 18 28 19 29 20 31 21 32 22 33 80 34 23 35 79 36 24 37
REMARK SMILES IDX 25 38 26 39 73 40 27 41 78 42 72 43 74 44 28 45 77 46 71 47
REMARK SMILES IDX 70 48 29 50 59 51 40 52 58 53 41 54 44 55 57 56 75 57 42 58
REMARK SMILES IDX 43 59 56 61 76 62 45 63 30 64 31 65 39 66 32 67 38 68 33 69
REMARK SMILES IDX 34 70 35 71 36 72 37 73 60 74 61 75 69 76 62 77 68 78 63 79
REMARK SMILES IDX 64 80 65 81 66 82 67 83 46 84 47 85 55 86 48 87 54 88 49 89
REMARK SMILES IDX 50 90 51 91 52 92 53 93
REMARK H PARENT 13 6 5 16 85 24 85 25 18 30 74 49 44 60
REMARK Flexibility Score: inf
ROOT
ATOM      1  C   UNL     1      -4.064   2.823  -6.284  1.00  0.00     0.023 C 
ENDROOT
BRANCH   1   2
ATOM      2  C   UNL     1      -4.616   1.747  -5.349  1.00  0.00     0.116 C 
BRANCH   2   3
ATOM      3  N   UNL     1      -4.129   0.433  -5.701  1.00  0.00    -0.349 N 
ATOM      4  C   UNL     1      -3.009  -0.262  -5.303  1.00  0.00     0.286 C 
ATOM      5  O   UNL     1      -2.901  -1.397  -5.775  1.00  0.00    -0.266 OA
ATOM      6  H   UNL     1      -4.699  -0.052  -6.340  1.00  0.00     0.163 HD
BRANCH   4   7
ATOM      7  C   UNL     1      -2.030   0.300  -4.384  1.00  0.00     0.191 A 
ATOM      8  C   UNL     1      -0.202   0.121  -3.128  1.00  0.00     0.124 A 
ATOM      9  C   UNL     1      -0.669   1.403  -2.953  1.00  0.00     0.048 A 
ATOM     10  O   UNL     1      -1.012  -0.544  -3.995  1.00  0.00    -0.454 OA
ATOM     11  C   UNL     1      -1.824   1.522  -3.764  1.00  0.00     0.056 A 
BRANCH   8  12
ATOM     12  C   UNL     1       0.951  -0.644  -2.590  1.00  0.00     0.191 C 
BRANCH  12  13
ATOM     13  N   UNL     1       1.480   0.029  -1.421  1.00  0.00    -0.348 N 
ATOM     14  C   UNL     1       1.341  -0.103  -0.088  1.00  0.00     0.232 C 
ATOM     15  O   UNL     1       1.900   0.808   0.547  1.00  0.00    -0.274 OA
ATOM     16  H   UNL     1       2.092   0.762  -1.661  1.00  0.00     0.163 HD
BRANCH  14  17
ATOM     17  C   UNL     1       0.541  -1.192   0.679  1.00  0.00     0.095 C 
ATOM     18  C   UNL     1       1.200  -1.220   2.097  1.00  0.00     0.028 C 
ATOM     19  C   UNL     1      -0.927  -0.765   0.895  1.00  0.00     0.028 C 
ATOM     20  C   UNL     1       0.651  -2.634   0.141  1.00  0.00     0.277 C 
ATOM     21  C   UNL     1      -1.873  -1.227  -0.203  1.00  0.00     0.063 C 
ATOM     22  N   UNL     1      -0.325  -3.021  -0.876  1.00  0.00    -0.345 N 
ATOM     23  C   UNL     1      -1.700  -2.706  -0.516  1.00  0.00     0.260 C 
ATOM     24  H   UNL     1      -0.098  -2.532  -1.742  1.00  0.00     0.346 HD
ATOM     25  H   UNL     1      -0.267  -4.034  -0.976  1.00  0.00     0.346 HD
ENDBRANCH  14  17
ENDBRANCH  12  13
ENDBRANCH   8  12
ENDBRANCH   4   7
ENDBRANCH   2   3
ENDBRANCH   1   2
BRANCH   1  26
ATOM     26  C   UNL     1      -4.859   2.993  -7.584  1.00  0.00     0.023 C 
BRANCH  26  27
ATOM     27  C   UNL     1      -6.325   3.391  -7.410  1.00  0.00     0.116 C 
BRANCH  27  28
ATOM     28  N   UNL     1      -6.513   4.585  -6.600  1.00  0.00    -0.352 N 
ATOM     29  C   UNL     1      -7.501   5.539  -6.692  1.00  0.00     0.251 C 
ATOM     30  H   UNL     1      -5.844   4.730  -5.892  1.00  0.00     0.163 HD
ATOM     31  O   UNL     1      -7.462   6.535  -5.986  1.00  0.00    -0.269 OA
BRANCH  29  32
ATOM     32  C   UNL     1      -8.583   5.362  -7.685  1.00  0.00     0.039 A 
ATOM     33  C   UNL     1      -8.868   6.414  -8.559  1.00  0.00     0.014 A 
ATOM     34  C   UNL     1      -9.281   4.156  -7.777  1.00  0.00     0.014 A 
ATOM     35  C   UNL     1      -9.805   6.228  -9.578  1.00  0.00     0.010 A 
ATOM     36  C   UNL     1     -10.168   3.952  -8.830  1.00  0.00     0.010 A 
ATOM     37  C   UNL     1     -10.432   4.982  -9.745  1.00  0.00    -0.014 A 
BRANCH  37  38
ATOM     38  C   UNL     1     -11.350   4.731 -10.885  1.00  0.00     0.031 A 
ATOM     39  C   UNL     1     -12.804   4.438 -10.636  1.00  0.00     0.074 A 
ATOM     40  C   UNL     1     -10.857   4.696 -12.139  1.00  0.00     0.049 A 
ATOM     41  N   UNL     1     -13.740   4.132 -11.497  1.00  0.00    -0.248 NA
ATOM     42  C   UNL     1     -13.259   4.469  -9.237  1.00  0.00     0.031 C 
ATOM     43  C   UNL     1      -9.456   4.916 -12.507  1.00  0.00     0.029 A 
ATOM     44  N   UNL     1     -11.479   4.452 -13.338  1.00  0.00    -0.354 N 
ATOM     45  C   UNL     1     -14.889   3.917 -10.745  1.00  0.00     0.074 A 
ATOM     46  C   UNL     1     -14.521   4.083  -9.355  1.00  0.00     0.031 C 
ATOM     47  C   UNL     1      -9.331   4.821 -13.841  1.00  0.00     0.029 A 
ATOM     48  C   UNL     1     -10.630   4.497 -14.420  1.00  0.00     0.049 A 
ATOM     49  H   UNL     1     -12.441   4.262 -13.417  1.00  0.00     0.167 HD
ATOM     50  C   UNL     1     -16.141   3.626 -11.172  1.00  0.00     0.031 A 
ATOM     51  C   UNL     1     -10.870   4.296 -15.730  1.00  0.00     0.031 A 
ATOM     52  C   UNL     1     -16.508   3.477 -12.555  1.00  0.00     0.049 A 
ATOM     53  C   UNL     1     -12.268   3.976 -16.180  1.00  0.00     0.074 A 
ATOM     54  C   UNL     1     -17.761   3.241 -13.092  1.00  0.00     0.029 A 
ATOM     55  N   UNL     1     -15.623   3.547 -13.620  1.00  0.00    -0.354 N 
ATOM     56  N   UNL     1     -13.355   3.843 -15.458  1.00  0.00    -0.248 NA
ATOM     57  C   UNL     1     -12.475   3.789 -17.623  1.00  0.00     0.031 C 
ATOM     58  C   UNL     1     -17.628   3.127 -14.479  1.00  0.00     0.029 A 
ATOM     59  C   UNL     1     -16.299   3.340 -14.810  1.00  0.00     0.049 A 
ATOM     60  H   UNL     1     -14.657   3.720 -13.542  1.00  0.00     0.167 HD
ATOM     61  C   UNL     1     -14.378   3.578 -16.361  1.00  0.00     0.074 A 
ATOM     62  C   UNL     1     -13.784   3.586 -17.682  1.00  0.00     0.031 C 
ATOM     63  C   UNL     1     -15.692   3.349 -16.117  1.00  0.00     0.031 A 
BRANCH  50  64
ATOM     64  C   UNL     1     -17.208   3.450 -10.125  1.00  0.00    -0.014 A 
ATOM     65  C   UNL     1     -17.695   4.551  -9.396  1.00  0.00     0.010 A 
ATOM     66  C   UNL     1     -17.756   2.176  -9.889  1.00  0.00     0.010 A 
ATOM     67  C   UNL     1     -18.679   4.374  -8.421  1.00  0.00     0.020 A 
ATOM     68  C   UNL     1     -18.760   2.000  -8.932  1.00  0.00     0.020 A 
ATOM     69  C   UNL     1     -19.202   3.098  -8.192  1.00  0.00     0.054 A 
BRANCH  69  70
ATOM     70  S   UNL     1     -20.492   2.900  -6.932  1.00  0.00     0.124 S 
ATOM     71  O   UNL     1     -19.722   3.014  -5.695  1.00  0.00    -0.237 OA
ATOM     72  O   UNL     1     -21.392   4.015  -7.215  1.00  0.00    -0.237 OA
ATOM     73  O   UNL     1     -21.042   1.575  -7.204  1.00  0.00    -0.744 OA
ENDBRANCH  69  70
ENDBRANCH  50  64
BRANCH  51  74
ATOM     74  C   UNL     1      -9.759   4.407 -16.715  1.00  0.00    -0.014 A 
ATOM     75  C   UNL     1      -9.696   5.502 -17.594  1.00  0.00     0.010 A 
ATOM     76  C   UNL     1      -8.755   3.424 -16.771  1.00  0.00     0.010 A 
ATOM     77  C   UNL     1      -8.659   5.603 -18.526  1.00  0.00     0.020 A 
ATOM     78  C   UNL     1      -7.702   3.534 -17.685  1.00  0.00     0.020 A 
ATOM     79  C   UNL     1      -7.668   4.618 -18.565  1.00  0.00     0.054 A 
BRANCH  79  80
ATOM     80  S   UNL     1      -6.303   4.793 -19.748  1.00  0.00     0.124 S 
ATOM     81  O   UNL     1      -6.943   4.420 -21.006  1.00  0.00    -0.237 OA
ATOM     82  O   UNL     1      -5.946   6.204 -19.613  1.00  0.00    -0.237 OA
ATOM     83  O   UNL     1      -5.299   3.855 -19.251  1.00  0.00    -0.744 OA
ENDBRANCH  79  80
ENDBRANCH  51  74
BRANCH  63  84
ATOM     84  C   UNL     1     -16.584   3.113 -17.305  1.00  0.00    -0.014 A 
ATOM     85  C   UNL     1     -16.543   1.900 -18.015  1.00  0.00     0.010 A 
ATOM     86  C   UNL     1     -17.515   4.099 -17.682  1.00  0.00     0.010 A 
ATOM     87  C   UNL     1     -17.399   1.688 -19.098  1.00  0.00     0.020 A 
ATOM     88  C   UNL     1     -18.389   3.880 -18.749  1.00  0.00     0.020 A 
ATOM     89  C   UNL     1     -18.317   2.679 -19.459  1.00  0.00     0.054 A 
BRANCH  89  90
ATOM     90  S   UNL     1     -19.450   2.361 -20.839  1.00  0.00     0.124 S 
ATOM     91  O   UNL     1     -18.574   2.525 -21.995  1.00  0.00    -0.237 OA
ATOM     92  O   UNL     1     -19.899   0.996 -20.578  1.00  0.00    -0.237 OA
ATOM     93  O   UNL     1     -20.479   3.388 -20.685  1.00  0.00    -0.744 OA
ENDBRANCH  89  90
ENDBRANCH  63  84
ENDBRANCH  37  38
ENDBRANCH  29  32
ENDBRANCH  27  28
ENDBRANCH  26  27
ENDBRANCH   1  26
TORSDOF 17
