REMARK SMILES CC[C@@H]1CCC[C@@](CC[NH+]2CCOCC2)(C(=O)NCCCCNC(=O)c2ccc(-c3c4nc(c(-c5ccc(S(=O)(=O)[O-])cc5)c5ccc([nH]5)c(-c5ccc(S(=O)(=O)[O-])cc5)c5nc(c(-c6ccc(S(=O)(=O)[O-])cc6)c6ccc3[nH]6)C=C5)C=C4)cc2)C1
REMARK SMILES IDX 20 1 19 2 18 3 16 4 17 5 7 7 3 8 4 9 86 10 5 11 6 12 2 13
REMARK SMILES IDX 1 14 8 15 9 16 10 17 11 18 15 19 12 21 14 22 13 23 21 24
REMARK SMILES IDX 22 25 23 26 24 27 25 29 26 30 27 31 85 32 28 33 84 34 29 35
REMARK SMILES IDX 30 36 31 37 78 38 32 39 83 40 77 41 79 42 33 43 82 44 76 45
REMARK SMILES IDX 75 46 34 48 64 49 45 50 63 51 46 52 49 53 62 54 80 55 47 56
REMARK SMILES IDX 48 57 61 59 81 60 50 61 35 62 36 63 44 64 37 65 43 66 38 67
REMARK SMILES IDX 39 68 40 69 41 70 42 71 65 72 66 73 74 74 67 75 73 76 68 77
REMARK SMILES IDX 69 78 70 79 71 80 72 81 51 82 52 83 60 84 53 85 59 86 54 87
REMARK SMILES IDX 55 88 56 89 57 90 58 91
REMARK H PARENT 18 6 10 20 23 28 79 47 49 58
REMARK Flexibility Score: inf
ROOT
ATOM      1  C   UNL     1       2.172   5.645   6.290  1.00  0.00     0.023 C 
ENDROOT
BRANCH   1   2
ATOM      2  C   UNL     1       1.916   5.443   4.802  1.00  0.00     0.116 C 
BRANCH   2   3
ATOM      3  N   UNL     1       2.532   4.235   4.293  1.00  0.00    -0.356 N 
ATOM      4  C   UNL     1       2.176   3.370   3.308  1.00  0.00     0.226 C 
ATOM      5  O   UNL     1       3.042   2.548   2.987  1.00  0.00    -0.274 OA
ATOM      6  H   UNL     1       3.371   3.994   4.749  1.00  0.00     0.163 HD
BRANCH   4   7
ATOM      7  C   UNL     1       0.778   3.357   2.641  1.00  0.00     0.055 C 
ATOM      8  C   UNL     1       0.646   0.710   2.404  1.00  0.00    -0.010 C 
ATOM      9  C   UNL     1      -0.295   0.670   3.616  1.00  0.00     0.003 C 
ATOM     10  C   UNL     1       0.647   2.086   1.720  1.00  0.00     0.020 C 
ATOM     11  C   UNL     1      -0.172   1.895   4.512  1.00  0.00     0.001 C 
ATOM     12  C   UNL     1      -0.335   3.191   3.708  1.00  0.00     0.017 C 
BRANCH   8  13
ATOM     13  C   UNL     1       0.253  -0.415   1.416  1.00  0.00     0.000 C 
ATOM     14  C   UNL     1       0.973  -0.371   0.074  1.00  0.00     0.004 C 
ENDBRANCH   8  13
BRANCH   7  15
ATOM     15  C   UNL     1       0.506   4.531   1.634  1.00  0.00     0.078 C 
BRANCH  15  16
ATOM     16  C   UNL     1       1.137   5.929   1.679  1.00  0.00     0.263 C 
BRANCH  16  17
ATOM     17  N   UNL     1       2.592   6.099   1.667  1.00  0.00    -0.331 N 
ATOM     18  C   UNL     1       2.977   7.465   1.230  1.00  0.00     0.291 C 
ATOM     19  C   UNL     1       3.398   5.128   0.906  1.00  0.00     0.291 C 
ATOM     20  H   UNL     1       2.820   5.922   2.646  1.00  0.00     0.348 HD
ATOM     21  C   UNL     1       3.007   7.641  -0.303  1.00  0.00     0.221 C 
ATOM     22  C   UNL     1       3.445   5.353  -0.608  1.00  0.00     0.221 C 
ATOM     23  O   UNL     1       3.866   6.681  -0.927  1.00  0.00    -0.370 OA
ENDBRANCH  16  17
ENDBRANCH  15  16
ENDBRANCH   7  15
ENDBRANCH   4   7
ENDBRANCH   2   3
ENDBRANCH   1   2
BRANCH   1  24
ATOM     24  C   UNL     1       3.627   5.976   6.637  1.00  0.00     0.023 C 
BRANCH  24  25
ATOM     25  C   UNL     1       4.233   7.146   5.864  1.00  0.00     0.116 C 
BRANCH  25  26
ATOM     26  N   UNL     1       3.476   8.380   6.027  1.00  0.00    -0.352 N 
ATOM     27  C   UNL     1       3.878   9.590   6.547  1.00  0.00     0.251 C 
ATOM     28  H   UNL     1       2.541   8.343   5.720  1.00  0.00     0.163 HD
ATOM     29  O   UNL     1       3.066  10.474   6.756  1.00  0.00    -0.269 OA
BRANCH  27  30
ATOM     30  C   UNL     1       5.308   9.790   6.871  1.00  0.00     0.039 A 
ATOM     31  C   UNL     1       5.656  10.263   8.137  1.00  0.00     0.014 A 
ATOM     32  C   UNL     1       6.296   9.473   5.936  1.00  0.00     0.014 A 
ATOM     33  C   UNL     1       7.004  10.342   8.494  1.00  0.00     0.010 A 
ATOM     34  C   UNL     1       7.634   9.483   6.319  1.00  0.00     0.010 A 
ATOM     35  C   UNL     1       8.002   9.912   7.603  1.00  0.00    -0.014 A 
BRANCH  35  36
ATOM     36  C   UNL     1       9.434   9.889   8.000  1.00  0.00     0.031 A 
ATOM     37  C   UNL     1      10.434  10.748   7.272  1.00  0.00     0.074 A 
ATOM     38  C   UNL     1       9.846   9.039   8.964  1.00  0.00     0.049 A 
ATOM     39  N   UNL     1      11.731  10.815   7.432  1.00  0.00    -0.248 NA
ATOM     40  C   UNL     1       9.916  11.627   6.210  1.00  0.00     0.031 C 
ATOM     41  C   UNL     1       8.985   8.117   9.711  1.00  0.00     0.029 A 
ATOM     42  N   UNL     1      11.098   8.803   9.476  1.00  0.00    -0.354 N 
ATOM     43  C   UNL     1      12.184  11.717   6.477  1.00  0.00     0.074 A 
ATOM     44  C   UNL     1      11.031  12.147   5.718  1.00  0.00     0.031 C 
ATOM     45  C   UNL     1       9.729   7.438  10.598  1.00  0.00     0.029 A 
ATOM     46  C   UNL     1      11.124   7.841  10.459  1.00  0.00     0.049 A 
ATOM     47  H   UNL     1      11.903   9.280   9.169  1.00  0.00     0.167 HD
ATOM     48  C   UNL     1      13.445  12.160   6.262  1.00  0.00     0.031 A 
ATOM     49  C   UNL     1      12.155   7.332  11.162  1.00  0.00     0.031 A 
ATOM     50  C   UNL     1      14.586  11.758   7.041  1.00  0.00     0.049 A 
ATOM     51  C   UNL     1      13.545   7.852  10.905  1.00  0.00     0.074 A 
ATOM     52  C   UNL     1      15.887  12.221   6.956  1.00  0.00     0.029 A 
ATOM     53  N   UNL     1      14.565  10.802   8.043  1.00  0.00    -0.354 N 
ATOM     54  N   UNL     1      13.936   8.777  10.062  1.00  0.00    -0.248 NA
ATOM     55  C   UNL     1      14.632   7.268  11.704  1.00  0.00     0.031 C 
ATOM     56  C   UNL     1      16.666  11.505   7.869  1.00  0.00     0.029 A 
ATOM     57  C   UNL     1      15.837  10.639   8.564  1.00  0.00     0.049 A 
ATOM     58  H   UNL     1      13.765  10.312   8.341  1.00  0.00     0.167 HD
ATOM     59  C   UNL     1      15.308   8.908  10.255  1.00  0.00     0.074 A 
ATOM     60  C   UNL     1      15.675   7.981  11.303  1.00  0.00     0.031 C 
ATOM     61  C   UNL     1      16.185   9.724   9.620  1.00  0.00     0.031 A 
BRANCH  48  62
ATOM     62  C   UNL     1      13.672  13.136   5.139  1.00  0.00    -0.014 A 
ATOM     63  C   UNL     1      13.244  14.472   5.238  1.00  0.00     0.010 A 
ATOM     64  C   UNL     1      14.406  12.734   4.007  1.00  0.00     0.010 A 
ATOM     65  C   UNL     1      13.531  15.383   4.219  1.00  0.00     0.020 A 
ATOM     66  C   UNL     1      14.717  13.649   2.998  1.00  0.00     0.020 A 
ATOM     67  C   UNL     1      14.271  14.967   3.108  1.00  0.00     0.054 A 
BRANCH  67  68
ATOM     68  S   UNL     1      14.688  16.191   1.835  1.00  0.00     0.124 S 
ATOM     69  O   UNL     1      13.396  16.401   1.185  1.00  0.00    -0.237 OA
ATOM     70  O   UNL     1      15.185  17.315   2.623  1.00  0.00    -0.237 OA
ATOM     71  O   UNL     1      15.692  15.514   1.018  1.00  0.00    -0.744 OA
ENDBRANCH  67  68
ENDBRANCH  48  62
BRANCH  49  72
ATOM     72  C   UNL     1      11.927   6.270  12.182  1.00  0.00    -0.014 A 
ATOM     73  C   UNL     1      12.121   6.538  13.549  1.00  0.00     0.010 A 
ATOM     74  C   UNL     1      11.555   4.972  11.788  1.00  0.00     0.010 A 
ATOM     75  C   UNL     1      11.993   5.519  14.498  1.00  0.00     0.020 A 
ATOM     76  C   UNL     1      11.395   3.958  12.737  1.00  0.00     0.020 A 
ATOM     77  C   UNL     1      11.637   4.233  14.084  1.00  0.00     0.054 A 
BRANCH  77  78
ATOM     78  S   UNL     1      11.475   2.924  15.330  1.00  0.00     0.124 S 
ATOM     79  O   UNL     1      12.869   2.625  15.639  1.00  0.00    -0.237 OA
ATOM     80  O   UNL     1      10.719   3.587  16.390  1.00  0.00    -0.237 OA
ATOM     81  O   UNL     1      10.748   1.871  14.624  1.00  0.00    -0.744 OA
ENDBRANCH  77  78
ENDBRANCH  49  72
BRANCH  61  82
ATOM     82  C   UNL     1      17.620   9.690  10.073  1.00  0.00    -0.014 A 
ATOM     83  C   UNL     1      18.453   8.597   9.781  1.00  0.00     0.010 A 
ATOM     84  C   UNL     1      18.155  10.801  10.751  1.00  0.00     0.010 A 
ATOM     85  C   UNL     1      19.790   8.601  10.190  1.00  0.00     0.020 A 
ATOM     86  C   UNL     1      19.498  10.821  11.135  1.00  0.00     0.020 A 
ATOM     87  C   UNL     1      20.303   9.713  10.864  1.00  0.00     0.054 A 
BRANCH  87  88
ATOM     88  S   UNL     1      22.052   9.714  11.344  1.00  0.00     0.124 S 
ATOM     89  O   UNL     1      22.058   8.791  12.475  1.00  0.00    -0.237 OA
ATOM     90  O   UNL     1      22.717   9.232  10.136  1.00  0.00    -0.237 OA
ATOM     91  O   UNL     1      22.320  11.111  11.679  1.00  0.00    -0.744 OA
ENDBRANCH  87  88
ENDBRANCH  61  82
ENDBRANCH  35  36
ENDBRANCH  27  30
ENDBRANCH  25  26
ENDBRANCH  24  25
ENDBRANCH   1  24
TORSDOF 18
