REMARK SMILES Cc1ccc(S(=O)(=O)Nc2cc(C(=O)NCCCCNC(=O)c3ccc(-c4c5nc(c(-c6ccc(S(=O)(=O)[O-])cc6)c6ccc([nH]6)c(-c6ccc(S(=O)(=O)[O-])cc6)c6nc(c(-c7ccc(S(=O)(=O)[O-])cc7)c7ccc4[nH]7)C=C6)C=C5)cc3)cnc2N2CCCC2)c(C)c1
REMARK SMILES IDX 17 1 16 2 15 3 13 4 14 5 12 7 10 8 11 9 85 10 84 11 83 12
REMARK SMILES IDX 9 13 6 15 7 16 8 17 5 18 1 19 2 20 3 21 93 22 4 23 91 24
REMARK SMILES IDX 92 25 86 26 87 27 90 28 88 29 89 30 18 31 19 32 20 33 21 34
REMARK SMILES IDX 22 36 23 37 24 38 82 39 25 40 81 41 26 42 27 43 28 44 75 45
REMARK SMILES IDX 29 46 80 47 74 48 76 49 30 50 79 51 73 52 72 53 31 55 61 56
REMARK SMILES IDX 42 57 60 58 43 59 46 60 59 61 77 62 44 63 45 64 58 66 78 67
REMARK SMILES IDX 47 68 32 69 33 70 41 71 34 72 40 73 35 74 36 75 37 76 38 77
REMARK SMILES IDX 39 78 62 79 63 80 71 81 64 82 70 83 65 84 66 85 67 86 68 87
REMARK SMILES IDX 69 88 48 89 49 90 57 91 50 92 56 93 51 94 52 95 53 96 54 97
REMARK SMILES IDX 55 98
REMARK H PARENT 15 6 9 14 20 35 76 54 46 65
REMARK Flexibility Score: inf
ROOT
ATOM      1  C   UNL     1       0.112  -2.037   3.977  1.00  0.00     0.023 C 
ENDROOT
BRANCH   1   2
ATOM      2  C   UNL     1       1.043  -1.823   2.784  1.00  0.00     0.116 C 
BRANCH   2   3
ATOM      3  N   UNL     1       2.022  -2.891   2.693  1.00  0.00    -0.352 N 
ATOM      4  C   UNL     1       2.046  -4.063   1.981  1.00  0.00     0.252 C 
ATOM      5  O   UNL     1       3.047  -4.773   2.076  1.00  0.00    -0.269 OA
ATOM      6  H   UNL     1       2.822  -2.746   3.249  1.00  0.00     0.163 HD
BRANCH   4   7
ATOM      7  C   UNL     1       0.965  -4.486   1.058  1.00  0.00     0.060 A 
ATOM      8  C   UNL     1      -1.201  -4.367   0.036  1.00  0.00     0.092 A 
ATOM      9  C   UNL     1      -0.352  -4.047   1.091  1.00  0.00     0.046 A 
ATOM     10  C   UNL     1      -0.796  -5.311  -0.934  1.00  0.00     0.153 A 
ATOM     11  N   UNL     1       0.443  -5.836  -0.909  1.00  0.00    -0.236 NA
ATOM     12  C   UNL     1       1.300  -5.386   0.048  1.00  0.00     0.127 A 
BRANCH   8  13
ATOM     13  N   UNL     1      -2.478  -3.756  -0.099  1.00  0.00    -0.276 N 
ATOM     14  H   UNL     1      -3.248  -4.345  -0.268  1.00  0.00     0.180 HD
BRANCH  13  15
ATOM     15  S   UNL     1      -2.769  -2.114   0.008  1.00  0.00     0.262 S 
ATOM     16  O   UNL     1      -3.002  -1.854   1.417  1.00  0.00    -0.201 OA
ATOM     17  O   UNL     1      -3.794  -1.864  -0.983  1.00  0.00    -0.201 OA
BRANCH  15  18
ATOM     18  C   UNL     1      -1.359  -1.102  -0.452  1.00  0.00     0.090 A 
ATOM     19  C   UNL     1       2.356   1.095  -0.301  1.00  0.00     0.044 C 
ATOM     20  C   UNL     1       1.058   0.352  -0.429  1.00  0.00    -0.051 A 
ATOM     21  C   UNL     1       1.005  -0.926  -0.988  1.00  0.00     0.005 A 
ATOM     22  C   UNL     1      -0.136   0.957  -0.030  1.00  0.00     0.008 A 
ATOM     23  C   UNL     1      -0.201  -1.640  -1.022  1.00  0.00     0.023 A 
ATOM     24  C   UNL     1      -1.354   0.252  -0.048  1.00  0.00    -0.030 A 
ATOM     25  C   UNL     1      -2.588   1.027   0.335  1.00  0.00     0.046 C 
ENDBRANCH  15  18
ENDBRANCH  13  15
ENDBRANCH   8  13
BRANCH  10  26
ATOM     26  N   UNL     1      -1.672  -5.769  -1.880  1.00  0.00    -0.355 N 
ATOM     27  C   UNL     1      -2.297  -5.028  -2.955  1.00  0.00     0.118 C 
ATOM     28  C   UNL     1      -2.039  -7.175  -1.883  1.00  0.00     0.118 C 
ATOM     29  C   UNL     1      -3.595  -5.812  -3.138  1.00  0.00     0.023 C 
ATOM     30  C   UNL     1      -3.144  -7.258  -2.943  1.00  0.00     0.023 C 
ENDBRANCH  10  26
ENDBRANCH   4   7
ENDBRANCH   2   3
ENDBRANCH   1   2
BRANCH   1  31
ATOM     31  C   UNL     1       0.681  -1.525   5.301  1.00  0.00     0.023 C 
BRANCH  31  32
ATOM     32  C   UNL     1       0.882  -0.014   5.362  1.00  0.00     0.116 C 
BRANCH  32  33
ATOM     33  N   UNL     1      -0.344   0.740   5.148  1.00  0.00    -0.352 N 
ATOM     34  C   UNL     1      -0.682   1.968   5.662  1.00  0.00     0.251 C 
ATOM     35  H   UNL     1      -1.013   0.318   4.562  1.00  0.00     0.163 HD
ATOM     36  O   UNL     1      -1.798   2.438   5.470  1.00  0.00    -0.269 OA
BRANCH  34  37
ATOM     37  C   UNL     1       0.305   2.699   6.483  1.00  0.00     0.039 A 
ATOM     38  C   UNL     1      -0.083   3.174   7.738  1.00  0.00     0.014 A 
ATOM     39  C   UNL     1       1.613   2.885   6.028  1.00  0.00     0.014 A 
ATOM     40  C   UNL     1       0.861   3.789   8.563  1.00  0.00     0.010 A 
ATOM     41  C   UNL     1       2.566   3.440   6.876  1.00  0.00     0.010 A 
ATOM     42  C   UNL     1       2.199   3.901   8.150  1.00  0.00    -0.014 A 
BRANCH  42  43
ATOM     43  C   UNL     1       3.226   4.510   9.030  1.00  0.00     0.031 A 
ATOM     44  C   UNL     1       3.888   5.801   8.630  1.00  0.00     0.074 A 
ATOM     45  C   UNL     1       3.608   3.871  10.154  1.00  0.00     0.049 A 
ATOM     46  N   UNL     1       4.843   6.459   9.234  1.00  0.00    -0.248 NA
ATOM     47  C   UNL     1       3.437   6.418   7.372  1.00  0.00     0.031 C 
ATOM     48  C   UNL     1       3.074   2.591  10.628  1.00  0.00     0.029 A 
ATOM     49  N   UNL     1       4.541   4.210  11.101  1.00  0.00    -0.354 N 
ATOM     50  C   UNL     1       5.126   7.548   8.419  1.00  0.00     0.074 A 
ATOM     51  C   UNL     1       4.269   7.444   7.259  1.00  0.00     0.031 C 
ATOM     52  C   UNL     1       3.669   2.269  11.789  1.00  0.00     0.029 A 
ATOM     53  C   UNL     1       4.646   3.300  12.126  1.00  0.00     0.049 A 
ATOM     54  H   UNL     1       5.085   5.030  11.051  1.00  0.00     0.167 HD
ATOM     55  C   UNL     1       6.010   8.554   8.625  1.00  0.00     0.031 A 
ATOM     56  C   UNL     1       5.437   3.298  13.215  1.00  0.00     0.031 A 
ATOM     57  C   UNL     1       6.834   8.676   9.796  1.00  0.00     0.049 A 
ATOM     58  C   UNL     1       6.386   4.444  13.435  1.00  0.00     0.074 A 
ATOM     59  C   UNL     1       7.706   9.697  10.132  1.00  0.00     0.029 A 
ATOM     60  N   UNL     1       6.884   7.751  10.827  1.00  0.00    -0.354 N 
ATOM     61  N   UNL     1       6.589   5.501  12.685  1.00  0.00    -0.248 NA
ATOM     62  C   UNL     1       7.201   4.405  14.658  1.00  0.00     0.031 C 
ATOM     63  C   UNL     1       8.309   9.373  11.351  1.00  0.00     0.029 A 
ATOM     64  C   UNL     1       7.781   8.171  11.794  1.00  0.00     0.049 A 
ATOM     65  H   UNL     1       6.360   6.918  10.866  1.00  0.00     0.167 HD
ATOM     66  C   UNL     1       7.528   6.270  13.365  1.00  0.00     0.074 A 
ATOM     67  C   UNL     1       7.847   5.561  14.587  1.00  0.00     0.031 C 
ATOM     68  C   UNL     1       8.074   7.459  13.011  1.00  0.00     0.031 A 
BRANCH  55  69
ATOM     69  C   UNL     1       6.129   9.605   7.556  1.00  0.00    -0.014 A 
ATOM     70  C   UNL     1       5.112  10.556   7.354  1.00  0.00     0.010 A 
ATOM     71  C   UNL     1       7.295   9.672   6.772  1.00  0.00     0.010 A 
ATOM     72  C   UNL     1       5.243  11.531   6.363  1.00  0.00     0.020 A 
ATOM     73  C   UNL     1       7.441  10.662   5.796  1.00  0.00     0.020 A 
ATOM     74  C   UNL     1       6.405  11.576   5.587  1.00  0.00     0.054 A 
BRANCH  74  75
ATOM     75  S   UNL     1       6.564  12.870   4.326  1.00  0.00     0.124 S 
ATOM     76  O   UNL     1       5.688  12.368   3.270  1.00  0.00    -0.237 OA
ATOM     77  O   UNL     1       6.086  14.061   5.024  1.00  0.00    -0.237 OA
ATOM     78  O   UNL     1       7.989  12.870   4.006  1.00  0.00    -0.744 OA
ENDBRANCH  74  75
ENDBRANCH  55  69
BRANCH  56  79
ATOM     79  C   UNL     1       5.348   2.191  14.206  1.00  0.00    -0.014 A 
ATOM     80  C   UNL     1       4.768   2.415  15.467  1.00  0.00     0.010 A 
ATOM     81  C   UNL     1       5.854   0.915  13.901  1.00  0.00     0.010 A 
ATOM     82  C   UNL     1       4.725   1.393  16.419  1.00  0.00     0.020 A 
ATOM     83  C   UNL     1       5.791  -0.117  14.842  1.00  0.00     0.020 A 
ATOM     84  C   UNL     1       5.242   0.134  16.102  1.00  0.00     0.054 A 
BRANCH  84  85
ATOM     85  S   UNL     1       5.153  -1.189  17.341  1.00  0.00     0.124 S 
ATOM     86  O   UNL     1       6.249  -0.836  18.238  1.00  0.00    -0.237 OA
ATOM     87  O   UNL     1       3.809  -1.024  17.888  1.00  0.00    -0.237 OA
ATOM     88  O   UNL     1       5.352  -2.404  16.554  1.00  0.00    -0.744 OA
ENDBRANCH  84  85
ENDBRANCH  56  79
BRANCH  68  89
ATOM     89  C   UNL     1       9.031   8.095  13.981  1.00  0.00    -0.014 A 
ATOM     90  C   UNL     1      10.336   7.602  14.148  1.00  0.00     0.010 A 
ATOM     91  C   UNL     1       8.626   9.233  14.702  1.00  0.00     0.010 A 
ATOM     92  C   UNL     1      11.211   8.218  15.047  1.00  0.00     0.020 A 
ATOM     93  C   UNL     1       9.505   9.865  15.584  1.00  0.00     0.020 A 
ATOM     94  C   UNL     1      10.788   9.343  15.763  1.00  0.00     0.054 A 
BRANCH  94  95
ATOM     95  S   UNL     1      11.951  10.149  16.897  1.00  0.00     0.124 S 
ATOM     96  O   UNL     1      11.912   9.260  18.054  1.00  0.00    -0.237 OA
ATOM     97  O   UNL     1      13.201  10.141  16.140  1.00  0.00    -0.237 OA
ATOM     98  O   UNL     1      11.367  11.473  17.106  1.00  0.00    -0.744 OA
ENDBRANCH  94  95
ENDBRANCH  68  89
ENDBRANCH  42  43
ENDBRANCH  34  37
ENDBRANCH  32  33
ENDBRANCH  31  32
ENDBRANCH   1  31
TORSDOF 18
