REMARK SMILES CC(C)C[C@H](NC(=O)CNC(=O)[C@@H](NC(=O)OCc1ccccc1)C(C)C)C(=O)N[C@@H](C)C(=O)NCCCCNC(=O)c1ccc(-c2c3nc(c(-c4ccc(S(=O)(=O)[O-])cc4)c4ccc([nH]4)c(-c4ccc(S(=O)(=O)[O-])cc4)c4nc(c(-c5ccc(S(=O)(=O)[O-])cc5)c5ccc2[nH]5)C=C4)C=C3)cc1
REMARK SMILES IDX 31 1 32 2 30 3 28 4 29 5 5 7 4 8 2 9 1 10 3 11 6 12 7 13
REMARK SMILES IDX 8 15 9 16 10 17 11 18 12 20 13 21 14 22 15 23 16 25 17 26
REMARK SMILES IDX 18 27 19 28 20 29 24 30 21 31 23 32 22 33 25 34 26 35 27 36
REMARK SMILES IDX 33 37 34 38 35 39 36 41 37 42 38 43 39 44 40 45 41 46 42 48
REMARK SMILES IDX 43 49 44 50 102 51 45 52 101 53 46 54 47 55 48 56 95 57
REMARK SMILES IDX 49 58 100 59 94 60 96 61 50 62 99 63 93 64 92 65 51 67 81 68
REMARK SMILES IDX 62 69 80 70 63 71 66 72 79 73 97 74 64 75 65 76 78 78 98 79
REMARK SMILES IDX 67 80 52 81 53 82 61 83 54 84 60 85 55 86 56 87 57 88 58 89
REMARK SMILES IDX 59 90 82 91 83 92 91 93 84 94 90 95 85 96 86 97 87 98 88 99
REMARK SMILES IDX 89 100 68 101 69 102 77 103 70 104 76 105 71 106 72 107
REMARK SMILES IDX 73 108 74 109 75 110
REMARK H PARENT 30 6 6 14 10 19 14 24 35 40 40 47 96 66 66 77
REMARK Flexibility Score: inf
ROOT
ATOM      1  C   UNL     1      -3.259  -0.381   3.812  1.00  0.00     0.168 C 
ATOM      2  C   UNL     1      -3.507   0.908   4.579  1.00  0.00     0.041 C 
ENDROOT
BRANCH   1   3
ATOM      3  N   UNL     1      -3.865  -0.322   2.477  1.00  0.00    -0.343 N 
ATOM      4  C   UNL     1      -3.380  -0.764   1.283  1.00  0.00     0.243 C 
ATOM      5  O   UNL     1      -4.154  -0.801   0.326  1.00  0.00    -0.273 OA
ATOM      6  H   UNL     1      -4.754   0.100   2.439  1.00  0.00     0.164 HD
BRANCH   4   7
ATOM      7  C   UNL     1      -1.929  -1.261   1.171  1.00  0.00     0.171 C 
BRANCH   7   8
ATOM      8  C   UNL     1      -1.767  -2.610   1.867  1.00  0.00     0.038 C 
BRANCH   8   9
ATOM      9  C   UNL     1      -2.827  -3.702   1.646  1.00  0.00    -0.015 C 
ATOM     10  C   UNL     1      -2.984  -4.089   0.173  1.00  0.00     0.007 C 
ATOM     11  C   UNL     1      -2.406  -4.945   2.443  1.00  0.00     0.007 C 
ENDBRANCH   8   9
ENDBRANCH   7   8
BRANCH   7  12
ATOM     12  N   UNL     1      -1.063  -0.172   1.677  1.00  0.00    -0.343 N 
ATOM     13  C   UNL     1       0.247   0.058   1.909  1.00  0.00     0.240 C 
ATOM     14  H   UNL     1      -1.601   0.617   1.914  1.00  0.00     0.164 HD
ATOM     15  O   UNL     1       0.522   1.232   2.201  1.00  0.00    -0.273 OA
BRANCH  13  16
ATOM     16  C   UNL     1       1.402  -0.932   1.719  1.00  0.00     0.216 C 
BRANCH  16  17
ATOM     17  N   UNL     1       1.287  -2.270   2.249  1.00  0.00    -0.345 N 
ATOM     18  C   UNL     1       1.352  -3.494   1.665  1.00  0.00     0.243 C 
ATOM     19  H   UNL     1       1.133  -2.300   3.220  1.00  0.00     0.164 HD
ATOM     20  O   UNL     1       1.424  -4.455   2.441  1.00  0.00    -0.273 OA
BRANCH  18  21
ATOM     21  C   UNL     1       1.369  -3.741   0.124  1.00  0.00     0.177 C 
BRANCH  21  22
ATOM     22  N   UNL     1       0.524  -2.812  -0.639  1.00  0.00    -0.309 N 
ATOM     23  C   UNL     1       0.781  -1.691  -1.361  1.00  0.00     0.408 C 
ATOM     24  H   UNL     1      -0.430  -3.053  -0.623  1.00  0.00     0.167 HD
ATOM     25  O   UNL     1      -0.116  -0.916  -1.643  1.00  0.00    -0.225 OA
BRANCH  23  26
ATOM     26  O   UNL     1       2.065  -1.579  -1.761  1.00  0.00    -0.445 OA
BRANCH  26  27
ATOM     27  C   UNL     1       2.321  -0.519  -2.691  1.00  0.00     0.270 C 
BRANCH  27  28
ATOM     28  C   UNL     1       1.752  -0.709  -4.087  1.00  0.00    -0.011 A 
ATOM     29  C   UNL     1       2.041   0.261  -5.058  1.00  0.00     0.007 A 
ATOM     30  C   UNL     1       0.898  -1.765  -4.443  1.00  0.00     0.007 A 
ATOM     31  C   UNL     1       1.466   0.193  -6.330  1.00  0.00     0.000 A 
ATOM     32  C   UNL     1       0.307  -1.822  -5.705  1.00  0.00     0.000 A 
ATOM     33  C   UNL     1       0.589  -0.841  -6.648  1.00  0.00     0.000 A 
ENDBRANCH  27  28
ENDBRANCH  26  27
ENDBRANCH  23  26
ENDBRANCH  21  22
BRANCH  21  34
ATOM     34  C   UNL     1       2.782  -4.024  -0.424  1.00  0.00     0.015 C 
ATOM     35  C   UNL     1       3.519  -5.081   0.411  1.00  0.00     0.010 C 
ATOM     36  C   UNL     1       2.724  -4.545  -1.867  1.00  0.00     0.010 C 
ENDBRANCH  21  34
ENDBRANCH  18  21
ENDBRANCH  16  17
ENDBRANCH  13  16
ENDBRANCH   7  12
ENDBRANCH   4   7
ENDBRANCH   1   3
BRANCH   1  37
ATOM     37  C   UNL     1      -3.667  -1.619   4.634  1.00  0.00     0.242 C 
ATOM     38  O   UNL     1      -2.813  -2.287   5.225  1.00  0.00    -0.273 OA
ATOM     39  N   UNL     1      -4.969  -1.954   4.831  1.00  0.00    -0.354 N 
ATOM     40  H   UNL     1      -5.113  -2.768   5.366  1.00  0.00     0.163 HD
BRANCH  39  41
ATOM     41  C   UNL     1      -6.176  -1.302   4.378  1.00  0.00     0.116 C 
BRANCH  41  42
ATOM     42  C   UNL     1      -6.961  -2.189   3.418  1.00  0.00     0.023 C 
BRANCH  42  43
ATOM     43  C   UNL     1      -7.627  -3.392   4.089  1.00  0.00     0.023 C 
BRANCH  43  44
ATOM     44  C   UNL     1      -8.433  -3.057   5.339  1.00  0.00     0.116 C 
BRANCH  44  45
ATOM     45  N   UNL     1      -9.393  -1.986   5.120  1.00  0.00    -0.352 N 
ATOM     46  C   UNL     1     -10.659  -1.852   5.628  1.00  0.00     0.251 C 
ATOM     47  H   UNL     1      -9.093  -1.260   4.527  1.00  0.00     0.163 HD
ATOM     48  O   UNL     1     -11.387  -0.948   5.231  1.00  0.00    -0.269 OA
BRANCH  46  49
ATOM     49  C   UNL     1     -11.141  -2.820   6.632  1.00  0.00     0.039 A 
ATOM     50  C   UNL     1     -12.419  -3.358   6.485  1.00  0.00     0.014 A 
ATOM     51  C   UNL     1     -10.328  -3.202   7.704  1.00  0.00     0.014 A 
ATOM     52  C   UNL     1     -12.873  -4.303   7.404  1.00  0.00     0.010 A 
ATOM     53  C   UNL     1     -10.746  -4.212   8.561  1.00  0.00     0.010 A 
ATOM     54  C   UNL     1     -12.034  -4.748   8.440  1.00  0.00    -0.014 A 
BRANCH  54  55
ATOM     55  C   UNL     1     -12.521  -5.735   9.434  1.00  0.00     0.031 A 
ATOM     56  C   UNL     1     -12.645  -5.344  10.883  1.00  0.00     0.074 A 
ATOM     57  C   UNL     1     -12.832  -6.984   9.039  1.00  0.00     0.049 A 
ATOM     58  N   UNL     1     -13.079  -6.053  11.893  1.00  0.00    -0.248 NA
ATOM     59  C   UNL     1     -12.197  -3.990  11.250  1.00  0.00     0.031 C 
ATOM     60  C   UNL     1     -12.696  -7.499   7.674  1.00  0.00     0.029 A 
ATOM     61  N   UNL     1     -13.333  -8.046   9.747  1.00  0.00    -0.354 N 
ATOM     62  C   UNL     1     -12.952  -5.234  13.010  1.00  0.00     0.074 A 
ATOM     63  C   UNL     1     -12.325  -4.009  12.567  1.00  0.00     0.031 C 
ATOM     64  C   UNL     1     -13.139  -8.766   7.638  1.00  0.00     0.029 A 
ATOM     65  C   UNL     1     -13.558  -9.162   8.979  1.00  0.00     0.049 A 
ATOM     66  H   UNL     1     -13.514  -8.011  10.714  1.00  0.00     0.167 HD
ATOM     67  C   UNL     1     -13.350  -5.463  14.284  1.00  0.00     0.031 A 
ATOM     68  C   UNL     1     -14.052 -10.369   9.315  1.00  0.00     0.031 A 
ATOM     69  C   UNL     1     -13.966  -6.688  14.720  1.00  0.00     0.049 A 
ATOM     70  C   UNL     1     -14.497 -10.605  10.731  1.00  0.00     0.074 A 
ATOM     71  C   UNL     1     -14.439  -7.015  15.978  1.00  0.00     0.029 A 
ATOM     72  N   UNL     1     -14.193  -7.790  13.907  1.00  0.00    -0.354 N 
ATOM     73  N   UNL     1     -14.430  -9.796  11.762  1.00  0.00    -0.248 NA
ATOM     74  C   UNL     1     -15.112 -11.906  11.022  1.00  0.00     0.031 C 
ATOM     75  C   UNL     1     -14.903  -8.335  15.938  1.00  0.00     0.029 A 
ATOM     76  C   UNL     1     -14.786  -8.805  14.639  1.00  0.00     0.049 A 
ATOM     77  H   UNL     1     -13.966  -7.842  12.951  1.00  0.00     0.167 HD
ATOM     78  C   UNL     1     -15.022 -10.479  12.819  1.00  0.00     0.074 A 
ATOM     79  C   UNL     1     -15.455 -11.759  12.295  1.00  0.00     0.031 C 
ATOM     80  C   UNL     1     -15.199 -10.079  14.105  1.00  0.00     0.031 A 
BRANCH  67  81
ATOM     81  C   UNL     1     -13.117  -4.360  15.285  1.00  0.00    -0.014 A 
ATOM     82  C   UNL     1     -13.795  -3.129  15.183  1.00  0.00     0.010 A 
ATOM     83  C   UNL     1     -12.202  -4.546  16.337  1.00  0.00     0.010 A 
ATOM     84  C   UNL     1     -13.512  -2.086  16.069  1.00  0.00     0.020 A 
ATOM     85  C   UNL     1     -11.944  -3.518  17.249  1.00  0.00     0.020 A 
ATOM     86  C   UNL     1     -12.582  -2.286  17.093  1.00  0.00     0.054 A 
BRANCH  86  87
ATOM     87  S   UNL     1     -12.225  -0.911  18.220  1.00  0.00     0.124 S 
ATOM     88  O   UNL     1     -11.449  -0.015  17.366  1.00  0.00    -0.237 OA
ATOM     89  O   UNL     1     -13.558  -0.437  18.580  1.00  0.00    -0.237 OA
ATOM     90  O   UNL     1     -11.476  -1.539  19.306  1.00  0.00    -0.744 OA
ENDBRANCH  86  87
ENDBRANCH  67  81
BRANCH  68  91
ATOM     91  C   UNL     1     -14.179 -11.425   8.273  1.00  0.00    -0.014 A 
ATOM     92  C   UNL     1     -15.439 -11.808   7.781  1.00  0.00     0.010 A 
ATOM     93  C   UNL     1     -13.024 -12.019   7.730  1.00  0.00     0.010 A 
ATOM     94  C   UNL     1     -15.543 -12.771   6.772  1.00  0.00     0.020 A 
ATOM     95  C   UNL     1     -13.122 -12.960   6.702  1.00  0.00     0.020 A 
ATOM     96  C   UNL     1     -14.383 -13.335   6.234  1.00  0.00     0.054 A 
BRANCH  96  97
ATOM     97  S   UNL     1     -14.538 -14.524   4.871  1.00  0.00     0.124 S 
ATOM     98  O   UNL     1     -15.076 -15.697   5.551  1.00  0.00    -0.237 OA
ATOM     99  O   UNL     1     -15.456 -13.841   3.962  1.00  0.00    -0.237 OA
ATOM    100  O   UNL     1     -13.170 -14.658   4.376  1.00  0.00    -0.744 OA
ENDBRANCH  96  97
ENDBRANCH  68  91
BRANCH  80 101
ATOM    101  C   UNL     1     -15.932 -11.023  15.024  1.00  0.00    -0.014 A 
ATOM    102  C   UNL     1     -15.365 -12.241  15.439  1.00  0.00     0.010 A 
ATOM    103  C   UNL     1     -17.208 -10.666  15.498  1.00  0.00     0.010 A 
ATOM    104  C   UNL     1     -16.085 -13.110  16.264  1.00  0.00     0.020 A 
ATOM    105  C   UNL     1     -17.916 -11.515  16.351  1.00  0.00     0.020 A 
ATOM    106  C   UNL     1     -17.359 -12.743  16.709  1.00  0.00     0.054 A 
BRANCH 106 107
ATOM    107  S   UNL     1     -18.273 -13.886  17.781  1.00  0.00     0.124 S 
ATOM    108  O   UNL     1     -18.663 -14.934  16.843  1.00  0.00    -0.237 OA
ATOM    109  O   UNL     1     -17.269 -14.269  18.770  1.00  0.00    -0.237 OA
ATOM    110  O   UNL     1     -19.370 -13.072  18.299  1.00  0.00    -0.744 OA
ENDBRANCH 106 107
ENDBRANCH  80 101
ENDBRANCH  54  55
ENDBRANCH  46  49
ENDBRANCH  44  45
ENDBRANCH  43  44
ENDBRANCH  42  43
ENDBRANCH  41  42
ENDBRANCH  39  41
ENDBRANCH   1  37
TORSDOF 27
