REMARK SMILES CCC[NH2+][C@@]1(C(=O)NCCCCNC(=O)c2ccc(-c3c4nc(c(-c5ccc(S(=O)(=O)[O-])cc5)c5ccc([nH]5)c(-c5ccc(S(=O)(=O)[O-])cc5)c5nc(c(-c6ccc(S(=O)(=O)[O-])cc6)c6ccc3[nH]6)C=C5)C=C4)cc2)CC[C@@H](Sc2ccc(OC)cc2)C1
REMARK SMILES IDX 10 1 9 2 8 3 6 4 7 5 5 7 76 8 88 9 77 10 78 11 4 12 3 15
REMARK SMILES IDX 2 16 1 17 79 18 80 19 81 20 87 21 82 22 86 23 83 24 84 25
REMARK SMILES IDX 85 26 11 27 12 28 13 29 14 30 15 32 16 33 17 34 75 35 18 36
REMARK SMILES IDX 74 37 19 38 20 39 21 40 68 41 22 42 73 43 67 44 69 45 23 46
REMARK SMILES IDX 72 47 66 48 65 49 24 51 54 52 35 53 53 54 36 55 39 56 52 57
REMARK SMILES IDX 70 58 37 59 38 60 51 62 71 63 40 64 25 65 26 66 34 67 27 68
REMARK SMILES IDX 33 69 28 70 29 71 30 72 31 73 32 74 55 75 56 76 64 77 57 78
REMARK SMILES IDX 63 79 58 80 59 81 60 82 61 83 62 84 41 85 42 86 50 87 43 88
REMARK SMILES IDX 49 89 44 90 45 91 46 92 47 93 48 94
REMARK H PARENT 8 6 4 13 4 14 13 31 69 50 39 61
REMARK Flexibility Score: inf
ROOT
ATOM      1  C   UNL     1       0.436   3.877   7.263  1.00  0.00     0.023 C 
ENDROOT
BRANCH   1   2
ATOM      2  C   UNL     1       1.171   2.608   6.834  1.00  0.00     0.116 C 
BRANCH   2   3
ATOM      3  N   UNL     1       0.315   1.758   6.043  1.00  0.00    -0.351 N 
ATOM      4  C   UNL     1       0.162   1.583   4.705  1.00  0.00     0.281 C 
ATOM      5  O   UNL     1      -0.832   0.910   4.398  1.00  0.00    -0.268 OA
ATOM      6  H   UNL     1      -0.279   1.188   6.584  1.00  0.00     0.163 HD
BRANCH   4   7
ATOM      7  C   UNL     1       1.124   2.203   3.609  1.00  0.00     0.176 C 
ATOM      8  C   UNL     1       2.631   2.114   3.910  1.00  0.00     0.080 C 
ATOM      9  C   UNL     1       0.818   3.709   3.429  1.00  0.00     0.094 C 
ATOM     10  C   UNL     1       3.175   3.532   4.083  1.00  0.00     0.022 C 
ATOM     11  C   UNL     1       1.976   4.474   4.064  1.00  0.00     0.058 C 
BRANCH   7  12
ATOM     12  N   UNL     1       0.830   1.547   2.295  1.00  0.00    -0.334 N 
ATOM     13  H   UNL     1      -0.165   1.660   2.100  1.00  0.00     0.347 HD
ATOM     14  H   UNL     1       1.431   2.002   1.608  1.00  0.00     0.347 HD
BRANCH  12  15
ATOM     15  C   UNL     1       1.146   0.116   2.234  1.00  0.00     0.261 C 
BRANCH  15  16
ATOM     16  C   UNL     1       0.514  -0.540   1.002  1.00  0.00     0.058 C 
ATOM     17  C   UNL     1       1.013   0.029  -0.319  1.00  0.00     0.010 C 
ENDBRANCH  15  16
ENDBRANCH  12  15
ENDBRANCH   7  12
BRANCH  11  18
ATOM     18  S   UNL     1       2.263   6.149   3.362  1.00  0.00    -0.122 SA
BRANCH  18  19
ATOM     19  C   UNL     1       3.239   5.783   1.920  1.00  0.00     0.008 A 
ATOM     20  C   UNL     1       4.619   5.998   1.948  1.00  0.00     0.019 A 
ATOM     21  C   UNL     1       2.653   5.261   0.767  1.00  0.00     0.019 A 
ATOM     22  C   UNL     1       5.407   5.636   0.853  1.00  0.00     0.047 A 
ATOM     23  C   UNL     1       3.442   4.894  -0.327  1.00  0.00     0.047 A 
ATOM     24  C   UNL     1       4.825   5.070  -0.284  1.00  0.00     0.118 A 
BRANCH  24  25
ATOM     25  O   UNL     1       5.705   4.741  -1.277  1.00  0.00    -0.497 OA
ATOM     26  C   UNL     1       5.161   4.096  -2.422  1.00  0.00     0.278 C 
ENDBRANCH  24  25
ENDBRANCH  18  19
ENDBRANCH  11  18
ENDBRANCH   4   7
ENDBRANCH   2   3
ENDBRANCH   1   2
BRANCH   1  27
ATOM     27  C   UNL     1      -0.350   3.738   8.566  1.00  0.00     0.023 C 
BRANCH  27  28
ATOM     28  C   UNL     1       0.490   3.337   9.772  1.00  0.00     0.116 C 
BRANCH  28  29
ATOM     29  N   UNL     1       1.647   4.192   9.994  1.00  0.00    -0.352 N 
ATOM     30  C   UNL     1       2.298   4.430  11.181  1.00  0.00     0.251 C 
ATOM     31  H   UNL     1       2.006   4.653   9.201  1.00  0.00     0.163 HD
ATOM     32  O   UNL     1       3.207   5.251  11.242  1.00  0.00    -0.269 OA
BRANCH  30  33
ATOM     33  C   UNL     1       1.847   3.710  12.386  1.00  0.00     0.039 A 
ATOM     34  C   UNL     1       1.514   4.443  13.526  1.00  0.00     0.014 A 
ATOM     35  C   UNL     1       1.686   2.323  12.357  1.00  0.00     0.014 A 
ATOM     36  C   UNL     1       0.968   3.783  14.627  1.00  0.00     0.010 A 
ATOM     37  C   UNL     1       1.063   1.682  13.419  1.00  0.00     0.010 A 
ATOM     38  C   UNL     1       0.715   2.402  14.571  1.00  0.00    -0.014 A 
BRANCH  38  39
ATOM     39  C   UNL     1       0.123   1.687  15.728  1.00  0.00     0.031 A 
ATOM     40  C   UNL     1       0.925   0.629  16.439  1.00  0.00     0.074 A 
ATOM     41  C   UNL     1      -1.141   1.954  16.107  1.00  0.00     0.049 A 
ATOM     42  N   UNL     1       0.584  -0.118  17.457  1.00  0.00    -0.248 NA
ATOM     43  C   UNL     1       2.273   0.350  15.916  1.00  0.00     0.031 C 
ATOM     44  C   UNL     1      -2.039   2.913  15.459  1.00  0.00     0.029 A 
ATOM     45  N   UNL     1      -1.891   1.442  17.136  1.00  0.00    -0.354 N 
ATOM     46  C   UNL     1       1.664  -0.964  17.681  1.00  0.00     0.074 A 
ATOM     47  C   UNL     1       2.644  -0.683  16.655  1.00  0.00     0.031 C 
ATOM     48  C   UNL     1      -3.204   2.947  16.128  1.00  0.00     0.029 A 
ATOM     49  C   UNL     1      -3.145   1.996  17.234  1.00  0.00     0.049 A 
ATOM     50  H   UNL     1      -1.562   0.743  17.746  1.00  0.00     0.167 HD
ATOM     51  C   UNL     1       1.841  -1.873  18.668  1.00  0.00     0.031 A 
ATOM     52  C   UNL     1      -4.131   1.772  18.124  1.00  0.00     0.031 A 
ATOM     53  C   UNL     1       0.876  -2.129  19.702  1.00  0.00     0.049 A 
ATOM     54  C   UNL     1      -3.896   0.790  19.239  1.00  0.00     0.074 A 
ATOM     55  C   UNL     1       0.976  -2.988  20.783  1.00  0.00     0.029 A 
ATOM     56  N   UNL     1      -0.366  -1.519  19.789  1.00  0.00    -0.354 N 
ATOM     57  N   UNL     1      -2.841   0.045  19.473  1.00  0.00    -0.248 NA
ATOM     58  C   UNL     1      -4.975   0.637  20.224  1.00  0.00     0.031 C 
ATOM     59  C   UNL     1      -0.221  -2.921  21.505  1.00  0.00     0.029 A 
ATOM     60  C   UNL     1      -1.045  -1.984  20.902  1.00  0.00     0.049 A 
ATOM     61  H   UNL     1      -0.714  -0.852  19.153  1.00  0.00     0.167 HD
ATOM     62  C   UNL     1      -3.116  -0.640  20.651  1.00  0.00     0.074 A 
ATOM     63  C   UNL     1      -4.430  -0.209  21.086  1.00  0.00     0.031 C 
ATOM     64  C   UNL     1      -2.351  -1.541  21.317  1.00  0.00     0.031 A 
BRANCH  51  65
ATOM     65  C   UNL     1       3.132  -2.647  18.672  1.00  0.00    -0.014 A 
ATOM     66  C   UNL     1       4.355  -2.015  18.967  1.00  0.00     0.010 A 
ATOM     67  C   UNL     1       3.126  -4.024  18.387  1.00  0.00     0.010 A 
ATOM     68  C   UNL     1       5.552  -2.734  18.928  1.00  0.00     0.020 A 
ATOM     69  C   UNL     1       4.319  -4.754  18.377  1.00  0.00     0.020 A 
ATOM     70  C   UNL     1       5.527  -4.099  18.627  1.00  0.00     0.054 A 
BRANCH  70  71
ATOM     71  S   UNL     1       7.094  -5.011  18.594  1.00  0.00     0.124 S 
ATOM     72  O   UNL     1       7.678  -4.557  17.334  1.00  0.00    -0.237 OA
ATOM     73  O   UNL     1       7.765  -4.541  19.803  1.00  0.00    -0.237 OA
ATOM     74  O   UNL     1       6.679  -6.412  18.620  1.00  0.00    -0.744 OA
ENDBRANCH  70  71
ENDBRANCH  51  65
BRANCH  52  75
ATOM     75  C   UNL     1      -5.409   2.528  18.026  1.00  0.00    -0.014 A 
ATOM     76  C   UNL     1      -5.714   3.534  18.961  1.00  0.00     0.010 A 
ATOM     77  C   UNL     1      -6.324   2.253  16.994  1.00  0.00     0.010 A 
ATOM     78  C   UNL     1      -6.921   4.235  18.880  1.00  0.00     0.020 A 
ATOM     79  C   UNL     1      -7.521   2.970  16.895  1.00  0.00     0.020 A 
ATOM     80  C   UNL     1      -7.817   3.948  17.847  1.00  0.00     0.054 A 
BRANCH  80  81
ATOM     81  S   UNL     1      -9.357   4.902  17.733  1.00  0.00     0.124 S 
ATOM     82  O   UNL     1     -10.152   4.324  18.812  1.00  0.00    -0.237 OA
ATOM     83  O   UNL     1      -8.897   6.272  17.948  1.00  0.00    -0.237 OA
ATOM     84  O   UNL     1      -9.834   4.619  16.381  1.00  0.00    -0.744 OA
ENDBRANCH  80  81
ENDBRANCH  52  75
BRANCH  64  85
ATOM     85  C   UNL     1      -2.899  -2.085  22.608  1.00  0.00    -0.014 A 
ATOM     86  C   UNL     1      -3.973  -2.992  22.624  1.00  0.00     0.010 A 
ATOM     87  C   UNL     1      -2.307  -1.698  23.825  1.00  0.00     0.010 A 
ATOM     88  C   UNL     1      -4.477  -3.465  23.838  1.00  0.00     0.020 A 
ATOM     89  C   UNL     1      -2.790  -2.192  25.038  1.00  0.00     0.020 A 
ATOM     90  C   UNL     1      -3.886  -3.056  25.038  1.00  0.00     0.054 A 
BRANCH  90  91
ATOM     91  S   UNL     1      -4.548  -3.692  26.602  1.00  0.00     0.124 S 
ATOM     92  O   UNL     1      -5.762  -2.896  26.762  1.00  0.00    -0.237 OA
ATOM     93  O   UNL     1      -4.759  -5.108  26.311  1.00  0.00    -0.237 OA
ATOM     94  O   UNL     1      -3.486  -3.412  27.566  1.00  0.00    -0.744 OA
ENDBRANCH  90  91
ENDBRANCH  64  85
ENDBRANCH  38  39
ENDBRANCH  30  33
ENDBRANCH  28  29
ENDBRANCH  27  28
ENDBRANCH   1  27
TORSDOF 20
