REMARK SMILES O=C(NCCCCNC(=O)[C@H]1CCCCN1c1cc(-c2ccccc2)nc(-c2cccc(Cl)c2)n1)c1ccc(-c2c3nc(c(-c4ccc(S(=O)(=O)[O-])cc4)c4ccc([nH]4)c(-c4ccc(S(=O)(=O)[O-])cc4)c4nc(c(-c5ccc(S(=O)(=O)[O-])cc5)c5ccc2[nH]5)C=C4)C=C3)cc1
REMARK SMILES IDX 5 1 4 2 3 3 1 4 2 5 36 7 37 8 95 9 38 10 94 11 39 12 40 13
REMARK SMILES IDX 41 14 88 15 42 16 93 17 87 18 89 19 43 20 92 21 86 22 85 23
REMARK SMILES IDX 44 25 74 26 55 27 73 28 56 29 59 30 72 31 90 32 57 33 58 34
REMARK SMILES IDX 71 36 91 37 60 38 45 39 46 40 54 41 47 42 53 43 48 44 49 45
REMARK SMILES IDX 50 46 51 47 52 48 75 49 76 50 84 51 77 52 83 53 78 54 79 55
REMARK SMILES IDX 80 56 81 57 82 58 61 59 62 60 70 61 63 62 69 63 64 64 65 65
REMARK SMILES IDX 66 66 67 67 68 68 6 69 7 70 8 71 9 72 10 74 11 75 12 76
REMARK SMILES IDX 16 77 13 78 15 79 14 80 17 81 18 82 35 83 19 84 27 85 26 86
REMARK SMILES IDX 20 87 21 88 25 89 22 90 24 91 23 92 28 93 29 94 34 95 30 96
REMARK SMILES IDX 32 97 31 98 33 99
REMARK H PARENT 3 6 89 24 59 35 8 73
REMARK Flexibility Score: inf
ROOT
ATOM      1  C   UNL     1       4.069   1.957   2.027  1.00  0.00     0.023 C 
ENDROOT
BRANCH   1   2
ATOM      2  C   UNL     1       3.431   3.330   1.854  1.00  0.00     0.116 C 
BRANCH   2   3
ATOM      3  N   UNL     1       4.174   4.180   0.938  1.00  0.00    -0.352 N 
ATOM      4  O   UNL     1       4.518   5.419  -0.912  1.00  0.00    -0.269 OA
ATOM      5  C   UNL     1       3.718   4.877  -0.154  1.00  0.00     0.251 C 
ATOM      6  H   UNL     1       5.137   4.267   1.127  1.00  0.00     0.163 HD
BRANCH   5   7
ATOM      7  C   UNL     1       2.266   4.953  -0.424  1.00  0.00     0.039 A 
ATOM      8  C   UNL     1       1.365   5.254   0.601  1.00  0.00     0.014 A 
ATOM      9  C   UNL     1       1.803   4.731  -1.724  1.00  0.00     0.014 A 
ATOM     10  C   UNL     1      -0.004   5.218   0.352  1.00  0.00     0.010 A 
ATOM     11  C   UNL     1       0.431   4.767  -1.988  1.00  0.00     0.010 A 
ATOM     12  C   UNL     1      -0.484   4.991  -0.948  1.00  0.00    -0.014 A 
BRANCH  12  13
ATOM     13  C   UNL     1      -1.943   5.071  -1.214  1.00  0.00     0.031 A 
ATOM     14  C   UNL     1      -2.726   3.861  -1.643  1.00  0.00     0.074 A 
ATOM     15  C   UNL     1      -2.560   6.259  -1.058  1.00  0.00     0.049 A 
ATOM     16  N   UNL     1      -4.003   3.766  -1.914  1.00  0.00    -0.248 NA
ATOM     17  C   UNL     1      -1.986   2.599  -1.792  1.00  0.00     0.031 C 
ATOM     18  C   UNL     1      -1.901   7.504  -0.654  1.00  0.00     0.029 A 
ATOM     19  N   UNL     1      -3.875   6.615  -1.209  1.00  0.00    -0.354 N 
ATOM     20  C   UNL     1      -4.218   2.444  -2.284  1.00  0.00     0.074 A 
ATOM     21  C   UNL     1      -2.935   1.776  -2.220  1.00  0.00     0.031 C 
ATOM     22  C   UNL     1      -2.818   8.476  -0.556  1.00  0.00     0.029 A 
ATOM     23  C   UNL     1      -4.117   7.942  -0.947  1.00  0.00     0.049 A 
ATOM     24  H   UNL     1      -4.579   5.981  -1.479  1.00  0.00     0.167 HD
ATOM     25  C   UNL     1      -5.379   1.843  -2.642  1.00  0.00     0.031 A 
ATOM     26  C   UNL     1      -5.252   8.661  -1.033  1.00  0.00     0.031 A 
ATOM     27  C   UNL     1      -6.652   2.515  -2.704  1.00  0.00     0.049 A 
ATOM     28  C   UNL     1      -6.517   7.978  -1.465  1.00  0.00     0.074 A 
ATOM     29  C   UNL     1      -7.891   1.982  -3.016  1.00  0.00     0.029 A 
ATOM     30  N   UNL     1      -6.850   3.866  -2.461  1.00  0.00    -0.354 N 
ATOM     31  N   UNL     1      -6.706   6.716  -1.767  1.00  0.00    -0.248 NA
ATOM     32  C   UNL     1      -7.719   8.815  -1.569  1.00  0.00     0.031 C 
ATOM     33  C   UNL     1      -8.829   3.021  -3.013  1.00  0.00     0.029 A 
ATOM     34  C   UNL     1      -8.184   4.191  -2.646  1.00  0.00     0.049 A 
ATOM     35  H   UNL     1      -6.146   4.501  -2.196  1.00  0.00     0.167 HD
ATOM     36  C   UNL     1      -8.053   6.604  -2.087  1.00  0.00     0.074 A 
ATOM     37  C   UNL     1      -8.634   7.921  -1.921  1.00  0.00     0.031 C 
ATOM     38  C   UNL     1      -8.745   5.509  -2.485  1.00  0.00     0.031 A 
BRANCH  25  39
ATOM     39  C   UNL     1      -5.328   0.387  -3.024  1.00  0.00    -0.014 A 
ATOM     40  C   UNL     1      -5.147  -0.616  -2.055  1.00  0.00     0.010 A 
ATOM     41  C   UNL     1      -5.523   0.013  -4.367  1.00  0.00     0.010 A 
ATOM     42  C   UNL     1      -5.127  -1.964  -2.427  1.00  0.00     0.020 A 
ATOM     43  C   UNL     1      -5.527  -1.335  -4.739  1.00  0.00     0.020 A 
ATOM     44  C   UNL     1      -5.313  -2.315  -3.768  1.00  0.00     0.054 A 
BRANCH  44  45
ATOM     45  S   UNL     1      -5.304  -4.072  -4.219  1.00  0.00     0.124 S 
ATOM     46  O   UNL     1      -3.884  -4.400  -4.119  1.00  0.00    -0.237 OA
ATOM     47  O   UNL     1      -6.160  -4.671  -3.197  1.00  0.00    -0.237 OA
ATOM     48  O   UNL     1      -5.853  -4.087  -5.573  1.00  0.00    -0.744 OA
ENDBRANCH  44  45
ENDBRANCH  25  39
BRANCH  26  49
ATOM     49  C   UNL     1      -5.225  10.115  -0.725  1.00  0.00    -0.014 A 
ATOM     50  C   UNL     1      -5.835  10.613   0.439  1.00  0.00     0.010 A 
ATOM     51  C   UNL     1      -4.553  11.006  -1.582  1.00  0.00     0.010 A 
ATOM     52  C   UNL     1      -5.781  11.978   0.735  1.00  0.00     0.020 A 
ATOM     53  C   UNL     1      -4.474  12.366  -1.275  1.00  0.00     0.020 A 
ATOM     54  C   UNL     1      -5.098  12.845  -0.123  1.00  0.00     0.054 A 
BRANCH  54  55
ATOM     55  S   UNL     1      -4.987  14.603   0.312  1.00  0.00     0.124 S 
ATOM     56  O   UNL     1      -6.322  15.084  -0.030  1.00  0.00    -0.237 OA
ATOM     57  O   UNL     1      -4.676  14.558   1.738  1.00  0.00    -0.237 OA
ATOM     58  O   UNL     1      -3.905  15.096  -0.538  1.00  0.00    -0.744 OA
ENDBRANCH  54  55
ENDBRANCH  26  49
BRANCH  38  59
ATOM     59  C   UNL     1     -10.214   5.685  -2.753  1.00  0.00    -0.014 A 
ATOM     60  C   UNL     1     -10.665   6.344  -3.911  1.00  0.00     0.010 A 
ATOM     61  C   UNL     1     -11.155   5.141  -1.860  1.00  0.00     0.010 A 
ATOM     62  C   UNL     1     -12.034   6.478  -4.157  1.00  0.00     0.020 A 
ATOM     63  C   UNL     1     -12.523   5.251  -2.116  1.00  0.00     0.020 A 
ATOM     64  C   UNL     1     -12.955   5.930  -3.258  1.00  0.00     0.054 A 
BRANCH  64  65
ATOM     65  S   UNL     1     -14.725   6.074  -3.624  1.00  0.00     0.124 S 
ATOM     66  O   UNL     1     -14.989   7.473  -3.304  1.00  0.00    -0.237 OA
ATOM     67  O   UNL     1     -14.789   5.731  -5.043  1.00  0.00    -0.237 OA
ATOM     68  O   UNL     1     -15.344   5.101  -2.726  1.00  0.00    -0.744 OA
ENDBRANCH  64  65
ENDBRANCH  38  59
ENDBRANCH  12  13
ENDBRANCH   5   7
ENDBRANCH   2   3
ENDBRANCH   1   2
BRANCH   1  69
ATOM     69  C   UNL     1       5.481   1.962   2.620  1.00  0.00     0.023 C 
BRANCH  69  70
ATOM     70  C   UNL     1       5.620   2.717   3.941  1.00  0.00     0.116 C 
BRANCH  70  71
ATOM     71  N   UNL     1       4.743   2.171   4.957  1.00  0.00    -0.354 N 
ATOM     72  C   UNL     1       5.048   1.540   6.129  1.00  0.00     0.242 C 
ATOM     73  H   UNL     1       3.780   2.271   4.775  1.00  0.00     0.163 HD
ATOM     74  O   UNL     1       4.100   1.080   6.771  1.00  0.00    -0.273 OA
BRANCH  72  75
ATOM     75  C   UNL     1       6.523   1.473   6.608  1.00  0.00     0.173 C 
ATOM     76  C   UNL     1       6.965   2.833   7.162  1.00  0.00     0.035 C 
ATOM     77  N   UNL     1       6.704   0.443   7.639  1.00  0.00    -0.344 N 
ATOM     78  C   UNL     1       6.316   3.133   8.514  1.00  0.00     0.004 C 
ATOM     79  C   UNL     1       6.147   0.643   8.969  1.00  0.00     0.119 C 
ATOM     80  C   UNL     1       6.582   2.006   9.511  1.00  0.00     0.022 C 
BRANCH  77  81
ATOM     81  C   UNL     1       7.542  -0.614   7.379  1.00  0.00     0.133 A 
ATOM     82  C   UNL     1       7.087  -1.909   7.507  1.00  0.00     0.076 A 
ATOM     83  N   UNL     1       8.794  -0.348   6.976  1.00  0.00    -0.211 NA
ATOM     84  C   UNL     1       7.964  -2.926   7.185  1.00  0.00     0.076 A 
ATOM     85  C   UNL     1       9.591  -1.399   6.716  1.00  0.00     0.162 A 
ATOM     86  N   UNL     1       9.231  -2.688   6.798  1.00  0.00    -0.228 NA
BRANCH  84  87
ATOM     87  C   UNL     1       7.564  -4.337   7.235  1.00  0.00     0.000 A 
ATOM     88  C   UNL     1       8.249  -5.248   8.055  1.00  0.00     0.010 A 
ATOM     89  C   UNL     1       6.489  -4.814   6.467  1.00  0.00     0.010 A 
ATOM     90  C   UNL     1       7.861  -6.589   8.119  1.00  0.00     0.001 A 
ATOM     91  C   UNL     1       6.106  -6.156   6.522  1.00  0.00     0.001 A 
ATOM     92  C   UNL     1       6.789  -7.042   7.353  1.00  0.00     0.000 A 
ENDBRANCH  84  87
BRANCH  85  93
ATOM     93  C   UNL     1      10.974  -1.112   6.329  1.00  0.00     0.021 A 
ATOM     94  C   UNL     1      11.780  -0.261   7.107  1.00  0.00     0.012 A 
ATOM     95  C   UNL     1      11.534  -1.684   5.174  1.00  0.00     0.032 A 
ATOM     96  C   UNL     1      13.105   0.005   6.750  1.00  0.00     0.002 A 
ATOM     97  C   UNL     1      12.851  -1.402   4.811  1.00  0.00     0.041 A 
ATOM     98  C   UNL     1      13.640  -0.564   5.596  1.00  0.00     0.020 A 
ATOM     99  Cl  UNL     1      13.508  -2.088   3.375  1.00  0.00    -0.084 Cl
ENDBRANCH  85  93
ENDBRANCH  77  81
ENDBRANCH  72  75
ENDBRANCH  70  71
ENDBRANCH  69  70
ENDBRANCH   1  69
TORSDOF 17
