REMARK SMILES C[C@@]([NH2+]CCCO)(C(=O)NCCCCNC(=O)c1ccc(-c2c3nc(c(-c4ccc(S(=O)(=O)[O-])cc4)c4ccc([nH]4)c(-c4ccc(S(=O)(=O)[O-])cc4)c4nc(c(-c5ccc(S(=O)(=O)[O-])cc5)c5ccc2[nH]5)C=C4)C=C3)cc1)C(F)(F)F
REMARK SMILES IDX 11 1 10 2 8 3 9 4 2 6 1 7 3 8 4 11 5 12 6 13 7 14 78 16
REMARK SMILES IDX 79 17 80 18 81 19 12 20 13 21 14 22 15 23 16 24 17 26 18 27
REMARK SMILES IDX 19 28 77 29 20 30 76 31 21 32 22 33 23 34 70 35 24 36 75 37
REMARK SMILES IDX 69 38 71 39 25 40 74 41 68 42 67 43 26 45 56 46 37 47 55 48
REMARK SMILES IDX 38 49 41 50 54 51 72 52 39 53 40 54 53 56 73 57 42 58 27 59
REMARK SMILES IDX 28 60 36 61 29 62 35 63 30 64 31 65 32 66 33 67 34 68 57 69
REMARK SMILES IDX 58 70 66 71 59 72 65 73 60 74 61 75 62 76 63 77 64 78 43 79
REMARK SMILES IDX 44 80 52 81 45 82 51 83 46 84 47 85 48 86 49 87 50 88
REMARK H PARENT 10 5 3 9 3 10 7 15 15 25 71 44 41 55
REMARK Flexibility Score: inf
ROOT
ATOM      1  C   UNL     1      -1.041   2.133   0.568  1.00  0.00     0.116 C 
ENDROOT
BRANCH   1   2
ATOM      2  N   UNL     1      -1.594   0.859   0.987  1.00  0.00    -0.350 N 
ATOM      3  C   UNL     1      -0.993  -0.323   1.315  1.00  0.00     0.290 C 
ATOM      4  O   UNL     1      -1.760  -1.253   1.577  1.00  0.00    -0.267 OA
ATOM      5  H   UNL     1      -2.576   0.844   1.044  1.00  0.00     0.163 HD
BRANCH   3   6
ATOM      6  C   UNL     1       0.541  -0.484   1.382  1.00  0.00     0.268 C 
ATOM      7  C   UNL     1       1.164  -0.255  -0.014  1.00  0.00     0.101 C 
BRANCH   6   8
ATOM      8  N   UNL     1       1.175   0.551   2.284  1.00  0.00    -0.326 N 
ATOM      9  H   UNL     1       1.057   1.461   1.838  1.00  0.00     0.347 HD
ATOM     10  H   UNL     1       2.142   0.246   2.396  1.00  0.00     0.347 HD
BRANCH   8  11
ATOM     11  C   UNL     1       0.655   0.660   3.649  1.00  0.00     0.264 C 
BRANCH  11  12
ATOM     12  C   UNL     1       1.212  -0.295   4.713  1.00  0.00     0.089 C 
BRANCH  12  13
ATOM     13  C   UNL     1       2.731  -0.379   4.800  1.00  0.00     0.162 C 
BRANCH  13  14
ATOM     14  O   UNL     1       3.292   0.838   5.270  1.00  0.00    -0.396 OA
ATOM     15  H   UNL     1       3.071   1.555   4.655  1.00  0.00     0.210 HD
ENDBRANCH  13  14
ENDBRANCH  12  13
ENDBRANCH  11  12
ENDBRANCH   8  11
ENDBRANCH   6   8
BRANCH   6  16
ATOM     16  C   UNL     1       0.831  -1.974   1.725  1.00  0.00     0.453 C 
ATOM     17  F   UNL     1       0.499  -2.816   0.719  1.00  0.00    -0.164 F 
ATOM     18  F   UNL     1       2.174  -2.130   1.922  1.00  0.00    -0.164 F 
ATOM     19  F   UNL     1       0.236  -2.416   2.850  1.00  0.00    -0.164 F 
ENDBRANCH   6  16
ENDBRANCH   3   6
ENDBRANCH   1   2
BRANCH   1  20
ATOM     20  C   UNL     1      -1.254   2.356  -0.930  1.00  0.00     0.023 C 
BRANCH  20  21
ATOM     21  C   UNL     1      -2.717   2.556  -1.339  1.00  0.00     0.023 C 
BRANCH  21  22
ATOM     22  C   UNL     1      -3.422   3.734  -0.675  1.00  0.00     0.116 C 
BRANCH  22  23
ATOM     23  N   UNL     1      -2.769   5.006  -0.939  1.00  0.00    -0.352 N 
ATOM     24  C   UNL     1      -3.338   6.221  -1.243  1.00  0.00     0.251 C 
ATOM     25  H   UNL     1      -1.785   4.997  -0.893  1.00  0.00     0.163 HD
ATOM     26  O   UNL     1      -2.632   7.165  -1.570  1.00  0.00    -0.269 OA
BRANCH  24  27
ATOM     27  C   UNL     1      -4.810   6.364  -1.205  1.00  0.00     0.039 A 
ATOM     28  C   UNL     1      -5.458   6.965  -2.286  1.00  0.00     0.014 A 
ATOM     29  C   UNL     1      -5.547   5.884  -0.118  1.00  0.00     0.014 A 
ATOM     30  C   UNL     1      -6.853   7.025  -2.308  1.00  0.00     0.010 A 
ATOM     31  C   UNL     1      -6.938   5.883  -0.174  1.00  0.00     0.010 A 
ATOM     32  C   UNL     1      -7.606   6.452  -1.269  1.00  0.00    -0.014 A 
BRANCH  32  33
ATOM     33  C   UNL     1      -9.090   6.428  -1.315  1.00  0.00     0.031 A 
ATOM     34  C   UNL     1      -9.891   7.173  -0.283  1.00  0.00     0.074 A 
ATOM     35  C   UNL     1      -9.716   5.678  -2.244  1.00  0.00     0.049 A 
ATOM     36  N   UNL     1     -11.189   7.222  -0.125  1.00  0.00    -0.248 NA
ATOM     37  C   UNL     1      -9.135   7.945   0.718  1.00  0.00     0.031 C 
ATOM     38  C   UNL     1      -9.052   4.875  -3.275  1.00  0.00     0.029 A 
ATOM     39  N   UNL     1     -11.053   5.462  -2.468  1.00  0.00    -0.354 N 
ATOM     40  C   UNL     1     -11.404   8.009   1.001  1.00  0.00     0.074 A 
ATOM     41  C   UNL     1     -10.103   8.379   1.512  1.00  0.00     0.031 C 
ATOM     42  C   UNL     1      -9.984   4.280  -4.037  1.00  0.00     0.029 A 
ATOM     43  C   UNL     1     -11.308   4.623  -3.527  1.00  0.00     0.049 A 
ATOM     44  H   UNL     1     -11.763   5.871  -1.922  1.00  0.00     0.167 HD
ATOM     45  C   UNL     1     -12.579   8.402   1.550  1.00  0.00     0.031 A 
ATOM     46  C   UNL     1     -12.475   4.175  -4.030  1.00  0.00     0.031 A 
ATOM     47  C   UNL     1     -13.872   8.046   1.029  1.00  0.00     0.049 A 
ATOM     48  C   UNL     1     -13.765   4.623  -3.401  1.00  0.00     0.074 A 
ATOM     49  C   UNL     1     -15.118   8.448   1.476  1.00  0.00     0.029 A 
ATOM     50  N   UNL     1     -14.086   7.202  -0.050  1.00  0.00    -0.354 N 
ATOM     51  N   UNL     1     -13.948   5.424  -2.378  1.00  0.00    -0.248 NA
ATOM     52  C   UNL     1     -15.007   4.115  -4.000  1.00  0.00     0.031 C 
ATOM     53  C   UNL     1     -16.088   7.807   0.698  1.00  0.00     0.029 A 
ATOM     54  C   UNL     1     -15.445   7.051  -0.269  1.00  0.00     0.049 A 
ATOM     55  H   UNL     1     -13.377   6.774  -0.582  1.00  0.00     0.167 HD
ATOM     56  C   UNL     1     -15.326   5.538  -2.230  1.00  0.00     0.074 A 
ATOM     57  C   UNL     1     -15.928   4.735  -3.275  1.00  0.00     0.031 C 
ATOM     58  C   UNL     1     -16.029   6.248  -1.313  1.00  0.00     0.031 A 
BRANCH  45  59
ATOM     59  C   UNL     1     -12.516   9.260   2.786  1.00  0.00    -0.014 A 
ATOM     60  C   UNL     1     -12.067  10.592   2.726  1.00  0.00     0.010 A 
ATOM     61  C   UNL     1     -12.947   8.739   4.020  1.00  0.00     0.010 A 
ATOM     62  C   UNL     1     -12.007  11.371   3.884  1.00  0.00     0.020 A 
ATOM     63  C   UNL     1     -12.915   9.524   5.176  1.00  0.00     0.020 A 
ATOM     64  C   UNL     1     -12.427  10.831   5.103  1.00  0.00     0.054 A 
BRANCH  64  65
ATOM     65  S   UNL     1     -12.354  11.871   6.587  1.00  0.00     0.124 S 
ATOM     66  O   UNL     1     -10.919  11.905   6.859  1.00  0.00    -0.237 OA
ATOM     67  O   UNL     1     -12.936  13.129   6.126  1.00  0.00    -0.237 OA
ATOM     68  O   UNL     1     -13.156  11.139   7.564  1.00  0.00    -0.744 OA
ENDBRANCH  64  65
ENDBRANCH  45  59
BRANCH  46  69
ATOM     69  C   UNL     1     -12.476   3.266  -5.209  1.00  0.00    -0.014 A 
ATOM     70  C   UNL     1     -12.912   3.730  -6.463  1.00  0.00     0.010 A 
ATOM     71  C   UNL     1     -12.031   1.937  -5.088  1.00  0.00     0.010 A 
ATOM     72  C   UNL     1     -12.919   2.877  -7.570  1.00  0.00     0.020 A 
ATOM     73  C   UNL     1     -12.011   1.089  -6.200  1.00  0.00     0.020 A 
ATOM     74  C   UNL     1     -12.467   1.562  -7.432  1.00  0.00     0.054 A 
BRANCH  74  75
ATOM     75  S   UNL     1     -12.435   0.489  -8.895  1.00  0.00     0.124 S 
ATOM     76  O   UNL     1     -13.850   0.183  -9.078  1.00  0.00    -0.237 OA
ATOM     77  O   UNL     1     -11.838   1.356  -9.909  1.00  0.00    -0.237 OA
ATOM     78  O   UNL     1     -11.599  -0.633  -8.477  1.00  0.00    -0.744 OA
ENDBRANCH  74  75
ENDBRANCH  46  69
BRANCH  58  79
ATOM     79  C   UNL     1     -17.531   6.218  -1.417  1.00  0.00    -0.014 A 
ATOM     80  C   UNL     1     -18.265   5.074  -1.058  1.00  0.00     0.010 A 
ATOM     81  C   UNL     1     -18.219   7.375  -1.826  1.00  0.00     0.010 A 
ATOM     82  C   UNL     1     -19.660   5.078  -1.136  1.00  0.00     0.020 A 
ATOM     83  C   UNL     1     -19.615   7.391  -1.879  1.00  0.00     0.020 A 
ATOM     84  C   UNL     1     -20.326   6.237  -1.547  1.00  0.00     0.054 A 
BRANCH  84  85
ATOM     85  S   UNL     1     -22.140   6.232  -1.596  1.00  0.00     0.124 S 
ATOM     86  O   UNL     1     -22.409   5.434  -2.788  1.00  0.00    -0.237 OA
ATOM     87  O   UNL     1     -22.494   5.604  -0.325  1.00  0.00    -0.237 OA
ATOM     88  O   UNL     1     -22.487   7.647  -1.702  1.00  0.00    -0.744 OA
ENDBRANCH  84  85
ENDBRANCH  58  79
ENDBRANCH  32  33
ENDBRANCH  24  27
ENDBRANCH  22  23
ENDBRANCH  21  22
ENDBRANCH  20  21
ENDBRANCH   1  20
TORSDOF 20
