REMARK SMILES Cc1cc(F)cc(N[C@H](C(=O)NCCCCNC(=O)c2ccc(-c3c4nc(c(-c5ccc(S(=O)(=O)[O-])cc5)c5ccc([nH]5)c(-c5ccc(S(=O)(=O)[O-])cc5)c5nc(c(-c6ccc(S(=O)(=O)[O-])cc6)c6ccc3[nH]6)C=C5)C=C4)cc2)c2cc(C)cc(C)c2)c1
REMARK SMILES IDX 15 1 14 2 13 3 12 4 10 5 11 6 9 8 8 9 7 11 1 12 2 13 3 14
REMARK SMILES IDX 88 15 4 16 5 17 6 18 80 19 81 20 87 21 82 22 85 23 83 24
REMARK SMILES IDX 84 25 86 26 16 27 17 28 18 29 19 31 20 32 21 33 79 34 22 35
REMARK SMILES IDX 78 36 23 37 24 38 25 39 72 40 26 41 77 42 71 43 73 44 27 45
REMARK SMILES IDX 76 46 70 47 69 48 28 50 58 51 39 52 57 53 40 54 43 55 56 56
REMARK SMILES IDX 74 57 41 58 42 59 55 61 75 62 44 63 29 64 30 65 38 66 31 67
REMARK SMILES IDX 37 68 32 69 33 70 34 71 35 72 36 73 59 74 60 75 68 76 61 77
REMARK SMILES IDX 67 78 62 79 63 80 64 81 65 82 66 83 45 84 46 85 54 86 47 87
REMARK SMILES IDX 53 88 48 89 49 90 50 91 51 92 52 93
REMARK H PARENT 12 7 8 10 17 30 73 49 43 60
REMARK Flexibility Score: inf
ROOT
ATOM      1  C   UNL     1       2.260  -2.913  -4.074  1.00  0.00     0.023 C 
ENDROOT
BRANCH   1   2
ATOM      2  C   UNL     1       0.767  -3.115  -3.818  1.00  0.00     0.023 C 
BRANCH   2   3
ATOM      3  C   UNL     1       0.407  -3.935  -2.582  1.00  0.00     0.116 C 
BRANCH   3   4
ATOM      4  N   UNL     1       0.909  -3.384  -1.341  1.00  0.00    -0.354 N 
ATOM      5  C   UNL     1       0.532  -3.669  -0.052  1.00  0.00     0.247 C 
ATOM      6  O   UNL     1       1.198  -3.114   0.830  1.00  0.00    -0.272 OA
ATOM      7  H   UNL     1       1.620  -2.709  -1.435  1.00  0.00     0.163 HD
BRANCH   5   8
ATOM      8  C   UNL     1      -0.749  -4.500   0.272  1.00  0.00     0.200 C 
BRANCH   8   9
ATOM      9  N   UNL     1      -1.067  -5.582  -0.691  1.00  0.00    -0.370 N 
ATOM     10  H   UNL     1      -1.897  -5.440  -1.201  1.00  0.00     0.161 HD
BRANCH   9  11
ATOM     11  C   UNL     1      -0.406  -6.754  -0.998  1.00  0.00     0.038 A 
ATOM     12  C   UNL     1      -0.415  -9.230  -3.933  1.00  0.00     0.044 C 
ATOM     13  C   UNL     1      -0.073  -8.579  -2.628  1.00  0.00    -0.046 A 
ATOM     14  C   UNL     1       0.914  -9.136  -1.819  1.00  0.00     0.042 A 
ATOM     15  C   UNL     1      -0.744  -7.419  -2.193  1.00  0.00     0.029 A 
ATOM     16  C   UNL     1       1.263  -8.491  -0.649  1.00  0.00     0.125 A 
ATOM     17  F   UNL     1       2.220  -9.008   0.134  1.00  0.00    -0.207 F 
ATOM     18  C   UNL     1       0.645  -7.302  -0.270  1.00  0.00     0.065 A 
ENDBRANCH   9  11
ENDBRANCH   8   9
BRANCH   8  19
ATOM     19  C   UNL     1      -0.890  -5.000   1.711  1.00  0.00    -0.016 A 
ATOM     20  C   UNL     1       0.208  -5.511   2.416  1.00  0.00     0.009 A 
ATOM     21  C   UNL     1      -2.159  -5.105   2.306  1.00  0.00     0.009 A 
ATOM     22  C   UNL     1       0.037  -6.309   3.549  1.00  0.00    -0.051 A 
ATOM     23  C   UNL     1      -2.329  -5.769   3.531  1.00  0.00    -0.051 A 
ATOM     24  C   UNL     1       1.173  -7.169   4.020  1.00  0.00     0.044 C 
ATOM     25  C   UNL     1      -1.236  -6.425   4.109  1.00  0.00     0.006 A 
ATOM     26  C   UNL     1      -3.681  -5.875   4.170  1.00  0.00     0.044 C 
ENDBRANCH   8  19
ENDBRANCH   5   8
ENDBRANCH   3   4
ENDBRANCH   2   3
ENDBRANCH   1   2
BRANCH   1  27
ATOM     27  C   UNL     1       3.118  -4.174  -4.057  1.00  0.00     0.116 C 
BRANCH  27  28
ATOM     28  N   UNL     1       2.743  -5.137  -5.083  1.00  0.00    -0.352 N 
ATOM     29  C   UNL     1       3.502  -5.672  -6.099  1.00  0.00     0.251 C 
ATOM     30  H   UNL     1       1.811  -5.452  -5.045  1.00  0.00     0.163 HD
ATOM     31  O   UNL     1       2.976  -6.384  -6.951  1.00  0.00    -0.269 OA
BRANCH  29  32
ATOM     32  C   UNL     1       4.945  -5.357  -6.182  1.00  0.00     0.039 A 
ATOM     33  C   UNL     1       5.479  -4.916  -7.396  1.00  0.00     0.014 A 
ATOM     34  C   UNL     1       5.762  -5.464  -5.054  1.00  0.00     0.014 A 
ATOM     35  C   UNL     1       6.810  -4.490  -7.454  1.00  0.00     0.010 A 
ATOM     36  C   UNL     1       7.063  -4.970  -5.095  1.00  0.00     0.010 A 
ATOM     37  C   UNL     1       7.598  -4.468  -6.292  1.00  0.00    -0.014 A 
BRANCH  37  38
ATOM     38  C   UNL     1       8.977  -3.910  -6.290  1.00  0.00     0.031 A 
ATOM     39  C   UNL     1      10.145  -4.794  -5.945  1.00  0.00     0.074 A 
ATOM     40  C   UNL     1       9.169  -2.592  -6.500  1.00  0.00     0.049 A 
ATOM     41  N   UNL     1      11.399  -4.469  -5.761  1.00  0.00    -0.248 NA
ATOM     42  C   UNL     1       9.860  -6.225  -5.753  1.00  0.00     0.031 C 
ATOM     43  C   UNL     1       8.118  -1.618  -6.807  1.00  0.00     0.029 A 
ATOM     44  N   UNL     1      10.317  -1.838  -6.470  1.00  0.00    -0.354 N 
ATOM     45  C   UNL     1      12.046  -5.647  -5.404  1.00  0.00     0.074 A 
ATOM     46  C   UNL     1      11.039  -6.685  -5.359  1.00  0.00     0.031 C 
ATOM     47  C   UNL     1       8.671  -0.403  -6.953  1.00  0.00     0.029 A 
ATOM     48  C   UNL     1      10.107  -0.499  -6.706  1.00  0.00     0.049 A 
ATOM     49  H   UNL     1      11.207  -2.220  -6.294  1.00  0.00     0.167 HD
ATOM     50  C   UNL     1      13.361  -5.851  -5.151  1.00  0.00     0.031 A 
ATOM     51  C   UNL     1      10.967   0.538  -6.711  1.00  0.00     0.031 A 
ATOM     52  C   UNL     1      14.364  -4.822  -5.216  1.00  0.00     0.049 A 
ATOM     53  C   UNL     1      12.424   0.287  -6.431  1.00  0.00     0.074 A 
ATOM     54  C   UNL     1      15.730  -4.941  -5.030  1.00  0.00     0.029 A 
ATOM     55  N   UNL     1      14.112  -3.487  -5.492  1.00  0.00    -0.354 N 
ATOM     56  N   UNL     1      13.024  -0.844  -6.146  1.00  0.00    -0.248 NA
ATOM     57  C   UNL     1      13.322   1.450  -6.483  1.00  0.00     0.031 C 
ATOM     58  C   UNL     1      16.300  -3.670  -5.155  1.00  0.00     0.029 A 
ATOM     59  C   UNL     1      15.295  -2.769  -5.470  1.00  0.00     0.049 A 
ATOM     60  H   UNL     1      13.223  -3.106  -5.678  1.00  0.00     0.167 HD
ATOM     61  C   UNL     1      14.373  -0.534  -6.017  1.00  0.00     0.074 A 
ATOM     62  C   UNL     1      14.502   0.888  -6.259  1.00  0.00     0.031 C 
ATOM     63  C   UNL     1      15.411  -1.356  -5.728  1.00  0.00     0.031 A 
BRANCH  50  64
ATOM     64  C   UNL     1      13.787  -7.245  -4.775  1.00  0.00    -0.014 A 
ATOM     65  C   UNL     1      13.787  -8.284  -5.723  1.00  0.00     0.010 A 
ATOM     66  C   UNL     1      14.226  -7.513  -3.465  1.00  0.00     0.010 A 
ATOM     67  C   UNL     1      14.172  -9.576  -5.357  1.00  0.00     0.020 A 
ATOM     68  C   UNL     1      14.639  -8.799  -3.103  1.00  0.00     0.020 A 
ATOM     69  C   UNL     1      14.591  -9.826  -4.047  1.00  0.00     0.054 A 
BRANCH  69  70
ATOM     70  S   UNL     1      15.099 -11.510  -3.603  1.00  0.00     0.124 S 
ATOM     71  O   UNL     1      13.815 -12.200  -3.523  1.00  0.00    -0.237 OA
ATOM     72  O   UNL     1      15.950 -11.896  -4.727  1.00  0.00    -0.237 OA
ATOM     73  O   UNL     1      15.795 -11.338  -2.330  1.00  0.00    -0.744 OA
ENDBRANCH  69  70
ENDBRANCH  50  64
BRANCH  51  74
ATOM     74  C   UNL     1      10.474   1.911  -7.010  1.00  0.00    -0.014 A 
ATOM     75  C   UNL     1      10.782   2.525  -8.236  1.00  0.00     0.010 A 
ATOM     76  C   UNL     1       9.681   2.604  -6.077  1.00  0.00     0.010 A 
ATOM     77  C   UNL     1      10.320   3.814  -8.520  1.00  0.00     0.020 A 
ATOM     78  C   UNL     1       9.196   3.883  -6.367  1.00  0.00     0.020 A 
ATOM     79  C   UNL     1       9.528   4.484  -7.583  1.00  0.00     0.054 A 
BRANCH  79  80
ATOM     80  S   UNL     1       8.891   6.133  -7.995  1.00  0.00     0.124 S 
ATOM     81  O   UNL     1      10.079   6.966  -7.834  1.00  0.00    -0.237 OA
ATOM     82  O   UNL     1       8.422   5.957  -9.368  1.00  0.00    -0.237 OA
ATOM     83  O   UNL     1       7.835   6.347  -7.008  1.00  0.00    -0.744 OA
ENDBRANCH  79  80
ENDBRANCH  51  74
BRANCH  63  84
ATOM     84  C   UNL     1      16.791  -0.758  -5.706  1.00  0.00    -0.014 A 
ATOM     85  C   UNL     1      17.222   0.047  -4.638  1.00  0.00     0.010 A 
ATOM     86  C   UNL     1      17.696  -1.078  -6.736  1.00  0.00     0.010 A 
ATOM     87  C   UNL     1      18.532   0.535  -4.608  1.00  0.00     0.020 A 
ATOM     88  C   UNL     1      19.012  -0.611  -6.697  1.00  0.00     0.020 A 
ATOM     89  C   UNL     1      19.419   0.201  -5.636  1.00  0.00     0.054 A 
BRANCH  89  90
ATOM     90  S   UNL     1      21.132   0.790  -5.540  1.00  0.00     0.124 S 
ATOM     91  O   UNL     1      20.989   2.200  -5.893  1.00  0.00    -0.237 OA
ATOM     92  O   UNL     1      21.487   0.523  -4.149  1.00  0.00    -0.237 OA
ATOM     93  O   UNL     1      21.836  -0.030  -6.524  1.00  0.00    -0.744 OA
ENDBRANCH  89  90
ENDBRANCH  63  84
ENDBRANCH  37  38
ENDBRANCH  29  32
ENDBRANCH  27  28
ENDBRANCH   1  27
TORSDOF 17
