REMARK SMILES Cc1nsc(N[C@H](C)c2cccc(Br)c2)c1C(=O)NCCCCNC(=O)c1ccc(-c2c3nc(c(-c4ccc(S(=O)(=O)[O-])cc4)c4ccc([nH]4)c(-c4ccc(S(=O)(=O)[O-])cc4)c4nc(c(-c5ccc(S(=O)(=O)[O-])cc5)c5ccc2[nH]5)C=C4)C=C3)cc1
REMARK SMILES IDX 21 1 20 2 19 3 17 4 18 5 16 7 1 8 2 9 3 10 4 11 5 12 6 13
REMARK SMILES IDX 7 15 8 16 9 17 10 18 15 19 11 20 13 21 12 22 14 23 22 24
REMARK SMILES IDX 23 25 24 26 25 27 26 29 27 30 28 31 86 32 29 33 85 34 30 35
REMARK SMILES IDX 31 36 32 37 79 38 33 39 84 40 78 41 80 42 34 43 83 44 77 45
REMARK SMILES IDX 76 46 35 48 65 49 46 50 64 51 47 52 50 53 63 54 81 55 48 56
REMARK SMILES IDX 49 57 62 59 82 60 51 61 36 62 37 63 45 64 38 65 44 66 39 67
REMARK SMILES IDX 40 68 41 69 42 70 43 71 66 72 67 73 75 74 68 75 74 76 69 77
REMARK SMILES IDX 70 78 71 79 72 80 73 81 52 82 53 83 61 84 54 85 60 86 55 87
REMARK SMILES IDX 56 88 57 89 58 90 59 91
REMARK H PARENT 19 6 6 14 24 28 80 47 50 58
REMARK Flexibility Score: inf
ROOT
ATOM      1  C   UNL     1       6.685   6.871   6.870  1.00  0.00     0.023 C 
ENDROOT
BRANCH   1   2
ATOM      2  C   UNL     1       5.535   7.823   6.553  1.00  0.00     0.116 C 
BRANCH   2   3
ATOM      3  N   UNL     1       4.892   7.588   5.289  1.00  0.00    -0.352 N 
ATOM      4  C   UNL     1       3.657   7.159   4.875  1.00  0.00     0.256 C 
ATOM      5  O   UNL     1       3.547   7.220   3.640  1.00  0.00    -0.269 OA
ATOM      6  H   UNL     1       5.488   7.783   4.530  1.00  0.00     0.163 HD
BRANCH   4   7
ATOM      7  C   UNL     1       2.545   6.617   5.699  1.00  0.00     0.097 A 
ATOM      8  C   UNL     1       2.874   7.230   8.313  1.00  0.00     0.069 C 
ATOM      9  C   UNL     1       2.215   6.610   7.131  1.00  0.00     0.066 A 
ATOM     10  N   UNL     1       1.111   5.946   7.482  1.00  0.00    -0.195 NA
ATOM     11  S   UNL     1       0.332   5.417   6.157  1.00  0.00    -0.018 S 
ATOM     12  C   UNL     1       1.478   5.980   5.018  1.00  0.00     0.123 A 
BRANCH  12  13
ATOM     13  N   UNL     1       1.345   5.816   3.668  1.00  0.00    -0.368 N 
ATOM     14  H   UNL     1       2.125   6.044   3.112  1.00  0.00     0.162 HD
BRANCH  13  15
ATOM     15  C   UNL     1       0.158   5.335   2.975  1.00  0.00     0.107 C 
ATOM     16  C   UNL     1       0.628   4.488   1.787  1.00  0.00     0.036 C 
BRANCH  15  17
ATOM     17  C   UNL     1      -0.759   6.464   2.516  1.00  0.00    -0.025 A 
ATOM     18  C   UNL     1      -2.007   6.146   1.945  1.00  0.00     0.006 A 
ATOM     19  C   UNL     1      -0.419   7.822   2.635  1.00  0.00     0.021 A 
ATOM     20  C   UNL     1      -2.872   7.145   1.489  1.00  0.00     0.002 A 
ATOM     21  C   UNL     1      -1.292   8.817   2.189  1.00  0.00     0.018 A 
ATOM     22  C   UNL     1      -2.513   8.485   1.609  1.00  0.00     0.016 A 
ATOM     23  Br  UNL     1      -0.813  10.636   2.382  1.00  0.00    -0.051 Br
ENDBRANCH  15  17
ENDBRANCH  13  15
ENDBRANCH  12  13
ENDBRANCH   4   7
ENDBRANCH   2   3
ENDBRANCH   1   2
BRANCH   1  24
ATOM     24  C   UNL     1       8.049   7.247   6.281  1.00  0.00     0.023 C 
BRANCH  24  25
ATOM     25  C   UNL     1       8.555   8.641   6.644  1.00  0.00     0.116 C 
BRANCH  25  26
ATOM     26  N   UNL     1       8.759   8.836   8.077  1.00  0.00    -0.352 N 
ATOM     27  C   UNL     1       9.153  10.010   8.702  1.00  0.00     0.251 C 
ATOM     28  H   UNL     1       8.600   8.057   8.658  1.00  0.00     0.163 HD
ATOM     29  O   UNL     1       9.701   9.991   9.791  1.00  0.00    -0.269 OA
BRANCH  27  30
ATOM     30  C   UNL     1       8.875  11.286   8.014  1.00  0.00     0.039 A 
ATOM     31  C   UNL     1       9.855  12.271   7.882  1.00  0.00     0.014 A 
ATOM     32  C   UNL     1       7.612  11.451   7.446  1.00  0.00     0.014 A 
ATOM     33  C   UNL     1       9.580  13.382   7.086  1.00  0.00     0.010 A 
ATOM     34  C   UNL     1       7.383  12.488   6.571  1.00  0.00     0.010 A 
ATOM     35  C   UNL     1       8.352  13.471   6.402  1.00  0.00    -0.014 A 
BRANCH  35  36
ATOM     36  C   UNL     1       8.165  14.473   5.349  1.00  0.00     0.031 A 
ATOM     37  C   UNL     1       9.255  14.453   4.336  1.00  0.00     0.074 A 
ATOM     38  C   UNL     1       7.039  15.200   5.165  1.00  0.00     0.049 A 
ATOM     39  N   UNL     1      10.258  15.262   4.261  1.00  0.00    -0.248 NA
ATOM     40  C   UNL     1       9.371  13.288   3.438  1.00  0.00     0.031 C 
ATOM     41  C   UNL     1       5.777  15.090   5.908  1.00  0.00     0.029 A 
ATOM     42  N   UNL     1       6.735  16.127   4.207  1.00  0.00    -0.354 N 
ATOM     43  C   UNL     1      10.944  14.893   3.110  1.00  0.00     0.074 A 
ATOM     44  C   UNL     1      10.519  13.551   2.808  1.00  0.00     0.031 C 
ATOM     45  C   UNL     1       4.790  15.721   5.233  1.00  0.00     0.029 A 
ATOM     46  C   UNL     1       5.377  16.435   4.114  1.00  0.00     0.049 A 
ATOM     47  H   UNL     1       7.417  16.542   3.632  1.00  0.00     0.167 HD
ATOM     48  C   UNL     1      11.489  15.847   2.302  1.00  0.00     0.031 A 
ATOM     49  C   UNL     1       4.767  17.232   3.198  1.00  0.00     0.031 A 
ATOM     50  C   UNL     1      11.471  17.135   2.950  1.00  0.00     0.049 A 
ATOM     51  C   UNL     1       5.799  18.154   2.680  1.00  0.00     0.074 A 
ATOM     52  C   UNL     1      12.093  17.738   4.020  1.00  0.00     0.029 A 
ATOM     53  N   UNL     1      10.337  17.854   2.672  1.00  0.00    -0.354 N 
ATOM     54  N   UNL     1       6.381  19.053   3.424  1.00  0.00    -0.248 NA
ATOM     55  C   UNL     1       6.477  17.843   1.429  1.00  0.00     0.031 C 
ATOM     56  C   UNL     1      11.173  18.717   4.503  1.00  0.00     0.029 A 
ATOM     57  C   UNL     1      10.048  18.732   3.677  1.00  0.00     0.049 A 
ATOM     58  H   UNL     1       9.800  17.751   1.854  1.00  0.00     0.167 HD
ATOM     59  C   UNL     1       7.687  19.076   2.971  1.00  0.00     0.074 A 
ATOM     60  C   UNL     1       7.642  18.458   1.651  1.00  0.00     0.031 C 
ATOM     61  C   UNL     1       8.720  19.292   3.837  1.00  0.00     0.031 A 
BRANCH  48  62
ATOM     62  C   UNL     1      11.483  15.774   0.785  1.00  0.00    -0.014 A 
ATOM     63  C   UNL     1      12.057  16.843   0.062  1.00  0.00     0.010 A 
ATOM     64  C   UNL     1      10.668  14.883   0.057  1.00  0.00     0.010 A 
ATOM     65  C   UNL     1      11.782  17.038  -1.299  1.00  0.00     0.020 A 
ATOM     66  C   UNL     1      10.417  15.047  -1.307  1.00  0.00     0.020 A 
ATOM     67  C   UNL     1      10.956  16.139  -1.972  1.00  0.00     0.054 A 
BRANCH  67  68
ATOM     68  S   UNL     1      10.555  16.429  -3.713  1.00  0.00     0.124 S 
ATOM     69  O   UNL     1       9.780  17.663  -3.642  1.00  0.00    -0.237 OA
ATOM     70  O   UNL     1      11.880  16.543  -4.317  1.00  0.00    -0.237 OA
ATOM     71  O   UNL     1       9.804  15.235  -4.092  1.00  0.00    -0.744 OA
ENDBRANCH  67  68
ENDBRANCH  48  62
BRANCH  49  72
ATOM     72  C   UNL     1       3.415  17.127   2.591  1.00  0.00    -0.014 A 
ATOM     73  C   UNL     1       2.833  18.204   1.892  1.00  0.00     0.010 A 
ATOM     74  C   UNL     1       2.819  15.858   2.440  1.00  0.00     0.010 A 
ATOM     75  C   UNL     1       1.739  18.008   1.027  1.00  0.00     0.020 A 
ATOM     76  C   UNL     1       1.729  15.655   1.581  1.00  0.00     0.020 A 
ATOM     77  C   UNL     1       1.207  16.727   0.860  1.00  0.00     0.054 A 
BRANCH  77  78
ATOM     78  S   UNL     1      -0.090  16.447  -0.388  1.00  0.00     0.124 S 
ATOM     79  O   UNL     1      -1.242  17.122   0.202  1.00  0.00    -0.237 OA
ATOM     80  O   UNL     1       0.469  17.081  -1.579  1.00  0.00    -0.237 OA
ATOM     81  O   UNL     1      -0.193  14.991  -0.458  1.00  0.00    -0.744 OA
ENDBRANCH  77  78
ENDBRANCH  49  72
BRANCH  61  82
ATOM     82  C   UNL     1       8.440  20.056   5.101  1.00  0.00    -0.014 A 
ATOM     83  C   UNL     1       7.601  19.619   6.142  1.00  0.00     0.010 A 
ATOM     84  C   UNL     1       9.149  21.260   5.263  1.00  0.00     0.010 A 
ATOM     85  C   UNL     1       7.463  20.387   7.310  1.00  0.00     0.020 A 
ATOM     86  C   UNL     1       9.032  22.015   6.427  1.00  0.00     0.020 A 
ATOM     87  C   UNL     1       8.181  21.582   7.442  1.00  0.00     0.054 A 
BRANCH  87  88
ATOM     88  S   UNL     1       8.023  22.565   8.959  1.00  0.00     0.124 S 
ATOM     89  O   UNL     1       6.643  23.035   8.891  1.00  0.00    -0.237 OA
ATOM     90  O   UNL     1       8.306  21.588  10.008  1.00  0.00    -0.237 OA
ATOM     91  O   UNL     1       9.039  23.607   8.806  1.00  0.00    -0.744 OA
ENDBRANCH  87  88
ENDBRANCH  61  82
ENDBRANCH  35  36
ENDBRANCH  27  30
ENDBRANCH  25  26
ENDBRANCH  24  25
ENDBRANCH   1  24
TORSDOF 17
