REMARK SMILES COC(=O)[C@H]1CC[C@]2(C)[C@H](CC[C@]3(C)[C@H]2CC=C2[C@H]4CC(C)(C)CC[C@]4(C(=O)NCCCNC(=O)c4ccc(-c5c6nc(c(-c7ccc(S(=O)(=O)[O-])cc7)c7ccc([nH]7)c(-c7ccc(S(=O)(=O)[O-])cc7)c7nc(c(-c8ccc(S(=O)(=O)[O-])cc8)c8ccc5[nH]8)C=C7)C=C6)cc4)CC[C@@]23C)C1(C)C
REMARK SMILES IDX 31 1 30 2 29 3 27 4 28 5 26 7 5 8 6 9 100 10 7 11 10 12
REMARK SMILES IDX 101 13 102 14 8 15 11 16 15 17 9 18 12 19 16 20 13 21 17 22
REMARK SMILES IDX 98 23 14 24 18 25 97 26 99 27 19 28 96 29 20 30 21 31 25 32
REMARK SMILES IDX 24 33 22 34 23 35 3 36 4 37 2 38 1 39 32 40 33 41 34 42
REMARK SMILES IDX 35 44 36 45 37 46 95 47 38 48 94 49 39 50 40 51 41 52 88 53
REMARK SMILES IDX 42 54 93 55 87 56 89 57 43 58 92 59 86 60 85 61 44 63 74 64
REMARK SMILES IDX 55 65 73 66 56 67 59 68 72 69 90 70 57 71 58 72 71 74 91 75
REMARK SMILES IDX 60 76 45 77 46 78 54 79 47 80 53 81 48 82 49 83 50 84 51 85
REMARK SMILES IDX 52 86 75 87 76 88 84 89 77 90 83 91 78 92 79 93 80 94 81 95
REMARK SMILES IDX 82 96 61 97 62 98 70 99 63 100 69 101 64 102 65 103 66 104
REMARK SMILES IDX 67 105 68 106
REMARK H PARENT 29 6 33 43 89 62 59 73
REMARK Flexibility Score: inf
ROOT
ATOM      1  C   UNL     1      -0.659  10.391   7.982  1.00  0.00     0.042 C 
ENDROOT
BRANCH   1   2
ATOM      2  C   UNL     1       0.777   9.945   7.681  1.00  0.00     0.117 C 
BRANCH   2   3
ATOM      3  N   UNL     1       1.227  10.375   6.374  1.00  0.00    -0.356 N 
ATOM      4  C   UNL     1       2.085   9.902   5.448  1.00  0.00     0.226 C 
ATOM      5  O   UNL     1       2.159  10.636   4.450  1.00  0.00    -0.274 OA
ATOM      6  H   UNL     1       0.803  11.218   6.093  1.00  0.00     0.163 HD
BRANCH   4   7
ATOM      7  C   UNL     1       2.910   8.580   5.499  1.00  0.00     0.056 C 
ATOM      8  C   UNL     1       0.476   2.420   0.410  1.00  0.00     0.105 C 
ATOM      9  C   UNL     1      -0.949   2.961   0.650  1.00  0.00     0.016 C 
ATOM     10  C   UNL     1       1.642   3.222   1.081  1.00  0.00    -0.019 C 
ATOM     11  C   UNL     1      -1.244   3.558   2.039  1.00  0.00     0.008 C 
ATOM     12  C   UNL     1       1.165   3.645   2.530  1.00  0.00     0.002 C 
ATOM     13  C   UNL     1       2.943   2.370   1.167  1.00  0.00     0.012 C 
ATOM     14  C   UNL     1       2.058   4.365   0.115  1.00  0.00     0.012 C 
ATOM     15  C   UNL     1      -0.138   4.512   2.591  1.00  0.00    -0.026 C 
ATOM     16  C   UNL     1       2.254   4.207   3.427  1.00  0.00     0.005 C 
ATOM     17  C   UNL     1      -0.558   4.950   4.113  1.00  0.00     0.006 C 
ATOM     18  C   UNL     1      -0.081   5.719   1.607  1.00  0.00     0.012 C 
ATOM     19  C   UNL     1       1.847   4.077   4.883  1.00  0.00     0.008 C 
ATOM     20  C   UNL     1      -1.246   6.368   4.139  1.00  0.00     0.032 C 
ATOM     21  C   UNL     1       0.548   4.796   5.335  1.00  0.00    -0.020 C 
ATOM     22  C   UNL     1      -0.165   7.421   4.119  1.00  0.00    -0.027 C 
ATOM     23  C   UNL     1       0.845   6.236   6.037  1.00  0.00    -0.006 C 
ATOM     24  C   UNL     1      -0.084   3.835   6.398  1.00  0.00     0.012 C 
ATOM     25  C   UNL     1       0.937   7.191   4.853  1.00  0.00    -0.064 C 
ATOM     26  C   UNL     1       2.114   6.458   6.966  1.00  0.00     0.013 C 
ATOM     27  C   UNL     1      -0.334   6.572   7.006  1.00  0.00     0.017 C 
ATOM     28  C   UNL     1       2.347   7.606   4.467  1.00  0.00     0.031 C 
ATOM     29  C   UNL     1       2.969   7.780   6.837  1.00  0.00     0.018 C 
ATOM     30  C   UNL     1       2.610   7.966   2.997  1.00  0.00     0.015 C 
ATOM     31  C   UNL     1       4.104   8.168   2.672  1.00  0.00    -0.035 C 
ATOM     32  C   UNL     1       4.379   8.989   5.098  1.00  0.00     0.018 C 
ATOM     33  C   UNL     1       4.641   9.268   3.601  1.00  0.00     0.007 C 
ATOM     34  C   UNL     1       4.940   6.877   2.837  1.00  0.00     0.011 C 
ATOM     35  C   UNL     1       4.218   8.582   1.192  1.00  0.00     0.011 C 
BRANCH   8  36
ATOM     36  C   UNL     1       0.519   0.933   0.739  1.00  0.00     0.309 C 
ATOM     37  O   UNL     1       0.589   0.450   1.859  1.00  0.00    -0.252 OA
BRANCH  36  38
ATOM     38  O   UNL     1       0.531   0.222  -0.426  1.00  0.00    -0.469 OA
ATOM     39  C   UNL     1       0.836  -1.162  -0.279  1.00  0.00     0.282 C 
ENDBRANCH  36  38
ENDBRANCH   8  36
ENDBRANCH   4   7
ENDBRANCH   2   3
ENDBRANCH   1   2
BRANCH   1  40
ATOM     40  C   UNL     1      -1.681  10.017   6.897  1.00  0.00     0.118 C 
BRANCH  40  41
ATOM     41  N   UNL     1      -2.622   8.961   7.278  1.00  0.00    -0.352 N 
ATOM     42  C   UNL     1      -3.804   8.985   7.982  1.00  0.00     0.251 C 
ATOM     43  H   UNL     1      -2.359   8.063   6.972  1.00  0.00     0.163 HD
ATOM     44  O   UNL     1      -4.352   7.953   8.312  1.00  0.00    -0.269 OA
BRANCH  42  45
ATOM     45  C   UNL     1      -4.378  10.290   8.344  1.00  0.00     0.039 A 
ATOM     46  C   UNL     1      -4.774  10.526   9.661  1.00  0.00     0.014 A 
ATOM     47  C   UNL     1      -4.469  11.289   7.379  1.00  0.00     0.014 A 
ATOM     48  C   UNL     1      -5.147  11.816  10.032  1.00  0.00     0.010 A 
ATOM     49  C   UNL     1      -4.713  12.590   7.774  1.00  0.00     0.010 A 
ATOM     50  C   UNL     1      -5.051  12.868   9.106  1.00  0.00    -0.014 A 
BRANCH  50  51
ATOM     51  C   UNL     1      -5.286  14.276   9.498  1.00  0.00     0.031 A 
ATOM     52  C   UNL     1      -6.357  15.069   8.800  1.00  0.00     0.074 A 
ATOM     53  C   UNL     1      -4.462  14.854  10.396  1.00  0.00     0.049 A 
ATOM     54  N   UNL     1      -6.641  16.339   8.910  1.00  0.00    -0.248 NA
ATOM     55  C   UNL     1      -7.184  14.355   7.809  1.00  0.00     0.031 C 
ATOM     56  C   UNL     1      -3.335  14.195  11.068  1.00  0.00     0.029 A 
ATOM     57  N   UNL     1      -4.436  16.130  10.896  1.00  0.00    -0.354 N 
ATOM     58  C   UNL     1      -7.641  16.582   7.974  1.00  0.00     0.074 A 
ATOM     59  C   UNL     1      -7.879  15.345   7.269  1.00  0.00     0.031 C 
ATOM     60  C   UNL     1      -2.760  15.058  11.921  1.00  0.00     0.029 A 
ATOM     61  C   UNL     1      -3.446  16.340  11.828  1.00  0.00     0.049 A 
ATOM     62  H   UNL     1      -5.067  16.830  10.614  1.00  0.00     0.167 HD
ATOM     63  C   UNL     1      -8.319  17.729   7.747  1.00  0.00     0.031 A 
ATOM     64  C   UNL     1      -3.133  17.447  12.528  1.00  0.00     0.031 A 
ATOM     65  C   UNL     1      -8.118  18.929   8.509  1.00  0.00     0.049 A 
ATOM     66  C   UNL     1      -3.959  18.685  12.310  1.00  0.00     0.074 A 
ATOM     67  C   UNL     1      -8.818  20.120   8.441  1.00  0.00     0.029 A 
ATOM     68  N   UNL     1      -7.154  19.081   9.495  1.00  0.00    -0.354 N 
ATOM     69  N   UNL     1      -4.963  18.869  11.484  1.00  0.00    -0.248 NA
ATOM     70  C   UNL     1      -3.624  19.860  13.125  1.00  0.00     0.031 C 
ATOM     71  C   UNL     1      -8.253  21.006   9.363  1.00  0.00     0.029 A 
ATOM     72  C   UNL     1      -7.233  20.350  10.036  1.00  0.00     0.049 A 
ATOM     73  H   UNL     1      -6.510  18.389   9.768  1.00  0.00     0.167 HD
ATOM     74  C   UNL     1      -5.398  20.170  11.703  1.00  0.00     0.074 A 
ATOM     75  C   UNL     1      -4.560  20.720  12.750  1.00  0.00     0.031 C 
ATOM     76  C   UNL     1      -6.396  20.855  11.093  1.00  0.00     0.031 A 
BRANCH  63  77
ATOM     77  C   UNL     1      -9.354  17.734   6.654  1.00  0.00    -0.014 A 
ATOM     78  C   UNL     1     -10.561  17.025   6.794  1.00  0.00     0.010 A 
ATOM     79  C   UNL     1      -9.143  18.504   5.496  1.00  0.00     0.010 A 
ATOM     80  C   UNL     1     -11.526  17.064   5.785  1.00  0.00     0.020 A 
ATOM     81  C   UNL     1     -10.118  18.568   4.496  1.00  0.00     0.020 A 
ATOM     82  C   UNL     1     -11.300  17.838   4.643  1.00  0.00     0.054 A 
BRANCH  82  83
ATOM     83  S   UNL     1     -12.597  17.919   3.378  1.00  0.00     0.124 S 
ATOM     84  O   UNL     1     -12.494  16.601   2.756  1.00  0.00    -0.237 OA
ATOM     85  O   UNL     1     -13.803  18.146   4.170  1.00  0.00    -0.237 OA
ATOM     86  O   UNL     1     -12.189  19.040   2.534  1.00  0.00    -0.744 OA
ENDBRANCH  82  83
ENDBRANCH  63  77
BRANCH  64  87
ATOM     87  C   UNL     1      -2.017  17.434  13.514  1.00  0.00    -0.014 A 
ATOM     88  C   UNL     1      -2.283  17.529  14.893  1.00  0.00     0.010 A 
ATOM     89  C   UNL     1      -0.680  17.351  13.084  1.00  0.00     0.010 A 
ATOM     90  C   UNL     1      -1.235  17.588  15.817  1.00  0.00     0.020 A 
ATOM     91  C   UNL     1       0.370  17.380  14.007  1.00  0.00     0.020 A 
ATOM     92  C   UNL     1       0.086  17.521  15.367  1.00  0.00     0.054 A 
BRANCH  92  93
ATOM     93  S   UNL     1       1.432  17.595  16.582  1.00  0.00     0.124 S 
ATOM     94  O   UNL     1       1.455  19.015  16.921  1.00  0.00    -0.237 OA
ATOM     95  O   UNL     1       0.960  16.700  17.635  1.00  0.00    -0.237 OA
ATOM     96  O   UNL     1       2.591  17.109  15.836  1.00  0.00    -0.744 OA
ENDBRANCH  92  93
ENDBRANCH  64  87
BRANCH  76  97
ATOM     97  C   UNL     1      -6.663  22.252  11.574  1.00  0.00    -0.014 A 
ATOM     98  C   UNL     1      -5.795  23.308  11.249  1.00  0.00     0.010 A 
ATOM     99  C   UNL     1      -7.837  22.517  12.302  1.00  0.00     0.010 A 
ATOM    100  C   UNL     1      -6.084  24.607  11.672  1.00  0.00     0.020 A 
ATOM    101  C   UNL     1      -8.142  23.818  12.701  1.00  0.00     0.020 A 
ATOM    102  C   UNL     1      -7.256  24.853  12.395  1.00  0.00     0.054 A 
BRANCH 102 103
ATOM    103  S   UNL     1      -7.635  26.556  12.886  1.00  0.00     0.124 S 
ATOM    104  O   UNL     1      -6.714  26.761  14.000  1.00  0.00    -0.237 OA
ATOM    105  O   UNL     1      -7.335  27.315  11.674  1.00  0.00    -0.237 OA
ATOM    106  O   UNL     1      -9.050  26.505  13.248  1.00  0.00    -0.744 OA
ENDBRANCH 102 103
ENDBRANCH  76  97
ENDBRANCH  50  51
ENDBRANCH  42  45
ENDBRANCH  40  41
ENDBRANCH   1  40
TORSDOF 15
