REMARK SMILES Cc1oc(-c2ccc(Cl)cc2[N+](=O)[O-])cc1C(=O)NCCCNC(=O)c1ccc(-c2c3nc(c(-c4ccc(S(=O)(=O)[O-])cc4)c4ccc([nH]4)c(-c4ccc(S(=O)(=O)[O-])cc4)c4nc(c(-c5ccc(S(=O)(=O)[O-])cc5)c5ccc2[nH]5)C=C4)C=C3)cc1
REMARK SMILES IDX 21 1 20 2 19 3 17 4 18 5 16 7 1 8 2 9 3 10 4 11 15 12 5 13
REMARK SMILES IDX 6 14 11 15 7 16 10 17 8 18 9 19 12 20 13 21 14 22 22 23
REMARK SMILES IDX 23 24 24 25 25 27 26 28 27 29 85 30 28 31 84 32 29 33 30 34
REMARK SMILES IDX 31 35 78 36 32 37 83 38 77 39 79 40 33 41 82 42 76 43 75 44
REMARK SMILES IDX 34 46 64 47 45 48 63 49 46 50 49 51 62 52 80 53 47 54 48 55
REMARK SMILES IDX 61 57 81 58 50 59 35 60 36 61 44 62 37 63 43 64 38 65 39 66
REMARK SMILES IDX 40 67 41 68 42 69 65 70 66 71 74 72 67 73 73 74 68 75 69 76
REMARK SMILES IDX 70 77 71 78 72 79 51 80 52 81 60 82 53 83 59 84 54 85 55 86
REMARK SMILES IDX 56 87 57 88 58 89
REMARK H PARENT 19 6 23 26 79 45 49 56
REMARK Flexibility Score: inf
ROOT
ATOM      1  C   UNL     1       3.577  -2.425   0.683  1.00  0.00     0.042 C 
ENDROOT
BRANCH   1   2
ATOM      2  C   UNL     1       2.652  -2.477  -0.531  1.00  0.00     0.118 C 
BRANCH   2   3
ATOM      3  N   UNL     1       1.369  -3.025  -0.165  1.00  0.00    -0.352 N 
ATOM      4  C   UNL     1       0.163  -2.468   0.131  1.00  0.00     0.254 C 
ATOM      5  O   UNL     1      -0.732  -3.285   0.393  1.00  0.00    -0.269 OA
ATOM      6  H   UNL     1       1.365  -4.009  -0.121  1.00  0.00     0.163 HD
BRANCH   4   7
ATOM      7  C   UNL     1      -0.155  -1.043   0.097  1.00  0.00     0.081 A 
ATOM      8  C   UNL     1       1.963   0.603   0.302  1.00  0.00     0.088 C 
ATOM      9  C   UNL     1       0.564   0.150   0.151  1.00  0.00     0.114 A 
ATOM     10  O   UNL     1      -0.287   1.220   0.063  1.00  0.00    -0.460 OA
ATOM     11  C   UNL     1      -1.550   0.748   0.004  1.00  0.00     0.142 A 
ATOM     12  C   UNL     1      -1.533  -0.619   0.044  1.00  0.00     0.065 A 
BRANCH  11  13
ATOM     13  C   UNL     1      -2.594   1.747  -0.041  1.00  0.00     0.095 A 
ATOM     14  C   UNL     1      -3.523   1.780   1.012  1.00  0.00     0.021 A 
ATOM     15  C   UNL     1      -2.717   2.700  -1.064  1.00  0.00     0.281 A 
ATOM     16  C   UNL     1      -4.539   2.740   1.041  1.00  0.00     0.022 A 
ATOM     17  C   UNL     1      -3.734   3.667  -1.043  1.00  0.00     0.107 A 
ATOM     18  C   UNL     1      -4.639   3.676   0.014  1.00  0.00     0.047 A 
ATOM     19  Cl  UNL     1      -5.899   4.845   0.049  1.00  0.00    -0.084 Cl
BRANCH  15  20
ATOM     20  N   UNL     1      -1.821   2.699  -2.216  1.00  0.00     0.063 N 
ATOM     21  O   UNL     1      -1.421   3.802  -2.616  1.00  0.00    -0.258 OA
ATOM     22  O   UNL     1      -1.589   1.617  -2.771  1.00  0.00    -0.258 OA
ENDBRANCH  15  20
ENDBRANCH  11  13
ENDBRANCH   4   7
ENDBRANCH   2   3
ENDBRANCH   1   2
BRANCH   1  23
ATOM     23  C   UNL     1       4.184  -3.775   1.047  1.00  0.00     0.118 C 
BRANCH  23  24
ATOM     24  N   UNL     1       5.146  -4.218   0.049  1.00  0.00    -0.352 N 
ATOM     25  C   UNL     1       6.488  -4.463   0.172  1.00  0.00     0.251 C 
ATOM     26  H   UNL     1       4.776  -4.365  -0.852  1.00  0.00     0.163 HD
ATOM     27  O   UNL     1       7.171  -4.572  -0.851  1.00  0.00    -0.269 OA
BRANCH  25  28
ATOM     28  C   UNL     1       7.121  -4.593   1.501  1.00  0.00     0.039 A 
ATOM     29  C   UNL     1       8.407  -4.078   1.690  1.00  0.00     0.014 A 
ATOM     30  C   UNL     1       6.479  -5.265   2.545  1.00  0.00     0.014 A 
ATOM     31  C   UNL     1       9.028  -4.198   2.935  1.00  0.00     0.010 A 
ATOM     32  C   UNL     1       7.066  -5.314   3.807  1.00  0.00     0.010 A 
ATOM     33  C   UNL     1       8.352  -4.794   4.012  1.00  0.00    -0.014 A 
BRANCH  33  34
ATOM     34  C   UNL     1       8.977  -4.891   5.355  1.00  0.00     0.031 A 
ATOM     35  C   UNL     1       9.276  -6.239   5.955  1.00  0.00     0.074 A 
ATOM     36  C   UNL     1       9.222  -3.767   6.056  1.00  0.00     0.049 A 
ATOM     37  N   UNL     1       9.765  -6.527   7.134  1.00  0.00    -0.248 NA
ATOM     38  C   UNL     1       8.959  -7.420   5.134  1.00  0.00     0.031 C 
ATOM     39  C   UNL     1       8.938  -2.404   5.598  1.00  0.00     0.029 A 
ATOM     40  N   UNL     1       9.758  -3.591   7.307  1.00  0.00    -0.354 N 
ATOM     41  C   UNL     1       9.797  -7.915   7.203  1.00  0.00     0.074 A 
ATOM     42  C   UNL     1       9.232  -8.413   5.968  1.00  0.00     0.031 C 
ATOM     43  C   UNL     1       9.328  -1.533   6.542  1.00  0.00     0.029 A 
ATOM     44  C   UNL     1       9.848  -2.272   7.687  1.00  0.00     0.049 A 
ATOM     45  H   UNL     1      10.050  -4.337   7.878  1.00  0.00     0.167 HD
ATOM     46  C   UNL     1      10.271  -8.705   8.196  1.00  0.00     0.031 A 
ATOM     47  C   UNL     1      10.294  -1.720   8.832  1.00  0.00     0.031 A 
ATOM     48  C   UNL     1      10.844  -8.203   9.417  1.00  0.00     0.049 A 
ATOM     49  C   UNL     1      10.814  -2.617   9.921  1.00  0.00     0.074 A 
ATOM     50  C   UNL     1      11.404  -8.917  10.462  1.00  0.00     0.029 A 
ATOM     51  N   UNL     1      10.931  -6.861   9.758  1.00  0.00    -0.354 N 
ATOM     52  N   UNL     1      10.894  -3.926   9.941  1.00  0.00    -0.248 NA
ATOM     53  C   UNL     1      11.317  -1.961  11.136  1.00  0.00     0.031 C 
ATOM     54  C   UNL     1      11.782  -8.009  11.457  1.00  0.00     0.029 A 
ATOM     55  C   UNL     1      11.514  -6.727  11.006  1.00  0.00     0.049 A 
ATOM     56  H   UNL     1      10.623  -6.115   9.194  1.00  0.00     0.167 HD
ATOM     57  C   UNL     1      11.480  -4.250  11.160  1.00  0.00     0.074 A 
ATOM     58  C   UNL     1      11.749  -2.999  11.840  1.00  0.00     0.031 C 
ATOM     59  C   UNL     1      11.771  -5.473  11.669  1.00  0.00     0.031 A 
BRANCH  46  60
ATOM     60  C   UNL     1      10.184 -10.197   8.003  1.00  0.00    -0.014 A 
ATOM     61  C   UNL     1      10.980 -10.855   7.047  1.00  0.00     0.010 A 
ATOM     62  C   UNL     1       9.322 -10.959   8.813  1.00  0.00     0.010 A 
ATOM     63  C   UNL     1      10.882 -12.238   6.873  1.00  0.00     0.020 A 
ATOM     64  C   UNL     1       9.243 -12.347   8.664  1.00  0.00     0.020 A 
ATOM     65  C   UNL     1      10.011 -12.975   7.681  1.00  0.00     0.054 A 
BRANCH  65  66
ATOM     66  S   UNL     1       9.919 -14.772   7.447  1.00  0.00     0.124 S 
ATOM     67  O   UNL     1       9.194 -14.873   6.183  1.00  0.00    -0.237 OA
ATOM     68  O   UNL     1      11.326 -15.161   7.396  1.00  0.00    -0.237 OA
ATOM     69  O   UNL     1       9.189 -15.239   8.623  1.00  0.00    -0.744 OA
ENDBRANCH  65  66
ENDBRANCH  46  60
BRANCH  47  70
ATOM     70  C   UNL     1      10.282  -0.240   8.995  1.00  0.00    -0.014 A 
ATOM     71  C   UNL     1      11.485   0.488   9.001  1.00  0.00     0.010 A 
ATOM     72  C   UNL     1       9.064   0.452   9.126  1.00  0.00     0.010 A 
ATOM     73  C   UNL     1      11.471   1.877   9.152  1.00  0.00     0.020 A 
ATOM     74  C   UNL     1       9.044   1.844   9.248  1.00  0.00     0.020 A 
ATOM     75  C   UNL     1      10.250   2.547   9.272  1.00  0.00     0.054 A 
BRANCH  75  76
ATOM     76  S   UNL     1      10.254   4.356   9.413  1.00  0.00     0.124 S 
ATOM     77  O   UNL     1      10.727   4.552  10.780  1.00  0.00    -0.237 OA
ATOM     78  O   UNL     1      11.182   4.753   8.358  1.00  0.00    -0.237 OA
ATOM     79  O   UNL     1       8.859   4.720   9.174  1.00  0.00    -0.744 OA
ENDBRANCH  75  76
ENDBRANCH  47  70
BRANCH  59  80
ATOM     80  C   UNL     1      12.445  -5.518  13.014  1.00  0.00    -0.014 A 
ATOM     81  C   UNL     1      11.745  -5.205  14.192  1.00  0.00     0.010 A 
ATOM     82  C   UNL     1      13.788  -5.931  13.102  1.00  0.00     0.010 A 
ATOM     83  C   UNL     1      12.386  -5.273  15.432  1.00  0.00     0.020 A 
ATOM     84  C   UNL     1      14.423  -6.028  14.342  1.00  0.00     0.020 A 
ATOM     85  C   UNL     1      13.721  -5.683  15.499  1.00  0.00     0.054 A 
BRANCH  85  86
ATOM     86  S   UNL     1      14.518  -5.803  17.123  1.00  0.00     0.124 S 
ATOM     87  O   UNL     1      14.725  -4.398  17.464  1.00  0.00    -0.237 OA
ATOM     88  O   UNL     1      13.514  -6.502  17.922  1.00  0.00    -0.237 OA
ATOM     89  O   UNL     1      15.736  -6.565  16.857  1.00  0.00    -0.744 OA
ENDBRANCH  85  86
ENDBRANCH  59  80
ENDBRANCH  33  34
ENDBRANCH  25  28
ENDBRANCH  23  24
ENDBRANCH   1  23
TORSDOF 15
