REMARK SMILES COCCCC(=O)N[C@H]1CC[C@@H](C(=O)NCCCNC(=O)c2ccc(-c3c4nc(c(-c5ccc(S(=O)(=O)[O-])cc5)c5ccc([nH]5)c(-c5ccc(S(=O)(=O)[O-])cc5)c5nc(c(-c6ccc(S(=O)(=O)[O-])cc6)c6ccc3[nH]6)C=C5)C=C4)cc2)CC1
REMARK SMILES IDX 16 1 15 2 13 3 14 4 12 6 9 7 10 8 83 9 11 10 82 11 8 12 6 13
REMARK SMILES IDX 7 14 5 16 4 17 3 18 2 19 1 20 17 21 18 22 19 23 20 24 21 26
REMARK SMILES IDX 22 27 23 28 81 29 24 30 80 31 25 32 26 33 27 34 74 35 28 36
REMARK SMILES IDX 79 37 73 38 75 39 29 40 78 41 72 42 71 43 30 45 60 46 41 47
REMARK SMILES IDX 59 48 42 49 45 50 58 51 76 52 43 53 44 54 57 56 77 57 46 58
REMARK SMILES IDX 31 59 32 60 40 61 33 62 39 63 34 64 35 65 36 66 37 67 38 68
REMARK SMILES IDX 61 69 62 70 70 71 63 72 69 73 64 74 65 75 66 76 67 77 68 78
REMARK SMILES IDX 47 79 48 80 56 81 49 82 55 83 50 84 51 85 52 86 53 87 54 88
REMARK H PARENT 15 5 8 15 19 25 75 44 45 55
REMARK Flexibility Score: inf
ROOT
ATOM      1  C   UNL     1       5.751  -1.002   1.964  1.00  0.00     0.117 C 
ENDROOT
BRANCH   1   2
ATOM      2  N   UNL     1       5.464  -0.597   3.320  1.00  0.00    -0.356 N 
ATOM      3  C   UNL     1       4.323  -0.545   4.047  1.00  0.00     0.223 C 
ATOM      4  O   UNL     1       4.469  -0.309   5.254  1.00  0.00    -0.275 OA
ATOM      5  H   UNL     1       6.260  -0.299   3.817  1.00  0.00     0.163 HD
BRANCH   3   6
ATOM      6  C   UNL     1       2.903  -0.728   3.492  1.00  0.00     0.078 C 
ATOM      7  C   UNL     1       2.295  -1.181   0.593  1.00  0.00     0.082 C 
ATOM      8  C   UNL     1       2.608  -2.376   1.507  1.00  0.00     0.026 C 
ATOM      9  C   UNL     1       2.665   0.205   1.115  1.00  0.00     0.026 C 
ATOM     10  C   UNL     1       2.512  -2.119   3.003  1.00  0.00     0.015 C 
ATOM     11  C   UNL     1       2.405   0.402   2.597  1.00  0.00     0.015 C 
BRANCH   7  12
ATOM     12  N   UNL     1       2.899  -1.445  -0.710  1.00  0.00    -0.353 N 
ATOM     13  C   UNL     1       2.341  -1.672  -1.926  1.00  0.00     0.220 C 
ATOM     14  O   UNL     1       3.059  -2.157  -2.802  1.00  0.00    -0.275 OA
ATOM     15  H   UNL     1       3.883  -1.460  -0.705  1.00  0.00     0.163 HD
BRANCH  13  16
ATOM     16  C   UNL     1       0.918  -1.261  -2.228  1.00  0.00     0.102 C 
BRANCH  16  17
ATOM     17  C   UNL     1      -0.201  -2.237  -1.865  1.00  0.00     0.038 C 
BRANCH  17  18
ATOM     18  C   UNL     1      -0.727  -2.329  -0.430  1.00  0.00     0.160 C 
BRANCH  18  19
ATOM     19  O   UNL     1      -1.348  -1.226   0.220  1.00  0.00    -0.385 OA
ATOM     20  C   UNL     1      -1.159   0.086  -0.268  1.00  0.00     0.194 C 
ENDBRANCH  18  19
ENDBRANCH  17  18
ENDBRANCH  16  17
ENDBRANCH  13  16
ENDBRANCH   7  12
ENDBRANCH   3   6
ENDBRANCH   1   2
BRANCH   1  21
ATOM     21  C   UNL     1       6.135   0.151   1.053  1.00  0.00     0.042 C 
BRANCH  21  22
ATOM     22  C   UNL     1       7.580   0.108   0.610  1.00  0.00     0.118 C 
BRANCH  22  23
ATOM     23  N   UNL     1       7.861  -1.015  -0.285  1.00  0.00    -0.352 N 
ATOM     24  C   UNL     1       8.327  -1.029  -1.582  1.00  0.00     0.251 C 
ATOM     25  H   UNL     1       7.688  -1.904   0.101  1.00  0.00     0.163 HD
ATOM     26  O   UNL     1       8.379  -2.092  -2.194  1.00  0.00    -0.269 OA
BRANCH  24  27
ATOM     27  C   UNL     1       8.733   0.232  -2.240  1.00  0.00     0.039 A 
ATOM     28  C   UNL     1       8.419   0.453  -3.584  1.00  0.00     0.014 A 
ATOM     29  C   UNL     1       9.398   1.218  -1.515  1.00  0.00     0.014 A 
ATOM     30  C   UNL     1       8.688   1.698  -4.164  1.00  0.00     0.010 A 
ATOM     31  C   UNL     1       9.520   2.493  -2.041  1.00  0.00     0.010 A 
ATOM     32  C   UNL     1       9.193   2.747  -3.381  1.00  0.00    -0.014 A 
BRANCH  32  33
ATOM     33  C   UNL     1       9.456   4.111  -3.911  1.00  0.00     0.031 A 
ATOM     34  C   UNL     1      10.834   4.703  -3.740  1.00  0.00     0.074 A 
ATOM     35  C   UNL     1       8.454   4.860  -4.414  1.00  0.00     0.049 A 
ATOM     36  N   UNL     1      11.228   5.942  -3.881  1.00  0.00    -0.248 NA
ATOM     37  C   UNL     1      11.895   3.787  -3.283  1.00  0.00     0.031 C 
ATOM     38  C   UNL     1       7.067   4.426  -4.596  1.00  0.00     0.029 A 
ATOM     39  N   UNL     1       8.450   6.164  -4.846  1.00  0.00    -0.354 N 
ATOM     40  C   UNL     1      12.556   5.961  -3.467  1.00  0.00     0.074 A 
ATOM     41  C   UNL     1      12.881   4.628  -3.014  1.00  0.00     0.031 C 
ATOM     42  C   UNL     1       6.356   5.433  -5.129  1.00  0.00     0.029 A 
ATOM     43  C   UNL     1       7.218   6.601  -5.274  1.00  0.00     0.049 A 
ATOM     44  H   UNL     1       9.253   6.732  -4.850  1.00  0.00     0.167 HD
ATOM     45  C   UNL     1      13.436   6.989  -3.486  1.00  0.00     0.031 A 
ATOM     46  C   UNL     1       6.825   7.811  -5.719  1.00  0.00     0.031 A 
ATOM     47  C   UNL     1      13.126   8.291  -4.009  1.00  0.00     0.049 A 
ATOM     48  C   UNL     1       7.834   8.925  -5.787  1.00  0.00     0.074 A 
ATOM     49  C   UNL     1      13.963   9.382  -4.154  1.00  0.00     0.029 A 
ATOM     50  N   UNL     1      11.885   8.666  -4.500  1.00  0.00    -0.354 N 
ATOM     51  N   UNL     1       9.094   8.918  -5.421  1.00  0.00    -0.248 NA
ATOM     52  C   UNL     1       7.373  10.207  -6.338  1.00  0.00     0.031 C 
ATOM     53  C   UNL     1      13.218  10.429  -4.705  1.00  0.00     0.029 A 
ATOM     54  C   UNL     1      11.932   9.972  -4.949  1.00  0.00     0.049 A 
ATOM     55  H   UNL     1      11.088   8.088  -4.524  1.00  0.00     0.167 HD
ATOM     56  C   UNL     1       9.585  10.181  -5.732  1.00  0.00     0.074 A 
ATOM     57  C   UNL     1       8.488  10.924  -6.319  1.00  0.00     0.031 C 
ATOM     58  C   UNL     1      10.832  10.681  -5.551  1.00  0.00     0.031 A 
BRANCH  45  59
ATOM     59  C   UNL     1      14.817   6.736  -2.939  1.00  0.00    -0.014 A 
ATOM     60  C   UNL     1      15.713   5.870  -3.593  1.00  0.00     0.010 A 
ATOM     61  C   UNL     1      15.232   7.384  -1.761  1.00  0.00     0.010 A 
ATOM     62  C   UNL     1      16.974   5.612  -3.050  1.00  0.00     0.020 A 
ATOM     63  C   UNL     1      16.506   7.156  -1.233  1.00  0.00     0.020 A 
ATOM     64  C   UNL     1      17.360   6.254  -1.869  1.00  0.00     0.054 A 
BRANCH  64  65
ATOM     65  S   UNL     1      19.008   5.911  -1.194  1.00  0.00     0.124 S 
ATOM     66  O   UNL     1      18.829   4.575  -0.630  1.00  0.00    -0.237 OA
ATOM     67  O   UNL     1      19.862   5.983  -2.377  1.00  0.00    -0.237 OA
ATOM     68  O   UNL     1      19.211   6.978  -0.217  1.00  0.00    -0.744 OA
ENDBRANCH  64  65
ENDBRANCH  45  59
BRANCH  46  69
ATOM     69  C   UNL     1       5.419   8.022  -6.162  1.00  0.00    -0.014 A 
ATOM     70  C   UNL     1       5.123   8.173  -7.529  1.00  0.00     0.010 A 
ATOM     71  C   UNL     1       4.367   8.056  -5.229  1.00  0.00     0.010 A 
ATOM     72  C   UNL     1       3.806   8.374  -7.953  1.00  0.00     0.020 A 
ATOM     73  C   UNL     1       3.045   8.229  -5.652  1.00  0.00     0.020 A 
ATOM     74  C   UNL     1       2.775   8.399  -7.011  1.00  0.00     0.054 A 
BRANCH  74  75
ATOM     75  S   UNL     1       1.067   8.609  -7.589  1.00  0.00     0.124 S 
ATOM     76  O   UNL     1       1.036  10.026  -7.937  1.00  0.00    -0.237 OA
ATOM     77  O   UNL     1       0.997   7.679  -8.713  1.00  0.00    -0.237 OA
ATOM     78  O   UNL     1       0.265   8.231  -6.428  1.00  0.00    -0.744 OA
ENDBRANCH  74  75
ENDBRANCH  46  69
BRANCH  58  79
ATOM     79  C   UNL     1      11.104  12.074  -6.048  1.00  0.00    -0.014 A 
ATOM     80  C   UNL     1      10.629  13.202  -5.359  1.00  0.00     0.010 A 
ATOM     81  C   UNL     1      11.928  12.250  -7.176  1.00  0.00     0.010 A 
ATOM     82  C   UNL     1      10.959  14.485  -5.801  1.00  0.00     0.020 A 
ATOM     83  C   UNL     1      12.280  13.531  -7.605  1.00  0.00     0.020 A 
ATOM     84  C   UNL     1      11.786  14.641  -6.919  1.00  0.00     0.054 A 
BRANCH  84  85
ATOM     85  S   UNL     1      12.257  16.317  -7.430  1.00  0.00     0.124 S 
ATOM     86  O   UNL     1      11.025  16.804  -8.045  1.00  0.00    -0.237 OA
ATOM     87  O   UNL     1      12.620  16.948  -6.163  1.00  0.00    -0.237 OA
ATOM     88  O   UNL     1      13.369  16.098  -8.351  1.00  0.00    -0.744 OA
ENDBRANCH  84  85
ENDBRANCH  58  79
ENDBRANCH  32  33
ENDBRANCH  24  27
ENDBRANCH  22  23
ENDBRANCH  21  22
ENDBRANCH   1  21
TORSDOF 18
