REMARK SMILES CCOC(=O)c1c(NC(=O)[C@@H]2[C@@H](C(=O)NCCCNC(=O)c3ccc(-c4c5nc(c(-c6ccc(S(=O)(=O)[O-])cc6)c6ccc([nH]6)c(-c6ccc(S(=O)(=O)[O-])cc6)c6nc(c(-c7ccc(S(=O)(=O)[O-])cc7)c7ccc4[nH]7)C=C6)C=C5)cc3)[C@@H]3C=C[C@H]2CC3)sc2c1CCC2
REMARK SMILES IDX 16 1 15 2 13 3 14 4 12 6 11 7 85 8 82 9 84 10 86 11 83 12
REMARK SMILES IDX 87 13 9 14 8 15 10 17 7 18 6 19 90 20 88 21 89 22 91 23
REMARK SMILES IDX 93 24 92 25 4 26 5 27 3 28 2 29 1 30 17 31 18 32 19 33 20 34
REMARK SMILES IDX 21 36 22 37 23 38 81 39 24 40 80 41 25 42 26 43 27 44 74 45
REMARK SMILES IDX 28 46 79 47 73 48 75 49 29 50 78 51 72 52 71 53 30 55 60 56
REMARK SMILES IDX 41 57 59 58 42 59 45 60 58 61 76 62 43 63 44 64 57 66 77 67
REMARK SMILES IDX 46 68 31 69 32 70 40 71 33 72 39 73 34 74 35 75 36 76 37 77
REMARK SMILES IDX 38 78 61 79 62 80 70 81 63 82 69 83 64 84 65 85 66 86 67 87
REMARK SMILES IDX 68 88 47 89 48 90 56 91 49 92 55 93 50 94 51 95 52 96 53 97
REMARK SMILES IDX 54 98
REMARK H PARENT 15 5 8 16 19 35 75 54 45 65
REMARK Flexibility Score: inf
ROOT
ATOM      1  C   UNL     1       4.545  -0.318  -8.140  1.00  0.00     0.117 C 
ENDROOT
BRANCH   1   2
ATOM      2  N   UNL     1       5.742  -1.129  -8.242  1.00  0.00    -0.356 N 
ATOM      3  C   UNL     1       6.715  -1.430  -7.325  1.00  0.00     0.224 C 
ATOM      4  O   UNL     1       7.408  -2.418  -7.603  1.00  0.00    -0.275 OA
ATOM      5  H   UNL     1       5.881  -1.536  -9.128  1.00  0.00     0.163 HD
BRANCH   3   6
ATOM      6  C   UNL     1       7.117  -0.579  -6.088  1.00  0.00     0.098 C 
ATOM      7  C   UNL     1       6.011   0.177  -5.298  1.00  0.00     0.099 C 
ATOM      8  C   UNL     1       6.349   1.706  -5.290  1.00  0.00     0.025 C 
ATOM      9  C   UNL     1       8.213   0.433  -6.558  1.00  0.00     0.025 C 
ATOM     10  C   UNL     1       7.730   1.851  -4.676  1.00  0.00    -0.027 C 
ATOM     11  C   UNL     1       6.479   2.262  -6.727  1.00  0.00     0.009 C 
ATOM     12  C   UNL     1       8.696   1.187  -5.331  1.00  0.00    -0.027 C 
ATOM     13  C   UNL     1       7.588   1.504  -7.486  1.00  0.00     0.009 C 
BRANCH   7  14
ATOM     14  C   UNL     1       5.619  -0.257  -3.883  1.00  0.00     0.229 C 
ATOM     15  N   UNL     1       4.451   0.235  -3.304  1.00  0.00    -0.317 N 
ATOM     16  H   UNL     1       4.307  -0.053  -2.374  1.00  0.00     0.170 HD
ATOM     17  O   UNL     1       6.327  -1.013  -3.215  1.00  0.00    -0.274 OA
BRANCH  15  18
ATOM     18  C   UNL     1       3.451   1.065  -3.812  1.00  0.00     0.110 A 
ATOM     19  C   UNL     1       2.531   1.868  -3.131  1.00  0.00     0.098 A 
ATOM     20  C   UNL     1       1.975   2.823  -4.045  1.00  0.00    -0.017 A 
ATOM     21  S   UNL     1       3.029   1.068  -5.475  1.00  0.00    -0.122 S 
ATOM     22  C   UNL     1       2.330   2.555  -5.333  1.00  0.00     0.011 A 
ATOM     23  C   UNL     1       1.159   4.064  -3.993  1.00  0.00     0.038 C 
ATOM     24  C   UNL     1       1.928   3.559  -6.333  1.00  0.00     0.047 C 
ATOM     25  C   UNL     1       0.883   4.362  -5.512  1.00  0.00     0.010 C 
BRANCH  19  26
ATOM     26  C   UNL     1       2.277   1.764  -1.713  1.00  0.00     0.341 C 
ATOM     27  O   UNL     1       3.152   1.524  -0.882  1.00  0.00    -0.246 OA
BRANCH  26  28
ATOM     28  O   UNL     1       0.943   1.817  -1.453  1.00  0.00    -0.462 OA
BRANCH  28  29
ATOM     29  C   UNL     1       0.531   1.434  -0.135  1.00  0.00     0.230 C 
ATOM     30  C   UNL     1       0.739  -0.051   0.119  1.00  0.00     0.049 C 
ENDBRANCH  28  29
ENDBRANCH  26  28
ENDBRANCH  19  26
ENDBRANCH  15  18
ENDBRANCH   7  14
ENDBRANCH   3   6
ENDBRANCH   1   2
BRANCH   1  31
ATOM     31  C   UNL     1       4.207   0.661  -9.251  1.00  0.00     0.042 C 
BRANCH  31  32
ATOM     32  C   UNL     1       3.367   0.044 -10.332  1.00  0.00     0.118 C 
BRANCH  32  33
ATOM     33  N   UNL     1       1.991  -0.281  -9.932  1.00  0.00    -0.352 N 
ATOM     34  C   UNL     1       0.979  -0.732 -10.776  1.00  0.00     0.251 C 
ATOM     35  H   UNL     1       1.763  -0.170  -8.980  1.00  0.00     0.163 HD
ATOM     36  O   UNL     1      -0.186  -0.771 -10.428  1.00  0.00    -0.269 OA
BRANCH  34  37
ATOM     37  C   UNL     1       1.400  -1.134 -12.135  1.00  0.00     0.039 A 
ATOM     38  C   UNL     1       0.914  -0.478 -13.267  1.00  0.00     0.014 A 
ATOM     39  C   UNL     1       2.517  -1.953 -12.200  1.00  0.00     0.014 A 
ATOM     40  C   UNL     1       1.661  -0.538 -14.445  1.00  0.00     0.010 A 
ATOM     41  C   UNL     1       3.352  -1.809 -13.279  1.00  0.00     0.010 A 
ATOM     42  C   UNL     1       2.920  -1.158 -14.435  1.00  0.00    -0.014 A 
BRANCH  42  43
ATOM     43  C   UNL     1       3.832  -1.072 -15.582  1.00  0.00     0.031 A 
ATOM     44  C   UNL     1       4.011   0.262 -16.230  1.00  0.00     0.074 A 
ATOM     45  C   UNL     1       4.656  -2.085 -15.934  1.00  0.00     0.049 A 
ATOM     46  N   UNL     1       3.660   0.603 -17.428  1.00  0.00    -0.248 NA
ATOM     47  C   UNL     1       4.589   1.368 -15.451  1.00  0.00     0.031 C 
ATOM     48  C   UNL     1       4.851  -3.382 -15.272  1.00  0.00     0.029 A 
ATOM     49  N   UNL     1       5.618  -2.100 -16.895  1.00  0.00    -0.354 N 
ATOM     50  C   UNL     1       4.135   1.897 -17.633  1.00  0.00     0.074 A 
ATOM     51  C   UNL     1       4.568   2.367 -16.339  1.00  0.00     0.031 C 
ATOM     52  C   UNL     1       6.034  -3.908 -15.647  1.00  0.00     0.029 A 
ATOM     53  C   UNL     1       6.561  -3.106 -16.731  1.00  0.00     0.049 A 
ATOM     54  H   UNL     1       5.644  -1.457 -17.640  1.00  0.00     0.167 HD
ATOM     55  C   UNL     1       4.317   2.414 -18.884  1.00  0.00     0.031 A 
ATOM     56  C   UNL     1       7.708  -3.278 -17.426  1.00  0.00     0.031 A 
ATOM     57  C   UNL     1       3.748   1.565 -19.901  1.00  0.00     0.049 A 
ATOM     58  C   UNL     1       7.530  -2.583 -18.723  1.00  0.00     0.074 A 
ATOM     59  C   UNL     1       2.485   1.081 -20.174  1.00  0.00     0.029 A 
ATOM     60  N   UNL     1       4.619   0.772 -20.614  1.00  0.00    -0.354 N 
ATOM     61  N   UNL     1       6.657  -2.961 -19.616  1.00  0.00    -0.248 NA
ATOM     62  C   UNL     1       7.997  -1.212 -18.857  1.00  0.00     0.031 C 
ATOM     63  C   UNL     1       2.698  -0.259 -20.613  1.00  0.00     0.029 A 
ATOM     64  C   UNL     1       4.077  -0.487 -20.648  1.00  0.00     0.049 A 
ATOM     65  H   UNL     1       5.469   1.055 -21.022  1.00  0.00     0.167 HD
ATOM     66  C   UNL     1       6.138  -1.781 -20.129  1.00  0.00     0.074 A 
ATOM     67  C   UNL     1       7.089  -0.748 -19.721  1.00  0.00     0.031 C 
ATOM     68  C   UNL     1       4.851  -1.710 -20.587  1.00  0.00     0.031 A 
BRANCH  55  69
ATOM     69  C   UNL     1       5.307   3.495 -19.249  1.00  0.00    -0.014 A 
ATOM     70  C   UNL     1       5.305   4.008 -20.566  1.00  0.00     0.010 A 
ATOM     71  C   UNL     1       6.412   3.824 -18.440  1.00  0.00     0.010 A 
ATOM     72  C   UNL     1       6.391   4.737 -21.070  1.00  0.00     0.020 A 
ATOM     73  C   UNL     1       7.480   4.588 -18.919  1.00  0.00     0.020 A 
ATOM     74  C   UNL     1       7.482   5.004 -20.245  1.00  0.00     0.054 A 
BRANCH  74  75
ATOM     75  S   UNL     1       8.941   5.822 -20.940  1.00  0.00     0.124 S 
ATOM     76  O   UNL     1       9.457   4.797 -21.842  1.00  0.00    -0.237 OA
ATOM     77  O   UNL     1       8.364   6.999 -21.582  1.00  0.00    -0.237 OA
ATOM     78  O   UNL     1       9.767   6.099 -19.767  1.00  0.00    -0.744 OA
ENDBRANCH  74  75
ENDBRANCH  55  69
BRANCH  56  79
ATOM     79  C   UNL     1       8.996  -3.803 -16.919  1.00  0.00    -0.014 A 
ATOM     80  C   UNL     1      10.037  -4.139 -17.800  1.00  0.00     0.010 A 
ATOM     81  C   UNL     1       9.298  -3.732 -15.541  1.00  0.00     0.010 A 
ATOM     82  C   UNL     1      11.347  -4.322 -17.328  1.00  0.00     0.020 A 
ATOM     83  C   UNL     1      10.598  -3.927 -15.062  1.00  0.00     0.020 A 
ATOM     84  C   UNL     1      11.623  -4.190 -15.964  1.00  0.00     0.054 A 
BRANCH  84  85
ATOM     85  S   UNL     1      13.348  -4.216 -15.395  1.00  0.00     0.124 S 
ATOM     86  O   UNL     1      13.700  -5.626 -15.534  1.00  0.00    -0.237 OA
ATOM     87  O   UNL     1      14.003  -3.305 -16.330  1.00  0.00    -0.237 OA
ATOM     88  O   UNL     1      13.264  -3.728 -14.020  1.00  0.00    -0.744 OA
ENDBRANCH  84  85
ENDBRANCH  56  79
BRANCH  68  89
ATOM     89  C   UNL     1       4.076  -2.997 -20.782  1.00  0.00    -0.014 A 
ATOM     90  C   UNL     1       3.813  -3.909 -19.741  1.00  0.00     0.010 A 
ATOM     91  C   UNL     1       3.443  -3.202 -22.021  1.00  0.00     0.010 A 
ATOM     92  C   UNL     1       2.965  -5.008 -19.942  1.00  0.00     0.020 A 
ATOM     93  C   UNL     1       2.580  -4.284 -22.223  1.00  0.00     0.020 A 
ATOM     94  C   UNL     1       2.352  -5.188 -21.184  1.00  0.00     0.054 A 
BRANCH  94  95
ATOM     95  S   UNL     1       1.208  -6.577 -21.420  1.00  0.00     0.124 S 
ATOM     96  O   UNL     1       2.105  -7.729 -21.418  1.00  0.00    -0.237 OA
ATOM     97  O   UNL     1       0.320  -6.468 -20.265  1.00  0.00    -0.237 OA
ATOM     98  O   UNL     1       0.573  -6.290 -22.706  1.00  0.00    -0.744 OA
ENDBRANCH  94  95
ENDBRANCH  68  89
ENDBRANCH  42  43
ENDBRANCH  34  37
ENDBRANCH  32  33
ENDBRANCH  31  32
ENDBRANCH   1  31
TORSDOF 18
