REMARK SMILES CC(C)[C@@H](Nc1cc(Cl)c(Cl)cc1[N+](=O)[O-])C(=O)NCCCNC(=O)c1ccc(-c2c3nc(c(-c4ccc(S(=O)(=O)[O-])cc4)c4ccc([nH]4)c(-c4ccc(S(=O)(=O)[O-])cc4)c4nc(c(-c5ccc(S(=O)(=O)[O-])cc5)c5ccc2[nH]5)C=C4)C=C3)cc1
REMARK SMILES IDX 21 1 20 2 19 3 17 4 18 5 4 7 2 8 1 9 3 10 5 11 6 13 7 14
REMARK SMILES IDX 13 15 8 16 12 17 9 18 10 19 11 20 14 21 15 22 16 23 22 24
REMARK SMILES IDX 23 25 24 26 25 28 26 29 27 30 85 31 28 32 84 33 29 34 30 35
REMARK SMILES IDX 31 36 78 37 32 38 83 39 77 40 79 41 33 42 82 43 76 44 75 45
REMARK SMILES IDX 34 47 64 48 45 49 63 50 46 51 49 52 62 53 80 54 47 55 48 56
REMARK SMILES IDX 61 58 81 59 50 60 35 61 36 62 44 63 37 64 43 65 38 66 39 67
REMARK SMILES IDX 40 68 41 69 42 70 65 71 66 72 74 73 67 74 73 75 68 76 69 77
REMARK SMILES IDX 70 78 71 79 72 80 51 81 52 82 60 83 53 84 59 85 54 86 55 87
REMARK SMILES IDX 56 88 57 89 58 90
REMARK H PARENT 19 6 5 12 23 27 79 46 49 57
REMARK Flexibility Score: inf
ROOT
ATOM      1  C   UNL     1       0.952   3.415   3.439  1.00  0.00     0.042 C 
ENDROOT
BRANCH   1   2
ATOM      2  C   UNL     1      -0.338   2.692   3.112  1.00  0.00     0.117 C 
BRANCH   2   3
ATOM      3  N   UNL     1      -1.040   3.294   1.995  1.00  0.00    -0.354 N 
ATOM      4  C   UNL     1      -1.432   2.732   0.813  1.00  0.00     0.242 C 
ATOM      5  O   UNL     1      -2.095   3.429   0.039  1.00  0.00    -0.273 OA
ATOM      6  H   UNL     1      -1.266   4.246   2.103  1.00  0.00     0.163 HD
BRANCH   4   7
ATOM      7  C   UNL     1      -1.062   1.271   0.450  1.00  0.00     0.171 C 
BRANCH   7   8
ATOM      8  C   UNL     1       0.481   1.150   0.243  1.00  0.00     0.015 C 
ATOM      9  C   UNL     1       0.919  -0.236  -0.241  1.00  0.00     0.010 C 
ATOM     10  C   UNL     1       1.009   2.199  -0.749  1.00  0.00     0.010 C 
ENDBRANCH   7   8
BRANCH   7  11
ATOM     11  N   UNL     1      -1.561   0.267   1.431  1.00  0.00    -0.368 N 
ATOM     12  H   UNL     1      -1.174  -0.635   1.358  1.00  0.00     0.161 HD
BRANCH  11  13
ATOM     13  C   UNL     1      -2.503   0.445   2.437  1.00  0.00     0.115 A 
ATOM     14  C   UNL     1      -3.602   1.302   2.254  1.00  0.00     0.055 A 
ATOM     15  C   UNL     1      -2.310  -0.074   3.743  1.00  0.00     0.293 A 
ATOM     16  C   UNL     1      -4.407   1.715   3.326  1.00  0.00     0.062 A 
ATOM     17  C   UNL     1      -3.114   0.336   4.824  1.00  0.00     0.110 A 
ATOM     18  Cl  UNL     1      -5.675   2.841   2.994  1.00  0.00    -0.083 Cl
ATOM     19  C   UNL     1      -4.146   1.249   4.616  1.00  0.00     0.066 A 
ATOM     20  Cl  UNL     1      -5.045   1.773   5.994  1.00  0.00    -0.082 Cl
BRANCH  15  21
ATOM     21  N   UNL     1      -1.204  -1.004   4.040  1.00  0.00     0.065 N 
ATOM     22  O   UNL     1      -0.893  -1.162   5.228  1.00  0.00    -0.258 OA
ATOM     23  O   UNL     1      -0.654  -1.584   3.092  1.00  0.00    -0.258 OA
ENDBRANCH  15  21
ENDBRANCH  11  13
ENDBRANCH   7  11
ENDBRANCH   4   7
ENDBRANCH   2   3
ENDBRANCH   1   2
BRANCH   1  24
ATOM     24  C   UNL     1       0.717   4.812   3.986  1.00  0.00     0.118 C 
BRANCH  24  25
ATOM     25  N   UNL     1      -0.019   4.800   5.247  1.00  0.00    -0.352 N 
ATOM     26  C   UNL     1       0.367   5.248   6.485  1.00  0.00     0.251 C 
ATOM     27  H   UNL     1      -0.923   4.415   5.202  1.00  0.00     0.163 HD
ATOM     28  O   UNL     1      -0.301   4.958   7.475  1.00  0.00    -0.269 OA
BRANCH  26  29
ATOM     29  C   UNL     1       1.592   6.060   6.616  1.00  0.00     0.039 A 
ATOM     30  C   UNL     1       2.472   5.806   7.669  1.00  0.00     0.014 A 
ATOM     31  C   UNL     1       1.879   7.057   5.681  1.00  0.00     0.014 A 
ATOM     32  C   UNL     1       3.677   6.507   7.740  1.00  0.00     0.010 A 
ATOM     33  C   UNL     1       3.122   7.674   5.691  1.00  0.00     0.010 A 
ATOM     34  C   UNL     1       4.029   7.416   6.727  1.00  0.00    -0.014 A 
BRANCH  34  35
ATOM     35  C   UNL     1       5.337   8.116   6.734  1.00  0.00     0.031 A 
ATOM     36  C   UNL     1       5.384   9.619   6.805  1.00  0.00     0.074 A 
ATOM     37  C   UNL     1       6.474   7.404   6.604  1.00  0.00     0.049 A 
ATOM     38  N   UNL     1       6.422  10.413   6.757  1.00  0.00    -0.248 NA
ATOM     39  C   UNL     1       4.095  10.323   6.913  1.00  0.00     0.031 C 
ATOM     40  C   UNL     1       6.554   5.946   6.476  1.00  0.00     0.029 A 
ATOM     41  N   UNL     1       7.783   7.812   6.551  1.00  0.00    -0.354 N 
ATOM     42  C   UNL     1       5.911  11.705   6.810  1.00  0.00     0.074 A 
ATOM     43  C   UNL     1       4.470  11.591   6.833  1.00  0.00     0.031 C 
ATOM     44  C   UNL     1       7.843   5.581   6.394  1.00  0.00     0.029 A 
ATOM     45  C   UNL     1       8.679   6.777   6.415  1.00  0.00     0.049 A 
ATOM     46  H   UNL     1       8.056   8.756   6.605  1.00  0.00     0.167 HD
ATOM     47  C   UNL     1       6.581  12.880   6.859  1.00  0.00     0.031 A 
ATOM     48  C   UNL     1      10.022   6.790   6.311  1.00  0.00     0.031 A 
ATOM     49  C   UNL     1       8.016  12.985   6.848  1.00  0.00     0.049 A 
ATOM     50  C   UNL     1      10.744   8.108   6.358  1.00  0.00     0.074 A 
ATOM     51  C   UNL     1       8.794  14.123   6.955  1.00  0.00     0.029 A 
ATOM     52  N   UNL     1       8.887  11.913   6.721  1.00  0.00    -0.354 N 
ATOM     53  N   UNL     1      10.246   9.316   6.482  1.00  0.00    -0.248 NA
ATOM     54  C   UNL     1      12.209   8.065   6.265  1.00  0.00     0.031 C 
ATOM     55  C   UNL     1      10.135  13.746   6.832  1.00  0.00     0.029 A 
ATOM     56  C   UNL     1      10.195  12.366   6.718  1.00  0.00     0.049 A 
ATOM     57  H   UNL     1       8.615  10.970   6.645  1.00  0.00     0.167 HD
ATOM     58  C   UNL     1      11.340  10.175   6.510  1.00  0.00     0.074 A 
ATOM     59  C   UNL     1      12.524   9.346   6.407  1.00  0.00     0.031 C 
ATOM     60  C   UNL     1      11.362  11.527   6.613  1.00  0.00     0.031 A 
BRANCH  47  61
ATOM     61  C   UNL     1       5.767  14.146   6.923  1.00  0.00    -0.014 A 
ATOM     62  C   UNL     1       5.010  14.470   8.064  1.00  0.00     0.010 A 
ATOM     63  C   UNL     1       5.790  15.046   5.842  1.00  0.00     0.010 A 
ATOM     64  C   UNL     1       4.259  15.647   8.106  1.00  0.00     0.020 A 
ATOM     65  C   UNL     1       5.065  16.241   5.893  1.00  0.00     0.020 A 
ATOM     66  C   UNL     1       4.291  16.525   7.019  1.00  0.00     0.054 A 
BRANCH  66  67
ATOM     67  S   UNL     1       3.328  18.058   7.114  1.00  0.00     0.124 S 
ATOM     68  O   UNL     1       1.959  17.561   6.997  1.00  0.00    -0.237 OA
ATOM     69  O   UNL     1       3.694  18.585   8.426  1.00  0.00    -0.237 OA
ATOM     70  O   UNL     1       3.805  18.840   5.976  1.00  0.00    -0.744 OA
ENDBRANCH  66  67
ENDBRANCH  47  61
BRANCH  48  71
ATOM     71  C   UNL     1      10.768   5.510   6.164  1.00  0.00    -0.014 A 
ATOM     72  C   UNL     1      11.581   5.031   7.207  1.00  0.00     0.010 A 
ATOM     73  C   UNL     1      10.659   4.753   4.982  1.00  0.00     0.010 A 
ATOM     74  C   UNL     1      12.285   3.832   7.064  1.00  0.00     0.020 A 
ATOM     75  C   UNL     1      11.337   3.538   4.848  1.00  0.00     0.020 A 
ATOM     76  C   UNL     1      12.156   3.091   5.886  1.00  0.00     0.054 A 
BRANCH  76  77
ATOM     77  S   UNL     1      13.041   1.514   5.743  1.00  0.00     0.124 S 
ATOM     78  O   UNL     1      14.424   1.954   5.591  1.00  0.00    -0.237 OA
ATOM     79  O   UNL     1      12.720   0.858   7.008  1.00  0.00    -0.237 OA
ATOM     80  O   UNL     1      12.446   0.895   4.561  1.00  0.00    -0.744 OA
ENDBRANCH  76  77
ENDBRANCH  48  71
BRANCH  60  81
ATOM     81  C   UNL     1      12.710  12.197   6.655  1.00  0.00    -0.014 A 
ATOM     82  C   UNL     1      13.528  12.268   5.514  1.00  0.00     0.010 A 
ATOM     83  C   UNL     1      13.136  12.817   7.845  1.00  0.00     0.010 A 
ATOM     84  C   UNL     1      14.764  12.918   5.572  1.00  0.00     0.020 A 
ATOM     85  C   UNL     1      14.356  13.495   7.897  1.00  0.00     0.020 A 
ATOM     86  C   UNL     1      15.169  13.528   6.763  1.00  0.00     0.054 A 
BRANCH  86  87
ATOM     87  S   UNL     1      16.757  14.404   6.798  1.00  0.00     0.124 S 
ATOM     88  O   UNL     1      17.713  13.301   6.768  1.00  0.00    -0.237 OA
ATOM     89  O   UNL     1      16.699  15.219   5.586  1.00  0.00    -0.237 OA
ATOM     90  O   UNL     1      16.712  15.156   8.050  1.00  0.00    -0.744 OA
ENDBRANCH  86  87
ENDBRANCH  60  81
ENDBRANCH  34  35
ENDBRANCH  26  29
ENDBRANCH  24  25
ENDBRANCH   1  24
TORSDOF 17
