REMARK SMILES C[C@H]1OCC[C@H]1C(=O)Nc1ccsc1C(=O)NCCCNC(=O)c1ccc(-c2c3nc(c(-c4ccc(S(=O)(=O)[O-])cc4)c4ccc([nH]4)c(-c4ccc(S(=O)(=O)[O-])cc4)c4nc(c(-c5ccc(S(=O)(=O)[O-])cc5)c5ccc2[nH]5)C=C4)C=C3)cc1
REMARK SMILES IDX 19 1 18 2 17 3 15 4 16 5 14 7 10 8 11 9 12 10 13 11 9 12
REMARK SMILES IDX 7 13 8 14 6 16 1 17 2 18 3 19 4 20 5 21 20 22 21 23 22 24
REMARK SMILES IDX 23 26 24 27 25 28 83 29 26 30 82 31 27 32 28 33 29 34 76 35
REMARK SMILES IDX 30 36 81 37 75 38 77 39 31 40 80 41 74 42 73 43 32 45 62 46
REMARK SMILES IDX 43 47 61 48 44 49 47 50 60 51 78 52 45 53 46 54 59 56 79 57
REMARK SMILES IDX 48 58 33 59 34 60 42 61 35 62 41 63 36 64 37 65 38 66 39 67
REMARK SMILES IDX 40 68 63 69 64 70 72 71 65 72 71 73 66 74 67 75 68 76 69 77
REMARK SMILES IDX 70 78 49 79 50 80 58 81 51 82 57 83 52 84 53 85 54 86 55 87
REMARK SMILES IDX 56 88
REMARK H PARENT 17 6 9 15 21 25 77 44 47 55
REMARK Flexibility Score: inf
ROOT
ATOM      1  C   UNL     1      -1.881  -3.077  -3.686  1.00  0.00     0.042 C 
ENDROOT
BRANCH   1   2
ATOM      2  C   UNL     1      -0.999  -1.861  -3.836  1.00  0.00     0.118 C 
BRANCH   2   3
ATOM      3  N   UNL     1      -1.469  -0.821  -4.711  1.00  0.00    -0.351 N 
ATOM      4  C   UNL     1      -1.296   0.543  -4.654  1.00  0.00     0.263 C 
ATOM      5  O   UNL     1      -1.814   1.141  -5.606  1.00  0.00    -0.268 OA
ATOM      6  H   UNL     1      -2.003  -1.137  -5.475  1.00  0.00     0.163 HD
BRANCH   4   7
ATOM      7  C   UNL     1      -0.595   1.242  -3.567  1.00  0.00     0.115 A 
ATOM      8  C   UNL     1       0.334   0.907  -2.579  1.00  0.00     0.065 A 
ATOM      9  C   UNL     1       0.746   2.050  -1.825  1.00  0.00     0.038 A 
ATOM     10  C   UNL     1       0.073   3.197  -2.160  1.00  0.00     0.068 A 
ATOM     11  S   UNL     1      -1.030   2.925  -3.416  1.00  0.00    -0.137 S 
BRANCH   8  12
ATOM     12  N   UNL     1       0.979  -0.308  -2.454  1.00  0.00    -0.324 N 
ATOM     13  C   UNL     1       1.015  -1.208  -1.430  1.00  0.00     0.230 C 
ATOM     14  O   UNL     1       1.652  -2.247  -1.668  1.00  0.00    -0.274 OA
ATOM     15  H   UNL     1       1.505  -0.571  -3.244  1.00  0.00     0.169 HD
BRANCH  13  16
ATOM     16  C   UNL     1       0.291  -1.108  -0.083  1.00  0.00     0.110 C 
ATOM     17  C   UNL     1       2.405   0.039   0.822  1.00  0.00     0.039 C 
ATOM     18  C   UNL     1       0.909  -0.186   0.945  1.00  0.00     0.127 C 
ATOM     19  O   UNL     1       0.168   1.039   0.872  1.00  0.00    -0.378 OA
ATOM     20  C   UNL     1      -1.172   0.718   0.465  1.00  0.00     0.161 C 
ATOM     21  C   UNL     1      -1.169  -0.704  -0.062  1.00  0.00     0.044 C 
ENDBRANCH  13  16
ENDBRANCH   8  12
ENDBRANCH   4   7
ENDBRANCH   2   3
ENDBRANCH   1   2
BRANCH   1  22
ATOM     22  C   UNL     1      -2.143  -3.831  -4.968  1.00  0.00     0.118 C 
BRANCH  22  23
ATOM     23  N   UNL     1      -0.966  -4.485  -5.521  1.00  0.00    -0.352 N 
ATOM     24  C   UNL     1      -0.598  -5.814  -5.569  1.00  0.00     0.251 C 
ATOM     25  H   UNL     1      -0.317  -3.870  -5.934  1.00  0.00     0.163 HD
ATOM     26  O   UNL     1       0.505  -6.114  -6.004  1.00  0.00    -0.269 OA
BRANCH  24  27
ATOM     27  C   UNL     1      -1.507  -6.871  -5.062  1.00  0.00     0.039 A 
ATOM     28  C   UNL     1      -0.973  -7.971  -4.385  1.00  0.00     0.014 A 
ATOM     29  C   UNL     1      -2.884  -6.787  -5.245  1.00  0.00     0.014 A 
ATOM     30  C   UNL     1      -1.829  -8.929  -3.828  1.00  0.00     0.010 A 
ATOM     31  C   UNL     1      -3.732  -7.638  -4.553  1.00  0.00     0.010 A 
ATOM     32  C   UNL     1      -3.220  -8.745  -3.866  1.00  0.00    -0.014 A 
BRANCH  32  33
ATOM     33  C   UNL     1      -4.173  -9.717  -3.266  1.00  0.00     0.031 A 
ATOM     34  C   UNL     1      -5.237 -10.347  -4.135  1.00  0.00     0.074 A 
ATOM     35  C   UNL     1      -4.142  -9.974  -1.943  1.00  0.00     0.049 A 
ATOM     36  N   UNL     1      -6.235 -11.120  -3.791  1.00  0.00    -0.248 NA
ATOM     37  C   UNL     1      -5.204 -10.026  -5.574  1.00  0.00     0.031 C 
ATOM     38  C   UNL     1      -3.200  -9.393  -0.983  1.00  0.00     0.029 A 
ATOM     39  N   UNL     1      -4.933 -10.790  -1.173  1.00  0.00    -0.354 N 
ATOM     40  C   UNL     1      -6.961 -11.340  -4.957  1.00  0.00     0.074 A 
ATOM     41  C   UNL     1      -6.335 -10.563  -6.001  1.00  0.00     0.031 C 
ATOM     42  C   UNL     1      -3.442  -9.902   0.236  1.00  0.00     0.029 A 
ATOM     43  C   UNL     1      -4.585 -10.806   0.157  1.00  0.00     0.049 A 
ATOM     44  H   UNL     1      -5.681 -11.316  -1.540  1.00  0.00     0.167 HD
ATOM     45  C   UNL     1      -8.031 -12.145  -5.156  1.00  0.00     0.031 A 
ATOM     46  C   UNL     1      -5.126 -11.472   1.196  1.00  0.00     0.031 A 
ATOM     47  C   UNL     1      -8.622 -12.955  -4.127  1.00  0.00     0.049 A 
ATOM     48  C   UNL     1      -6.301 -12.379   0.950  1.00  0.00     0.074 A 
ATOM     49  C   UNL     1      -9.663 -13.858  -4.235  1.00  0.00     0.029 A 
ATOM     50  N   UNL     1      -8.212 -12.968  -2.802  1.00  0.00    -0.354 N 
ATOM     51  N   UNL     1      -6.936 -12.619  -0.174  1.00  0.00    -0.248 NA
ATOM     52  C   UNL     1      -6.822 -13.119   2.107  1.00  0.00     0.031 C 
ATOM     53  C   UNL     1      -9.916 -14.383  -2.964  1.00  0.00     0.029 A 
ATOM     54  C   UNL     1      -8.990 -13.854  -2.078  1.00  0.00     0.049 A 
ATOM     55  H   UNL     1      -7.477 -12.428  -2.432  1.00  0.00     0.167 HD
ATOM     56  C   UNL     1      -7.907 -13.565   0.136  1.00  0.00     0.074 A 
ATOM     57  C   UNL     1      -7.768 -13.861   1.547  1.00  0.00     0.031 C 
ATOM     58  C   UNL     1      -8.829 -14.142  -0.676  1.00  0.00     0.031 A 
BRANCH  45  59
ATOM     59  C   UNL     1      -8.621 -12.194  -6.542  1.00  0.00    -0.014 A 
ATOM     60  C   UNL     1      -7.912 -12.762  -7.617  1.00  0.00     0.010 A 
ATOM     61  C   UNL     1      -9.916 -11.693  -6.769  1.00  0.00     0.010 A 
ATOM     62  C   UNL     1      -8.466 -12.783  -8.900  1.00  0.00     0.020 A 
ATOM     63  C   UNL     1     -10.488 -11.744  -8.043  1.00  0.00     0.020 A 
ATOM     64  C   UNL     1      -9.750 -12.273  -9.105  1.00  0.00     0.054 A 
BRANCH  64  65
ATOM     65  S   UNL     1     -10.454 -12.340 -10.775  1.00  0.00     0.124 S 
ATOM     66  O   UNL     1      -9.679 -11.313 -11.469  1.00  0.00    -0.237 OA
ATOM     67  O   UNL     1     -10.179 -13.715 -11.182  1.00  0.00    -0.237 OA
ATOM     68  O   UNL     1     -11.865 -12.023 -10.570  1.00  0.00    -0.744 OA
ENDBRANCH  64  65
ENDBRANCH  45  59
BRANCH  46  69
ATOM     69  C   UNL     1      -4.543 -11.329   2.560  1.00  0.00    -0.014 A 
ATOM     70  C   UNL     1      -3.855 -12.399   3.159  1.00  0.00     0.010 A 
ATOM     71  C   UNL     1      -4.666 -10.118   3.267  1.00  0.00     0.010 A 
ATOM     72  C   UNL     1      -3.323 -12.272   4.446  1.00  0.00     0.020 A 
ATOM     73  C   UNL     1      -4.109  -9.976   4.542  1.00  0.00     0.020 A 
ATOM     74  C   UNL     1      -3.453 -11.060   5.129  1.00  0.00     0.054 A 
BRANCH  74  75
ATOM     75  S   UNL     1      -2.717 -10.903   6.780  1.00  0.00     0.124 S 
ATOM     76  O   UNL     1      -3.619 -11.713   7.593  1.00  0.00    -0.237 OA
ATOM     77  O   UNL     1      -1.378 -11.451   6.582  1.00  0.00    -0.237 OA
ATOM     78  O   UNL     1      -2.761  -9.465   7.038  1.00  0.00    -0.744 OA
ENDBRANCH  74  75
ENDBRANCH  46  69
BRANCH  58  79
ATOM     79  C   UNL     1      -9.724 -15.192  -0.075  1.00  0.00    -0.014 A 
ATOM     80  C   UNL     1     -10.745 -14.857   0.830  1.00  0.00     0.010 A 
ATOM     81  C   UNL     1      -9.574 -16.533  -0.476  1.00  0.00     0.010 A 
ATOM     82  C   UNL     1     -11.578 -15.850   1.351  1.00  0.00     0.020 A 
ATOM     83  C   UNL     1     -10.424 -17.523   0.019  1.00  0.00     0.020 A 
ATOM     84  C   UNL     1     -11.412 -17.177   0.942  1.00  0.00     0.054 A 
BRANCH  84  85
ATOM     85  S   UNL     1     -12.532 -18.441   1.602  1.00  0.00     0.124 S 
ATOM     86  O   UNL     1     -12.057 -18.580   2.975  1.00  0.00    -0.237 OA
ATOM     87  O   UNL     1     -13.844 -17.816   1.451  1.00  0.00    -0.237 OA
ATOM     88  O   UNL     1     -12.297 -19.598   0.741  1.00  0.00    -0.744 OA
ENDBRANCH  84  85
ENDBRANCH  58  79
ENDBRANCH  32  33
ENDBRANCH  24  27
ENDBRANCH  22  23
ENDBRANCH   1  22
TORSDOF 15
