REMARK SMILES COc1ccc2[nH]c(C(=O)c3cc(C)ccn3)c(CC(=O)NCCCNC(=O)c3ccc(-c4c5nc(c(-c6ccc(S(=O)(=O)[O-])cc6)c6ccc([nH]6)c(-c6ccc(S(=O)(=O)[O-])cc6)c6nc(c(-c7ccc(S(=O)(=O)[O-])cc7)c7ccc4[nH]7)C=C6)C=C5)cc3)c2c1
REMARK SMILES IDX 24 1 23 2 22 3 20 4 21 5 19 7 18 8 3 9 4 10 90 11 5 12 89 13
REMARK SMILES IDX 6 14 7 15 8 16 2 18 1 19 9 20 10 21 11 22 12 23 17 24 13 25
REMARK SMILES IDX 16 26 14 27 15 28 25 29 26 30 27 31 28 33 29 34 30 35 88 36
REMARK SMILES IDX 31 37 87 38 32 39 33 40 34 41 81 42 35 43 86 44 80 45 82 46
REMARK SMILES IDX 36 47 85 48 79 49 78 50 37 52 67 53 48 54 66 55 49 56 52 57
REMARK SMILES IDX 65 58 83 59 50 60 51 61 64 63 84 64 53 65 38 66 39 67 47 68
REMARK SMILES IDX 40 69 46 70 41 71 42 72 43 73 44 74 45 75 68 76 69 77 77 78
REMARK SMILES IDX 70 79 76 80 71 81 72 82 73 83 74 84 75 85 54 86 55 87 63 88
REMARK SMILES IDX 56 89 62 90 57 91 58 92 59 93 60 94 61 95
REMARK H PARENT 22 6 7 17 26 32 82 51 52 62
REMARK Flexibility Score: inf
ROOT
ATOM      1  C   UNL     1      -1.274   5.387  -1.425  1.00  0.00     0.042 C 
ENDROOT
BRANCH   1   2
ATOM      2  C   UNL     1      -2.410   4.549  -2.002  1.00  0.00     0.117 C 
BRANCH   2   3
ATOM      3  N   UNL     1      -2.982   5.114  -3.207  1.00  0.00    -0.356 N 
ATOM      4  C   UNL     1      -2.866   4.707  -4.505  1.00  0.00     0.224 C 
ATOM      5  O   UNL     1      -3.646   5.214  -5.317  1.00  0.00    -0.275 OA
ATOM      6  H   UNL     1      -3.540   5.914  -3.068  1.00  0.00     0.163 HD
BRANCH   4   7
ATOM      7  C   UNL     1      -1.919   3.581  -4.908  1.00  0.00     0.138 C 
BRANCH   7   8
ATOM      8  C   UNL     1      -0.470   3.808  -4.564  1.00  0.00    -0.002 A 
ATOM      9  C   UNL     1       1.002   1.334  -2.029  1.00  0.00     0.119 A 
ATOM     10  C   UNL     1       2.246   1.952  -1.930  1.00  0.00     0.048 A 
ATOM     11  C   UNL     1       0.037   1.837  -2.908  1.00  0.00     0.057 A 
ATOM     12  C   UNL     1       2.546   3.093  -2.686  1.00  0.00     0.030 A 
ATOM     13  C   UNL     1       0.302   3.001  -3.661  1.00  0.00     0.008 A 
ATOM     14  C   UNL     1       1.554   3.592  -3.538  1.00  0.00     0.046 A 
ATOM     15  N   UNL     1       1.566   4.684  -4.371  1.00  0.00    -0.352 N 
ATOM     16  C   UNL     1       0.385   4.785  -5.079  1.00  0.00     0.093 A 
ATOM     17  H   UNL     1       2.320   5.312  -4.452  1.00  0.00     0.167 HD
BRANCH   9  18
ATOM     18  O   UNL     1       0.621   0.214  -1.338  1.00  0.00    -0.497 OA
ATOM     19  C   UNL     1       1.243   0.037  -0.070  1.00  0.00     0.278 C 
ENDBRANCH   9  18
BRANCH  16  20
ATOM     20  C   UNL     1       0.122   5.756  -6.136  1.00  0.00     0.227 C 
ATOM     21  O   UNL     1      -0.939   5.809  -6.756  1.00  0.00    -0.285 OA
BRANCH  20  22
ATOM     22  C   UNL     1       1.207   6.684  -6.550  1.00  0.00     0.113 A 
ATOM     23  C   UNL     1       2.348   6.177  -7.167  1.00  0.00     0.036 A 
ATOM     24  N   UNL     1       0.999   8.001  -6.305  1.00  0.00    -0.253 NA
ATOM     25  C   UNL     1       3.344   7.074  -7.556  1.00  0.00    -0.047 A 
ATOM     26  C   UNL     1       1.965   8.848  -6.714  1.00  0.00     0.112 A 
ATOM     27  C   UNL     1       4.602   6.600  -8.219  1.00  0.00     0.044 C 
ATOM     28  C   UNL     1       3.139   8.438  -7.331  1.00  0.00     0.023 A 
ENDBRANCH  20  22
ENDBRANCH  16  20
ENDBRANCH   7   8
ENDBRANCH   4   7
ENDBRANCH   2   3
ENDBRANCH   1   2
BRANCH   1  29
ATOM     29  C   UNL     1      -1.697   6.759  -0.904  1.00  0.00     0.118 C 
BRANCH  29  30
ATOM     30  N   UNL     1      -2.621   6.678   0.218  1.00  0.00    -0.352 N 
ATOM     31  C   UNL     1      -2.537   7.195   1.487  1.00  0.00     0.251 C 
ATOM     32  H   UNL     1      -3.443   6.167   0.037  1.00  0.00     0.163 HD
ATOM     33  O   UNL     1      -3.365   6.851   2.326  1.00  0.00    -0.269 OA
BRANCH  31  34
ATOM     34  C   UNL     1      -1.462   8.143   1.864  1.00  0.00     0.039 A 
ATOM     35  C   UNL     1      -0.885   8.027   3.134  1.00  0.00     0.014 A 
ATOM     36  C   UNL     1      -1.059   9.176   1.013  1.00  0.00     0.014 A 
ATOM     37  C   UNL     1       0.130   8.904   3.526  1.00  0.00     0.010 A 
ATOM     38  C   UNL     1      -0.003  10.011   1.380  1.00  0.00     0.010 A 
ATOM     39  C   UNL     1       0.600   9.887   2.641  1.00  0.00    -0.014 A 
BRANCH  39  40
ATOM     40  C   UNL     1       1.719  10.791   3.016  1.00  0.00     0.031 A 
ATOM     41  C   UNL     1       1.485  12.271   3.160  1.00  0.00     0.074 A 
ATOM     42  C   UNL     1       2.961  10.290   3.165  1.00  0.00     0.049 A 
ATOM     43  N   UNL     1       2.351  13.223   3.402  1.00  0.00    -0.248 NA
ATOM     44  C   UNL     1       0.103  12.746   2.987  1.00  0.00     0.031 C 
ATOM     45  C   UNL     1       3.329   8.880   3.019  1.00  0.00     0.029 A 
ATOM     46  N   UNL     1       4.148  10.913   3.461  1.00  0.00    -0.354 N 
ATOM     47  C   UNL     1       1.625  14.409   3.386  1.00  0.00     0.074 A 
ATOM     48  C   UNL     1       0.255  14.060   3.077  1.00  0.00     0.031 C 
ATOM     49  C   UNL     1       4.646   8.744   3.242  1.00  0.00     0.029 A 
ATOM     50  C   UNL     1       5.223  10.058   3.510  1.00  0.00     0.049 A 
ATOM     51  H   UNL     1       4.222  11.882   3.623  1.00  0.00     0.167 HD
ATOM     52  C   UNL     1       2.055  15.672   3.621  1.00  0.00     0.031 A 
ATOM     53  C   UNL     1       6.529  10.301   3.737  1.00  0.00     0.031 A 
ATOM     54  C   UNL     1       3.413  16.018   3.947  1.00  0.00     0.049 A 
ATOM     55  C   UNL     1       6.981  11.709   4.007  1.00  0.00     0.074 A 
ATOM     56  C   UNL     1       3.935  17.264   4.253  1.00  0.00     0.029 A 
ATOM     57  N   UNL     1       4.465  15.117   4.014  1.00  0.00    -0.354 N 
ATOM     58  N   UNL     1       6.269  12.810   4.035  1.00  0.00    -0.248 NA
ATOM     59  C   UNL     1       8.410  11.905   4.288  1.00  0.00     0.031 C 
ATOM     60  C   UNL     1       5.310  17.122   4.469  1.00  0.00     0.029 A 
ATOM     61  C   UNL     1       5.636  15.781   4.342  1.00  0.00     0.049 A 
ATOM     62  H   UNL     1       4.391  14.149   3.852  1.00  0.00     0.167 HD
ATOM     63  C   UNL     1       7.160  13.826   4.361  1.00  0.00     0.074 A 
ATOM     64  C   UNL     1       8.459  13.208   4.530  1.00  0.00     0.031 C 
ATOM     65  C   UNL     1       6.921  15.152   4.509  1.00  0.00     0.031 A 
BRANCH  52  66
ATOM     66  C   UNL     1       1.040  16.779   3.524  1.00  0.00    -0.014 A 
ATOM     67  C   UNL     1       0.045  16.939   4.505  1.00  0.00     0.010 A 
ATOM     68  C   UNL     1       1.101  17.692   2.455  1.00  0.00     0.010 A 
ATOM     69  C   UNL     1      -0.898  17.965   4.395  1.00  0.00     0.020 A 
ATOM     70  C   UNL     1       0.175  18.735   2.356  1.00  0.00     0.020 A 
ATOM     71  C   UNL     1      -0.831  18.852   3.317  1.00  0.00     0.054 A 
BRANCH  71  72
ATOM     72  S   UNL     1      -2.058  20.184   3.205  1.00  0.00     0.124 S 
ATOM     73  O   UNL     1      -3.240  19.463   2.739  1.00  0.00    -0.237 OA
ATOM     74  O   UNL     1      -2.124  20.678   4.578  1.00  0.00    -0.237 OA
ATOM     75  O   UNL     1      -1.473  21.113   2.240  1.00  0.00    -0.744 OA
ENDBRANCH  71  72
ENDBRANCH  52  66
BRANCH  53  76
ATOM     76  C   UNL     1       7.501   9.176   3.731  1.00  0.00    -0.014 A 
ATOM     77  C   UNL     1       8.051   8.703   4.935  1.00  0.00     0.010 A 
ATOM     78  C   UNL     1       7.862   8.556   2.521  1.00  0.00     0.010 A 
ATOM     79  C   UNL     1       8.956   7.638   4.929  1.00  0.00     0.020 A 
ATOM     80  C   UNL     1       8.749   7.476   2.514  1.00  0.00     0.020 A 
ATOM     81  C   UNL     1       9.297   7.029   3.718  1.00  0.00     0.054 A 
BRANCH  81  82
ATOM     82  S   UNL     1      10.422   5.605   3.735  1.00  0.00     0.124 S 
ATOM     83  O   UNL     1      11.720   6.246   3.914  1.00  0.00    -0.237 OA
ATOM     84  O   UNL     1       9.935   4.830   4.874  1.00  0.00    -0.237 OA
ATOM     85  O   UNL     1      10.201   4.984   2.431  1.00  0.00    -0.744 OA
ENDBRANCH  81  82
ENDBRANCH  53  76
BRANCH  65  86
ATOM     86  C   UNL     1       8.082  16.024   4.905  1.00  0.00    -0.014 A 
ATOM     87  C   UNL     1       9.085  16.364   3.980  1.00  0.00     0.010 A 
ATOM     88  C   UNL     1       8.140  16.550   6.208  1.00  0.00     0.010 A 
ATOM     89  C   UNL     1      10.142  17.195   4.361  1.00  0.00     0.020 A 
ATOM     90  C   UNL     1       9.183  17.399   6.586  1.00  0.00     0.020 A 
ATOM     91  C   UNL     1      10.185  17.705   5.663  1.00  0.00     0.054 A 
BRANCH  91  92
ATOM     92  S   UNL     1      11.543  18.817   6.122  1.00  0.00     0.124 S 
ATOM     93  O   UNL     1      12.649  17.883   6.310  1.00  0.00    -0.237 OA
ATOM     94  O   UNL     1      11.651  19.694   4.959  1.00  0.00    -0.237 OA
ATOM     95  O   UNL     1      11.061  19.466   7.340  1.00  0.00    -0.744 OA
ENDBRANCH  91  92
ENDBRANCH  65  86
ENDBRANCH  39  40
ENDBRANCH  31  34
ENDBRANCH  29  30
ENDBRANCH   1  29
TORSDOF 17
