REMARK SMILES C[C@H](C(=O)NCCCNC(=O)c1ccc(-c2c3nc(c(-c4ccc(S(=O)(=O)[O-])cc4)c4ccc([nH]4)c(-c4ccc(S(=O)(=O)[O-])cc4)c4nc(c(-c5ccc(S(=O)(=O)[O-])cc5)c5ccc2[nH]5)C=C4)C=C3)cc1)c1ccc(-c2ccccc2)c(F)c1
REMARK SMILES IDX 7 1 6 2 5 3 3 4 4 5 2 7 1 8 72 9 73 10 84 11 74 12 82 13
REMARK SMILES IDX 75 14 83 15 76 16 77 17 81 18 78 19 80 20 79 21 8 22 9 23
REMARK SMILES IDX 10 24 11 26 12 27 13 28 71 29 14 30 70 31 15 32 16 33 17 34
REMARK SMILES IDX 64 35 18 36 69 37 63 38 65 39 19 40 68 41 62 42 61 43 20 45
REMARK SMILES IDX 50 46 31 47 49 48 32 49 35 50 48 51 66 52 33 53 34 54 47 56
REMARK SMILES IDX 67 57 36 58 21 59 22 60 30 61 23 62 29 63 24 64 25 65 26 66
REMARK SMILES IDX 27 67 28 68 51 69 52 70 60 71 53 72 59 73 54 74 55 75 56 76
REMARK SMILES IDX 57 77 58 78 37 79 38 80 46 81 39 82 45 83 40 84 41 85 42 86
REMARK SMILES IDX 43 87 44 88
REMARK H PARENT 5 6 9 25 65 44 35 55
REMARK Flexibility Score: inf
ROOT
ATOM      1  C   UNL     1       1.423   0.641   3.404  1.00  0.00     0.042 C 
ENDROOT
BRANCH   1   2
ATOM      2  C   UNL     1       0.501   0.897   2.223  1.00  0.00     0.117 C 
BRANCH   2   3
ATOM      3  N   UNL     1       1.175   0.798   0.940  1.00  0.00    -0.356 N 
ATOM      4  C   UNL     1       1.165  -0.187  -0.002  1.00  0.00     0.227 C 
ATOM      5  O   UNL     1       1.754   0.046  -1.062  1.00  0.00    -0.274 OA
ATOM      6  H   UNL     1       1.735   1.575   0.712  1.00  0.00     0.163 HD
BRANCH   4   7
ATOM      7  C   UNL     1       0.459  -1.526   0.219  1.00  0.00     0.105 C 
ATOM      8  C   UNL     1       1.029  -2.260   1.437  1.00  0.00     0.023 C 
BRANCH   7   9
ATOM      9  C   UNL     1      -1.066  -1.495   0.201  1.00  0.00    -0.033 A 
ATOM     10  C   UNL     1      -1.806  -0.313   0.065  1.00  0.00     0.005 A 
ATOM     11  C   UNL     1      -1.780  -2.697   0.324  1.00  0.00     0.044 A 
ATOM     12  C   UNL     1      -3.203  -0.322   0.140  1.00  0.00     0.012 A 
ATOM     13  C   UNL     1      -3.175  -2.701   0.375  1.00  0.00     0.131 A 
ATOM     14  C   UNL     1      -3.918  -1.517   0.306  1.00  0.00     0.017 A 
ATOM     15  F   UNL     1      -3.796  -3.886   0.495  1.00  0.00    -0.206 F 
BRANCH  14  16
ATOM     16  C   UNL     1      -5.386  -1.499   0.409  1.00  0.00    -0.015 A 
ATOM     17  C   UNL     1      -6.166  -0.798  -0.526  1.00  0.00     0.009 A 
ATOM     18  C   UNL     1      -6.049  -2.152   1.462  1.00  0.00     0.009 A 
ATOM     19  C   UNL     1      -7.557  -0.743  -0.409  1.00  0.00     0.001 A 
ATOM     20  C   UNL     1      -7.440  -2.098   1.580  1.00  0.00     0.001 A 
ATOM     21  C   UNL     1      -8.193  -1.392   0.645  1.00  0.00     0.000 A 
ENDBRANCH  14  16
ENDBRANCH   7   9
ENDBRANCH   4   7
ENDBRANCH   2   3
ENDBRANCH   1   2
BRANCH   1  22
ATOM     22  C   UNL     1       2.621   1.574   3.476  1.00  0.00     0.118 C 
BRANCH  22  23
ATOM     23  N   UNL     1       2.249   2.950   3.767  1.00  0.00    -0.352 N 
ATOM     24  C   UNL     1       2.609   3.750   4.824  1.00  0.00     0.251 C 
ATOM     25  H   UNL     1       1.651   3.371   3.109  1.00  0.00     0.163 HD
ATOM     26  O   UNL     1       2.044   4.834   4.978  1.00  0.00    -0.269 OA
BRANCH  24  27
ATOM     27  C   UNL     1       3.647   3.312   5.785  1.00  0.00     0.039 A 
ATOM     28  C   UNL     1       3.466   3.579   7.145  1.00  0.00     0.014 A 
ATOM     29  C   UNL     1       4.807   2.663   5.354  1.00  0.00     0.014 A 
ATOM     30  C   UNL     1       4.421   3.152   8.071  1.00  0.00     0.010 A 
ATOM     31  C   UNL     1       5.706   2.151   6.284  1.00  0.00     0.010 A 
ATOM     32  C   UNL     1       5.539   2.412   7.652  1.00  0.00    -0.014 A 
BRANCH  32  33
ATOM     33  C   UNL     1       6.569   1.947   8.618  1.00  0.00     0.031 A 
ATOM     34  C   UNL     1       7.988   2.444   8.499  1.00  0.00     0.074 A 
ATOM     35  C   UNL     1       6.248   1.045   9.567  1.00  0.00     0.049 A 
ATOM     36  N   UNL     1       9.038   2.122   9.210  1.00  0.00    -0.248 NA
ATOM     37  C   UNL     1       8.269   3.406   7.420  1.00  0.00     0.031 C 
ATOM     38  C   UNL     1       4.921   0.457   9.767  1.00  0.00     0.029 A 
ATOM     39  N   UNL     1       7.017   0.464  10.544  1.00  0.00    -0.354 N 
ATOM     40  C   UNL     1      10.102   2.821   8.651  1.00  0.00     0.074 A 
ATOM     41  C   UNL     1       9.584   3.538   7.508  1.00  0.00     0.031 C 
ATOM     42  C   UNL     1       4.963  -0.374  10.821  1.00  0.00     0.029 A 
ATOM     43  C   UNL     1       6.324  -0.411  11.348  1.00  0.00     0.049 A 
ATOM     44  H   UNL     1       7.976   0.655  10.659  1.00  0.00     0.167 HD
ATOM     45  C   UNL     1      11.392   2.881   9.062  1.00  0.00     0.031 A 
ATOM     46  C   UNL     1       6.736  -1.160  12.390  1.00  0.00     0.031 A 
ATOM     47  C   UNL     1      11.901   2.184  10.212  1.00  0.00     0.049 A 
ATOM     48  C   UNL     1       8.173  -1.074  12.831  1.00  0.00     0.074 A 
ATOM     49  C   UNL     1      13.177   2.224  10.747  1.00  0.00     0.029 A 
ATOM     50  N   UNL     1      11.161   1.321  11.007  1.00  0.00    -0.354 N 
ATOM     51  N   UNL     1       9.150  -0.360  12.325  1.00  0.00    -0.248 NA
ATOM     52  C   UNL     1       8.556  -1.882  13.997  1.00  0.00     0.031 C 
ATOM     53  C   UNL     1      13.223   1.344  11.833  1.00  0.00     0.029 A 
ATOM     54  C   UNL     1      11.958   0.809  12.016  1.00  0.00     0.049 A 
ATOM     55  H   UNL     1      10.210   1.105  10.873  1.00  0.00     0.167 HD
ATOM     56  C   UNL     1      10.254  -0.601  13.138  1.00  0.00     0.074 A 
ATOM     57  C   UNL     1       9.820  -1.520  14.170  1.00  0.00     0.031 C 
ATOM     58  C   UNL     1      11.511  -0.099  13.042  1.00  0.00     0.031 A 
BRANCH  45  59
ATOM     59  C   UNL     1      12.343   3.727   8.254  1.00  0.00    -0.014 A 
ATOM     60  C   UNL     1      12.231   5.130   8.226  1.00  0.00     0.010 A 
ATOM     61  C   UNL     1      13.386   3.112   7.537  1.00  0.00     0.010 A 
ATOM     62  C   UNL     1      13.113   5.896   7.459  1.00  0.00     0.020 A 
ATOM     63  C   UNL     1      14.290   3.877   6.795  1.00  0.00     0.020 A 
ATOM     64  C   UNL     1      14.135   5.264   6.745  1.00  0.00     0.054 A 
BRANCH  64  65
ATOM     65  S   UNL     1      15.276   6.285   5.774  1.00  0.00     0.124 S 
ATOM     66  O   UNL     1      14.431   6.699   4.656  1.00  0.00    -0.237 OA
ATOM     67  O   UNL     1      15.638   7.343   6.713  1.00  0.00    -0.237 OA
ATOM     68  O   UNL     1      16.358   5.365   5.429  1.00  0.00    -0.744 OA
ENDBRANCH  64  65
ENDBRANCH  45  59
BRANCH  46  69
ATOM     69  C   UNL     1       5.768  -2.033  13.110  1.00  0.00    -0.014 A 
ATOM     70  C   UNL     1       5.362  -1.722  14.420  1.00  0.00     0.010 A 
ATOM     71  C   UNL     1       5.242  -3.180  12.488  1.00  0.00     0.010 A 
ATOM     72  C   UNL     1       4.469  -2.552  15.103  1.00  0.00     0.020 A 
ATOM     73  C   UNL     1       4.324  -3.996  13.156  1.00  0.00     0.020 A 
ATOM     74  C   UNL     1       3.954  -3.684  14.465  1.00  0.00     0.054 A 
BRANCH  74  75
ATOM     75  S   UNL     1       2.760  -4.721  15.355  1.00  0.00     0.124 S 
ATOM     76  O   UNL     1       3.609  -5.385  16.340  1.00  0.00    -0.237 OA
ATOM     77  O   UNL     1       1.822  -3.736  15.888  1.00  0.00    -0.237 OA
ATOM     78  O   UNL     1       2.216  -5.588  14.311  1.00  0.00    -0.744 OA
ENDBRANCH  74  75
ENDBRANCH  46  69
BRANCH  58  79
ATOM     79  C   UNL     1      12.495  -0.482  14.116  1.00  0.00    -0.014 A 
ATOM     80  C   UNL     1      13.018  -1.784  14.211  1.00  0.00     0.010 A 
ATOM     81  C   UNL     1      12.939   0.501  15.021  1.00  0.00     0.010 A 
ATOM     82  C   UNL     1      13.932  -2.106  15.217  1.00  0.00     0.020 A 
ATOM     83  C   UNL     1      13.877   0.192  16.008  1.00  0.00     0.020 A 
ATOM     84  C   UNL     1      14.354  -1.116  16.111  1.00  0.00     0.054 A 
BRANCH  84  85
ATOM     85  S   UNL     1      15.563  -1.551  17.391  1.00  0.00     0.124 S 
ATOM     86  O   UNL     1      14.754  -2.337  18.318  1.00  0.00    -0.237 OA
ATOM     87  O   UNL     1      16.568  -2.301  16.642  1.00  0.00    -0.237 OA
ATOM     88  O   UNL     1      16.012  -0.256  17.899  1.00  0.00    -0.744 OA
ENDBRANCH  84  85
ENDBRANCH  58  79
ENDBRANCH  32  33
ENDBRANCH  24  27
ENDBRANCH  22  23
ENDBRANCH   1  22
TORSDOF 15
