REMARK SMILES C[C@@H](C(=O)NCCCNC(=O)c1ccc(-c2c3nc(c(-c4ccc(S(=O)(=O)[O-])cc4)c4ccc([nH]4)c(-c4ccc(S(=O)(=O)[O-])cc4)c4nc(c(-c5ccc(S(=O)(=O)[O-])cc5)c5ccc2[nH]5)C=C4)C=C3)cc1)[C@H](C)[N@@H+](C)[C@@H](C)C1CC1
REMARK SMILES IDX 6 1 5 2 3 3 4 4 2 6 1 7 72 8 73 9 74 10 75 11 76 13 77 14
REMARK SMILES IDX 78 15 79 16 80 17 7 18 8 19 9 20 10 21 11 23 12 24 13 25
REMARK SMILES IDX 71 26 14 27 70 28 15 29 16 30 17 31 64 32 18 33 69 34 63 35
REMARK SMILES IDX 65 36 19 37 68 38 62 39 61 40 20 42 50 43 31 44 49 45 32 46
REMARK SMILES IDX 35 47 48 48 66 49 33 50 34 51 47 53 67 54 36 55 21 56 22 57
REMARK SMILES IDX 30 58 23 59 29 60 24 61 25 62 26 63 27 64 28 65 51 66 52 67
REMARK SMILES IDX 60 68 53 69 59 70 54 71 55 72 56 73 57 74 58 75 37 76 38 77
REMARK SMILES IDX 46 78 39 79 45 80 40 81 41 82 42 83 43 84 44 85
REMARK H PARENT 5 5 74 12 9 22 65 41 35 52
REMARK Flexibility Score: inf
ROOT
ATOM      1  C   UNL     1      -2.533   3.615   2.131  1.00  0.00     0.117 C 
ENDROOT
BRANCH   1   2
ATOM      2  N   UNL     1      -3.019   3.290   0.806  1.00  0.00    -0.356 N 
ATOM      3  C   UNL     1      -2.747   2.271  -0.047  1.00  0.00     0.228 C 
ATOM      4  O   UNL     1      -3.664   2.027  -0.837  1.00  0.00    -0.275 OA
ATOM      5  H   UNL     1      -3.676   3.934   0.456  1.00  0.00     0.163 HD
BRANCH   3   6
ATOM      6  C   UNL     1      -1.472   1.411   0.007  1.00  0.00     0.133 C 
ATOM      7  C   UNL     1      -0.181   2.080   0.477  1.00  0.00     0.024 C 
BRANCH   6   8
ATOM      8  C   UNL     1      -1.290   0.564  -1.315  1.00  0.00     0.193 C 
ATOM      9  C   UNL     1      -0.012  -0.302  -1.271  1.00  0.00     0.076 C 
BRANCH   8  10
ATOM     10  N   UNL     1      -1.387   1.107  -2.685  1.00  0.00    -0.332 N 
ATOM     11  C   UNL     1      -2.575   0.636  -3.397  1.00  0.00     0.333 C 
ATOM     12  H   UNL     1      -0.499   0.682  -2.950  1.00  0.00     0.348 HD
BRANCH  10  13
ATOM     13  C   UNL     1      -0.888   2.398  -3.153  1.00  0.00     0.184 C 
ATOM     14  C   UNL     1      -1.439   3.673  -2.521  1.00  0.00     0.075 C 
BRANCH  13  15
ATOM     15  C   UNL     1       0.621   2.399  -3.196  1.00  0.00     0.047 C 
ATOM     16  C   UNL     1       1.343   1.704  -4.328  1.00  0.00     0.010 C 
ATOM     17  C   UNL     1       1.352   3.203  -4.248  1.00  0.00     0.010 C 
ENDBRANCH  13  15
ENDBRANCH  10  13
ENDBRANCH   8  10
ENDBRANCH   6   8
ENDBRANCH   3   6
ENDBRANCH   1   2
BRANCH   1  18
ATOM     18  C   UNL     1      -1.629   4.845   2.178  1.00  0.00     0.042 C 
BRANCH  18  19
ATOM     19  C   UNL     1      -2.196   6.107   1.530  1.00  0.00     0.118 C 
BRANCH  19  20
ATOM     20  N   UNL     1      -3.463   6.530   2.106  1.00  0.00    -0.352 N 
ATOM     21  C   UNL     1      -3.796   7.609   2.882  1.00  0.00     0.251 C 
ATOM     22  H   UNL     1      -4.218   5.933   1.900  1.00  0.00     0.163 HD
ATOM     23  O   UNL     1      -4.921   7.638   3.389  1.00  0.00    -0.269 OA
BRANCH  21  24
ATOM     24  C   UNL     1      -2.851   8.718   3.146  1.00  0.00     0.039 A 
ATOM     25  C   UNL     1      -2.860   9.305   4.417  1.00  0.00     0.014 A 
ATOM     26  C   UNL     1      -2.013   9.242   2.157  1.00  0.00     0.014 A 
ATOM     27  C   UNL     1      -1.999  10.366   4.708  1.00  0.00     0.010 A 
ATOM     28  C   UNL     1      -1.100  10.253   2.470  1.00  0.00     0.010 A 
ATOM     29  C   UNL     1      -1.086  10.830   3.748  1.00  0.00    -0.014 A 
BRANCH  29  30
ATOM     30  C   UNL     1      -0.111  11.901   4.089  1.00  0.00     0.031 A 
ATOM     31  C   UNL     1      -0.165  13.246   3.414  1.00  0.00     0.074 A 
ATOM     32  C   UNL     1       0.849  11.650   5.003  1.00  0.00     0.049 A 
ATOM     33  N   UNL     1       0.587  14.300   3.615  1.00  0.00    -0.248 NA
ATOM     34  C   UNL     1      -1.180  13.428   2.364  1.00  0.00     0.031 C 
ATOM     35  C   UNL     1       1.047  10.372   5.692  1.00  0.00     0.029 A 
ATOM     36  N   UNL     1       1.834  12.458   5.515  1.00  0.00    -0.354 N 
ATOM     37  C   UNL     1       0.143  15.264   2.717  1.00  0.00     0.074 A 
ATOM     38  C   UNL     1      -0.911  14.654   1.935  1.00  0.00     0.031 C 
ATOM     39  C   UNL     1       2.062  10.493   6.561  1.00  0.00     0.029 A 
ATOM     40  C   UNL     1       2.608  11.844   6.471  1.00  0.00     0.049 A 
ATOM     41  H   UNL     1       1.973  13.388   5.225  1.00  0.00     0.167 HD
ATOM     42  C   UNL     1       0.558  16.546   2.569  1.00  0.00     0.031 A 
ATOM     43  C   UNL     1       3.639  12.312   7.201  1.00  0.00     0.031 A 
ATOM     44  C   UNL     1       1.604  17.156   3.349  1.00  0.00     0.049 A 
ATOM     45  C   UNL     1       4.071  13.741   7.030  1.00  0.00     0.074 A 
ATOM     46  C   UNL     1       2.061  18.462   3.307  1.00  0.00     0.029 A 
ATOM     47  N   UNL     1       2.359  16.502   4.311  1.00  0.00    -0.354 N 
ATOM     48  N   UNL     1       3.590  14.656   6.222  1.00  0.00    -0.248 NA
ATOM     49  C   UNL     1       5.174  14.205   7.882  1.00  0.00     0.031 C 
ATOM     50  C   UNL     1       3.121  18.586   4.213  1.00  0.00     0.029 A 
ATOM     51  C   UNL     1       3.291  17.371   4.855  1.00  0.00     0.049 A 
ATOM     52  H   UNL     1       2.249  15.558   4.570  1.00  0.00     0.167 HD
ATOM     53  C   UNL     1       4.324  15.808   6.479  1.00  0.00     0.074 A 
ATOM     54  C   UNL     1       5.261  15.481   7.535  1.00  0.00     0.031 C 
ATOM     55  C   UNL     1       4.232  17.027   5.891  1.00  0.00     0.031 A 
BRANCH  42  56
ATOM     56  C   UNL     1      -0.126  17.380   1.516  1.00  0.00    -0.014 A 
ATOM     57  C   UNL     1      -1.456  17.808   1.683  1.00  0.00     0.010 A 
ATOM     58  C   UNL     1       0.578  17.774   0.364  1.00  0.00     0.010 A 
ATOM     59  C   UNL     1      -2.083  18.577   0.699  1.00  0.00     0.020 A 
ATOM     60  C   UNL     1      -0.037  18.566  -0.611  1.00  0.00     0.020 A 
ATOM     61  C   UNL     1      -1.371  18.947  -0.445  1.00  0.00     0.054 A 
BRANCH  61  62
ATOM     62  S   UNL     1      -2.203  19.959  -1.700  1.00  0.00     0.124 S 
ATOM     63  O   UNL     1      -3.091  18.986  -2.331  1.00  0.00    -0.237 OA
ATOM     64  O   UNL     1      -2.866  20.985  -0.897  1.00  0.00    -0.237 OA
ATOM     65  O   UNL     1      -1.109  20.441  -2.539  1.00  0.00    -0.744 OA
ENDBRANCH  61  62
ENDBRANCH  42  56
BRANCH  43  66
ATOM     66  C   UNL     1       4.315  11.421   8.182  1.00  0.00    -0.014 A 
ATOM     67  C   UNL     1       4.131  11.608   9.563  1.00  0.00     0.010 A 
ATOM     68  C   UNL     1       5.128  10.364   7.736  1.00  0.00     0.010 A 
ATOM     69  C   UNL     1       4.760  10.762  10.481  1.00  0.00     0.020 A 
ATOM     70  C   UNL     1       5.738   9.501   8.650  1.00  0.00     0.020 A 
ATOM     71  C   UNL     1       5.558   9.712  10.018  1.00  0.00     0.054 A 
BRANCH  71  72
ATOM     72  S   UNL     1       6.314   8.586  11.225  1.00  0.00     0.124 S 
ATOM     73  O   UNL     1       7.418   9.389  11.738  1.00  0.00    -0.237 OA
ATOM     74  O   UNL     1       5.218   8.342  12.160  1.00  0.00    -0.237 OA
ATOM     75  O   UNL     1       6.699   7.432  10.416  1.00  0.00    -0.744 OA
ENDBRANCH  71  72
ENDBRANCH  43  66
BRANCH  55  76
ATOM     76  C   UNL     1       5.166  18.098   6.389  1.00  0.00    -0.014 A 
ATOM     77  C   UNL     1       6.541  18.053   6.099  1.00  0.00     0.010 A 
ATOM     78  C   UNL     1       4.660  19.168   7.149  1.00  0.00     0.010 A 
ATOM     79  C   UNL     1       7.402  19.033   6.600  1.00  0.00     0.020 A 
ATOM     80  C   UNL     1       5.513  20.165   7.629  1.00  0.00     0.020 A 
ATOM     81  C   UNL     1       6.883  20.079   7.370  1.00  0.00     0.054 A 
BRANCH  81  82
ATOM     82  S   UNL     1       8.016  21.345   8.005  1.00  0.00     0.124 S 
ATOM     83  O   UNL     1       8.653  20.649   9.119  1.00  0.00    -0.237 OA
ATOM     84  O   UNL     1       8.878  21.612   6.856  1.00  0.00    -0.237 OA
ATOM     85  O   UNL     1       7.130  22.444   8.380  1.00  0.00    -0.744 OA
ENDBRANCH  81  82
ENDBRANCH  55  76
ENDBRANCH  29  30
ENDBRANCH  21  24
ENDBRANCH  19  20
ENDBRANCH  18  19
ENDBRANCH   1  18
TORSDOF 17
