REMARK SMILES Cc1ccc(NC(=O)c2ccccc2NC(=O)[C@H]2CCCC[C@H]2C(=O)NCCCNC(=O)c2ccc(-c3c4nc(c(-c5ccc(S(=O)(=O)[O-])cc5)c5ccc([nH]5)c(-c5ccc(S(=O)(=O)[O-])cc5)c5nc(c(-c6ccc(S(=O)(=O)[O-])cc6)c6ccc3[nH]6)C=C5)C=C4)cc2)cc1
REMARK SMILES IDX 27 1 26 2 24 3 25 4 23 6 18 7 19 8 20 9 22 10 21 11 16 12
REMARK SMILES IDX 15 13 17 15 14 16 9 17 10 18 11 19 13 20 12 21 7 22 6 23
REMARK SMILES IDX 8 25 5 26 1 27 2 28 3 29 94 30 4 31 93 32 28 33 29 34 30 35
REMARK SMILES IDX 31 36 32 38 33 39 34 40 92 41 35 42 91 43 36 44 37 45 38 46
REMARK SMILES IDX 85 47 39 48 90 49 84 50 86 51 40 52 89 53 83 54 82 55 41 57
REMARK SMILES IDX 71 58 52 59 70 60 53 61 56 62 69 63 87 64 54 65 55 66 68 68
REMARK SMILES IDX 88 69 57 70 42 71 43 72 51 73 44 74 50 75 45 76 46 77 47 78
REMARK SMILES IDX 48 79 49 80 72 81 73 82 81 83 74 84 80 85 75 86 76 87 77 88
REMARK SMILES IDX 78 89 79 90 58 91 59 92 67 93 60 94 66 95 61 96 62 97 63 98
REMARK SMILES IDX 64 99 65 100
REMARK H PARENT 26 5 15 14 6 24 30 37 86 56 56 67
REMARK Flexibility Score: inf
ROOT
ATOM      1  C   UNL     1       0.800  -2.324   7.015  1.00  0.00     0.117 C 
ENDROOT
BRANCH   1   2
ATOM      2  N   UNL     1      -0.121  -1.254   6.550  1.00  0.00    -0.356 N 
ATOM      3  C   UNL     1      -1.234  -1.170   5.762  1.00  0.00     0.223 C 
ATOM      4  O   UNL     1      -1.922  -0.140   5.767  1.00  0.00    -0.275 OA
ATOM      5  H   UNL     1       0.139  -0.372   6.904  1.00  0.00     0.163 HD
BRANCH   3   6
ATOM      6  C   UNL     1      -1.656  -2.269   4.791  1.00  0.00     0.091 C 
ATOM      7  C   UNL     1      -0.802  -2.243   3.498  1.00  0.00     0.091 C 
ATOM      8  C   UNL     1      -0.867  -3.564   2.719  1.00  0.00     0.014 C 
ATOM      9  C   UNL     1      -0.731  -4.789   3.619  1.00  0.00     0.001 C 
ATOM     10  C   UNL     1      -1.982  -3.598   5.483  1.00  0.00     0.014 C 
ATOM     11  C   UNL     1      -1.863  -4.850   4.626  1.00  0.00     0.001 C 
BRANCH   7  12
ATOM     12  C   UNL     1       0.659  -1.867   3.716  1.00  0.00     0.228 C 
ATOM     13  N   UNL     1       1.260  -0.703   3.347  1.00  0.00    -0.325 N 
ATOM     14  H   UNL     1       2.012  -0.484   3.943  1.00  0.00     0.169 HD
ATOM     15  O   UNL     1       1.380  -2.710   4.268  1.00  0.00    -0.274 OA
BRANCH  13  16
ATOM     16  C   UNL     1       1.098   0.279   2.339  1.00  0.00     0.054 A 
ATOM     17  C   UNL     1       2.087   1.286   2.148  1.00  0.00     0.063 A 
ATOM     18  C   UNL     1       1.853   2.317   1.204  1.00  0.00     0.016 A 
ATOM     19  C   UNL     1       0.705   2.349   0.423  1.00  0.00     0.001 A 
ATOM     20  C   UNL     1       0.004   0.285   1.461  1.00  0.00     0.027 A 
ATOM     21  C   UNL     1      -0.207   1.317   0.537  1.00  0.00     0.002 A 
BRANCH  17  22
ATOM     22  C   UNL     1       3.385   1.470   2.880  1.00  0.00     0.257 C 
ATOM     23  N   UNL     1       4.173   0.467   3.384  1.00  0.00    -0.322 N 
ATOM     24  H   UNL     1       4.785   0.785   4.087  1.00  0.00     0.170 HD
ATOM     25  O   UNL     1       3.794   2.625   3.049  1.00  0.00    -0.269 OA
BRANCH  23  26
ATOM     26  C   UNL     1       4.310  -0.903   3.134  1.00  0.00     0.041 A 
ATOM     27  C   UNL     1       3.831  -5.152   3.205  1.00  0.00     0.044 C 
ATOM     28  C   UNL     1       4.173  -3.697   3.095  1.00  0.00    -0.051 A 
ATOM     29  C   UNL     1       3.744  -2.949   1.989  1.00  0.00     0.005 A 
ATOM     30  C   UNL     1       4.815  -3.042   4.149  1.00  0.00     0.005 A 
ATOM     31  C   UNL     1       3.829  -1.552   2.000  1.00  0.00     0.026 A 
ATOM     32  C   UNL     1       4.894  -1.652   4.160  1.00  0.00     0.026 A 
ENDBRANCH  23  26
ENDBRANCH  17  22
ENDBRANCH  13  16
ENDBRANCH   7  12
ENDBRANCH   3   6
ENDBRANCH   1   2
BRANCH   1  33
ATOM     33  C   UNL     1       2.412  -2.108   6.990  1.00  0.00     0.042 C 
BRANCH  33  34
ATOM     34  C   UNL     1       3.085  -1.599   8.344  1.00  0.00     0.118 C 
BRANCH  34  35
ATOM     35  N   UNL     1       4.617  -1.191   8.617  1.00  0.00    -0.352 N 
ATOM     36  C   UNL     1       5.459  -0.137   9.208  1.00  0.00     0.251 C 
ATOM     37  H   UNL     1       5.201  -1.900   8.263  1.00  0.00     0.163 HD
ATOM     38  O   UNL     1       6.246  -0.593  10.063  1.00  0.00    -0.269 OA
BRANCH  36  39
ATOM     39  C   UNL     1       5.676   1.433   8.979  1.00  0.00     0.039 A 
ATOM     40  C   UNL     1       5.859   2.354  10.068  1.00  0.00     0.014 A 
ATOM     41  C   UNL     1       5.675   2.090   7.756  1.00  0.00     0.014 A 
ATOM     42  C   UNL     1       5.435   3.752   9.964  1.00  0.00     0.010 A 
ATOM     43  C   UNL     1       5.245   3.456   7.646  1.00  0.00     0.010 A 
ATOM     44  C   UNL     1       4.853   4.209   8.764  1.00  0.00    -0.014 A 
BRANCH  44  45
ATOM     45  C   UNL     1       3.621   5.145   8.669  1.00  0.00     0.031 A 
ATOM     46  C   UNL     1       3.784   6.508   8.176  1.00  0.00     0.074 A 
ATOM     47  C   UNL     1       2.281   4.881   8.854  1.00  0.00     0.049 A 
ATOM     48  N   UNL     1       3.459   7.580   8.823  1.00  0.00    -0.248 NA
ATOM     49  C   UNL     1       4.261   6.726   6.820  1.00  0.00     0.031 C 
ATOM     50  C   UNL     1       1.038   5.660   8.668  1.00  0.00     0.029 A 
ATOM     51  N   UNL     1       1.694   3.696   9.239  1.00  0.00    -0.354 N 
ATOM     52  C   UNL     1       3.399   8.567   7.863  1.00  0.00     0.074 A 
ATOM     53  C   UNL     1       4.130   8.050   6.720  1.00  0.00     0.031 C 
ATOM     54  C   UNL     1       0.005   5.044   9.304  1.00  0.00     0.029 A 
ATOM     55  C   UNL     1       0.529   3.864   9.970  1.00  0.00     0.049 A 
ATOM     56  H   UNL     1       2.067   2.812   9.015  1.00  0.00     0.167 HD
ATOM     57  C   UNL     1       2.474   9.572   7.912  1.00  0.00     0.031 A 
ATOM     58  C   UNL     1       0.499   3.493  11.296  1.00  0.00     0.031 A 
ATOM     59  C   UNL     1       1.417   9.303   8.896  1.00  0.00     0.049 A 
ATOM     60  C   UNL     1       0.454   4.726  12.148  1.00  0.00     0.074 A 
ATOM     61  C   UNL     1       0.079   8.965   8.739  1.00  0.00     0.029 A 
ATOM     62  N   UNL     1       1.723   9.048  10.228  1.00  0.00    -0.354 N 
ATOM     63  N   UNL     1       0.601   5.915  11.649  1.00  0.00    -0.248 NA
ATOM     64  C   UNL     1       0.291   4.751  13.595  1.00  0.00     0.031 C 
ATOM     65  C   UNL     1      -0.398   8.446   9.971  1.00  0.00     0.029 A 
ATOM     66  C   UNL     1       0.636   8.502  10.890  1.00  0.00     0.049 A 
ATOM     67  H   UNL     1       2.595   9.232  10.645  1.00  0.00     0.167 HD
ATOM     68  C   UNL     1       0.562   6.849  12.626  1.00  0.00     0.074 A 
ATOM     69  C   UNL     1       0.348   6.075  13.837  1.00  0.00     0.031 C 
ATOM     70  C   UNL     1       0.723   8.163  12.310  1.00  0.00     0.031 A 
BRANCH  57  71
ATOM     71  C   UNL     1       2.336  10.616   6.817  1.00  0.00    -0.014 A 
ATOM     72  C   UNL     1       1.148  11.360   6.675  1.00  0.00     0.010 A 
ATOM     73  C   UNL     1       3.381  10.951   5.929  1.00  0.00     0.010 A 
ATOM     74  C   UNL     1       0.984  12.319   5.661  1.00  0.00     0.020 A 
ATOM     75  C   UNL     1       3.215  11.863   4.877  1.00  0.00     0.020 A 
ATOM     76  C   UNL     1       2.016  12.552   4.755  1.00  0.00     0.054 A 
BRANCH  76  77
ATOM     77  S   UNL     1       1.803  13.811   3.471  1.00  0.00     0.124 S 
ATOM     78  O   UNL     1       0.609  13.353   2.767  1.00  0.00    -0.237 OA
ATOM     79  O   UNL     1       1.643  15.032   4.255  1.00  0.00    -0.237 OA
ATOM     80  O   UNL     1       3.042  13.733   2.697  1.00  0.00    -0.744 OA
ENDBRANCH  76  77
ENDBRANCH  57  71
BRANCH  58  81
ATOM     81  C   UNL     1       1.301   2.231  11.708  1.00  0.00    -0.014 A 
ATOM     82  C   UNL     1       0.766   1.013  11.245  1.00  0.00     0.010 A 
ATOM     83  C   UNL     1       2.657   2.385  11.486  1.00  0.00     0.010 A 
ATOM     84  C   UNL     1       1.217   0.477  10.026  1.00  0.00     0.020 A 
ATOM     85  C   UNL     1       3.068   1.879  10.242  1.00  0.00     0.020 A 
ATOM     86  C   UNL     1       2.320   1.066   9.425  1.00  0.00     0.054 A 
BRANCH  86  87
ATOM     87  S   UNL     1       2.433   1.290   7.402  1.00  0.00     0.124 S 
ATOM     88  O   UNL     1       1.149   0.740   7.044  1.00  0.00    -0.237 OA
ATOM     89  O   UNL     1       2.506   2.724   7.139  1.00  0.00    -0.237 OA
ATOM     90  O   UNL     1       3.588   0.564   6.913  1.00  0.00    -0.744 OA
ENDBRANCH  86  87
ENDBRANCH  58  81
BRANCH  70  91
ATOM     91  C   UNL     1       0.882   9.277  13.296  1.00  0.00    -0.014 A 
ATOM     92  C   UNL     1       1.264   9.098  14.631  1.00  0.00     0.010 A 
ATOM     93  C   UNL     1       0.736  10.605  12.832  1.00  0.00     0.010 A 
ATOM     94  C   UNL     1       1.412  10.192  15.486  1.00  0.00     0.020 A 
ATOM     95  C   UNL     1       0.940  11.704  13.658  1.00  0.00     0.020 A 
ATOM     96  C   UNL     1       1.244  11.487  14.994  1.00  0.00     0.054 A 
BRANCH  96  97
ATOM     97  S   UNL     1       1.462  12.885  16.111  1.00  0.00     0.124 S 
ATOM     98  O   UNL     1       0.199  12.881  16.844  1.00  0.00    -0.237 OA
ATOM     99  O   UNL     1       2.638  12.496  16.887  1.00  0.00    -0.237 OA
ATOM    100  O   UNL     1       1.663  14.020  15.215  1.00  0.00    -0.744 OA
ENDBRANCH  96  97
ENDBRANCH  70  91
ENDBRANCH  44  45
ENDBRANCH  36  39
ENDBRANCH  34  35
ENDBRANCH  33  34
ENDBRANCH   1  33
TORSDOF 17
