REMARK SMILES CC(C)[C@@H](NC(=O)/C(=C\c1ccccc1F)NC(=O)c1ccccc1)C(=O)NCCCNC(=O)c1ccc(-c2c3nc(c(-c4ccc(S(=O)(=O)[O-])cc4)c4ccc([nH]4)c(-c4ccc(S(=O)(=O)[O-])cc4)c4nc(c(-c5ccc(S(=O)(=O)[O-])cc5)c5ccc2[nH]5)C=C4)C=C3)cc1
REMARK SMILES IDX 29 1 28 2 26 3 27 4 4 6 2 7 1 8 3 9 5 10 6 11 7 13 8 14 9 15
REMARK SMILES IDX 17 16 18 17 19 19 20 20 21 21 25 22 22 23 24 24 23 25 10 26
REMARK SMILES IDX 11 27 15 28 12 29 14 30 16 31 13 32 30 33 31 34 32 35 33 36
REMARK SMILES IDX 34 38 35 39 36 40 94 41 37 42 93 43 38 44 39 45 40 46 87 47
REMARK SMILES IDX 41 48 92 49 86 50 88 51 42 52 91 53 85 54 84 55 43 57 73 58
REMARK SMILES IDX 54 59 72 60 55 61 58 62 71 63 89 64 56 65 57 66 70 68 90 69
REMARK SMILES IDX 59 70 44 71 45 72 53 73 46 74 52 75 47 76 48 77 49 78 50 79
REMARK SMILES IDX 51 80 74 81 75 82 83 83 76 84 82 85 77 86 78 87 79 88 80 89
REMARK SMILES IDX 81 90 60 91 61 92 69 93 62 94 68 95 63 96 64 97 65 98 66 99
REMARK SMILES IDX 67 100
REMARK H PARENT 28 5 5 12 17 18 32 37 88 56 58 67
REMARK Flexibility Score: inf
ROOT
ATOM      1  C   UNL     1       0.061   3.519  -2.525  1.00  0.00     0.117 C 
ENDROOT
BRANCH   1   2
ATOM      2  N   UNL     1      -0.314   2.235  -3.071  1.00  0.00    -0.354 N 
ATOM      3  C   UNL     1      -0.104   1.028  -2.497  1.00  0.00     0.242 C 
ATOM      4  O   UNL     1       0.345   0.133  -3.215  1.00  0.00    -0.273 OA
ATOM      5  H   UNL     1      -0.765   2.239  -3.946  1.00  0.00     0.163 HD
BRANCH   3   6
ATOM      6  C   UNL     1      -0.286   0.845  -0.994  1.00  0.00     0.174 C 
BRANCH   6   7
ATOM      7  C   UNL     1       1.099   1.033  -0.283  1.00  0.00     0.015 C 
ATOM      8  C   UNL     1       1.131   0.361   1.094  1.00  0.00     0.010 C 
ATOM      9  C   UNL     1       2.282   0.479  -1.100  1.00  0.00     0.010 C 
ENDBRANCH   6   7
BRANCH   6  10
ATOM     10  N   UNL     1      -1.356   1.697  -0.414  1.00  0.00    -0.339 N 
ATOM     11  C   UNL     1      -2.703   1.689  -0.711  1.00  0.00     0.268 C 
ATOM     12  H   UNL     1      -1.068   2.348   0.267  1.00  0.00     0.164 HD
ATOM     13  O   UNL     1      -3.503   1.607   0.223  1.00  0.00    -0.268 OA
BRANCH  11  14
ATOM     14  C   UNL     1      -3.218   2.036  -2.093  1.00  0.00     0.107 C 
ATOM     15  C   UNL     1      -3.317   1.155  -3.115  1.00  0.00     0.043 C 
BRANCH  14  16
ATOM     16  N   UNL     1      -3.719   3.306  -2.365  1.00  0.00    -0.317 N 
ATOM     17  C   UNL     1      -3.940   4.457  -1.651  1.00  0.00     0.255 C 
ATOM     18  H   UNL     1      -3.980   3.404  -3.309  1.00  0.00     0.170 HD
ATOM     19  O   UNL     1      -4.472   5.410  -2.220  1.00  0.00    -0.269 OA
BRANCH  17  20
ATOM     20  C   UNL     1      -3.602   4.609  -0.235  1.00  0.00     0.040 A 
ATOM     21  C   UNL     1      -4.644   4.693   0.692  1.00  0.00     0.014 A 
ATOM     22  C   UNL     1      -2.279   4.803   0.163  1.00  0.00     0.014 A 
ATOM     23  C   UNL     1      -4.348   4.890   2.040  1.00  0.00     0.001 A 
ATOM     24  C   UNL     1      -1.986   4.986   1.512  1.00  0.00     0.001 A 
ATOM     25  C   UNL     1      -3.019   5.019   2.450  1.00  0.00     0.000 A 
ENDBRANCH  17  20
ENDBRANCH  14  16
BRANCH  15  26
ATOM     26  C   UNL     1      -2.868  -0.236  -3.239  1.00  0.00     0.012 A 
ATOM     27  C   UNL     1      -2.156  -0.580  -4.403  1.00  0.00     0.011 A 
ATOM     28  C   UNL     1      -3.055  -1.214  -2.265  1.00  0.00     0.130 A 
ATOM     29  C   UNL     1      -1.517  -1.818  -4.505  1.00  0.00     0.001 A 
ATOM     30  C   UNL     1      -2.433  -2.456  -2.368  1.00  0.00     0.040 A 
ATOM     31  F   UNL     1      -3.812  -0.965  -1.188  1.00  0.00    -0.206 F 
ATOM     32  C   UNL     1      -1.631  -2.744  -3.472  1.00  0.00     0.003 A 
ENDBRANCH  15  26
ENDBRANCH  11  14
ENDBRANCH   6  10
ENDBRANCH   3   6
ENDBRANCH   1   2
BRANCH   1  33
ATOM     33  C   UNL     1       1.253   4.041  -3.306  1.00  0.00     0.042 C 
BRANCH  33  34
ATOM     34  C   UNL     1       0.867   4.342  -4.746  1.00  0.00     0.118 C 
BRANCH  34  35
ATOM     35  N   UNL     1      -0.008   5.502  -4.831  1.00  0.00    -0.352 N 
ATOM     36  C   UNL     1       0.298   6.749  -5.320  1.00  0.00     0.251 C 
ATOM     37  H   UNL     1      -0.927   5.379  -4.500  1.00  0.00     0.163 HD
ATOM     38  O   UNL     1      -0.415   7.711  -5.080  1.00  0.00    -0.269 OA
BRANCH  36  39
ATOM     39  C   UNL     1       1.526   6.890  -6.122  1.00  0.00     0.039 A 
ATOM     40  C   UNL     1       2.433   7.902  -5.812  1.00  0.00     0.014 A 
ATOM     41  C   UNL     1       1.803   5.958  -7.127  1.00  0.00     0.014 A 
ATOM     42  C   UNL     1       3.655   7.943  -6.481  1.00  0.00     0.010 A 
ATOM     43  C   UNL     1       3.062   5.934  -7.706  1.00  0.00     0.010 A 
ATOM     44  C   UNL     1       3.992   6.939  -7.406  1.00  0.00    -0.014 A 
BRANCH  44  45
ATOM     45  C   UNL     1       5.302   6.933  -8.098  1.00  0.00     0.031 A 
ATOM     46  C   UNL     1       5.347   7.037  -9.599  1.00  0.00     0.074 A 
ATOM     47  C   UNL     1       6.435   6.769  -7.388  1.00  0.00     0.049 A 
ATOM     48  N   UNL     1       6.382   6.984 -10.397  1.00  0.00    -0.248 NA
ATOM     49  C   UNL     1       4.059   7.185 -10.299  1.00  0.00     0.031 C 
ATOM     50  C   UNL     1       6.512   6.606  -5.933  1.00  0.00     0.029 A 
ATOM     51  N   UNL     1       7.743   6.710  -7.796  1.00  0.00    -0.354 N 
ATOM     52  C   UNL     1       5.867   7.071 -11.685  1.00  0.00     0.074 A 
ATOM     53  C   UNL     1       4.428   7.115 -11.568  1.00  0.00     0.031 C 
ATOM     54  C   UNL     1       7.801   6.503  -5.570  1.00  0.00     0.029 A 
ATOM     55  C   UNL     1       8.637   6.546  -6.765  1.00  0.00     0.049 A 
ATOM     56  H   UNL     1       8.016   6.778  -8.740  1.00  0.00     0.167 HD
ATOM     57  C   UNL     1       6.534   7.135 -12.861  1.00  0.00     0.031 A 
ATOM     58  C   UNL     1       9.980   6.439  -6.781  1.00  0.00     0.031 A 
ATOM     59  C   UNL     1       7.967   7.114 -12.968  1.00  0.00     0.049 A 
ATOM     60  C   UNL     1      10.699   6.516  -8.100  1.00  0.00     0.074 A 
ATOM     61  C   UNL     1       8.746   7.236 -14.105  1.00  0.00     0.029 A 
ATOM     62  N   UNL     1       8.837   6.965 -11.898  1.00  0.00    -0.354 N 
ATOM     63  N   UNL     1      10.199   6.666  -9.303  1.00  0.00    -0.248 NA
ATOM     64  C   UNL     1      12.165   6.421  -8.062  1.00  0.00     0.031 C 
ATOM     65  C   UNL     1      10.086   7.107 -13.729  1.00  0.00     0.029 A 
ATOM     66  C   UNL     1      10.145   6.968 -12.351  1.00  0.00     0.049 A 
ATOM     67  H   UNL     1       8.565   6.870 -10.957  1.00  0.00     0.167 HD
ATOM     68  C   UNL     1      11.291   6.712 -10.163  1.00  0.00     0.074 A 
ATOM     69  C   UNL     1      12.476   6.590  -9.339  1.00  0.00     0.031 C 
ATOM     70  C   UNL     1      11.311   6.845 -11.513  1.00  0.00     0.031 A 
BRANCH  57  71
ATOM     71  C   UNL     1       5.716   7.236 -14.121  1.00  0.00    -0.014 A 
ATOM     72  C   UNL     1       4.979   8.397 -14.419  1.00  0.00     0.010 A 
ATOM     73  C   UNL     1       5.711   6.170 -15.038  1.00  0.00     0.010 A 
ATOM     74  C   UNL     1       4.218   8.473 -15.588  1.00  0.00     0.020 A 
ATOM     75  C   UNL     1       4.976   6.254 -16.224  1.00  0.00     0.020 A 
ATOM     76  C   UNL     1       4.221   7.399 -16.483  1.00  0.00     0.054 A 
BRANCH  76  77
ATOM     77  S   UNL     1       3.247   7.537 -18.007  1.00  0.00     0.124 S 
ATOM     78  O   UNL     1       1.881   7.416 -17.502  1.00  0.00    -0.237 OA
ATOM     79  O   UNL     1       3.618   8.859 -18.505  1.00  0.00    -0.237 OA
ATOM     80  O   UNL     1       3.712   6.415 -18.819  1.00  0.00    -0.744 OA
ENDBRANCH  76  77
ENDBRANCH  57  71
BRANCH  58  81
ATOM     81  C   UNL     1      10.729   6.266  -5.506  1.00  0.00    -0.014 A 
ATOM     82  C   UNL     1      11.533   7.304  -5.004  1.00  0.00     0.010 A 
ATOM     83  C   UNL     1      10.631   5.066  -4.779  1.00  0.00     0.010 A 
ATOM     84  C   UNL     1      12.242   7.138  -3.811  1.00  0.00     0.020 A 
ATOM     85  C   UNL     1      11.315   4.907  -3.571  1.00  0.00     0.020 A 
ATOM     86  C   UNL     1      12.127   5.940  -3.100  1.00  0.00     0.054 A 
BRANCH  86  87
ATOM     87  S   UNL     1      13.018   5.765  -1.529  1.00  0.00     0.124 S 
ATOM     88  O   UNL     1      14.397   5.611  -1.979  1.00  0.00    -0.237 OA
ATOM     89  O   UNL     1      12.709   7.021  -0.850  1.00  0.00    -0.237 OA
ATOM     90  O   UNL     1      12.417   4.576  -0.928  1.00  0.00    -0.744 OA
ENDBRANCH  86  87
ENDBRANCH  58  81
BRANCH  70  91
ATOM     91  C   UNL     1      12.658   6.902 -12.182  1.00  0.00    -0.014 A 
ATOM     92  C   UNL     1      13.466   5.758 -12.294  1.00  0.00     0.010 A 
ATOM     93  C   UNL     1      13.091   8.109 -12.762  1.00  0.00     0.010 A 
ATOM     94  C   UNL     1      14.700   5.828 -12.945  1.00  0.00     0.020 A 
ATOM     95  C   UNL     1      14.309   8.175 -13.440  1.00  0.00     0.020 A 
ATOM     96  C   UNL     1      15.113   7.036 -13.515  1.00  0.00     0.054 A 
BRANCH  96  97
ATOM     97  S   UNL     1      16.698   7.089 -14.395  1.00  0.00     0.124 S 
ATOM     98  O   UNL     1      17.657   7.035 -13.296  1.00  0.00    -0.237 OA
ATOM     99  O   UNL     1      16.637   5.895 -15.235  1.00  0.00    -0.237 OA
ATOM    100  O   UNL     1      16.650   8.357 -15.120  1.00  0.00    -0.744 OA
ENDBRANCH  96  97
ENDBRANCH  70  91
ENDBRANCH  44  45
ENDBRANCH  36  39
ENDBRANCH  34  35
ENDBRANCH  33  34
ENDBRANCH   1  33
TORSDOF 19
