REMARK SMILES Cc1nc(CNC(=O)[C@H]2CCO[C@H]2C)sc1C(=O)NCCCNC(=O)c1ccc(-c2c3nc(c(-c4ccc(S(=O)(=O)[O-])cc4)c4ccc([nH]4)c(-c4ccc(S(=O)(=O)[O-])cc4)c4nc(c(-c5ccc(S(=O)(=O)[O-])cc5)c5ccc2[nH]5)C=C4)C=C3)cc1
REMARK SMILES IDX 21 1 20 2 19 3 17 4 18 5 16 7 1 8 2 9 3 10 4 11 15 12 5 13
REMARK SMILES IDX 6 14 7 15 8 17 9 18 10 19 13 20 11 21 12 22 14 23 22 24
REMARK SMILES IDX 23 25 24 26 25 28 26 29 27 30 85 31 28 32 84 33 29 34 30 35
REMARK SMILES IDX 31 36 78 37 32 38 83 39 77 40 79 41 33 42 82 43 76 44 75 45
REMARK SMILES IDX 34 47 64 48 45 49 63 50 46 51 49 52 62 53 80 54 47 55 48 56
REMARK SMILES IDX 61 58 81 59 50 60 35 61 36 62 44 63 37 64 43 65 38 66 39 67
REMARK SMILES IDX 40 68 41 69 42 70 65 71 66 72 74 73 67 74 73 75 68 76 69 77
REMARK SMILES IDX 70 78 71 79 72 80 51 81 52 82 60 83 53 84 59 85 54 86 55 87
REMARK SMILES IDX 56 88 57 89 58 90
REMARK H PARENT 19 6 6 16 23 27 79 46 49 57
REMARK Flexibility Score: inf
ROOT
ATOM      1  C   UNL     1      -3.720  -2.701  -0.559  1.00  0.00     0.042 C 
ENDROOT
BRANCH   1   2
ATOM      2  C   UNL     1      -2.730  -2.661   0.604  1.00  0.00     0.118 C 
BRANCH   2   3
ATOM      3  N   UNL     1      -1.396  -2.983   0.152  1.00  0.00    -0.351 N 
ATOM      4  C   UNL     1      -0.283  -2.236  -0.137  1.00  0.00     0.263 C 
ATOM      5  O   UNL     1       0.688  -2.931  -0.461  1.00  0.00    -0.268 OA
ATOM      6  H   UNL     1      -1.255  -3.949   0.023  1.00  0.00     0.163 HD
BRANCH   4   7
ATOM      7  C   UNL     1      -0.199  -0.783  -0.039  1.00  0.00     0.115 A 
ATOM      8  C   UNL     1      -2.520   0.411  -0.356  1.00  0.00     0.068 C 
ATOM      9  C   UNL     1      -1.061   0.309  -0.105  1.00  0.00     0.061 A 
ATOM     10  N   UNL     1      -0.447   1.550   0.022  1.00  0.00    -0.244 NA
ATOM     11  C   UNL     1       0.856   1.438   0.057  1.00  0.00     0.113 A 
ATOM     12  S   UNL     1       1.430  -0.161   0.124  1.00  0.00    -0.111 S 
BRANCH  11  13
ATOM     13  C   UNL     1       1.797   2.604   0.027  1.00  0.00     0.183 C 
BRANCH  13  14
ATOM     14  N   UNL     1       1.411   3.499  -1.053  1.00  0.00    -0.349 N 
ATOM     15  C   UNL     1       0.716   4.669  -1.009  1.00  0.00     0.226 C 
ATOM     16  H   UNL     1       1.695   3.216  -1.952  1.00  0.00     0.163 HD
ATOM     17  O   UNL     1       0.471   5.239  -2.073  1.00  0.00    -0.275 OA
BRANCH  15  18
ATOM     18  C   UNL     1       0.320   5.254   0.330  1.00  0.00     0.109 C 
ATOM     19  C   UNL     1      -0.058   6.722   0.272  1.00  0.00     0.044 C 
ATOM     20  C   UNL     1      -0.924   4.649   0.972  1.00  0.00     0.127 C 
ATOM     21  C   UNL     1      -0.799   6.907   1.578  1.00  0.00     0.161 C 
ATOM     22  O   UNL     1      -1.365   5.637   1.934  1.00  0.00    -0.378 OA
ATOM     23  C   UNL     1      -2.097   4.382   0.031  1.00  0.00     0.039 C 
ENDBRANCH  15  18
ENDBRANCH  13  14
ENDBRANCH  11  13
ENDBRANCH   4   7
ENDBRANCH   2   3
ENDBRANCH   1   2
BRANCH   1  24
ATOM     24  C   UNL     1      -4.209  -4.104  -0.903  1.00  0.00     0.118 C 
BRANCH  24  25
ATOM     25  N   UNL     1      -5.170  -4.595   0.071  1.00  0.00    -0.352 N 
ATOM     26  C   UNL     1      -6.500  -4.906  -0.080  1.00  0.00     0.251 C 
ATOM     27  H   UNL     1      -4.813  -4.724   0.979  1.00  0.00     0.163 HD
ATOM     28  O   UNL     1      -7.190  -5.066   0.923  1.00  0.00    -0.269 OA
BRANCH  26  29
ATOM     29  C   UNL     1      -7.109  -5.043  -1.425  1.00  0.00     0.039 A 
ATOM     30  C   UNL     1      -8.419  -4.589  -1.620  1.00  0.00     0.014 A 
ATOM     31  C   UNL     1      -6.431  -5.666  -2.476  1.00  0.00     0.014 A 
ATOM     32  C   UNL     1      -9.025  -4.718  -2.874  1.00  0.00     0.010 A 
ATOM     33  C   UNL     1      -7.008  -5.728  -3.743  1.00  0.00     0.010 A 
ATOM     34  C   UNL     1      -8.316  -5.266  -3.954  1.00  0.00    -0.014 A 
BRANCH  34  35
ATOM     35  C   UNL     1      -8.926  -5.383  -5.304  1.00  0.00     0.031 A 
ATOM     36  C   UNL     1      -9.155  -6.742  -5.914  1.00  0.00     0.074 A 
ATOM     37  C   UNL     1      -9.211  -4.271  -6.009  1.00  0.00     0.049 A 
ATOM     38  N   UNL     1      -9.589  -7.047  -7.111  1.00  0.00    -0.248 NA
ATOM     39  C   UNL     1      -8.831  -7.909  -5.078  1.00  0.00     0.031 C 
ATOM     40  C   UNL     1      -9.004  -2.897  -5.546  1.00  0.00     0.029 A 
ATOM     41  N   UNL     1      -9.726  -4.120  -7.273  1.00  0.00    -0.354 N 
ATOM     42  C   UNL     1      -9.566  -8.435  -7.179  1.00  0.00     0.074 A 
ATOM     43  C   UNL     1      -9.038  -8.912  -5.920  1.00  0.00     0.031 C 
ATOM     44  C   UNL     1      -9.403  -2.045  -6.504  1.00  0.00     0.029 A 
ATOM     45  C   UNL     1      -9.857  -2.808  -7.662  1.00  0.00     0.049 A 
ATOM     46  H   UNL     1      -9.978  -4.880  -7.846  1.00  0.00     0.167 HD
ATOM     47  C   UNL     1      -9.965  -9.243  -8.192  1.00  0.00     0.031 A 
ATOM     48  C   UNL     1     -10.284  -2.276  -8.824  1.00  0.00     0.031 A 
ATOM     49  C   UNL     1     -10.508  -8.767  -9.437  1.00  0.00     0.049 A 
ATOM     50  C   UNL     1     -10.728  -3.191  -9.932  1.00  0.00     0.074 A 
ATOM     51  C   UNL     1     -10.989  -9.506 -10.504  1.00  0.00     0.029 A 
ATOM     52  N   UNL     1     -10.648  -7.431  -9.780  1.00  0.00    -0.354 N 
ATOM     53  N   UNL     1     -10.745  -4.502  -9.958  1.00  0.00    -0.248 NA
ATOM     54  C   UNL     1     -11.220  -2.555 -11.162  1.00  0.00     0.031 C 
ATOM     55  C   UNL     1     -11.382  -8.616 -11.509  1.00  0.00     0.029 A 
ATOM     56  C   UNL     1     -11.192  -7.323 -11.048  1.00  0.00     0.049 A 
ATOM     57  H   UNL     1     -10.397  -6.671  -9.206  1.00  0.00     0.167 HD
ATOM     58  C   UNL     1     -11.270  -4.848 -11.198  1.00  0.00     0.074 A 
ATOM     59  C   UNL     1     -11.571  -3.610 -11.886  1.00  0.00     0.031 C 
ATOM     60  C   UNL     1     -11.486  -6.082 -11.718  1.00  0.00     0.031 A 
BRANCH  47  61
ATOM     61  C   UNL     1      -9.823 -10.729  -7.994  1.00  0.00    -0.014 A 
ATOM     62  C   UNL     1     -10.651 -11.423  -7.093  1.00  0.00     0.010 A 
ATOM     63  C   UNL     1      -8.872 -11.448  -8.741  1.00  0.00     0.010 A 
ATOM     64  C   UNL     1     -10.501 -12.800  -6.909  1.00  0.00     0.020 A 
ATOM     65  C   UNL     1      -8.737 -12.831  -8.580  1.00  0.00     0.020 A 
ATOM     66  C   UNL     1      -9.541 -13.495  -7.651  1.00  0.00     0.054 A 
BRANCH  66  67
ATOM     67  S   UNL     1      -9.377 -15.284  -7.403  1.00  0.00     0.124 S 
ATOM     68  O   UNL     1      -8.696 -15.347  -6.112  1.00  0.00    -0.237 OA
ATOM     69  O   UNL     1     -10.765 -15.738  -7.403  1.00  0.00    -0.237 OA
ATOM     70  O   UNL     1      -8.582 -15.721  -8.548  1.00  0.00    -0.744 OA
ENDBRANCH  66  67
ENDBRANCH  47  61
BRANCH  48  71
ATOM     71  C   UNL     1     -10.325  -0.798  -8.990  1.00  0.00    -0.014 A 
ATOM     72  C   UNL     1     -11.554  -0.116  -9.000  1.00  0.00     0.010 A 
ATOM     73  C   UNL     1      -9.133  -0.062  -9.113  1.00  0.00     0.010 A 
ATOM     74  C   UNL     1     -11.592   1.274  -9.143  1.00  0.00     0.020 A 
ATOM     75  C   UNL     1      -9.165   1.331  -9.231  1.00  0.00     0.020 A 
ATOM     76  C   UNL     1     -10.396   1.989  -9.256  1.00  0.00     0.054 A 
BRANCH  76  77
ATOM     77  S   UNL     1     -10.466   3.798  -9.379  1.00  0.00     0.124 S 
ATOM     78  O   UNL     1     -10.897   3.991 -10.760  1.00  0.00    -0.237 OA
ATOM     79  O   UNL     1     -11.447   4.148  -8.355  1.00  0.00    -0.237 OA
ATOM     80  O   UNL     1      -9.096   4.212  -9.085  1.00  0.00    -0.744 OA
ENDBRANCH  76  77
ENDBRANCH  48  71
BRANCH  60  81
ATOM     81  C   UNL     1     -12.103  -6.157 -13.088  1.00  0.00    -0.014 A 
ATOM     82  C   UNL     1     -11.357  -5.853 -14.240  1.00  0.00     0.010 A 
ATOM     83  C   UNL     1     -13.433  -6.597 -13.225  1.00  0.00     0.010 A 
ATOM     84  C   UNL     1     -11.938  -5.964 -15.505  1.00  0.00     0.020 A 
ATOM     85  C   UNL     1     -14.009  -6.732 -14.491  1.00  0.00     0.020 A 
ATOM     86  C   UNL     1     -13.261  -6.402 -15.623  1.00  0.00     0.054 A 
BRANCH  86  87
ATOM     87  S   UNL     1     -13.978  -6.588 -17.279  1.00  0.00     0.124 S 
ATOM     88  O   UNL     1     -14.234  -5.201 -17.656  1.00  0.00    -0.237 OA
ATOM     89  O   UNL     1     -12.908  -7.253 -18.020  1.00  0.00    -0.237 OA
ATOM     90  O   UNL     1     -15.169  -7.403 -17.051  1.00  0.00    -0.744 OA
ENDBRANCH  86  87
ENDBRANCH  60  81
ENDBRANCH  34  35
ENDBRANCH  26  29
ENDBRANCH  24  25
ENDBRANCH   1  24
TORSDOF 16
