REMARK SMILES CC[C@H](C)[C@@H](C)NC(=O)c1ccncc1/C=C/C(=O)NCCCNC(=O)c1ccc(-c2c3nc(c(-c4ccc(S(=O)(=O)[O-])cc4)c4ccc([nH]4)c(-c4ccc(S(=O)(=O)[O-])cc4)c4nc(c(-c5ccc(S(=O)(=O)[O-])cc5)c5ccc2[nH]5)C=C4)C=C3)cc1
REMARK SMILES IDX 21 1 20 2 18 3 19 4 17 6 16 7 15 8 10 9 11 10 12 11 14 12
REMARK SMILES IDX 13 13 8 14 7 15 9 17 5 18 6 19 3 20 4 21 2 22 1 23 22 24
REMARK SMILES IDX 23 25 24 26 25 27 26 29 27 30 28 31 86 32 29 33 85 34 30 35
REMARK SMILES IDX 31 36 32 37 79 38 33 39 84 40 78 41 80 42 34 43 83 44 77 45
REMARK SMILES IDX 76 46 35 48 65 49 46 50 64 51 47 52 50 53 63 54 81 55 48 56
REMARK SMILES IDX 49 57 62 59 82 60 51 61 36 62 37 63 45 64 38 65 44 66 39 67
REMARK SMILES IDX 40 68 41 69 42 70 43 71 66 72 67 73 75 74 68 75 74 76 69 77
REMARK SMILES IDX 70 78 71 79 72 80 73 81 52 82 53 83 61 84 54 85 60 86 55 87
REMARK SMILES IDX 56 88 57 89 58 90 59 91
REMARK H PARENT 20 5 7 16 24 28 80 47 50 58
REMARK Flexibility Score: inf
ROOT
ATOM      1  C   UNL     1       0.086  -6.633   5.484  1.00  0.00     0.118 C 
ENDROOT
BRANCH   1   2
ATOM      2  N   UNL     1      -1.009  -6.230   6.351  1.00  0.00    -0.352 N 
ATOM      3  C   UNL     1      -2.288  -5.892   6.045  1.00  0.00     0.244 C 
ATOM      4  O   UNL     1      -3.103  -5.692   6.943  1.00  0.00    -0.270 OA
ATOM      5  H   UNL     1      -0.789  -6.197   7.310  1.00  0.00     0.163 HD
BRANCH   3   6
ATOM      6  C   UNL     1      -2.747  -5.865   4.638  1.00  0.00     0.072 C 
ATOM      7  C   UNL     1      -2.127  -5.215   3.640  1.00  0.00     0.016 C 
BRANCH   7   8
ATOM      8  C   UNL     1      -2.613  -5.245   2.250  1.00  0.00     0.006 A 
ATOM      9  C   UNL     1      -1.772  -5.418   1.139  1.00  0.00     0.050 A 
ATOM     10  C   UNL     1      -2.310  -5.494  -0.150  1.00  0.00     0.034 A 
ATOM     11  C   UNL     1      -3.670  -5.311  -0.303  1.00  0.00     0.112 A 
ATOM     12  C   UNL     1      -3.966  -5.061   1.966  1.00  0.00     0.119 A 
ATOM     13  N   UNL     1      -4.509  -5.086   0.725  1.00  0.00    -0.264 NA
BRANCH   9  14
ATOM     14  C   UNL     1      -0.314  -5.613   1.302  1.00  0.00     0.252 C 
ATOM     15  N   UNL     1       0.574  -4.783   0.664  1.00  0.00    -0.349 N 
ATOM     16  H   UNL     1       1.523  -4.998   0.816  1.00  0.00     0.164 HD
ATOM     17  O   UNL     1       0.102  -6.521   2.018  1.00  0.00    -0.269 OA
BRANCH  15  18
ATOM     18  C   UNL     1       0.337  -3.627  -0.207  1.00  0.00     0.082 C 
ATOM     19  C   UNL     1       0.910  -3.969  -1.587  1.00  0.00     0.031 C 
BRANCH  18  20
ATOM     20  C   UNL     1       0.945  -2.323   0.384  1.00  0.00     0.008 C 
ATOM     21  C   UNL     1       0.545  -1.107  -0.468  1.00  0.00     0.010 C 
BRANCH  20  22
ATOM     22  C   UNL     1       0.510  -2.116   1.855  1.00  0.00     0.002 C 
ATOM     23  C   UNL     1       1.105  -0.874   2.506  1.00  0.00     0.004 C 
ENDBRANCH  20  22
ENDBRANCH  18  20
ENDBRANCH  15  18
ENDBRANCH   9  14
ENDBRANCH   7   8
ENDBRANCH   3   6
ENDBRANCH   1   2
BRANCH   1  24
ATOM     24  C   UNL     1       1.156  -5.548   5.397  1.00  0.00     0.042 C 
BRANCH  24  25
ATOM     25  C   UNL     1       2.006  -5.440   6.661  1.00  0.00     0.118 C 
BRANCH  25  26
ATOM     26  N   UNL     1       2.854  -6.609   6.853  1.00  0.00    -0.352 N 
ATOM     27  C   UNL     1       4.218  -6.700   6.976  1.00  0.00     0.251 C 
ATOM     28  H   UNL     1       2.374  -7.467   6.902  1.00  0.00     0.163 HD
ATOM     29  O   UNL     1       4.757  -7.802   6.910  1.00  0.00    -0.269 OA
BRANCH  27  30
ATOM     30  C   UNL     1       5.039  -5.487   7.177  1.00  0.00     0.039 A 
ATOM     31  C   UNL     1       6.264  -5.384   6.510  1.00  0.00     0.014 A 
ATOM     32  C   UNL     1       4.633  -4.475   8.051  1.00  0.00     0.014 A 
ATOM     33  C   UNL     1       7.056  -4.247   6.682  1.00  0.00     0.010 A 
ATOM     34  C   UNL     1       5.388  -3.311   8.165  1.00  0.00     0.010 A 
ATOM     35  C   UNL     1       6.612  -3.188   7.491  1.00  0.00    -0.014 A 
BRANCH  35  36
ATOM     36  C   UNL     1       7.416  -1.950   7.651  1.00  0.00     0.031 A 
ATOM     37  C   UNL     1       7.969  -1.575   8.999  1.00  0.00     0.074 A 
ATOM     38  C   UNL     1       7.595  -1.132   6.595  1.00  0.00     0.049 A 
ATOM     39  N   UNL     1       8.643  -0.509   9.347  1.00  0.00    -0.248 NA
ATOM     40  C   UNL     1       7.708  -2.508  10.107  1.00  0.00     0.031 C 
ATOM     41  C   UNL     1       7.079  -1.368   5.244  1.00  0.00     0.029 A 
ATOM     42  N   UNL     1       8.254   0.067   6.494  1.00  0.00    -0.354 N 
ATOM     43  C   UNL     1       8.866  -0.631  10.714  1.00  0.00     0.074 A 
ATOM     44  C   UNL     1       8.214  -1.850  11.140  1.00  0.00     0.031 C 
ATOM     45  C   UNL     1       7.467  -0.362   4.444  1.00  0.00     0.029 A 
ATOM     46  C   UNL     1       8.219   0.611   5.231  1.00  0.00     0.049 A 
ATOM     47  H   UNL     1       8.709   0.498   7.253  1.00  0.00     0.167 HD
ATOM     48  C   UNL     1       9.564   0.188  11.538  1.00  0.00     0.031 A 
ATOM     49  C   UNL     1       8.729   1.765   4.759  1.00  0.00     0.031 A 
ATOM     50  C   UNL     1      10.216   1.396  11.107  1.00  0.00     0.049 A 
ATOM     51  C   UNL     1       9.492   2.664   5.692  1.00  0.00     0.074 A 
ATOM     52  C   UNL     1      10.996   2.266  11.848  1.00  0.00     0.029 A 
ATOM     53  N   UNL     1      10.159   1.909   9.819  1.00  0.00    -0.354 N 
ATOM     54  N   UNL     1       9.746   2.500   6.969  1.00  0.00    -0.248 NA
ATOM     55  C   UNL     1      10.044   3.898   5.119  1.00  0.00     0.031 C 
ATOM     56  C   UNL     1      11.365   3.334  11.023  1.00  0.00     0.029 A 
ATOM     57  C   UNL     1      10.868   3.098   9.751  1.00  0.00     0.049 A 
ATOM     58  H   UNL     1       9.685   1.491   9.064  1.00  0.00     0.167 HD
ATOM     59  C   UNL     1      10.513   3.596   7.346  1.00  0.00     0.074 A 
ATOM     60  C   UNL     1      10.690   4.410   6.159  1.00  0.00     0.031 C 
ATOM     61  C   UNL     1      11.029   3.900   8.563  1.00  0.00     0.031 A 
BRANCH  48  62
ATOM     62  C   UNL     1       9.639  -0.194  12.995  1.00  0.00    -0.014 A 
ATOM     63  C   UNL     1      10.358  -1.328  13.417  1.00  0.00     0.010 A 
ATOM     64  C   UNL     1       8.992   0.601  13.959  1.00  0.00     0.010 A 
ATOM     65  C   UNL     1      10.379  -1.693  14.766  1.00  0.00     0.020 A 
ATOM     66  C   UNL     1       9.038   0.257  15.314  1.00  0.00     0.020 A 
ATOM     67  C   UNL     1       9.711  -0.901  15.705  1.00  0.00     0.054 A 
BRANCH  67  68
ATOM     68  S   UNL     1       9.751  -1.400  17.449  1.00  0.00     0.124 S 
ATOM     69  O   UNL     1       8.848  -2.549  17.452  1.00  0.00    -0.237 OA
ATOM     70  O   UNL     1      11.162  -1.711  17.662  1.00  0.00    -0.237 OA
ATOM     71  O   UNL     1       9.261  -0.221  18.159  1.00  0.00    -0.744 OA
ENDBRANCH  67  68
ENDBRANCH  48  62
BRANCH  49  72
ATOM     72  C   UNL     1       8.555   2.114   3.323  1.00  0.00    -0.014 A 
ATOM     73  C   UNL     1       9.647   2.058   2.440  1.00  0.00     0.010 A 
ATOM     74  C   UNL     1       7.288   2.466   2.822  1.00  0.00     0.010 A 
ATOM     75  C   UNL     1       9.478   2.352   1.084  1.00  0.00     0.020 A 
ATOM     76  C   UNL     1       7.109   2.734   1.462  1.00  0.00     0.020 A 
ATOM     77  C   UNL     1       8.208   2.681   0.602  1.00  0.00     0.054 A 
BRANCH  77  78
ATOM     78  S   UNL     1       7.997   2.980  -1.175  1.00  0.00     0.124 S 
ATOM     79  O   UNL     1       8.630   4.285  -1.342  1.00  0.00    -0.237 OA
ATOM     80  O   UNL     1       8.707   1.851  -1.771  1.00  0.00    -0.237 OA
ATOM     81  O   UNL     1       6.547   2.958  -1.356  1.00  0.00    -0.744 OA
ENDBRANCH  77  78
ENDBRANCH  49  72
BRANCH  61  82
ATOM     82  C   UNL     1      11.862   5.149   8.670  1.00  0.00    -0.014 A 
ATOM     83  C   UNL     1      11.276   6.426   8.614  1.00  0.00     0.010 A 
ATOM     84  C   UNL     1      13.248   5.040   8.886  1.00  0.00     0.010 A 
ATOM     85  C   UNL     1      12.067   7.572   8.742  1.00  0.00     0.020 A 
ATOM     86  C   UNL     1      14.037   6.182   9.043  1.00  0.00     0.020 A 
ATOM     87  C   UNL     1      13.443   7.442   8.956  1.00  0.00     0.054 A 
BRANCH  87  88
ATOM     88  S   UNL     1      14.439   8.943   9.164  1.00  0.00     0.124 S 
ATOM     89  O   UNL     1      14.492   9.463   7.800  1.00  0.00    -0.237 OA
ATOM     90  O   UNL     1      13.645   9.728  10.105  1.00  0.00    -0.237 OA
ATOM     91  O   UNL     1      15.709   8.446   9.691  1.00  0.00    -0.744 OA
ENDBRANCH  87  88
ENDBRANCH  61  82
ENDBRANCH  35  36
ENDBRANCH  27  30
ENDBRANCH  25  26
ENDBRANCH  24  25
ENDBRANCH   1  24
TORSDOF 18
