REMARK SMILES Cc1[nH]c(=O)sc1S(=O)(=O)NC1(CC(=O)NCCCNC(=O)c2ccc(-c3c4nc(c(-c5ccc(S(=O)(=O)[O-])cc5)c5ccc([nH]5)c(-c5ccc(S(=O)(=O)[O-])cc5)c5nc(c(-c6ccc(S(=O)(=O)[O-])cc6)c6ccc3[nH]6)C=C5)C=C4)cc2)CCC1
REMARK SMILES IDX 17 1 16 2 14 3 15 4 13 6 12 7 83 8 85 9 84 10 11 11 8 13
REMARK SMILES IDX 9 14 10 15 7 16 1 17 2 18 3 19 4 20 6 22 5 23 18 24 19 25
REMARK SMILES IDX 20 26 21 27 22 29 23 30 24 31 82 32 25 33 81 34 26 35 27 36
REMARK SMILES IDX 28 37 75 38 29 39 80 40 74 41 76 42 30 43 79 44 73 45 72 46
REMARK SMILES IDX 31 48 61 49 42 50 60 51 43 52 46 53 59 54 77 55 44 56 45 57
REMARK SMILES IDX 58 59 78 60 47 61 32 62 33 63 41 64 34 65 40 66 35 67 36 68
REMARK SMILES IDX 37 69 38 70 39 71 62 72 63 73 71 74 64 75 70 76 65 77 66 78
REMARK SMILES IDX 67 79 68 80 69 81 48 82 49 83 57 84 50 85 56 86 51 87 52 88
REMARK SMILES IDX 53 89 54 90 55 91
REMARK H PARENT 16 5 11 12 3 21 20 28 76 47 46 58
REMARK Flexibility Score: inf
ROOT
ATOM      1  C   UNL     1       1.171   2.282  -3.939  1.00  0.00     0.117 C 
ENDROOT
BRANCH   1   2
ATOM      2  N   UNL     1       2.415   2.857  -3.454  1.00  0.00    -0.356 N 
ATOM      3  C   UNL     1       3.622   2.287  -3.182  1.00  0.00     0.221 C 
ATOM      4  O   UNL     1       4.616   3.017  -3.164  1.00  0.00    -0.275 OA
ATOM      5  H   UNL     1       2.378   3.828  -3.294  1.00  0.00     0.163 HD
BRANCH   3   6
ATOM      6  C   UNL     1       3.792   0.799  -2.992  1.00  0.00     0.123 C 
BRANCH   6   7
ATOM      7  C   UNL     1       3.178   0.124  -1.752  1.00  0.00     0.042 C 
ATOM      8  C   UNL     1       3.636  -1.387  -1.633  1.00  0.00     0.024 C 
ATOM      9  C   UNL     1       1.756  -0.440  -2.007  1.00  0.00     0.024 C 
ATOM     10  C   UNL     1       2.292  -1.855  -2.167  1.00  0.00     0.004 C 
BRANCH   7  11
ATOM     11  N   UNL     1       3.541   0.783  -0.443  1.00  0.00    -0.204 NA
ATOM     12  H   UNL     1       3.348   0.044   0.233  1.00  0.00     0.142 HD
BRANCH  11  13
ATOM     13  S   UNL     1       3.084   2.171   0.403  1.00  0.00     0.252 S 
ATOM     14  O   UNL     1       3.307   3.269  -0.508  1.00  0.00    -0.206 OA
ATOM     15  O   UNL     1       3.872   2.072   1.616  1.00  0.00    -0.206 OA
BRANCH  13  16
ATOM     16  C   UNL     1       1.415   2.166   0.841  1.00  0.00     0.158 A 
ATOM     17  C   UNL     1       1.068  -0.344   1.375  1.00  0.00     0.067 C 
ATOM     18  C   UNL     1       0.692   1.088   1.199  1.00  0.00     0.046 A 
ATOM     19  N   UNL     1      -0.631   1.404   1.431  1.00  0.00    -0.315 N 
ATOM     20  C   UNL     1      -0.990   2.724   1.327  1.00  0.00     0.305 A 
ATOM     21  H   UNL     1      -1.291   0.710   1.662  1.00  0.00     0.170 HD
ATOM     22  S   UNL     1       0.454   3.635   0.940  1.00  0.00    -0.061 S 
ATOM     23  O   UNL     1      -2.103   3.182   1.441  1.00  0.00    -0.257 OA
ENDBRANCH  13  16
ENDBRANCH  11  13
ENDBRANCH   7  11
ENDBRANCH   6   7
ENDBRANCH   3   6
ENDBRANCH   1   2
BRANCH   1  24
ATOM     24  C   UNL     1       0.127   2.052  -2.843  1.00  0.00     0.042 C 
BRANCH  24  25
ATOM     25  C   UNL     1      -0.701   3.272  -2.525  1.00  0.00     0.118 C 
BRANCH  25  26
ATOM     26  N   UNL     1      -1.772   3.545  -3.482  1.00  0.00    -0.352 N 
ATOM     27  C   UNL     1      -2.848   4.409  -3.300  1.00  0.00     0.251 C 
ATOM     28  H   UNL     1      -1.729   3.069  -4.342  1.00  0.00     0.163 HD
ATOM     29  O   UNL     1      -3.853   4.304  -3.994  1.00  0.00    -0.269 OA
BRANCH  27  30
ATOM     30  C   UNL     1      -2.742   5.457  -2.260  1.00  0.00     0.039 A 
ATOM     31  C   UNL     1      -3.823   5.922  -1.505  1.00  0.00     0.014 A 
ATOM     32  C   UNL     1      -1.472   5.957  -2.024  1.00  0.00     0.014 A 
ATOM     33  C   UNL     1      -3.580   6.857  -0.493  1.00  0.00     0.010 A 
ATOM     34  C   UNL     1      -1.206   6.603  -0.860  1.00  0.00     0.010 A 
ATOM     35  C   UNL     1      -2.254   7.192  -0.180  1.00  0.00    -0.014 A 
BRANCH  35  36
ATOM     36  C   UNL     1      -1.859   8.089   0.900  1.00  0.00     0.031 A 
ATOM     37  C   UNL     1      -2.356   7.670   2.236  1.00  0.00     0.074 A 
ATOM     38  C   UNL     1      -0.875   9.010   0.727  1.00  0.00     0.049 A 
ATOM     39  N   UNL     1      -3.228   8.263   2.981  1.00  0.00    -0.248 NA
ATOM     40  C   UNL     1      -1.966   6.341   2.734  1.00  0.00     0.031 C 
ATOM     41  C   UNL     1      -0.075   9.290  -0.481  1.00  0.00     0.029 A 
ATOM     42  N   UNL     1      -0.269   9.808   1.643  1.00  0.00    -0.354 N 
ATOM     43  C   UNL     1      -3.300   7.508   4.148  1.00  0.00     0.074 A 
ATOM     44  C   UNL     1      -2.693   6.240   3.846  1.00  0.00     0.031 C 
ATOM     45  C   UNL     1       1.046   9.970  -0.148  1.00  0.00     0.029 A 
ATOM     46  C   UNL     1       0.959  10.343   1.249  1.00  0.00     0.049 A 
ATOM     47  H   UNL     1      -0.668   9.996   2.523  1.00  0.00     0.167 HD
ATOM     48  C   UNL     1      -3.586   8.088   5.348  1.00  0.00     0.031 A 
ATOM     49  C   UNL     1       1.842  11.033   2.021  1.00  0.00     0.031 A 
ATOM     50  C   UNL     1      -4.082   9.430   5.172  1.00  0.00     0.049 A 
ATOM     51  C   UNL     1       1.073  11.518   3.194  1.00  0.00     0.074 A 
ATOM     52  C   UNL     1      -5.165   9.986   4.521  1.00  0.00     0.029 A 
ATOM     53  N   UNL     1      -3.168  10.448   5.330  1.00  0.00    -0.354 N 
ATOM     54  N   UNL     1       0.083  12.364   3.093  1.00  0.00    -0.248 NA
ATOM     55  C   UNL     1       1.058  10.677   4.379  1.00  0.00     0.031 C 
ATOM     56  C   UNL     1      -4.647  11.157   3.892  1.00  0.00     0.029 A 
ATOM     57  C   UNL     1      -3.311  11.308   4.270  1.00  0.00     0.049 A 
ATOM     58  H   UNL     1      -2.527  10.542   6.071  1.00  0.00     0.167 HD
ATOM     59  C   UNL     1      -0.897  11.863   3.940  1.00  0.00     0.074 A 
ATOM     60  C   UNL     1      -0.208  10.867   4.765  1.00  0.00     0.031 C 
ATOM     61  C   UNL     1      -2.225  12.079   3.695  1.00  0.00     0.031 A 
BRANCH  48  62
ATOM     62  C   UNL     1      -3.019   7.617   6.666  1.00  0.00    -0.014 A 
ATOM     63  C   UNL     1      -3.432   8.271   7.845  1.00  0.00     0.010 A 
ATOM     64  C   UNL     1      -1.907   6.755   6.770  1.00  0.00     0.010 A 
ATOM     65  C   UNL     1      -2.724   8.124   9.044  1.00  0.00     0.020 A 
ATOM     66  C   UNL     1      -1.219   6.570   7.971  1.00  0.00     0.020 A 
ATOM     67  C   UNL     1      -1.614   7.282   9.095  1.00  0.00     0.054 A 
BRANCH  67  68
ATOM     68  S   UNL     1      -0.659   7.171  10.628  1.00  0.00     0.124 S 
ATOM     69  O   UNL     1      -0.122   8.522  10.747  1.00  0.00    -0.237 OA
ATOM     70  O   UNL     1      -1.684   6.807  11.602  1.00  0.00    -0.237 OA
ATOM     71  O   UNL     1       0.323   6.126  10.345  1.00  0.00    -0.744 OA
ENDBRANCH  67  68
ENDBRANCH  48  62
BRANCH  49  72
ATOM     72  C   UNL     1       3.334  11.001   1.995  1.00  0.00    -0.014 A 
ATOM     73  C   UNL     1       4.107  11.951   2.694  1.00  0.00     0.010 A 
ATOM     74  C   UNL     1       4.002   9.854   1.519  1.00  0.00     0.010 A 
ATOM     75  C   UNL     1       5.477  11.733   2.955  1.00  0.00     0.020 A 
ATOM     76  C   UNL     1       5.364   9.629   1.775  1.00  0.00     0.020 A 
ATOM     77  C   UNL     1       6.093  10.560   2.511  1.00  0.00     0.054 A 
BRANCH  77  78
ATOM     78  S   UNL     1       7.811  10.200   3.001  1.00  0.00     0.124 S 
ATOM     79  O   UNL     1       8.568  11.192   2.242  1.00  0.00    -0.237 OA
ATOM     80  O   UNL     1       7.782  10.404   4.447  1.00  0.00    -0.237 OA
ATOM     81  O   UNL     1       8.010   8.815   2.579  1.00  0.00    -0.744 OA
ENDBRANCH  77  78
ENDBRANCH  49  72
BRANCH  61  82
ATOM     82  C   UNL     1      -2.610  13.052   2.597  1.00  0.00    -0.014 A 
ATOM     83  C   UNL     1      -2.337  12.849   1.227  1.00  0.00     0.010 A 
ATOM     84  C   UNL     1      -3.437  14.129   2.954  1.00  0.00     0.010 A 
ATOM     85  C   UNL     1      -2.867  13.711   0.249  1.00  0.00     0.020 A 
ATOM     86  C   UNL     1      -3.980  14.979   1.988  1.00  0.00     0.020 A 
ATOM     87  C   UNL     1      -3.687  14.773   0.640  1.00  0.00     0.054 A 
BRANCH  87  88
ATOM     88  S   UNL     1      -4.412  15.864  -0.620  1.00  0.00     0.124 S 
ATOM     89  O   UNL     1      -3.244  16.571  -1.139  1.00  0.00    -0.237 OA
ATOM     90  O   UNL     1      -5.040  14.924  -1.545  1.00  0.00    -0.237 OA
ATOM     91  O   UNL     1      -5.349  16.694   0.136  1.00  0.00    -0.744 OA
ENDBRANCH  87  88
ENDBRANCH  61  82
ENDBRANCH  35  36
ENDBRANCH  27  30
ENDBRANCH  25  26
ENDBRANCH  24  25
ENDBRANCH   1  24
TORSDOF 17
