REMARK SMILES Cc1nn(CC(=O)NCCCNC(=O)c2ccc(-c3c4nc(c(-c5ccc(S(=O)(=O)[O-])cc5)c5ccc([nH]5)c(-c5ccc(S(=O)(=O)[O-])cc5)c5nc(c(-c6ccc(S(=O)(=O)[O-])cc6)c6ccc3[nH]6)C=C5)C=C4)cc2)c(C)c1NC(=O)C(=O)Nc1ccc(F)cc1
REMARK SMILES IDX 9 1 8 2 6 3 7 4 5 6 4 7 1 8 2 9 3 10 77 11 75 12 76 13 78 14
REMARK SMILES IDX 79 15 80 17 81 18 82 19 83 20 84 22 85 23 90 24 86 25 89 26
REMARK SMILES IDX 87 27 88 28 10 29 11 30 12 31 13 32 14 34 15 35 16 36 74 37
REMARK SMILES IDX 17 38 73 39 18 40 19 41 20 42 67 43 21 44 72 45 66 46 68 47
REMARK SMILES IDX 22 48 71 49 65 50 64 51 23 53 53 54 34 55 52 56 35 57 38 58
REMARK SMILES IDX 51 59 69 60 36 61 37 62 50 64 70 65 39 66 24 67 25 68 33 69
REMARK SMILES IDX 26 70 32 71 27 72 28 73 29 74 30 75 31 76 54 77 55 78 63 79
REMARK SMILES IDX 56 80 62 81 57 82 58 83 59 84 60 85 61 86 40 87 41 88 49 89
REMARK SMILES IDX 42 90 48 91 43 92 44 93 45 94 46 95 47 96
REMARK H PARENT 8 5 78 16 83 21 12 33 68 52 38 63
REMARK Flexibility Score: inf
ROOT
ATOM      1  C   UNL     1       1.680   0.448  -6.067  1.00  0.00     0.117 C 
ENDROOT
BRANCH   1   2
ATOM      2  N   UNL     1       1.282  -0.948  -6.070  1.00  0.00    -0.354 N 
ATOM      3  C   UNL     1       0.174  -1.575  -5.575  1.00  0.00     0.241 C 
ATOM      4  O   UNL     1       0.044  -2.766  -5.881  1.00  0.00    -0.273 OA
ATOM      5  H   UNL     1       1.926  -1.551  -6.508  1.00  0.00     0.163 HD
BRANCH   3   6
ATOM      6  C   UNL     1      -0.937  -0.861  -4.837  1.00  0.00     0.244 C 
BRANCH   6   7
ATOM      7  N   UNL     1      -0.509  -0.033  -3.721  1.00  0.00    -0.258 N 
ATOM      8  C   UNL     1       0.755  -0.034  -0.426  1.00  0.00     0.071 C 
ATOM      9  C   UNL     1       0.232   0.321  -1.773  1.00  0.00     0.083 A 
ATOM     10  N   UNL     1      -0.075  -0.658  -2.618  1.00  0.00    -0.175 NA
ATOM     11  C   UNL     1      -0.006   1.614  -2.338  1.00  0.00     0.086 A 
ATOM     12  C   UNL     1      -0.544   1.347  -3.592  1.00  0.00     0.060 A 
ATOM     13  C   UNL     1      -1.031   2.202  -4.706  1.00  0.00     0.069 C 
BRANCH  11  14
ATOM     14  N   UNL     1       0.316   2.778  -1.655  1.00  0.00    -0.315 N 
ATOM     15  C   UNL     1       0.066   4.116  -1.831  1.00  0.00     0.314 C 
ATOM     16  H   UNL     1       0.855   2.602  -0.850  1.00  0.00     0.170 HD
ATOM     17  O   UNL     1       0.531   4.933  -1.039  1.00  0.00    -0.263 OA
BRANCH  15  18
ATOM     18  C   UNL     1      -0.887   4.588  -2.906  1.00  0.00     0.314 C 
ATOM     19  O   UNL     1      -2.065   4.241  -2.847  1.00  0.00    -0.263 OA
ATOM     20  N   UNL     1      -0.454   5.387  -3.953  1.00  0.00    -0.318 N 
ATOM     21  H   UNL     1      -0.605   5.070  -4.873  1.00  0.00     0.170 HD
BRANCH  20  22
ATOM     22  C   UNL     1       0.190   6.626  -3.776  1.00  0.00     0.041 A 
ATOM     23  C   UNL     1      -0.497   7.744  -4.272  1.00  0.00     0.029 A 
ATOM     24  C   UNL     1       1.397   6.801  -3.100  1.00  0.00     0.029 A 
ATOM     25  C   UNL     1      -0.043   9.031  -3.995  1.00  0.00     0.041 A 
ATOM     26  C   UNL     1       1.863   8.094  -2.841  1.00  0.00     0.041 A 
ATOM     27  C   UNL     1       1.126   9.195  -3.266  1.00  0.00     0.123 A 
ATOM     28  F   UNL     1       1.542  10.431  -2.965  1.00  0.00    -0.207 F 
ENDBRANCH  20  22
ENDBRANCH  15  18
ENDBRANCH  11  14
ENDBRANCH   6   7
ENDBRANCH   3   6
ENDBRANCH   1   2
BRANCH   1  29
ATOM     29  C   UNL     1       2.571   0.842  -4.885  1.00  0.00     0.042 C 
BRANCH  29  30
ATOM     30  C   UNL     1       4.030   0.496  -5.114  1.00  0.00     0.118 C 
BRANCH  30  31
ATOM     31  N   UNL     1       4.669   1.332  -6.145  1.00  0.00    -0.352 N 
ATOM     32  C   UNL     1       5.932   1.190  -6.702  1.00  0.00     0.251 C 
ATOM     33  H   UNL     1       4.133   2.087  -6.480  1.00  0.00     0.163 HD
ATOM     34  O   UNL     1       6.476   2.125  -7.283  1.00  0.00    -0.269 OA
BRANCH  32  35
ATOM     35  C   UNL     1       6.594  -0.118  -6.583  1.00  0.00     0.039 A 
ATOM     36  C   UNL     1       7.943  -0.278  -6.250  1.00  0.00     0.014 A 
ATOM     37  C   UNL     1       5.758  -1.215  -6.706  1.00  0.00     0.014 A 
ATOM     38  C   UNL     1       8.405  -1.561  -5.949  1.00  0.00     0.010 A 
ATOM     39  C   UNL     1       6.133  -2.386  -6.125  1.00  0.00     0.010 A 
ATOM     40  C   UNL     1       7.478  -2.609  -5.870  1.00  0.00    -0.014 A 
BRANCH  40  41
ATOM     41  C   UNL     1       7.830  -3.973  -5.503  1.00  0.00     0.031 A 
ATOM     42  C   UNL     1       8.447  -4.142  -4.164  1.00  0.00     0.074 A 
ATOM     43  C   UNL     1       7.341  -5.026  -6.200  1.00  0.00     0.049 A 
ATOM     44  N   UNL     1       9.664  -4.480  -3.894  1.00  0.00    -0.248 NA
ATOM     45  C   UNL     1       7.658  -3.769  -2.978  1.00  0.00     0.031 C 
ATOM     46  C   UNL     1       6.408  -5.019  -7.342  1.00  0.00     0.029 A 
ATOM     47  N   UNL     1       7.447  -6.349  -5.927  1.00  0.00    -0.354 N 
ATOM     48  C   UNL     1       9.734  -4.590  -2.509  1.00  0.00     0.074 A 
ATOM     49  C   UNL     1       8.549  -3.945  -1.999  1.00  0.00     0.031 C 
ATOM     50  C   UNL     1       5.835  -6.235  -7.469  1.00  0.00     0.029 A 
ATOM     51  C   UNL     1       6.509  -7.149  -6.571  1.00  0.00     0.049 A 
ATOM     52  H   UNL     1       8.132  -6.715  -5.322  1.00  0.00     0.167 HD
ATOM     53  C   UNL     1      10.627  -5.423  -1.901  1.00  0.00     0.031 A 
ATOM     54  C   UNL     1       6.284  -8.468  -6.356  1.00  0.00     0.031 A 
ATOM     55  C   UNL     1      11.581  -5.950  -2.846  1.00  0.00     0.049 A 
ATOM     56  C   UNL     1       7.505  -9.003  -5.702  1.00  0.00     0.074 A 
ATOM     57  C   UNL     1      12.523  -5.400  -3.692  1.00  0.00     0.029 A 
ATOM     58  N   UNL     1      11.345  -7.223  -3.317  1.00  0.00    -0.354 N 
ATOM     59  N   UNL     1       8.672  -9.030  -6.285  1.00  0.00    -0.248 NA
ATOM     60  C   UNL     1       7.536  -9.051  -4.249  1.00  0.00     0.031 C 
ATOM     61  C   UNL     1      12.432  -6.173  -4.888  1.00  0.00     0.029 A 
ATOM     62  C   UNL     1      11.502  -7.195  -4.679  1.00  0.00     0.049 A 
ATOM     63  H   UNL     1      11.107  -8.009  -2.775  1.00  0.00     0.167 HD
ATOM     64  C   UNL     1       9.575  -8.657  -5.297  1.00  0.00     0.074 A 
ATOM     65  C   UNL     1       8.831  -8.786  -4.044  1.00  0.00     0.031 C 
ATOM     66  C   UNL     1      10.739  -8.008  -5.606  1.00  0.00     0.031 A 
BRANCH  53  67
ATOM     67  C   UNL     1      10.409  -6.090  -0.563  1.00  0.00    -0.014 A 
ATOM     68  C   UNL     1      11.448  -6.884  -0.031  1.00  0.00     0.010 A 
ATOM     69  C   UNL     1       9.146  -6.197   0.052  1.00  0.00     0.010 A 
ATOM     70  C   UNL     1      11.209  -7.804   0.997  1.00  0.00     0.020 A 
ATOM     71  C   UNL     1       8.908  -7.078   1.109  1.00  0.00     0.020 A 
ATOM     72  C   UNL     1       9.931  -7.908   1.546  1.00  0.00     0.054 A 
BRANCH  72  73
ATOM     73  S   UNL     1       9.598  -9.194   2.774  1.00  0.00     0.124 S 
ATOM     74  O   UNL     1       9.754 -10.410   1.982  1.00  0.00    -0.237 OA
ATOM     75  O   UNL     1      10.636  -8.947   3.770  1.00  0.00    -0.237 OA
ATOM     76  O   UNL     1       8.236  -8.901   3.214  1.00  0.00    -0.744 OA
ENDBRANCH  72  73
ENDBRANCH  53  67
BRANCH  54  77
ATOM     77  C   UNL     1       4.985  -9.185  -6.386  1.00  0.00    -0.014 A 
ATOM     78  C   UNL     1       4.927 -10.588  -6.447  1.00  0.00     0.010 A 
ATOM     79  C   UNL     1       3.793  -8.493  -6.077  1.00  0.00     0.010 A 
ATOM     80  C   UNL     1       3.737 -11.277  -6.149  1.00  0.00     0.020 A 
ATOM     81  C   UNL     1       2.604  -9.172  -5.783  1.00  0.00     0.020 A 
ATOM     82  C   UNL     1       2.588 -10.564  -5.797  1.00  0.00     0.054 A 
BRANCH  82  83
ATOM     83  S   UNL     1       1.110 -11.467  -5.238  1.00  0.00     0.124 S 
ATOM     84  O   UNL     1       0.639 -12.087  -6.472  1.00  0.00    -0.237 OA
ATOM     85  O   UNL     1       1.656 -12.383  -4.240  1.00  0.00    -0.237 OA
ATOM     86  O   UNL     1       0.246 -10.417  -4.702  1.00  0.00    -0.744 OA
ENDBRANCH  82  83
ENDBRANCH  54  77
BRANCH  66  87
ATOM     87  C   UNL     1      11.156  -7.926  -7.059  1.00  0.00    -0.014 A 
ATOM     88  C   UNL     1      10.412  -7.257  -8.053  1.00  0.00     0.010 A 
ATOM     89  C   UNL     1      12.434  -8.405  -7.394  1.00  0.00     0.010 A 
ATOM     90  C   UNL     1      10.926  -7.095  -9.350  1.00  0.00     0.020 A 
ATOM     91  C   UNL     1      12.958  -8.232  -8.678  1.00  0.00     0.020 A 
ATOM     92  C   UNL     1      12.199  -7.587  -9.654  1.00  0.00     0.054 A 
BRANCH  92  93
ATOM     93  S   UNL     1      12.879  -7.342 -11.319  1.00  0.00     0.124 S 
ATOM     94  O   UNL     1      12.034  -8.206 -12.138  1.00  0.00    -0.237 OA
ATOM     95  O   UNL     1      12.708  -5.907 -11.535  1.00  0.00    -0.237 OA
ATOM     96  O   UNL     1      14.270  -7.778 -11.195  1.00  0.00    -0.744 OA
ENDBRANCH  92  93
ENDBRANCH  66  87
ENDBRANCH  40  41
ENDBRANCH  32  35
ENDBRANCH  30  31
ENDBRANCH  29  30
ENDBRANCH   1  29
TORSDOF 17
