REMARK SMILES C[C@](NC(=O)C[C@@H]1CCCCO1)(C(=O)NCCCNC(=O)c1ccc(-c2c3nc(c(-c4ccc(S(=O)(=O)[O-])cc4)c4ccc([nH]4)c(-c4ccc(S(=O)(=O)[O-])cc4)c4nc(c(-c5ccc(S(=O)(=O)[O-])cc5)c5ccc2[nH]5)C=C4)C=C3)cc1)c1ccccc1
REMARK SMILES IDX 17 1 16 2 15 3 13 4 14 5 2 7 1 8 82 9 83 10 87 11 84 12
REMARK SMILES IDX 86 13 85 14 3 15 4 16 5 18 6 19 7 20 8 21 12 22 9 23 11 24
REMARK SMILES IDX 10 25 18 26 19 27 20 28 21 30 22 31 23 32 81 33 24 34 80 35
REMARK SMILES IDX 25 36 26 37 27 38 74 39 28 40 79 41 73 42 75 43 29 44 78 45
REMARK SMILES IDX 72 46 71 47 30 49 60 50 41 51 59 52 42 53 45 54 58 55 76 56
REMARK SMILES IDX 43 57 44 58 57 60 77 61 46 62 31 63 32 64 40 65 33 66 39 67
REMARK SMILES IDX 34 68 35 69 36 70 37 71 38 72 61 73 62 74 70 75 63 76 69 77
REMARK SMILES IDX 64 78 65 79 66 80 67 81 68 82 47 83 48 84 56 85 49 86 55 87
REMARK SMILES IDX 50 88 51 89 52 90 53 91 54 92
REMARK H PARENT 15 6 3 17 19 29 75 48 45 59
REMARK Flexibility Score: inf
ROOT
ATOM      1  C   UNL     1      -2.174   0.673  -1.693  1.00  0.00     0.042 C 
ENDROOT
BRANCH   1   2
ATOM      2  C   UNL     1      -1.839   1.197  -0.311  1.00  0.00     0.117 C 
BRANCH   2   3
ATOM      3  N   UNL     1      -1.514   0.220   0.709  1.00  0.00    -0.354 N 
ATOM      4  C   UNL     1      -0.680   0.638   1.754  1.00  0.00     0.250 C 
ATOM      5  O   UNL     1      -1.205   0.984   2.817  1.00  0.00    -0.272 OA
ATOM      6  H   UNL     1      -1.864  -0.699   0.668  1.00  0.00     0.163 HD
BRANCH   4   7
ATOM      7  C   UNL     1       0.868   0.274   1.623  1.00  0.00     0.141 C 
ATOM      8  C   UNL     1       1.896   1.149   2.359  1.00  0.00     0.051 C 
BRANCH   7   9
ATOM      9  C   UNL     1       0.985  -1.085   2.403  1.00  0.00    -0.013 A 
ATOM     10  C   UNL     1       1.206  -2.338   1.829  1.00  0.00     0.007 A 
ATOM     11  C   UNL     1       0.833  -1.043   3.820  1.00  0.00     0.007 A 
ATOM     12  C   UNL     1       1.317  -3.478   2.646  1.00  0.00     0.000 A 
ATOM     13  C   UNL     1       0.975  -2.164   4.630  1.00  0.00     0.000 A 
ATOM     14  C   UNL     1       1.222  -3.389   4.038  1.00  0.00     0.000 A 
ENDBRANCH   7   9
BRANCH   7  15
ATOM     15  N   UNL     1       1.226   0.233   0.187  1.00  0.00    -0.338 N 
ATOM     16  C   UNL     1       1.458   1.220  -0.731  1.00  0.00     0.223 C 
ATOM     17  H   UNL     1       1.312  -0.677  -0.176  1.00  0.00     0.164 HD
ATOM     18  O   UNL     1       1.444   0.854  -1.914  1.00  0.00    -0.275 OA
BRANCH  16  19
ATOM     19  C   UNL     1       1.773   2.703  -0.426  1.00  0.00     0.132 C 
BRANCH  19  20
ATOM     20  C   UNL     1       0.601   3.658  -0.103  1.00  0.00     0.127 C 
ATOM     21  C   UNL     1       0.952   5.154  -0.141  1.00  0.00     0.033 C 
ATOM     22  O   UNL     1      -0.160   3.303   1.052  1.00  0.00    -0.378 OA
ATOM     23  C   UNL     1       1.305   5.748   1.215  1.00  0.00     0.005 C 
ATOM     24  C   UNL     1       0.110   3.912   2.307  1.00  0.00     0.160 C 
ATOM     25  C   UNL     1       0.219   5.412   2.221  1.00  0.00     0.029 C 
ENDBRANCH  19  20
ENDBRANCH  16  19
ENDBRANCH   7  15
ENDBRANCH   4   7
ENDBRANCH   2   3
ENDBRANCH   1   2
BRANCH   1  26
ATOM     26  C   UNL     1      -3.435   1.302  -2.279  1.00  0.00     0.118 C 
BRANCH  26  27
ATOM     27  N   UNL     1      -3.491   2.765  -2.245  1.00  0.00    -0.352 N 
ATOM     28  C   UNL     1      -3.957   3.666  -3.185  1.00  0.00     0.251 C 
ATOM     29  H   UNL     1      -3.140   3.173  -1.421  1.00  0.00     0.163 HD
ATOM     30  O   UNL     1      -3.930   4.863  -2.947  1.00  0.00    -0.269 OA
BRANCH  28  31
ATOM     31  C   UNL     1      -4.426   3.179  -4.504  1.00  0.00     0.039 A 
ATOM     32  C   UNL     1      -3.997   3.840  -5.659  1.00  0.00     0.014 A 
ATOM     33  C   UNL     1      -5.211   2.034  -4.608  1.00  0.00     0.014 A 
ATOM     34  C   UNL     1      -4.234   3.268  -6.912  1.00  0.00     0.010 A 
ATOM     35  C   UNL     1      -5.343   1.409  -5.840  1.00  0.00     0.010 A 
ATOM     36  C   UNL     1      -4.838   2.006  -7.006  1.00  0.00    -0.014 A 
BRANCH  36  37
ATOM     37  C   UNL     1      -4.937   1.255  -8.287  1.00  0.00     0.031 A 
ATOM     38  C   UNL     1      -6.282   0.777  -8.766  1.00  0.00     0.074 A 
ATOM     39  C   UNL     1      -3.816   0.881  -8.938  1.00  0.00     0.049 A 
ATOM     40  N   UNL     1      -6.565  -0.078  -9.714  1.00  0.00    -0.248 NA
ATOM     41  C   UNL     1      -7.460   1.289  -8.046  1.00  0.00     0.031 C 
ATOM     42  C   UNL     1      -2.445   1.232  -8.554  1.00  0.00     0.029 A 
ATOM     43  N   UNL     1      -3.651   0.097 -10.054  1.00  0.00    -0.354 N 
ATOM     44  C   UNL     1      -7.944  -0.246  -9.667  1.00  0.00     0.074 A 
ATOM     45  C   UNL     1      -8.434   0.562  -8.572  1.00  0.00     0.031 C 
ATOM     46  C   UNL     1      -1.586   0.690  -9.432  1.00  0.00     0.029 A 
ATOM     47  C   UNL     1      -2.334  -0.094 -10.408  1.00  0.00     0.049 A 
ATOM     48  H   UNL     1      -4.404  -0.293 -10.555  1.00  0.00     0.167 HD
ATOM     49  C   UNL     1      -8.735  -0.993 -10.473  1.00  0.00     0.031 A 
ATOM     50  C   UNL     1      -1.788  -0.831 -11.395  1.00  0.00     0.031 A 
ATOM     51  C   UNL     1      -8.250  -1.751 -11.594  1.00  0.00     0.049 A 
ATOM     52  C   UNL     1      -2.689  -1.617 -12.307  1.00  0.00     0.074 A 
ATOM     53  C   UNL     1      -8.976  -2.482 -12.517  1.00  0.00     0.029 A 
ATOM     54  N   UNL     1      -6.916  -1.861 -11.954  1.00  0.00    -0.354 N 
ATOM     55  N   UNL     1      -3.995  -1.732 -12.272  1.00  0.00    -0.248 NA
ATOM     56  C   UNL     1      -2.046  -2.367 -13.395  1.00  0.00     0.031 C 
ATOM     57  C   UNL     1      -8.078  -3.058 -13.420  1.00  0.00     0.029 A 
ATOM     58  C   UNL     1      -6.796  -2.649 -13.085  1.00  0.00     0.049 A 
ATOM     59  H   UNL     1      -6.165  -1.440 -11.476  1.00  0.00     0.167 HD
ATOM     60  C   UNL     1      -4.332  -2.540 -13.351  1.00  0.00     0.074 A 
ATOM     61  C   UNL     1      -3.095  -2.883 -14.022  1.00  0.00     0.031 C 
ATOM     62  C   UNL     1      -5.557  -2.959 -13.751  1.00  0.00     0.031 A 
BRANCH  49  63
ATOM     63  C   UNL     1     -10.210  -1.017 -10.170  1.00  0.00    -0.014 A 
ATOM     64  C   UNL     1     -11.011   0.120 -10.377  1.00  0.00     0.010 A 
ATOM     65  C   UNL     1     -10.806  -2.197  -9.691  1.00  0.00     0.010 A 
ATOM     66  C   UNL     1     -12.371   0.094 -10.059  1.00  0.00     0.020 A 
ATOM     67  C   UNL     1     -12.173  -2.236  -9.401  1.00  0.00     0.020 A 
ATOM     68  C   UNL     1     -12.942  -1.083  -9.566  1.00  0.00     0.054 A 
BRANCH  68  69
ATOM     69  S   UNL     1     -14.712  -1.092  -9.170  1.00  0.00     0.124 S 
ATOM     70  O   UNL     1     -14.740  -0.358  -7.907  1.00  0.00    -0.237 OA
ATOM     71  O   UNL     1     -15.302  -0.397 -10.311  1.00  0.00    -0.237 OA
ATOM     72  O   UNL     1     -15.038  -2.512  -9.073  1.00  0.00    -0.744 OA
ENDBRANCH  68  69
ENDBRANCH  49  63
BRANCH  50  73
ATOM     73  C   UNL     1      -0.311  -0.842 -11.587  1.00  0.00    -0.014 A 
ATOM     74  C   UNL     1       0.263  -0.162 -12.676  1.00  0.00     0.010 A 
ATOM     75  C   UNL     1       0.530  -1.511 -10.680  1.00  0.00     0.010 A 
ATOM     76  C   UNL     1       1.648  -0.167 -12.866  1.00  0.00     0.020 A 
ATOM     77  C   UNL     1       1.918  -1.498 -10.852  1.00  0.00     0.020 A 
ATOM     78  C   UNL     1       2.467  -0.835 -11.952  1.00  0.00     0.054 A 
BRANCH  78  79
ATOM     79  S   UNL     1       4.266  -0.786 -12.192  1.00  0.00     0.124 S 
ATOM     80  O   UNL     1       4.450  -1.722 -13.296  1.00  0.00    -0.237 OA
ATOM     81  O   UNL     1       4.506   0.620 -12.508  1.00  0.00    -0.237 OA
ATOM     82  O   UNL     1       4.794  -1.225 -10.902  1.00  0.00    -0.744 OA
ENDBRANCH  78  79
ENDBRANCH  50  73
BRANCH  62  83
ATOM     83  C   UNL     1      -5.639  -3.788 -15.002  1.00  0.00    -0.014 A 
ATOM     84  C   UNL     1      -5.282  -5.147 -14.999  1.00  0.00     0.010 A 
ATOM     85  C   UNL     1      -6.173  -3.217 -16.171  1.00  0.00     0.010 A 
ATOM     86  C   UNL     1      -5.451  -5.920 -16.150  1.00  0.00     0.020 A 
ATOM     87  C   UNL     1      -6.364  -3.993 -17.317  1.00  0.00     0.020 A 
ATOM     88  C   UNL     1      -5.995  -5.339 -17.300  1.00  0.00     0.054 A 
BRANCH  88  89
ATOM     89  S   UNL     1      -6.282  -6.383 -18.756  1.00  0.00     0.124 S 
ATOM     90  O   UNL     1      -4.931  -6.544 -19.286  1.00  0.00    -0.237 OA
ATOM     91  O   UNL     1      -6.877  -7.585 -18.178  1.00  0.00    -0.237 OA
ATOM     92  O   UNL     1      -7.185  -5.585 -19.582  1.00  0.00    -0.744 OA
ENDBRANCH  88  89
ENDBRANCH  62  83
ENDBRANCH  36  37
ENDBRANCH  28  31
ENDBRANCH  26  27
ENDBRANCH   1  26
TORSDOF 17
