REMARK SMILES Cc1nn(C)c(C)c1CNC(=O)N[C@H]1CC[C@@H](C(=O)NCCCNC(=O)c2ccc(-c3c4nc(c(-c5ccc(S(=O)(=O)[O-])cc5)c5ccc([nH]5)c(-c5ccc(S(=O)(=O)[O-])cc5)c5nc(c(-c6ccc(S(=O)(=O)[O-])cc6)c6ccc3[nH]6)C=C5)C=C4)cc2)C1
REMARK SMILES IDX 22 1 21 2 20 3 18 4 19 5 17 7 14 8 15 9 87 10 16 11 13 12
REMARK SMILES IDX 10 13 11 14 12 16 9 18 8 19 1 20 2 21 3 22 4 23 6 24 5 25
REMARK SMILES IDX 7 26 23 27 24 28 25 29 26 31 27 32 28 33 86 34 29 35 85 36
REMARK SMILES IDX 30 37 31 38 32 39 79 40 33 41 84 42 78 43 80 44 34 45 83 46
REMARK SMILES IDX 77 47 76 48 35 50 65 51 46 52 64 53 47 54 50 55 63 56 81 57
REMARK SMILES IDX 48 58 49 59 62 61 82 62 51 63 36 64 37 65 45 66 38 67 44 68
REMARK SMILES IDX 39 69 40 70 41 71 42 72 43 73 66 74 67 75 75 76 68 77 74 78
REMARK SMILES IDX 69 79 70 80 71 81 72 82 73 83 52 84 53 85 61 86 54 87 60 88
REMARK SMILES IDX 55 89 56 90 57 91 58 92 59 93
REMARK H PARENT 20 6 10 15 13 17 24 30 80 49 50 60
REMARK Flexibility Score: inf
ROOT
ATOM      1  C   UNL     1      -2.026   6.316  -2.633  1.00  0.00     0.042 C 
ENDROOT
BRANCH   1   2
ATOM      2  C   UNL     1      -1.959   4.871  -3.114  1.00  0.00     0.117 C 
BRANCH   2   3
ATOM      3  N   UNL     1      -1.247   4.722  -4.362  1.00  0.00    -0.356 N 
ATOM      4  C   UNL     1      -0.009   4.241  -4.631  1.00  0.00     0.223 C 
ATOM      5  O   UNL     1       0.259   4.053  -5.824  1.00  0.00    -0.275 OA
ATOM      6  H   UNL     1      -1.749   5.021  -5.155  1.00  0.00     0.163 HD
BRANCH   4   7
ATOM      7  C   UNL     1       1.021   3.854  -3.570  1.00  0.00     0.080 C 
ATOM      8  C   UNL     1       1.128   3.659  -1.107  1.00  0.00     0.084 C 
ATOM      9  C   UNL     1       1.606   2.368  -1.769  1.00  0.00     0.026 C 
ATOM     10  C   UNL     1       1.155   4.669  -2.274  1.00  0.00     0.038 C 
ATOM     11  C   UNL     1       0.916   2.392  -3.133  1.00  0.00     0.015 C 
BRANCH   8  12
ATOM     12  N   UNL     1      -0.208   3.429  -0.550  1.00  0.00    -0.335 N 
ATOM     13  N   UNL     1      -0.487   4.935   1.230  1.00  0.00    -0.334 N 
ATOM     14  C   UNL     1      -0.984   4.142   0.280  1.00  0.00     0.315 C 
ATOM     15  H   UNL     1      -1.018   5.737   1.438  1.00  0.00     0.165 HD
ATOM     16  O   UNL     1      -2.204   4.060   0.133  1.00  0.00    -0.249 OA
ATOM     17  H   UNL     1      -0.617   2.583  -0.844  1.00  0.00     0.165 HD
BRANCH  13  18
ATOM     18  C   UNL     1       0.723   4.773   1.990  1.00  0.00     0.157 C 
BRANCH  18  19
ATOM     19  C   UNL     1       1.432   6.068   2.179  1.00  0.00     0.015 A 
ATOM     20  C   UNL     1       3.043   5.319   4.108  1.00  0.00     0.069 C 
ATOM     21  C   UNL     1       2.452   6.286   3.149  1.00  0.00     0.065 A 
ATOM     22  N   UNL     1       2.881   7.548   3.149  1.00  0.00    -0.178 NA
ATOM     23  N   UNL     1       2.126   8.158   2.221  1.00  0.00    -0.272 N 
ATOM     24  C   UNL     1       1.317   7.292   1.526  1.00  0.00     0.040 A 
ATOM     25  C   UNL     1       2.228   9.596   2.098  1.00  0.00     0.174 C 
ATOM     26  C   UNL     1       0.503   7.725   0.360  1.00  0.00     0.067 C 
ENDBRANCH  18  19
ENDBRANCH  13  18
ENDBRANCH   8  12
ENDBRANCH   4   7
ENDBRANCH   2   3
ENDBRANCH   1   2
BRANCH   1  27
ATOM     27  C   UNL     1      -3.431   6.894  -2.700  1.00  0.00     0.118 C 
BRANCH  27  28
ATOM     28  N   UNL     1      -4.366   6.224  -1.803  1.00  0.00    -0.352 N 
ATOM     29  C   UNL     1      -5.287   6.735  -0.921  1.00  0.00     0.251 C 
ATOM     30  H   UNL     1      -4.332   5.240  -1.835  1.00  0.00     0.163 HD
ATOM     31  O   UNL     1      -5.946   5.973  -0.218  1.00  0.00    -0.269 OA
BRANCH  29  32
ATOM     32  C   UNL     1      -5.452   8.196  -0.770  1.00  0.00     0.039 A 
ATOM     33  C   UNL     1      -5.611   8.721   0.516  1.00  0.00     0.014 A 
ATOM     34  C   UNL     1      -5.424   9.050  -1.872  1.00  0.00     0.014 A 
ATOM     35  C   UNL     1      -5.664  10.104   0.701  1.00  0.00     0.010 A 
ATOM     36  C   UNL     1      -5.361  10.424  -1.677  1.00  0.00     0.010 A 
ATOM     37  C   UNL     1      -5.491  10.968  -0.391  1.00  0.00    -0.014 A 
BRANCH  37  38
ATOM     38  C   UNL     1      -5.470  12.444  -0.227  1.00  0.00     0.031 A 
ATOM     39  C   UNL     1      -6.480  13.287  -0.961  1.00  0.00     0.074 A 
ATOM     40  C   UNL     1      -4.499  13.027   0.503  1.00  0.00     0.049 A 
ATOM     41  N   UNL     1      -6.551  14.589  -1.063  1.00  0.00    -0.248 NA
ATOM     42  C   UNL     1      -7.522  12.571  -1.717  1.00  0.00     0.031 C 
ATOM     43  C   UNL     1      -3.433  12.323   1.223  1.00  0.00     0.029 A 
ATOM     44  N   UNL     1      -4.244  14.352   0.754  1.00  0.00    -0.354 N 
ATOM     45  C   UNL     1      -7.613  14.842  -1.923  1.00  0.00     0.074 A 
ATOM     46  C   UNL     1      -8.121  13.562  -2.359  1.00  0.00     0.031 C 
ATOM     47  C   UNL     1      -2.663  13.221   1.859  1.00  0.00     0.029 A 
ATOM     48  C   UNL     1      -3.147  14.563   1.557  1.00  0.00     0.049 A 
ATOM     49  H   UNL     1      -4.795  15.084   0.393  1.00  0.00     0.167 HD
ATOM     50  C   UNL     1      -8.137  16.033  -2.297  1.00  0.00     0.031 A 
ATOM     51  C   UNL     1      -2.590  15.709   1.994  1.00  0.00     0.031 A 
ATOM     52  C   UNL     1      -7.658  17.302  -1.821  1.00  0.00     0.049 A 
ATOM     53  C   UNL     1      -3.210  17.019   1.595  1.00  0.00     0.074 A 
ATOM     54  C   UNL     1      -8.161  18.564  -2.080  1.00  0.00     0.029 A 
ATOM     55  N   UNL     1      -6.572  17.467  -0.974  1.00  0.00    -0.354 N 
ATOM     56  N   UNL     1      -4.247  17.236   0.821  1.00  0.00    -0.248 NA
ATOM     57  C   UNL     1      -2.595  18.238   2.137  1.00  0.00     0.031 C 
ATOM     58  C   UNL     1      -7.355  19.497  -1.420  1.00  0.00     0.029 A 
ATOM     59  C   UNL     1      -6.383  18.811  -0.708  1.00  0.00     0.049 A 
ATOM     60  H   UNL     1      -6.019  16.736  -0.616  1.00  0.00     0.167 HD
ATOM     61  C   UNL     1      -4.426  18.615   0.807  1.00  0.00     0.074 A 
ATOM     62  C   UNL     1      -3.399  19.179   1.659  1.00  0.00     0.031 C 
ATOM     63  C   UNL     1      -5.359  19.348   0.151  1.00  0.00     0.031 A 
BRANCH  50  64
ATOM     64  C   UNL     1      -9.294  16.013  -3.262  1.00  0.00    -0.014 A 
ATOM     65  C   UNL     1     -10.556  15.526  -2.875  1.00  0.00     0.010 A 
ATOM     66  C   UNL     1      -9.126  16.513  -4.566  1.00  0.00     0.010 A 
ATOM     67  C   UNL     1     -11.613  15.493  -3.787  1.00  0.00     0.020 A 
ATOM     68  C   UNL     1     -10.190  16.512  -5.473  1.00  0.00     0.020 A 
ATOM     69  C   UNL     1     -11.423  15.984  -5.082  1.00  0.00     0.054 A 
BRANCH  69  70
ATOM     70  S   UNL     1     -12.819  15.950  -6.238  1.00  0.00     0.124 S 
ATOM     71  O   UNL     1     -12.898  14.530  -6.572  1.00  0.00    -0.237 OA
ATOM     72  O   UNL     1     -13.920  16.465  -5.428  1.00  0.00    -0.237 OA
ATOM     73  O   UNL     1     -12.389  16.823  -7.328  1.00  0.00    -0.744 OA
ENDBRANCH  69  70
ENDBRANCH  50  64
BRANCH  51  74
ATOM     74  C   UNL     1      -1.394  15.665   2.879  1.00  0.00    -0.014 A 
ATOM     75  C   UNL     1      -1.503  16.004   4.240  1.00  0.00     0.010 A 
ATOM     76  C   UNL     1      -0.143  15.272   2.371  1.00  0.00     0.010 A 
ATOM     77  C   UNL     1      -0.380  15.969   5.072  1.00  0.00     0.020 A 
ATOM     78  C   UNL     1       0.977  15.210   3.205  1.00  0.00     0.020 A 
ATOM     79  C   UNL     1       0.854  15.571   4.548  1.00  0.00     0.054 A 
BRANCH  79  80
ATOM     80  S   UNL     1       2.289  15.483   5.655  1.00  0.00     0.124 S 
ATOM     81  O   UNL     1       2.627  16.892   5.825  1.00  0.00    -0.237 OA
ATOM     82  O   UNL     1       1.739  14.816   6.833  1.00  0.00    -0.237 OA
ATOM     83  O   UNL     1       3.254  14.692   4.894  1.00  0.00    -0.744 OA
ENDBRANCH  79  80
ENDBRANCH  51  74
BRANCH  63  84
ATOM     84  C   UNL     1      -5.341  20.837   0.359  1.00  0.00    -0.014 A 
ATOM     85  C   UNL     1      -4.353  21.644  -0.230  1.00  0.00     0.010 A 
ATOM     86  C   UNL     1      -6.373  21.441   1.101  1.00  0.00     0.010 A 
ATOM     87  C   UNL     1      -4.384  23.030  -0.059  1.00  0.00     0.020 A 
ATOM     88  C   UNL     1      -6.422  22.828   1.251  1.00  0.00     0.020 A 
ATOM     89  C   UNL     1      -5.419  23.613   0.679  1.00  0.00     0.054 A 
BRANCH  89  90
ATOM     90  S   UNL     1      -5.467  25.419   0.840  1.00  0.00     0.124 S 
ATOM     91  O   UNL     1      -4.396  25.666   1.802  1.00  0.00    -0.237 OA
ATOM     92  O   UNL     1      -5.202  25.870  -0.524  1.00  0.00    -0.237 OA
ATOM     93  O   UNL     1      -6.818  25.688   1.328  1.00  0.00    -0.744 OA
ENDBRANCH  89  90
ENDBRANCH  63  84
ENDBRANCH  37  38
ENDBRANCH  29  32
ENDBRANCH  27  28
ENDBRANCH   1  27
TORSDOF 16
