REMARK SMILES O=C(NCCCNC(=O)[C@H]1CC2=c3ccccc3=N[C@H]2[C@@H](c2ccccc2)[NH2+]1)c1ccc(-c2c3nc(c(-c4ccc(S(=O)(=O)[O-])cc4)c4ccc([nH]4)c(-c4ccc(S(=O)(=O)[O-])cc4)c4nc(c(-c5ccc(S(=O)(=O)[O-])cc5)c5ccc2[nH]5)C=C4)C=C3)cc1
REMARK SMILES IDX 4 1 3 2 1 3 2 4 29 6 30 7 88 8 31 9 87 10 32 11 33 12 34 13
REMARK SMILES IDX 81 14 35 15 86 16 80 17 82 18 36 19 85 20 79 21 78 22 37 24
REMARK SMILES IDX 67 25 48 26 66 27 49 28 52 29 65 30 83 31 50 32 51 33 64 35
REMARK SMILES IDX 84 36 53 37 38 38 39 39 47 40 40 41 46 42 41 43 42 44 43 45
REMARK SMILES IDX 44 46 45 47 68 48 69 49 77 50 70 51 76 52 71 53 72 54 73 55
REMARK SMILES IDX 74 56 75 57 54 58 55 59 63 60 56 61 62 62 57 63 58 64 59 65
REMARK SMILES IDX 60 66 61 67 5 68 6 69 7 70 8 71 9 73 10 74 11 75 28 76 12 77
REMARK SMILES IDX 21 78 13 81 20 82 14 83 18 84 19 85 15 86 17 87 16 88 22 89
REMARK SMILES IDX 23 90 27 91 24 92 26 93 25 94
REMARK H PARENT 3 5 82 23 52 34 7 72 28 79 28 80
REMARK Flexibility Score: inf
ROOT
ATOM      1  C   UNL     1       4.563   1.500   0.529  1.00  0.00     0.118 C 
ENDROOT
BRANCH   1   2
ATOM      2  N   UNL     1       3.132   1.243   0.472  1.00  0.00    -0.352 N 
ATOM      3  O   UNL     1       1.196   0.301  -0.129  1.00  0.00    -0.269 OA
ATOM      4  C   UNL     1       2.417   0.181  -0.034  1.00  0.00     0.251 C 
ATOM      5  H   UNL     1       2.577   1.954   0.865  1.00  0.00     0.163 HD
BRANCH   4   6
ATOM      6  C   UNL     1       3.054  -1.093  -0.467  1.00  0.00     0.039 A 
ATOM      7  C   UNL     1       2.466  -1.801  -1.525  1.00  0.00     0.014 A 
ATOM      8  C   UNL     1       4.138  -1.663   0.204  1.00  0.00     0.014 A 
ATOM      9  C   UNL     1       2.971  -3.048  -1.919  1.00  0.00     0.010 A 
ATOM     10  C   UNL     1       4.685  -2.877  -0.233  1.00  0.00     0.010 A 
ATOM     11  C   UNL     1       4.095  -3.596  -1.284  1.00  0.00    -0.014 A 
BRANCH  11  12
ATOM     12  C   UNL     1       4.628  -4.934  -1.669  1.00  0.00     0.031 A 
ATOM     13  C   UNL     1       4.580  -6.082  -0.694  1.00  0.00     0.074 A 
ATOM     14  C   UNL     1       5.183  -5.125  -2.884  1.00  0.00     0.049 A 
ATOM     15  N   UNL     1       5.043  -7.300  -0.829  1.00  0.00    -0.248 NA
ATOM     16  C   UNL     1       3.942  -5.826   0.608  1.00  0.00     0.031 C 
ATOM     17  C   UNL     1       5.293  -4.108  -3.929  1.00  0.00     0.029 A 
ATOM     18  N   UNL     1       5.755  -6.243  -3.444  1.00  0.00    -0.354 N 
ATOM     19  C   UNL     1       4.768  -7.947   0.371  1.00  0.00     0.074 A 
ATOM     20  C   UNL     1       4.139  -6.976   1.238  1.00  0.00     0.031 C 
ATOM     21  C   UNL     1       5.865  -4.655  -5.013  1.00  0.00     0.029 A 
ATOM     22  C   UNL     1       6.208  -6.048  -4.728  1.00  0.00     0.049 A 
ATOM     23  H   UNL     1       5.834  -7.102  -2.970  1.00  0.00     0.167 HD
ATOM     24  C   UNL     1       4.998  -9.237   0.714  1.00  0.00     0.031 A 
ATOM     25  C   UNL     1       6.831  -6.884  -5.586  1.00  0.00     0.031 A 
ATOM     26  C   UNL     1       5.598 -10.214  -0.156  1.00  0.00     0.049 A 
ATOM     27  C   UNL     1       7.115  -8.302  -5.174  1.00  0.00     0.074 A 
ATOM     28  C   UNL     1       5.814 -11.559   0.091  1.00  0.00     0.029 A 
ATOM     29  N   UNL     1       6.078  -9.960  -1.432  1.00  0.00    -0.354 N 
ATOM     30  N   UNL     1       6.817  -8.902  -4.048  1.00  0.00    -0.248 NA
ATOM     31  C   UNL     1       7.817  -9.155  -6.144  1.00  0.00     0.031 C 
ATOM     32  C   UNL     1       6.482 -12.103  -1.008  1.00  0.00     0.029 A 
ATOM     33  C   UNL     1       6.623 -11.115  -1.969  1.00  0.00     0.049 A 
ATOM     34  H   UNL     1       6.038  -9.088  -1.888  1.00  0.00     0.167 HD
ATOM     35  C   UNL     1       7.283 -10.207  -4.177  1.00  0.00     0.074 A 
ATOM     36  C   UNL     1       7.872 -10.313  -5.495  1.00  0.00     0.031 C 
ATOM     37  C   UNL     1       7.223 -11.219  -3.277  1.00  0.00     0.031 A 
BRANCH  24  38
ATOM     38  C   UNL     1       4.596  -9.684   2.096  1.00  0.00    -0.014 A 
ATOM     39  C   UNL     1       5.585 -10.053   3.026  1.00  0.00     0.010 A 
ATOM     40  C   UNL     1       3.241  -9.826   2.448  1.00  0.00     0.010 A 
ATOM     41  C   UNL     1       5.230 -10.566   4.277  1.00  0.00     0.020 A 
ATOM     42  C   UNL     1       2.882 -10.311   3.709  1.00  0.00     0.020 A 
ATOM     43  C   UNL     1       3.879 -10.695   4.609  1.00  0.00     0.054 A 
BRANCH  43  44
ATOM     44  S   UNL     1       3.434 -11.347   6.242  1.00  0.00     0.124 S 
ATOM     45  O   UNL     1       3.627 -12.782   6.064  1.00  0.00    -0.237 OA
ATOM     46  O   UNL     1       4.391 -10.684   7.125  1.00  0.00    -0.237 OA
ATOM     47  O   UNL     1       2.047 -10.918   6.412  1.00  0.00    -0.744 OA
ENDBRANCH  43  44
ENDBRANCH  24  38
BRANCH  25  48
ATOM     48  C   UNL     1       7.185  -6.381  -6.942  1.00  0.00    -0.014 A 
ATOM     49  C   UNL     1       8.198  -5.418  -7.105  1.00  0.00     0.010 A 
ATOM     50  C   UNL     1       6.424  -6.770  -8.058  1.00  0.00     0.010 A 
ATOM     51  C   UNL     1       8.391  -4.796  -8.341  1.00  0.00     0.020 A 
ATOM     52  C   UNL     1       6.632  -6.168  -9.303  1.00  0.00     0.020 A 
ATOM     53  C   UNL     1       7.588  -5.158  -9.426  1.00  0.00     0.054 A 
BRANCH  53  54
ATOM     54  S   UNL     1       7.784  -4.257 -10.989  1.00  0.00     0.124 S 
ATOM     55  O   UNL     1       7.135  -2.985 -10.681  1.00  0.00    -0.237 OA
ATOM     56  O   UNL     1       9.229  -4.205 -11.152  1.00  0.00    -0.237 OA
ATOM     57  O   UNL     1       7.077  -5.098 -11.958  1.00  0.00    -0.744 OA
ENDBRANCH  53  54
ENDBRANCH  25  48
BRANCH  37  58
ATOM     58  C   UNL     1       7.819 -12.552  -3.651  1.00  0.00    -0.014 A 
ATOM     59  C   UNL     1       6.980 -13.667  -3.836  1.00  0.00     0.010 A 
ATOM     60  C   UNL     1       9.213 -12.736  -3.664  1.00  0.00     0.010 A 
ATOM     61  C   UNL     1       7.520 -14.947  -3.978  1.00  0.00     0.020 A 
ATOM     62  C   UNL     1       9.758 -14.012  -3.833  1.00  0.00     0.020 A 
ATOM     63  C   UNL     1       8.908 -15.114  -3.959  1.00  0.00     0.054 A 
BRANCH  63  64
ATOM     64  S   UNL     1       9.591 -16.790  -4.086  1.00  0.00     0.124 S 
ATOM     65  O   UNL     1       9.352 -17.322  -2.748  1.00  0.00    -0.237 OA
ATOM     66  O   UNL     1       8.788 -17.385  -5.152  1.00  0.00    -0.237 OA
ATOM     67  O   UNL     1      10.993 -16.564  -4.427  1.00  0.00    -0.744 OA
ENDBRANCH  63  64
ENDBRANCH  37  58
ENDBRANCH  11  12
ENDBRANCH   4   6
ENDBRANCH   1   2
BRANCH   1  68
ATOM     68  C   UNL     1       4.972   2.724  -0.291  1.00  0.00     0.042 C 
BRANCH  68  69
ATOM     69  C   UNL     1       4.737   4.080   0.383  1.00  0.00     0.118 C 
BRANCH  69  70
ATOM     70  N   UNL     1       5.797   4.415   1.329  1.00  0.00    -0.351 N 
ATOM     71  C   UNL     1       6.503   5.531   1.652  1.00  0.00     0.278 C 
ATOM     72  H   UNL     1       6.069   3.638   1.868  1.00  0.00     0.163 HD
ATOM     73  O   UNL     1       7.432   5.331   2.453  1.00  0.00    -0.268 OA
BRANCH  71  74
ATOM     74  C   UNL     1       6.268   6.987   1.161  1.00  0.00     0.277 C 
ATOM     75  C   UNL     1       7.544   7.547   0.442  1.00  0.00     0.109 C 
ATOM     76  N   UNL     1       4.981   7.253   0.480  1.00  0.00    -0.327 N 
ATOM     77  C   UNL     1       7.532   7.053  -0.972  1.00  0.00    -0.024 C 
ATOM     78  C   UNL     1       5.165   7.816  -0.870  1.00  0.00     0.243 C 
ATOM     79  H   UNL     1       4.444   7.915   1.041  1.00  0.00     0.347 HD
ATOM     80  H   UNL     1       4.492   6.363   0.381  1.00  0.00     0.347 HD
ATOM     81  C   UNL     1       8.302   6.077  -1.433  1.00  0.00     0.002 A 
ATOM     82  C   UNL     1       6.259   7.158  -1.765  1.00  0.00     0.196 C 
ATOM     83  C   UNL     1       9.566   5.554  -1.035  1.00  0.00     0.010 A 
ATOM     84  C   UNL     1       7.278   5.260  -2.126  1.00  0.00     0.066 A 
ATOM     85  N   UNL     1       6.076   5.763  -2.265  1.00  0.00    -0.270 NA
ATOM     86  C   UNL     1       9.881   4.297  -1.374  1.00  0.00     0.001 A 
ATOM     87  C   UNL     1       7.704   3.872  -2.447  1.00  0.00     0.028 A 
ATOM     88  C   UNL     1       8.926   3.450  -2.068  1.00  0.00     0.002 A 
BRANCH  78  89
ATOM     89  C   UNL     1       3.851   8.227  -1.509  1.00  0.00     0.012 A 
ATOM     90  C   UNL     1       2.933   7.314  -2.033  1.00  0.00     0.010 A 
ATOM     91  C   UNL     1       3.511   9.599  -1.525  1.00  0.00     0.010 A 
ATOM     92  C   UNL     1       1.708   7.762  -2.545  1.00  0.00     0.001 A 
ATOM     93  C   UNL     1       2.298  10.045  -2.044  1.00  0.00     0.001 A 
ATOM     94  C   UNL     1       1.392   9.122  -2.550  1.00  0.00     0.000 A 
ENDBRANCH  78  89
ENDBRANCH  71  74
ENDBRANCH  69  70
ENDBRANCH  68  69
ENDBRANCH   1  68
TORSDOF 14
