REMARK SMILES CCc1cc(C(=O)c2[nH]c3cc(Cl)ccc3c2CC(=O)NCCCNC(=O)c2ccc(-c3c4nc(c(-c5ccc(S(=O)(=O)[O-])cc5)c5ccc([nH]5)c(-c5ccc(S(=O)(=O)[O-])cc5)c5nc(c(-c6ccc(S(=O)(=O)[O-])cc6)c6ccc3[nH]6)C=C5)C=C4)cc2)ncc1Cl
REMARK SMILES IDX 22 1 21 2 19 3 20 4 18 6 17 7 8 8 9 9 10 10 16 12 11 13
REMARK SMILES IDX 15 14 12 15 14 16 13 17 6 18 7 19 5 20 3 21 4 22 90 23 89 24
REMARK SMILES IDX 91 25 88 26 2 27 1 28 23 29 24 30 25 31 26 32 27 34 28 35
REMARK SMILES IDX 29 36 87 37 30 38 86 39 31 40 32 41 33 42 80 43 34 44 85 45
REMARK SMILES IDX 79 46 81 47 35 48 84 49 78 50 77 51 36 53 66 54 47 55 65 56
REMARK SMILES IDX 48 57 51 58 64 59 82 60 49 61 50 62 63 64 83 65 52 66 37 67
REMARK SMILES IDX 38 68 46 69 39 70 45 71 40 72 41 73 42 74 43 75 44 76 67 77
REMARK SMILES IDX 68 78 76 79 69 80 75 81 70 82 71 83 72 84 73 85 74 86 53 87
REMARK SMILES IDX 54 88 62 89 55 90 61 91 56 92 57 93 58 94 59 95 60 96
REMARK H PARENT 21 5 9 11 25 33 81 52 51 63
REMARK Flexibility Score: inf
ROOT
ATOM      1  C   UNL     1      -0.158   8.747   1.344  1.00  0.00     0.117 C 
ENDROOT
BRANCH   1   2
ATOM      2  N   UNL     1       0.806   8.223   2.294  1.00  0.00    -0.356 N 
ATOM      3  C   UNL     1       1.588   7.106   2.218  1.00  0.00     0.224 C 
ATOM      4  O   UNL     1       2.472   6.958   3.067  1.00  0.00    -0.275 OA
ATOM      5  H   UNL     1       0.912   8.752   3.117  1.00  0.00     0.163 HD
BRANCH   3   6
ATOM      6  C   UNL     1       1.456   6.131   1.059  1.00  0.00     0.138 C 
BRANCH   6   7
ATOM      7  C   UNL     1       0.143   5.405   0.990  1.00  0.00    -0.002 A 
ATOM      8  C   UNL     1      -0.409   4.555   1.944  1.00  0.00     0.093 A 
ATOM      9  N   UNL     1      -1.670   4.215   1.511  1.00  0.00    -0.351 N 
ATOM     10  C   UNL     1      -1.875   4.659   0.229  1.00  0.00     0.048 A 
ATOM     11  H   UNL     1      -2.333   3.723   2.047  1.00  0.00     0.167 HD
ATOM     12  C   UNL     1      -0.757   5.409  -0.129  1.00  0.00     0.004 A 
ATOM     13  C   UNL     1      -2.969   4.466  -0.625  1.00  0.00     0.047 A 
ATOM     14  C   UNL     1      -0.727   5.999  -1.411  1.00  0.00     0.012 A 
ATOM     15  C   UNL     1      -2.905   5.054  -1.891  1.00  0.00     0.043 A 
ATOM     16  C   UNL     1      -1.805   5.811  -2.284  1.00  0.00     0.021 A 
ATOM     17  Cl  UNL     1      -4.210   4.832  -2.990  1.00  0.00    -0.084 Cl
BRANCH   8  18
ATOM     18  C   UNL     1       0.133   4.119   3.219  1.00  0.00     0.227 C 
ATOM     19  O   UNL     1       0.184   4.880   4.179  1.00  0.00    -0.285 OA
BRANCH  18  20
ATOM     20  C   UNL     1       0.611   2.687   3.338  1.00  0.00     0.113 A 
ATOM     21  C   UNL     1       0.861   0.421   2.485  1.00  0.00    -0.026 A 
ATOM     22  C   UNL     1       0.421   1.749   2.319  1.00  0.00     0.037 A 
ATOM     23  C   UNL     1       1.505   0.094   3.684  1.00  0.00     0.062 A 
ATOM     24  C   UNL     1       1.657   1.087   4.644  1.00  0.00     0.132 A 
ATOM     25  Cl  UNL     1       2.121  -1.478   4.025  1.00  0.00    -0.082 Cl
ATOM     26  N   UNL     1       1.224   2.362   4.503  1.00  0.00    -0.251 NA
BRANCH  21  27
ATOM     27  C   UNL     1       0.584  -0.578   1.384  1.00  0.00     0.034 C 
ATOM     28  C   UNL     1       1.322  -0.259   0.090  1.00  0.00     0.009 C 
ENDBRANCH  21  27
ENDBRANCH  18  20
ENDBRANCH   8  18
ENDBRANCH   6   7
ENDBRANCH   3   6
ENDBRANCH   1   2
BRANCH   1  29
ATOM     29  C   UNL     1      -1.609   8.437   1.704  1.00  0.00     0.042 C 
BRANCH  29  30
ATOM     30  C   UNL     1      -2.111   9.078   2.997  1.00  0.00     0.118 C 
BRANCH  30  31
ATOM     31  N   UNL     1      -2.216  10.526   2.902  1.00  0.00    -0.352 N 
ATOM     32  C   UNL     1      -3.283  11.364   3.115  1.00  0.00     0.251 C 
ATOM     33  H   UNL     1      -1.382  10.981   2.643  1.00  0.00     0.163 HD
ATOM     34  O   UNL     1      -3.166  12.551   2.811  1.00  0.00    -0.269 OA
BRANCH  32  35
ATOM     35  C   UNL     1      -4.567  10.880   3.680  1.00  0.00     0.039 A 
ATOM     36  C   UNL     1      -5.757  11.425   3.178  1.00  0.00     0.014 A 
ATOM     37  C   UNL     1      -4.624   9.974   4.743  1.00  0.00     0.014 A 
ATOM     38  C   UNL     1      -6.992  11.032   3.702  1.00  0.00     0.010 A 
ATOM     39  C   UNL     1      -5.861   9.551   5.241  1.00  0.00     0.010 A 
ATOM     40  C   UNL     1      -7.055  10.078   4.728  1.00  0.00    -0.014 A 
BRANCH  40  41
ATOM     41  C   UNL     1      -8.361   9.633   5.277  1.00  0.00     0.031 A 
ATOM     42  C   UNL     1      -8.786  10.038   6.661  1.00  0.00     0.074 A 
ATOM     43  C   UNL     1      -9.153   8.820   4.553  1.00  0.00     0.049 A 
ATOM     44  N   UNL     1      -9.848   9.674   7.335  1.00  0.00    -0.248 NA
ATOM     45  C   UNL     1      -7.894  10.956   7.384  1.00  0.00     0.031 C 
ATOM     46  C   UNL     1      -8.855   8.324   3.209  1.00  0.00     0.029 A 
ATOM     47  N   UNL     1     -10.368   8.259   4.857  1.00  0.00    -0.354 N 
ATOM     48  C   UNL     1      -9.732  10.284   8.578  1.00  0.00     0.074 A 
ATOM     49  C   UNL     1      -8.501  11.048   8.559  1.00  0.00     0.031 C 
ATOM     50  C   UNL     1      -9.864   7.535   2.802  1.00  0.00     0.029 A 
ATOM     51  C   UNL     1     -10.867   7.456   3.861  1.00  0.00     0.049 A 
ATOM     52  H   UNL     1     -10.837   8.416   5.708  1.00  0.00     0.167 HD
ATOM     53  C   UNL     1     -10.568  10.214   9.642  1.00  0.00     0.031 A 
ATOM     54  C   UNL     1     -11.999   6.730   3.804  1.00  0.00     0.031 A 
ATOM     55  C   UNL     1     -11.810   9.491   9.668  1.00  0.00     0.049 A 
ATOM     56  C   UNL     1     -12.949   6.726   4.964  1.00  0.00     0.074 A 
ATOM     57  C   UNL     1     -12.734   9.397  10.695  1.00  0.00     0.029 A 
ATOM     58  N   UNL     1     -12.308   8.745   8.613  1.00  0.00    -0.354 N 
ATOM     59  N   UNL     1     -12.827   7.322   6.125  1.00  0.00    -0.248 NA
ATOM     60  C   UNL     1     -14.189   5.954   4.804  1.00  0.00     0.031 C 
ATOM     61  C   UNL     1     -13.794   8.590  10.259  1.00  0.00     0.029 A 
ATOM     62  C   UNL     1     -13.528   8.189   8.960  1.00  0.00     0.049 A 
ATOM     63  H   UNL     1     -11.861   8.628   7.744  1.00  0.00     0.167 HD
ATOM     64  C   UNL     1     -13.976   6.999   6.835  1.00  0.00     0.074 A 
ATOM     65  C   UNL     1     -14.786   6.162   5.972  1.00  0.00     0.031 C 
ATOM     66  C   UNL     1     -14.325   7.362   8.093  1.00  0.00     0.031 A 
BRANCH  53  67
ATOM     67  C   UNL     1     -10.128  10.934  10.882  1.00  0.00    -0.014 A 
ATOM     68  C   UNL     1     -10.340  12.316  11.025  1.00  0.00     0.010 A 
ATOM     69  C   UNL     1      -9.465  10.225  11.898  1.00  0.00     0.010 A 
ATOM     70  C   UNL     1      -9.848  12.990  12.146  1.00  0.00     0.020 A 
ATOM     71  C   UNL     1      -8.981  10.894  13.024  1.00  0.00     0.020 A 
ATOM     72  C   UNL     1      -9.154  12.277  13.128  1.00  0.00     0.054 A 
BRANCH  72  73
ATOM     73  S   UNL     1      -8.483  13.153  14.569  1.00  0.00     0.124 S 
ATOM     74  O   UNL     1      -7.129  13.466  14.122  1.00  0.00    -0.237 OA
ATOM     75  O   UNL     1      -9.377  14.300  14.710  1.00  0.00    -0.237 OA
ATOM     76  O   UNL     1      -8.578  12.161  15.637  1.00  0.00    -0.744 OA
ENDBRANCH  72  73
ENDBRANCH  53  67
BRANCH  54  77
ATOM     77  C   UNL     1     -12.290   5.946   2.580  1.00  0.00    -0.014 A 
ATOM     78  C   UNL     1     -13.081   6.499   1.560  1.00  0.00     0.010 A 
ATOM     79  C   UNL     1     -11.718   4.675   2.405  1.00  0.00     0.010 A 
ATOM     80  C   UNL     1     -13.285   5.796   0.370  1.00  0.00     0.020 A 
ATOM     81  C   UNL     1     -11.915   3.973   1.213  1.00  0.00     0.020 A 
ATOM     82  C   UNL     1     -12.698   4.539   0.203  1.00  0.00     0.054 A 
BRANCH  82  83
ATOM     83  S   UNL     1     -12.870   3.676  -1.384  1.00  0.00     0.124 S 
ATOM     84  O   UNL     1     -14.079   2.888  -1.170  1.00  0.00    -0.237 OA
ATOM     85  O   UNL     1     -12.991   4.771  -2.343  1.00  0.00    -0.237 OA
ATOM     86  O   UNL     1     -11.628   2.912  -1.480  1.00  0.00    -0.744 OA
ENDBRANCH  82  83
ENDBRANCH  54  77
BRANCH  66  87
ATOM     87  C   UNL     1     -15.642   6.861   8.606  1.00  0.00    -0.014 A 
ATOM     88  C   UNL     1     -15.742   5.585   9.187  1.00  0.00     0.010 A 
ATOM     89  C   UNL     1     -16.781   7.681   8.536  1.00  0.00     0.010 A 
ATOM     90  C   UNL     1     -16.969   5.127   9.674  1.00  0.00     0.020 A 
ATOM     91  C   UNL     1     -18.008   7.227   9.027  1.00  0.00     0.020 A 
ATOM     92  C   UNL     1     -18.097   5.948   9.582  1.00  0.00     0.054 A 
BRANCH  92  93
ATOM     93  S   UNL     1     -19.682   5.366  10.249  1.00  0.00     0.124 S 
ATOM     94  O   UNL     1     -20.261   4.680   9.098  1.00  0.00    -0.237 OA
ATOM     95  O   UNL     1     -19.281   4.503  11.358  1.00  0.00    -0.237 OA
ATOM     96  O   UNL     1     -20.354   6.602  10.644  1.00  0.00    -0.744 OA
ENDBRANCH  92  93
ENDBRANCH  66  87
ENDBRANCH  40  41
ENDBRANCH  32  35
ENDBRANCH  30  31
ENDBRANCH  29  30
ENDBRANCH   1  29
TORSDOF 17
