REMARK SMILES C[NH2+][C@]1(C(=O)NCCCNC(=O)c2ccc(-c3c4nc(c(-c5ccc(S(=O)(=O)[O-])cc5)c5ccc([nH]5)c(-c5ccc(S(=O)(=O)[O-])cc5)c5nc(c(-c6ccc(S(=O)(=O)[O-])cc6)c6ccc3[nH]6)C=C5)C=C4)cc2)CC[C@@H]([N@@H+](C)C[C@@H]2CCCCO2)C1
REMARK SMILES IDX 8 1 7 2 6 3 4 4 5 5 3 7 73 8 85 9 74 10 75 11 2 12 1 13
REMARK SMILES IDX 76 16 77 17 78 19 79 20 80 21 84 22 81 23 83 24 82 25 9 26
REMARK SMILES IDX 10 27 11 28 12 30 13 31 14 32 72 33 15 34 71 35 16 36 17 37
REMARK SMILES IDX 18 38 65 39 19 40 70 41 64 42 66 43 20 44 69 45 63 46 62 47
REMARK SMILES IDX 21 49 51 50 32 51 50 52 33 53 36 54 49 55 67 56 34 57 35 58
REMARK SMILES IDX 48 60 68 61 37 62 22 63 23 64 31 65 24 66 30 67 25 68 26 69
REMARK SMILES IDX 27 70 28 71 29 72 52 73 53 74 61 75 54 76 60 77 55 78 56 79
REMARK SMILES IDX 57 80 58 81 59 82 38 83 39 84 47 85 40 86 46 87 41 88 42 89
REMARK SMILES IDX 43 90 44 91 45 92
REMARK H PARENT 6 6 2 14 2 15 76 18 10 29 66 48 36 59
REMARK Flexibility Score: inf
ROOT
ATOM      1  C   UNL     1       1.346   0.075  -1.879  1.00  0.00     0.042 C 
ENDROOT
BRANCH   1   2
ATOM      2  C   UNL     1       1.092  -1.111  -0.963  1.00  0.00     0.118 C 
BRANCH   2   3
ATOM      3  N   UNL     1       1.675  -0.977   0.355  1.00  0.00    -0.351 N 
ATOM      4  C   UNL     1       1.088  -1.026   1.587  1.00  0.00     0.281 C 
ATOM      5  O   UNL     1       1.852  -0.910   2.556  1.00  0.00    -0.268 OA
ATOM      6  H   UNL     1       2.647  -0.827   0.365  1.00  0.00     0.163 HD
BRANCH   4   7
ATOM      7  C   UNL     1      -0.471  -1.073   1.793  1.00  0.00     0.181 C 
ATOM      8  C   UNL     1      -1.026   0.247   1.264  1.00  0.00     0.085 C 
ATOM      9  C   UNL     1      -1.221  -2.180   1.003  1.00  0.00     0.144 C 
ATOM     10  C   UNL     1      -2.424  -0.077   0.813  1.00  0.00     0.072 C 
ATOM     11  C   UNL     1      -2.486  -1.527   0.377  1.00  0.00     0.191 C 
BRANCH   7  12
ATOM     12  N   UNL     1      -0.708  -1.250   3.258  1.00  0.00    -0.336 N 
ATOM     13  C   UNL     1      -2.022  -0.923   3.780  1.00  0.00     0.331 C 
ATOM     14  H   UNL     1      -0.529  -2.230   3.478  1.00  0.00     0.346 HD
ATOM     15  H   UNL     1      -0.082  -0.577   3.701  1.00  0.00     0.346 HD
ENDBRANCH   7  12
BRANCH  11  16
ATOM     16  N   UNL     1      -2.660  -1.785  -1.062  1.00  0.00    -0.333 N 
ATOM     17  C   UNL     1      -3.791  -2.661  -1.370  1.00  0.00     0.333 C 
ATOM     18  H   UNL     1      -1.763  -2.258  -1.172  1.00  0.00     0.348 HD
BRANCH  16  19
ATOM     19  C   UNL     1      -2.467  -0.750  -2.102  1.00  0.00     0.294 C 
BRANCH  19  20
ATOM     20  C   UNL     1      -3.368   0.509  -2.432  1.00  0.00     0.173 C 
ATOM     21  C   UNL     1      -2.826   1.895  -2.010  1.00  0.00     0.038 C 
ATOM     22  O   UNL     1      -4.764   0.365  -2.212  1.00  0.00    -0.372 OA
ATOM     23  C   UNL     1      -3.480   2.579  -0.809  1.00  0.00     0.005 C 
ATOM     24  C   UNL     1      -5.195   0.649  -0.894  1.00  0.00     0.161 C 
ATOM     25  C   UNL     1      -4.863   2.061  -0.435  1.00  0.00     0.029 C 
ENDBRANCH  19  20
ENDBRANCH  16  19
ENDBRANCH  11  16
ENDBRANCH   4   7
ENDBRANCH   2   3
ENDBRANCH   1   2
BRANCH   1  26
ATOM     26  C   UNL     1       2.785   0.211  -2.335  1.00  0.00     0.118 C 
BRANCH  26  27
ATOM     27  N   UNL     1       3.260  -0.976  -3.032  1.00  0.00    -0.352 N 
ATOM     28  C   UNL     1       3.727  -1.133  -4.313  1.00  0.00     0.251 C 
ATOM     29  H   UNL     1       3.244  -1.802  -2.496  1.00  0.00     0.163 HD
ATOM     30  O   UNL     1       3.875  -2.264  -4.762  1.00  0.00    -0.269 OA
BRANCH  28  31
ATOM     31  C   UNL     1       4.036   0.047  -5.149  1.00  0.00     0.039 A 
ATOM     32  C   UNL     1       3.772  -0.007  -6.520  1.00  0.00     0.014 A 
ATOM     33  C   UNL     1       4.612   1.193  -4.596  1.00  0.00     0.014 A 
ATOM     34  C   UNL     1       4.033   1.107  -7.320  1.00  0.00     0.010 A 
ATOM     35  C   UNL     1       4.769   2.335  -5.370  1.00  0.00     0.010 A 
ATOM     36  C   UNL     1       4.503   2.299  -6.745  1.00  0.00    -0.014 A 
BRANCH  36  37
ATOM     37  C   UNL     1       4.752   3.511  -7.564  1.00  0.00     0.031 A 
ATOM     38  C   UNL     1       6.141   4.090  -7.644  1.00  0.00     0.074 A 
ATOM     39  C   UNL     1       3.722   4.125  -8.178  1.00  0.00     0.049 A 
ATOM     40  N   UNL     1       6.546   5.177  -8.248  1.00  0.00    -0.248 NA
ATOM     41  C   UNL     1       7.207   3.370  -6.926  1.00  0.00     0.031 C 
ATOM     42  C   UNL     1       2.326   3.683  -8.141  1.00  0.00     0.029 A 
ATOM     43  N   UNL     1       3.689   5.259  -8.950  1.00  0.00    -0.354 N 
ATOM     44  C   UNL     1       7.904   5.282  -7.965  1.00  0.00     0.074 A 
ATOM     45  C   UNL     1       8.241   4.183  -7.089  1.00  0.00     0.031 C 
ATOM     46  C   UNL     1       1.581   4.516  -8.886  1.00  0.00     0.029 A 
ATOM     47  C   UNL     1       2.434   5.576  -9.412  1.00  0.00     0.049 A 
ATOM     48  H   UNL     1       4.490   5.795  -9.155  1.00  0.00     0.167 HD
ATOM     49  C   UNL     1       8.795   6.198  -8.412  1.00  0.00     0.031 A 
ATOM     50  C   UNL     1       2.014   6.609 -10.167  1.00  0.00     0.031 A 
ATOM     51  C   UNL     1       8.455   7.281  -9.295  1.00  0.00     0.049 A 
ATOM     52  C   UNL     1       3.021   7.622 -10.642  1.00  0.00     0.074 A 
ATOM     53  C   UNL     1       9.294   8.229  -9.855  1.00  0.00     0.029 A 
ATOM     54  N   UNL     1       7.174   7.562  -9.747  1.00  0.00    -0.354 N 
ATOM     55  N   UNL     1       4.313   7.666 -10.419  1.00  0.00    -0.248 NA
ATOM     56  C   UNL     1       2.515   8.716 -11.482  1.00  0.00     0.031 C 
ATOM     57  C   UNL     1       8.510   9.120 -10.595  1.00  0.00     0.029 A 
ATOM     58  C   UNL     1       7.195   8.685 -10.555  1.00  0.00     0.049 A 
ATOM     59  H   UNL     1       6.370   7.040  -9.525  1.00  0.00     0.167 HD
ATOM     60  C   UNL     1       4.780   8.773 -11.120  1.00  0.00     0.074 A 
ATOM     61  C   UNL     1       3.634   9.361 -11.782  1.00  0.00     0.031 C 
ATOM     62  C   UNL     1       6.044   9.257 -11.209  1.00  0.00     0.031 A 
BRANCH  49  63
ATOM     63  C   UNL     1      10.222   6.072  -7.943  1.00  0.00    -0.014 A 
ATOM     64  C   UNL     1      11.034   4.998  -8.352  1.00  0.00     0.010 A 
ATOM     65  C   UNL     1      10.772   7.062  -7.108  1.00  0.00     0.010 A 
ATOM     66  C   UNL     1      12.352   4.893  -7.900  1.00  0.00     0.020 A 
ATOM     67  C   UNL     1      12.100   6.979  -6.681  1.00  0.00     0.020 A 
ATOM     68  C   UNL     1      12.877   5.885  -7.066  1.00  0.00     0.054 A 
BRANCH  68  69
ATOM     69  S   UNL     1      14.598   5.735  -6.515  1.00  0.00     0.124 S 
ATOM     70  O   UNL     1      14.515   4.623  -5.570  1.00  0.00    -0.237 OA
ATOM     71  O   UNL     1      15.308   5.449  -7.759  1.00  0.00    -0.237 OA
ATOM     72  O   UNL     1      14.887   7.037  -5.920  1.00  0.00    -0.744 OA
ENDBRANCH  68  69
ENDBRANCH  49  63
BRANCH  50  73
ATOM     73  C   UNL     1       0.576   6.728 -10.534  1.00  0.00    -0.014 A 
ATOM     74  C   UNL     1       0.160   6.537 -11.864  1.00  0.00     0.010 A 
ATOM     75  C   UNL     1      -0.389   7.021  -9.553  1.00  0.00     0.010 A 
ATOM     76  C   UNL     1      -1.190   6.659 -12.209  1.00  0.00     0.020 A 
ATOM     77  C   UNL     1      -1.742   7.112  -9.888  1.00  0.00     0.020 A 
ATOM     78  C   UNL     1      -2.133   6.944 -11.217  1.00  0.00     0.054 A 
BRANCH  78  79
ATOM     79  S   UNL     1      -3.883   7.053 -11.682  1.00  0.00     0.124 S 
ATOM     80  O   UNL     1      -3.923   8.310 -12.422  1.00  0.00    -0.237 OA
ATOM     81  O   UNL     1      -4.073   5.842 -12.477  1.00  0.00    -0.237 OA
ATOM     82  O   UNL     1      -4.578   7.060 -10.396  1.00  0.00    -0.744 OA
ENDBRANCH  78  79
ENDBRANCH  50  73
BRANCH  62  83
ATOM     83  C   UNL     1       6.267  10.458 -12.090  1.00  0.00    -0.014 A 
ATOM     84  C   UNL     1       5.799  11.733 -11.727  1.00  0.00     0.010 A 
ATOM     85  C   UNL     1       7.010  10.313 -13.277  1.00  0.00     0.010 A 
ATOM     86  C   UNL     1       6.041  12.835 -12.552  1.00  0.00     0.020 A 
ATOM     87  C   UNL     1       7.283  11.417 -14.087  1.00  0.00     0.020 A 
ATOM     88  C   UNL     1       6.783  12.669 -13.726  1.00  0.00     0.054 A 
BRANCH  88  89
ATOM     89  S   UNL     1       7.121  14.123 -14.756  1.00  0.00     0.124 S 
ATOM     90  O   UNL     1       5.811  14.391 -15.343  1.00  0.00    -0.237 OA
ATOM     91  O   UNL     1       7.585  15.106 -13.779  1.00  0.00    -0.237 OA
ATOM     92  O   UNL     1       8.139  13.656 -15.694  1.00  0.00    -0.744 OA
ENDBRANCH  88  89
ENDBRANCH  62  83
ENDBRANCH  36  37
ENDBRANCH  28  31
ENDBRANCH  26  27
ENDBRANCH   1  26
TORSDOF 17
