REMARK SMILES O=C(NCCCNC(=O)[C@@]1(Nc2ccc(Cl)c(Br)c2)CCCOCC1)c1ccc(-c2c3nc(c(-c4ccc(S(=O)(=O)[O-])cc4)c4ccc([nH]4)c(-c4ccc(S(=O)(=O)[O-])cc4)c4nc(c(-c5ccc(S(=O)(=O)[O-])cc5)c5ccc2[nH]5)C=C4)C=C3)cc1
REMARK SMILES IDX 5 1 4 2 3 3 1 4 2 5 26 7 27 8 85 9 28 10 84 11 29 12 30 13
REMARK SMILES IDX 31 14 78 15 32 16 83 17 77 18 79 19 33 20 82 21 76 22 75 23
REMARK SMILES IDX 34 25 64 26 45 27 63 28 46 29 49 30 62 31 80 32 47 33 48 34
REMARK SMILES IDX 61 36 81 37 50 38 35 39 36 40 44 41 37 42 43 43 38 44 39 45
REMARK SMILES IDX 40 46 41 47 42 48 65 49 66 50 74 51 67 52 73 53 68 54 69 55
REMARK SMILES IDX 70 56 71 57 72 58 51 59 52 60 60 61 53 62 59 63 54 64 55 65
REMARK SMILES IDX 56 66 57 67 58 68 6 69 7 70 8 71 9 73 10 74 20 75 21 76
REMARK SMILES IDX 25 78 24 79 23 80 22 81 11 83 12 85 13 86 19 87 14 88 17 89
REMARK SMILES IDX 15 90 18 91 16 92
REMARK H PARENT 3 6 79 24 49 35 7 72 11 84
REMARK Flexibility Score: 90.00
ROOT
ATOM      1  C   UNL     1       2.707  -0.186  -8.057  1.00  0.00     0.042 C 
ENDROOT
BRANCH   1   2
ATOM      2  C   UNL     1       2.567   0.155  -9.533  1.00  0.00     0.118 C 
BRANCH   2   3
ATOM      3  N   UNL     1       3.210  -0.812 -10.419  1.00  0.00    -0.352 N 
ATOM      4  O   UNL     1       3.556  -2.673 -11.618  1.00  0.00    -0.269 OA
ATOM      5  C   UNL     1       2.751  -1.947 -11.054  1.00  0.00     0.251 C 
ATOM      6  H   UNL     1       4.158  -0.615 -10.598  1.00  0.00     0.163 HD
BRANCH   5   7
ATOM      7  C   UNL     1       1.314  -2.313 -11.029  1.00  0.00     0.039 A 
ATOM      8  C   UNL     1       0.940  -3.661 -11.044  1.00  0.00     0.014 A 
ATOM      9  C   UNL     1       0.324  -1.339 -11.022  1.00  0.00     0.014 A 
ATOM     10  C   UNL     1      -0.415  -4.009 -10.982  1.00  0.00     0.010 A 
ATOM     11  C   UNL     1      -0.994  -1.680 -10.769  1.00  0.00     0.010 A 
ATOM     12  C   UNL     1      -1.395  -3.019 -10.802  1.00  0.00    -0.014 A 
BRANCH  12  13
ATOM     13  C   UNL     1      -2.849  -3.322 -10.739  1.00  0.00     0.031 A 
ATOM     14  C   UNL     1      -3.795  -2.635 -11.697  1.00  0.00     0.074 A 
ATOM     15  C   UNL     1      -3.333  -4.145  -9.789  1.00  0.00     0.049 A 
ATOM     16  N   UNL     1      -5.103  -2.648 -11.719  1.00  0.00    -0.248 NA
ATOM     17  C   UNL     1      -3.196  -1.770 -12.731  1.00  0.00     0.031 C 
ATOM     18  C   UNL     1      -2.534  -4.825  -8.768  1.00  0.00     0.029 A 
ATOM     19  N   UNL     1      -4.618  -4.554  -9.532  1.00  0.00    -0.354 N 
ATOM     20  C   UNL     1      -5.470  -1.774 -12.738  1.00  0.00     0.074 A 
ATOM     21  C   UNL     1      -4.260  -1.169 -13.238  1.00  0.00     0.031 C 
ATOM     22  C   UNL     1      -3.336  -5.614  -8.037  1.00  0.00     0.029 A 
ATOM     23  C   UNL     1      -4.712  -5.459  -8.502  1.00  0.00     0.049 A 
ATOM     24  H   UNL     1      -5.398  -4.230 -10.037  1.00  0.00     0.167 HD
ATOM     25  C   UNL     1      -6.697  -1.540 -13.259  1.00  0.00     0.031 A 
ATOM     26  C   UNL     1      -5.782  -6.104  -7.995  1.00  0.00     0.031 A 
ATOM     27  C   UNL     1      -7.889  -2.200 -12.805  1.00  0.00     0.049 A 
ATOM     28  C   UNL     1      -7.132  -5.868  -8.611  1.00  0.00     0.074 A 
ATOM     29  C   UNL     1      -9.177  -2.076 -13.293  1.00  0.00     0.029 A 
ATOM     30  N   UNL     1      -7.933  -3.134 -11.780  1.00  0.00    -0.354 N 
ATOM     31  N   UNL     1      -7.456  -5.056  -9.589  1.00  0.00    -0.248 NA
ATOM     32  C   UNL     1      -8.256  -6.642  -8.071  1.00  0.00     0.031 C 
ATOM     33  C   UNL     1     -10.008  -2.906 -12.535  1.00  0.00     0.029 A 
ATOM     34  C   UNL     1      -9.227  -3.593 -11.617  1.00  0.00     0.049 A 
ATOM     35  H   UNL     1      -7.158  -3.426 -11.249  1.00  0.00     0.167 HD
ATOM     36  C   UNL     1      -8.821  -5.226  -9.789  1.00  0.00     0.074 A 
ATOM     37  C   UNL     1      -9.255  -6.240  -8.848  1.00  0.00     0.031 C 
ATOM     38  C   UNL     1      -9.641  -4.596 -10.666  1.00  0.00     0.031 A 
BRANCH  25  39
ATOM     39  C   UNL     1      -6.797  -0.576 -14.415  1.00  0.00    -0.014 A 
ATOM     40  C   UNL     1      -7.516   0.624 -14.280  1.00  0.00     0.010 A 
ATOM     41  C   UNL     1      -6.218  -0.886 -15.661  1.00  0.00     0.010 A 
ATOM     42  C   UNL     1      -7.663   1.490 -15.369  1.00  0.00     0.020 A 
ATOM     43  C   UNL     1      -6.329  -0.006 -16.740  1.00  0.00     0.020 A 
ATOM     44  C   UNL     1      -7.069   1.168 -16.592  1.00  0.00     0.054 A 
BRANCH  44  45
ATOM     45  S   UNL     1      -7.254   2.307 -17.991  1.00  0.00     0.124 S 
ATOM     46  O   UNL     1      -8.616   2.028 -18.436  1.00  0.00    -0.237 OA
ATOM     47  O   UNL     1      -7.045   3.613 -17.371  1.00  0.00    -0.237 OA
ATOM     48  O   UNL     1      -6.197   1.891 -18.911  1.00  0.00    -0.744 OA
ENDBRANCH  44  45
ENDBRANCH  25  39
BRANCH  26  49
ATOM     49  C   UNL     1      -5.571  -7.093  -6.902  1.00  0.00    -0.014 A 
ATOM     50  C   UNL     1      -5.186  -6.671  -5.616  1.00  0.00     0.010 A 
ATOM     51  C   UNL     1      -5.622  -8.471  -7.181  1.00  0.00     0.010 A 
ATOM     52  C   UNL     1      -4.789  -7.603  -4.652  1.00  0.00     0.020 A 
ATOM     53  C   UNL     1      -5.253  -9.408  -6.210  1.00  0.00     0.020 A 
ATOM     54  C   UNL     1      -4.803  -8.964  -4.965  1.00  0.00     0.054 A 
BRANCH  54  55
ATOM     55  S   UNL     1      -4.184 -10.148  -3.737  1.00  0.00     0.124 S 
ATOM     56  O   UNL     1      -2.741  -9.937  -3.821  1.00  0.00    -0.237 OA
ATOM     57  O   UNL     1      -4.816  -9.688  -2.503  1.00  0.00    -0.237 OA
ATOM     58  O   UNL     1      -4.658 -11.437  -4.234  1.00  0.00    -0.744 OA
ENDBRANCH  54  55
ENDBRANCH  26  49
BRANCH  38  59
ATOM     59  C   UNL     1     -11.101  -4.960 -10.653  1.00  0.00    -0.014 A 
ATOM     60  C   UNL     1     -11.671  -5.609 -11.764  1.00  0.00     0.010 A 
ATOM     61  C   UNL     1     -11.934  -4.546  -9.598  1.00  0.00     0.010 A 
ATOM     62  C   UNL     1     -13.050  -5.813 -11.835  1.00  0.00     0.020 A 
ATOM     63  C   UNL     1     -13.311  -4.776  -9.652  1.00  0.00     0.020 A 
ATOM     64  C   UNL     1     -13.863  -5.387 -10.781  1.00  0.00     0.054 A 
BRANCH  64  65
ATOM     65  S   UNL     1     -15.654  -5.642 -10.897  1.00  0.00     0.124 S 
ATOM     66  O   UNL     1     -16.058  -4.572 -11.804  1.00  0.00    -0.237 OA
ATOM     67  O   UNL     1     -15.752  -6.996 -11.437  1.00  0.00    -0.237 OA
ATOM     68  O   UNL     1     -16.109  -5.497  -9.516  1.00  0.00    -0.744 OA
ENDBRANCH  64  65
ENDBRANCH  38  59
ENDBRANCH  12  13
ENDBRANCH   5   7
ENDBRANCH   2   3
ENDBRANCH   1   2
BRANCH   1  69
ATOM     69  C   UNL     1       4.129  -0.034  -7.556  1.00  0.00     0.117 C 
BRANCH  69  70
ATOM     70  N   UNL     1       4.586   1.340  -7.517  1.00  0.00    -0.354 N 
ATOM     71  C   UNL     1       5.629   1.961  -6.923  1.00  0.00     0.245 C 
ATOM     72  H   UNL     1       4.015   1.952  -8.034  1.00  0.00     0.163 HD
ATOM     73  O   UNL     1       5.793   3.125  -7.332  1.00  0.00    -0.272 OA
BRANCH  71  74
ATOM     74  C   UNL     1       6.529   1.431  -5.718  1.00  0.00     0.119 C 
BRANCH  74  75
ATOM     75  C   UNL     1       6.305  -0.010  -5.198  1.00  0.00     0.041 C 
BRANCH  75  76
ATOM     76  C   UNL     1       6.672  -1.179  -6.112  1.00  0.00     0.031 CG0
ATOM     77  G   UNL     1       8.148  -1.531  -6.176  1.00  0.00     0.000 G0
ENDBRANCH  75  76
ENDBRANCH  74  75
BRANCH  74  78
ATOM     78  C   UNL     1       7.993   1.692  -6.156  1.00  0.00     0.067 C 
BRANCH  78  79
ATOM     79  C   UNL     1       8.564   0.657  -7.115  1.00  0.00     0.163 C 
BRANCH  79  80
ATOM     80  O   UNL     1       9.041  -0.446  -6.354  1.00  0.00    -0.381 OA
BRANCH  80  81
ATOM     81  C   UNL     1       8.148  -1.531  -6.176  1.00  0.00     0.160 CG0
ATOM     82  G   UNL     1       6.672  -1.179  -6.112  1.00  0.00     0.000 G0
ENDBRANCH  80  81
ENDBRANCH  79  80
ENDBRANCH  78  79
ENDBRANCH  74  78
BRANCH  74  83
ATOM     83  N   UNL     1       6.191   2.398  -4.603  1.00  0.00    -0.371 N 
ATOM     84  H   UNL     1       5.770   3.253  -4.853  1.00  0.00     0.161 HD
BRANCH  83  85
ATOM     85  C   UNL     1       6.428   2.171  -3.260  1.00  0.00     0.036 A 
ATOM     86  C   UNL     1       7.722   2.122  -2.738  1.00  0.00     0.027 A 
ATOM     87  C   UNL     1       5.360   1.882  -2.402  1.00  0.00     0.043 A 
ATOM     88  C   UNL     1       7.956   1.760  -1.410  1.00  0.00     0.024 A 
ATOM     89  C   UNL     1       5.583   1.513  -1.069  1.00  0.00     0.038 A 
ATOM     90  C   UNL     1       6.888   1.442  -0.573  1.00  0.00     0.055 A 
ATOM     91  Br  UNL     1       4.064   1.095  -0.008  1.00  0.00    -0.049 Br
ATOM     92  Cl  UNL     1       7.257   0.966   1.045  1.00  0.00    -0.083 Cl
ENDBRANCH  83  85
ENDBRANCH  74  83
ENDBRANCH  71  74
ENDBRANCH  69  70
ENDBRANCH   1  69
TORSDOF 15
