REMARK SMILES CC(=O)c1ccc(C(F)(F)C(=O)NCCCNC(=O)c2ccc(-c3c4nc(c(-c5ccc(S(=O)(=O)[O-])cc5)c5ccc([nH]5)c(-c5ccc(S(=O)(=O)[O-])cc5)c5nc(c(-c6ccc(S(=O)(=O)[O-])cc6)c6ccc3[nH]6)C=C5)C=C4)cc2)n1C
REMARK SMILES IDX 15 1 14 2 13 3 11 4 12 5 8 7 9 8 10 9 7 10 4 11 5 12 80 13
REMARK SMILES IDX 6 14 81 15 2 16 1 17 3 18 16 19 17 20 18 21 19 23 20 24
REMARK SMILES IDX 21 25 79 26 22 27 78 28 23 29 24 30 25 31 72 32 26 33 77 34
REMARK SMILES IDX 71 35 73 36 27 37 76 38 70 39 69 40 28 42 58 43 39 44 57 45
REMARK SMILES IDX 40 46 43 47 56 48 74 49 41 50 42 51 55 53 75 54 44 55 29 56
REMARK SMILES IDX 30 57 38 58 31 59 37 60 32 61 33 62 34 63 35 64 36 65 59 66
REMARK SMILES IDX 60 67 68 68 61 69 67 70 62 71 63 72 64 73 65 74 66 75 45 76
REMARK SMILES IDX 46 77 54 78 47 79 53 80 48 81 49 82 50 83 51 84 52 85
REMARK H PARENT 13 6 17 22 73 41 43 52
REMARK Flexibility Score: inf
ROOT
ATOM      1  C   UNL     1       6.149  -0.053  -7.337  1.00  0.00     0.042 C 
ENDROOT
BRANCH   1   2
ATOM      2  C   UNL     1       5.739  -1.434  -6.841  1.00  0.00     0.118 C 
BRANCH   2   3
ATOM      3  N   UNL     1       5.756  -1.583  -5.394  1.00  0.00    -0.350 N 
ATOM      4  C   UNL     1       4.675  -1.735  -4.547  1.00  0.00     0.296 C 
ATOM      5  O   UNL     1       4.927  -2.101  -3.394  1.00  0.00    -0.268 OA
ATOM      6  H   UNL     1       6.644  -1.574  -4.968  1.00  0.00     0.163 HD
BRANCH   4   7
ATOM      7  C   UNL     1       3.247  -1.398  -5.084  1.00  0.00     0.364 C 
ATOM      8  F   UNL     1       2.955  -2.231  -6.136  1.00  0.00    -0.188 F 
ATOM      9  F   UNL     1       3.230  -0.139  -5.620  1.00  0.00    -0.188 F 
BRANCH   7  10
ATOM     10  C   UNL     1       2.123  -1.515  -4.075  1.00  0.00     0.098 A 
ATOM     11  C   UNL     1       0.891  -1.384  -2.164  1.00  0.00     0.084 A 
ATOM     12  C   UNL     1       0.136  -2.023  -3.138  1.00  0.00     0.032 A 
ATOM     13  N   UNL     1       2.082  -1.003  -2.782  1.00  0.00    -0.340 N 
ATOM     14  C   UNL     1       0.886  -2.088  -4.319  1.00  0.00     0.031 A 
ATOM     15  C   UNL     1       3.138  -0.233  -2.155  1.00  0.00     0.150 C 
BRANCH  11  16
ATOM     16  C   UNL     1       0.429  -1.219  -0.785  1.00  0.00     0.176 C 
ATOM     17  C   UNL     1       0.972  -0.110   0.072  1.00  0.00     0.095 C 
ATOM     18  O   UNL     1      -0.436  -1.957  -0.306  1.00  0.00    -0.293 OA
ENDBRANCH  11  16
ENDBRANCH   7  10
ENDBRANCH   4   7
ENDBRANCH   2   3
ENDBRANCH   1   2
BRANCH   1  19
ATOM     19  C   UNL     1       7.532   0.418  -6.897  1.00  0.00     0.118 C 
BRANCH  19  20
ATOM     20  N   UNL     1       8.607  -0.493  -7.266  1.00  0.00    -0.352 N 
ATOM     21  C   UNL     1       9.759  -0.272  -7.987  1.00  0.00     0.251 C 
ATOM     22  H   UNL     1       8.491  -1.417  -6.947  1.00  0.00     0.163 HD
ATOM     23  O   UNL     1      10.481  -1.218  -8.272  1.00  0.00    -0.269 OA
BRANCH  21  24
ATOM     24  C   UNL     1      10.108   1.092  -8.446  1.00  0.00     0.039 A 
ATOM     25  C   UNL     1      10.550   1.267  -9.762  1.00  0.00     0.014 A 
ATOM     26  C   UNL     1      10.008   2.191  -7.592  1.00  0.00     0.014 A 
ATOM     27  C   UNL     1      10.805   2.554 -10.245  1.00  0.00     0.010 A 
ATOM     28  C   UNL     1      10.192   3.477  -8.095  1.00  0.00     0.010 A 
ATOM     29  C   UNL     1      10.583   3.673  -9.429  1.00  0.00    -0.014 A 
BRANCH  29  30
ATOM     30  C   UNL     1      10.734   5.061  -9.941  1.00  0.00     0.031 A 
ATOM     31  C   UNL     1      11.760   5.979  -9.335  1.00  0.00     0.074 A 
ATOM     32  C   UNL     1       9.884   5.525 -10.879  1.00  0.00     0.049 A 
ATOM     33  N   UNL     1      11.946   7.258  -9.539  1.00  0.00    -0.248 NA
ATOM     34  C   UNL     1      12.679   5.388  -8.349  1.00  0.00     0.031 C 
ATOM     35  C   UNL     1       8.826   4.746 -11.527  1.00  0.00     0.029 A 
ATOM     36  N   UNL     1       9.763   6.774 -11.437  1.00  0.00    -0.354 N 
ATOM     37  C   UNL     1      12.980   7.631  -8.688  1.00  0.00     0.074 A 
ATOM     38  C   UNL     1      13.355   6.451  -7.939  1.00  0.00     0.031 C 
ATOM     39  C   UNL     1       8.175   5.530 -12.402  1.00  0.00     0.029 A 
ATOM     40  C   UNL     1       8.734   6.877 -12.344  1.00  0.00     0.049 A 
ATOM     41  H   UNL     1      10.357   7.525 -11.209  1.00  0.00     0.167 HD
ATOM     42  C   UNL     1      13.573   8.841  -8.552  1.00  0.00     0.031 A 
ATOM     43  C   UNL     1       8.278   7.938 -13.038  1.00  0.00     0.031 A 
ATOM     44  C   UNL     1      13.209  10.008  -9.310  1.00  0.00     0.049 A 
ATOM     45  C   UNL     1       8.948   9.274 -12.866  1.00  0.00     0.074 A 
ATOM     46  C   UNL     1      13.784  11.267  -9.279  1.00  0.00     0.029 A 
ATOM     47  N   UNL     1      12.181  10.061 -10.239  1.00  0.00    -0.354 N 
ATOM     48  N   UNL     1       9.952   9.596 -12.087  1.00  0.00    -0.248 NA
ATOM     49  C   UNL     1       8.429  10.386 -13.674  1.00  0.00     0.031 C 
ATOM     50  C   UNL     1      13.074  12.093 -10.158  1.00  0.00     0.029 A 
ATOM     51  C   UNL     1      12.094  11.334 -10.777  1.00  0.00     0.049 A 
ATOM     52  H   UNL     1      11.599   9.305 -10.480  1.00  0.00     0.167 HD
ATOM     53  C   UNL     1      10.207  10.940 -12.335  1.00  0.00     0.074 A 
ATOM     54  C   UNL     1       9.256  11.368 -13.340  1.00  0.00     0.031 C 
ATOM     55  C   UNL     1      11.149  11.744 -11.784  1.00  0.00     0.031 A 
BRANCH  42  56
ATOM     56  C   UNL     1      14.673   8.964  -7.530  1.00  0.00    -0.014 A 
ATOM     57  C   UNL     1      15.921   8.347  -7.728  1.00  0.00     0.010 A 
ATOM     58  C   UNL     1      14.467   9.735  -6.371  1.00  0.00     0.010 A 
ATOM     59  C   UNL     1      16.926   8.456  -6.763  1.00  0.00     0.020 A 
ATOM     60  C   UNL     1      15.480   9.871  -5.418  1.00  0.00     0.020 A 
ATOM     61  C   UNL     1      16.696   9.214  -5.611  1.00  0.00     0.054 A 
BRANCH  61  62
ATOM     62  S   UNL     1      18.021   9.348  -4.380  1.00  0.00     0.124 S 
ATOM     63  O   UNL     1      17.987   8.027  -3.757  1.00  0.00    -0.237 OA
ATOM     64  O   UNL     1      19.197   9.624  -5.201  1.00  0.00    -0.237 OA
ATOM     65  O   UNL     1      17.589  10.450  -3.524  1.00  0.00    -0.744 OA
ENDBRANCH  61  62
ENDBRANCH  42  56
BRANCH  43  66
ATOM     66  C   UNL     1       7.129   7.775 -13.970  1.00  0.00    -0.014 A 
ATOM     67  C   UNL     1       7.331   7.819 -15.361  1.00  0.00     0.010 A 
ATOM     68  C   UNL     1       5.830   7.559 -13.474  1.00  0.00     0.010 A 
ATOM     69  C   UNL     1       6.254   7.665 -16.239  1.00  0.00     0.020 A 
ATOM     70  C   UNL     1       4.755   7.378 -14.349  1.00  0.00     0.020 A 
ATOM     71  C   UNL     1       4.972   7.443 -15.726  1.00  0.00     0.054 A 
BRANCH  71  72
ATOM     72  S   UNL     1       3.599   7.189 -16.885  1.00  0.00     0.124 S 
ATOM     73  O   UNL     1       3.365   8.542 -17.379  1.00  0.00    -0.237 OA
ATOM     74  O   UNL     1       4.168   6.251 -17.850  1.00  0.00    -0.237 OA
ATOM     75  O   UNL     1       2.540   6.636 -16.042  1.00  0.00    -0.744 OA
ENDBRANCH  71  72
ENDBRANCH  43  66
BRANCH  55  76
ATOM     76  C   UNL     1      11.238  13.160 -12.287  1.00  0.00    -0.014 A 
ATOM     77  C   UNL     1      10.278  14.124 -11.934  1.00  0.00     0.010 A 
ATOM     78  C   UNL     1      12.342  13.544 -13.071  1.00  0.00     0.010 A 
ATOM     79  C   UNL     1      10.411  15.444 -12.375  1.00  0.00     0.020 A 
ATOM     80  C   UNL     1      12.491  14.867 -13.491  1.00  0.00     0.020 A 
ATOM     81  C   UNL     1      11.518  15.807 -13.149  1.00  0.00     0.054 A 
BRANCH  81  82
ATOM     82  S   UNL     1      11.698  17.539 -13.659  1.00  0.00     0.124 S 
ATOM     83  O   UNL     1      10.695  17.651 -14.715  1.00  0.00    -0.237 OA
ATOM     84  O   UNL     1      11.400  18.269 -12.430  1.00  0.00    -0.237 OA
ATOM     85  O   UNL     1      13.086  17.626 -14.107  1.00  0.00    -0.744 OA
ENDBRANCH  81  82
ENDBRANCH  55  76
ENDBRANCH  29  30
ENDBRANCH  21  24
ENDBRANCH  19  20
ENDBRANCH   1  19
TORSDOF 15
