REMARK SMILES Cc1ccc(-c2cc(Cl)ccc2Cl)c(C(=O)NCCCNC(=O)c2ccc(-c3c4nc(c(-c5ccc(S(=O)(=O)[O-])cc5)c5ccc([nH]5)c(-c5ccc(S(=O)(=O)[O-])cc5)c5nc(c(-c6ccc(S(=O)(=O)[O-])cc6)c6ccc3[nH]6)C=C5)C=C4)cc2)c1
REMARK SMILES IDX 20 1 19 2 18 3 17 4 15 5 16 6 14 8 1 9 2 10 3 11 84 12 4 13
REMARK SMILES IDX 5 14 6 15 7 16 12 17 8 18 11 19 13 20 9 21 10 22 21 23 22 24
REMARK SMILES IDX 23 26 24 27 25 28 83 29 26 30 82 31 27 32 28 33 29 34 76 35
REMARK SMILES IDX 30 36 81 37 75 38 77 39 31 40 80 41 74 42 73 43 32 45 62 46
REMARK SMILES IDX 43 47 61 48 44 49 47 50 60 51 78 52 45 53 46 54 59 56 79 57
REMARK SMILES IDX 48 58 33 59 34 60 42 61 35 62 41 63 36 64 37 65 38 66 39 67
REMARK SMILES IDX 40 68 63 69 64 70 72 71 65 72 71 73 66 74 67 75 68 76 69 77
REMARK SMILES IDX 70 78 49 79 50 80 58 81 51 82 57 83 52 84 53 85 54 86 55 87
REMARK SMILES IDX 56 88
REMARK H PARENT 17 7 21 25 77 44 47 55
REMARK Flexibility Score: inf
ROOT
ATOM      1  C   UNL     1       1.286   5.453  -1.134  1.00  0.00     0.118 C 
ENDROOT
BRANCH   1   2
ATOM      2  C   UNL     1       1.319   4.070  -0.501  1.00  0.00     0.042 C 
BRANCH   2   3
ATOM      3  C   UNL     1       0.462   3.967   0.761  1.00  0.00     0.118 C 
BRANCH   3   4
ATOM      4  N   UNL     1      -0.922   3.613   0.467  1.00  0.00    -0.352 N 
ATOM      5  C   UNL     1      -1.617   2.442   0.266  1.00  0.00     0.251 C 
ATOM      6  O   UNL     1      -2.838   2.587   0.179  1.00  0.00    -0.269 OA
ATOM      7  H   UNL     1      -1.502   4.406   0.396  1.00  0.00     0.163 HD
BRANCH   5   8
ATOM      8  C   UNL     1      -1.012   1.059   0.134  1.00  0.00     0.047 A 
ATOM      9  C   UNL     1       2.468  -0.536  -0.120  1.00  0.00     0.044 C 
ATOM     10  C   UNL     1       0.974  -0.401  -0.062  1.00  0.00    -0.050 A 
ATOM     11  C   UNL     1       0.161  -1.522  -0.144  1.00  0.00     0.004 A 
ATOM     12  C   UNL     1       0.379   0.862   0.079  1.00  0.00     0.018 A 
ATOM     13  C   UNL     1      -1.222  -1.370  -0.108  1.00  0.00     0.010 A 
ATOM     14  C   UNL     1      -1.836  -0.099   0.026  1.00  0.00    -0.004 A 
BRANCH  14  15
ATOM     15  C   UNL     1      -3.316  -0.094   0.021  1.00  0.00     0.003 A 
ATOM     16  C   UNL     1      -4.001   0.291  -1.150  1.00  0.00     0.030 A 
ATOM     17  C   UNL     1      -4.086  -0.512   1.126  1.00  0.00     0.049 A 
ATOM     18  C   UNL     1      -5.396   0.290  -1.198  1.00  0.00     0.041 A 
ATOM     19  C   UNL     1      -5.485  -0.527   1.065  1.00  0.00     0.023 A 
ATOM     20  Cl  UNL     1      -3.354  -1.048   2.602  1.00  0.00    -0.084 Cl
ATOM     21  Cl  UNL     1      -6.205   0.785  -2.634  1.00  0.00    -0.084 Cl
ATOM     22  C   UNL     1      -6.141  -0.120  -0.097  1.00  0.00     0.022 A 
ENDBRANCH  14  15
ENDBRANCH   5   8
ENDBRANCH   3   4
ENDBRANCH   2   3
ENDBRANCH   1   2
BRANCH   1  23
ATOM     23  N   UNL     1       2.557   6.156  -1.011  1.00  0.00    -0.352 N 
ATOM     24  C   UNL     1       2.967   7.233  -1.786  1.00  0.00     0.251 C 
ATOM     25  H   UNL     1       3.179   5.840  -0.316  1.00  0.00     0.163 HD
ATOM     26  O   UNL     1       4.126   7.516  -1.995  1.00  0.00    -0.269 OA
BRANCH  24  27
ATOM     27  C   UNL     1       1.876   8.136  -2.206  1.00  0.00     0.039 A 
ATOM     28  C   UNL     1       1.660   9.270  -1.414  1.00  0.00     0.014 A 
ATOM     29  C   UNL     1       0.919   7.679  -3.106  1.00  0.00     0.014 A 
ATOM     30  C   UNL     1       0.401   9.858  -1.401  1.00  0.00     0.010 A 
ATOM     31  C   UNL     1      -0.351   8.210  -3.025  1.00  0.00     0.010 A 
ATOM     32  C   UNL     1      -0.621   9.264  -2.137  1.00  0.00    -0.014 A 
BRANCH  32  33
ATOM     33  C   UNL     1      -2.021   9.657  -2.042  1.00  0.00     0.031 A 
ATOM     34  C   UNL     1      -2.603  10.476  -3.137  1.00  0.00     0.074 A 
ATOM     35  C   UNL     1      -2.797   9.188  -1.037  1.00  0.00     0.049 A 
ATOM     36  N   UNL     1      -3.716  11.126  -3.066  1.00  0.00    -0.248 NA
ATOM     37  C   UNL     1      -1.917  10.665  -4.415  1.00  0.00     0.031 C 
ATOM     38  C   UNL     1      -4.259   9.219  -0.989  1.00  0.00     0.029 A 
ATOM     39  N   UNL     1      -2.447   8.742   0.242  1.00  0.00    -0.354 N 
ATOM     40  C   UNL     1      -4.039  11.539  -4.342  1.00  0.00     0.074 A 
ATOM     41  C   UNL     1      -2.846  11.313  -5.122  1.00  0.00     0.031 C 
ATOM     42  C   UNL     1      -4.648   9.134   0.293  1.00  0.00     0.029 A 
ATOM     43  C   UNL     1      -3.445   9.242   1.098  1.00  0.00     0.049 A 
ATOM     44  H   UNL     1      -1.668   8.194   0.491  1.00  0.00     0.167 HD
ATOM     45  C   UNL     1      -5.326  11.886  -4.630  1.00  0.00     0.031 A 
ATOM     46  C   UNL     1      -3.247  10.202   2.054  1.00  0.00     0.031 A 
ATOM     47  C   UNL     1      -6.148  11.932  -3.422  1.00  0.00     0.049 A 
ATOM     48  C   UNL     1      -4.154  11.413   1.885  1.00  0.00     0.074 A 
ATOM     49  C   UNL     1      -7.048  11.045  -2.854  1.00  0.00     0.029 A 
ATOM     50  N   UNL     1      -5.861  12.880  -2.447  1.00  0.00    -0.354 N 
ATOM     51  N   UNL     1      -4.762  11.716   0.769  1.00  0.00    -0.248 NA
ATOM     52  C   UNL     1      -4.436  12.385   2.942  1.00  0.00     0.031 C 
ATOM     53  C   UNL     1      -7.219  11.411  -1.491  1.00  0.00     0.029 A 
ATOM     54  C   UNL     1      -6.454  12.539  -1.247  1.00  0.00     0.049 A 
ATOM     55  H   UNL     1      -5.310  13.683  -2.591  1.00  0.00     0.167 HD
ATOM     56  C   UNL     1      -5.512  12.851   0.936  1.00  0.00     0.074 A 
ATOM     57  C   UNL     1      -5.277  13.232   2.318  1.00  0.00     0.031 C 
ATOM     58  C   UNL     1      -6.266  13.382  -0.072  1.00  0.00     0.031 A 
BRANCH  45  59
ATOM     59  C   UNL     1      -5.892  11.887  -6.037  1.00  0.00    -0.014 A 
ATOM     60  C   UNL     1      -7.266  11.636  -6.238  1.00  0.00     0.010 A 
ATOM     61  C   UNL     1      -5.121  12.045  -7.205  1.00  0.00     0.010 A 
ATOM     62  C   UNL     1      -7.813  11.448  -7.520  1.00  0.00     0.020 A 
ATOM     63  C   UNL     1      -5.642  11.823  -8.489  1.00  0.00     0.020 A 
ATOM     64  C   UNL     1      -6.987  11.512  -8.639  1.00  0.00     0.054 A 
BRANCH  64  65
ATOM     65  S   UNL     1      -7.680  11.181 -10.280  1.00  0.00     0.124 S 
ATOM     66  O   UNL     1      -8.254   9.847 -10.119  1.00  0.00    -0.237 OA
ATOM     67  O   UNL     1      -8.642  12.267 -10.440  1.00  0.00    -0.237 OA
ATOM     68  O   UNL     1      -6.519  11.246 -11.167  1.00  0.00    -0.744 OA
ENDBRANCH  64  65
ENDBRANCH  45  59
BRANCH  46  69
ATOM     69  C   UNL     1      -1.871  10.236   2.624  1.00  0.00    -0.014 A 
ATOM     70  C   UNL     1      -1.467   9.136   3.410  1.00  0.00     0.010 A 
ATOM     71  C   UNL     1      -0.885  11.066   2.063  1.00  0.00     0.010 A 
ATOM     72  C   UNL     1      -0.125   8.752   3.459  1.00  0.00     0.020 A 
ATOM     73  C   UNL     1       0.466  10.690   2.124  1.00  0.00     0.020 A 
ATOM     74  C   UNL     1       0.822   9.492   2.751  1.00  0.00     0.054 A 
BRANCH  74  75
ATOM     75  S   UNL     1       2.466   8.752   2.499  1.00  0.00     0.124 S 
ATOM     76  O   UNL     1       2.930   8.542   3.866  1.00  0.00    -0.237 OA
ATOM     77  O   UNL     1       2.145   7.533   1.752  1.00  0.00    -0.237 OA
ATOM     78  O   UNL     1       3.181   9.770   1.739  1.00  0.00    -0.744 OA
ENDBRANCH  74  75
ENDBRANCH  46  69
BRANCH  58  79
ATOM     79  C   UNL     1      -6.968  14.720  -0.047  1.00  0.00    -0.014 A 
ATOM     80  C   UNL     1      -6.571  15.802   0.752  1.00  0.00     0.010 A 
ATOM     81  C   UNL     1      -8.003  14.964  -0.985  1.00  0.00     0.010 A 
ATOM     82  C   UNL     1      -7.208  17.049   0.660  1.00  0.00     0.020 A 
ATOM     83  C   UNL     1      -8.614  16.213  -1.117  1.00  0.00     0.020 A 
ATOM     84  C   UNL     1      -8.226  17.247  -0.274  1.00  0.00     0.054 A 
BRANCH  84  85
ATOM     85  S   UNL     1      -8.986  18.882  -0.445  1.00  0.00     0.124 S 
ATOM     86  O   UNL     1     -10.076  18.811   0.524  1.00  0.00    -0.237 OA
ATOM     87  O   UNL     1      -7.896  19.790  -0.094  1.00  0.00    -0.237 OA
ATOM     88  O   UNL     1      -9.393  18.924  -1.847  1.00  0.00    -0.744 OA
ENDBRANCH  84  85
ENDBRANCH  58  79
ENDBRANCH  32  33
ENDBRANCH  24  27
ENDBRANCH   1  23
TORSDOF 14
