REMARK SMILES O=C(CC[N@@H+]1C[C@@H](c2ccccc2)[C@@H]2[C@H]1[C@H]1CC[N@H+]2CC1)NCCCNC(=O)c1ccc(-c2c3nc(c(-c4ccc(S(=O)(=O)[O-])cc4)c4ccc([nH]4)c(-c4ccc(S(=O)(=O)[O-])cc4)c4nc(c(-c5ccc(S(=O)(=O)[O-])cc5)c5ccc2[nH]5)C=C4)C=C3)cc1
REMARK SMILES IDX 24 1 23 2 22 3 1 4 2 5 3 7 4 8 5 9 6 10 15 11 7 13 14 14
REMARK SMILES IDX 16 15 19 16 17 17 21 18 18 19 20 20 8 22 9 23 13 24 10 25
REMARK SMILES IDX 12 26 11 27 25 28 26 29 27 30 28 32 29 33 30 34 88 35 31 36
REMARK SMILES IDX 87 37 32 38 33 39 34 40 81 41 35 42 86 43 80 44 82 45 36 46
REMARK SMILES IDX 85 47 79 48 78 49 37 51 67 52 48 53 66 54 49 55 52 56 65 57
REMARK SMILES IDX 83 58 50 59 51 60 64 62 84 63 53 64 38 65 39 66 47 67 40 68
REMARK SMILES IDX 46 69 41 70 42 71 43 72 44 73 45 74 68 75 69 76 77 77 70 78
REMARK SMILES IDX 76 79 71 80 72 81 73 82 74 83 75 84 54 85 55 86 63 87 56 88
REMARK SMILES IDX 62 89 57 90 58 91 59 92 60 93 61 94
REMARK H PARENT 22 6 5 12 19 21 26 31 82 50 52 61
REMARK Flexibility Score: inf
ROOT
ATOM      1  C   UNL     1       1.361   1.454   3.731  1.00  0.00     0.042 C 
ENDROOT
BRANCH   1   2
ATOM      2  C   UNL     1       1.214   1.317   2.212  1.00  0.00     0.117 C 
BRANCH   2   3
ATOM      3  N   UNL     1       2.003   0.247   1.615  1.00  0.00    -0.356 N 
ATOM      4  O   UNL     1       0.972   0.379  -0.431  1.00  0.00    -0.275 OA
ATOM      5  C   UNL     1       1.866  -0.080   0.277  1.00  0.00     0.225 C 
ATOM      6  H   UNL     1       2.644  -0.252   2.172  1.00  0.00     0.163 HD
BRANCH   5   7
ATOM      7  C   UNL     1       2.948  -0.998  -0.282  1.00  0.00     0.161 C 
BRANCH   7   8
ATOM      8  C   UNL     1       3.668  -0.399  -1.516  1.00  0.00     0.272 C 
BRANCH   8   9
ATOM      9  N   UNL     1       4.816   0.524  -1.310  1.00  0.00    -0.326 N 
ATOM     10  C   UNL     1       6.042  -0.178  -0.791  1.00  0.00     0.277 C 
ATOM     11  C   UNL     1       4.450   1.656  -0.436  1.00  0.00     0.247 C 
ATOM     12  H   UNL     1       5.054   0.893  -2.231  1.00  0.00     0.348 HD
ATOM     13  C   UNL     1       6.470   0.212   0.664  1.00  0.00     0.139 C 
ATOM     14  C   UNL     1       5.394   1.231   1.111  1.00  0.00     0.256 C 
ATOM     15  C   UNL     1       4.769   3.407  -0.861  1.00  0.00     0.065 C 
ATOM     16  N   UNL     1       5.694   2.512   2.078  1.00  0.00    -0.327 N 
ATOM     17  C   UNL     1       5.907   3.004  -0.170  1.00  0.00     0.071 C 
ATOM     18  C   UNL     1       5.300   4.774   0.210  1.00  0.00     0.071 C 
ATOM     19  C   UNL     1       4.662   3.014   1.322  1.00  0.00     0.263 C 
ATOM     20  C   UNL     1       6.233   4.035   1.715  1.00  0.00     0.263 C 
ATOM     21  H   UNL     1       6.089   2.187   2.961  1.00  0.00     0.348 HD
BRANCH  13  22
ATOM     22  C   UNL     1       7.877   0.714   0.982  1.00  0.00    -0.033 A 
ATOM     23  C   UNL     1       8.700   1.381   0.063  1.00  0.00     0.004 A 
ATOM     24  C   UNL     1       8.279   0.698   2.332  1.00  0.00     0.004 A 
ATOM     25  C   UNL     1       9.797   2.130   0.502  1.00  0.00     0.000 A 
ATOM     26  C   UNL     1       9.387   1.426   2.766  1.00  0.00     0.000 A 
ATOM     27  C   UNL     1      10.127   2.171   1.855  1.00  0.00     0.000 A 
ENDBRANCH  13  22
ENDBRANCH   8   9
ENDBRANCH   7   8
ENDBRANCH   5   7
ENDBRANCH   2   3
ENDBRANCH   1   2
BRANCH   1  28
ATOM     28  C   UNL     1       2.706   1.991   4.239  1.00  0.00     0.118 C 
BRANCH  28  29
ATOM     29  N   UNL     1       2.914   3.406   3.981  1.00  0.00    -0.352 N 
ATOM     30  C   UNL     1       3.852   4.286   4.481  1.00  0.00     0.251 C 
ATOM     31  H   UNL     1       2.279   3.803   3.343  1.00  0.00     0.163 HD
ATOM     32  O   UNL     1       3.835   5.441   4.052  1.00  0.00    -0.269 OA
BRANCH  30  33
ATOM     33  C   UNL     1       4.814   3.926   5.564  1.00  0.00     0.039 A 
ATOM     34  C   UNL     1       5.139   4.931   6.488  1.00  0.00     0.014 A 
ATOM     35  C   UNL     1       5.376   2.659   5.730  1.00  0.00     0.014 A 
ATOM     36  C   UNL     1       5.885   4.632   7.633  1.00  0.00     0.010 A 
ATOM     37  C   UNL     1       6.076   2.341   6.903  1.00  0.00     0.010 A 
ATOM     38  C   UNL     1       6.280   3.310   7.894  1.00  0.00    -0.014 A 
BRANCH  38  39
ATOM     39  C   UNL     1       6.681   2.921   9.274  1.00  0.00     0.031 A 
ATOM     40  C   UNL     1       8.073   2.486   9.627  1.00  0.00     0.074 A 
ATOM     41  C   UNL     1       5.721   2.921  10.223  1.00  0.00     0.049 A 
ATOM     42  N   UNL     1       8.560   2.184  10.806  1.00  0.00    -0.248 NA
ATOM     43  C   UNL     1       9.037   2.356   8.526  1.00  0.00     0.031 C 
ATOM     44  C   UNL     1       4.312   3.257   9.993  1.00  0.00     0.029 A 
ATOM     45  N   UNL     1       5.776   2.641  11.566  1.00  0.00    -0.354 N 
ATOM     46  C   UNL     1       9.889   1.834  10.595  1.00  0.00     0.074 A 
ATOM     47  C   UNL     1      10.118   1.923   9.166  1.00  0.00     0.031 C 
ATOM     48  C   UNL     1       3.648   3.205  11.157  1.00  0.00     0.029 A 
ATOM     49  C   UNL     1       4.571   2.801  12.210  1.00  0.00     0.049 A 
ATOM     50  H   UNL     1       6.598   2.353  12.024  1.00  0.00     0.167 HD
ATOM     51  C   UNL     1      10.829   1.482  11.508  1.00  0.00     0.031 A 
ATOM     52  C   UNL     1       4.237   2.651  13.506  1.00  0.00     0.031 A 
ATOM     53  C   UNL     1      10.588   1.373  12.927  1.00  0.00     0.049 A 
ATOM     54  C   UNL     1       5.298   2.270  14.496  1.00  0.00     0.074 A 
ATOM     55  C   UNL     1      11.492   1.071  13.934  1.00  0.00     0.029 A 
ATOM     56  N   UNL     1       9.357   1.547  13.543  1.00  0.00    -0.354 N 
ATOM     57  N   UNL     1       6.570   2.034  14.287  1.00  0.00    -0.248 NA
ATOM     58  C   UNL     1       4.882   2.154  15.900  1.00  0.00     0.031 C 
ATOM     59  C   UNL     1      10.798   1.014  15.148  1.00  0.00     0.029 A 
ATOM     60  C   UNL     1       9.472   1.335  14.909  1.00  0.00     0.049 A 
ATOM     61  H   UNL     1       8.523   1.786  13.078  1.00  0.00     0.167 HD
ATOM     62  C   UNL     1       7.113   1.762  15.536  1.00  0.00     0.074 A 
ATOM     63  C   UNL     1       6.034   1.882  16.497  1.00  0.00     0.031 C 
ATOM     64  C   UNL     1       8.391   1.442  15.857  1.00  0.00     0.031 A 
BRANCH  51  65
ATOM     65  C   UNL     1      12.216   1.181  11.001  1.00  0.00    -0.014 A 
ATOM     66  C   UNL     1      13.050   2.209  10.524  1.00  0.00     0.010 A 
ATOM     67  C   UNL     1      12.718  -0.133  11.056  1.00  0.00     0.010 A 
ATOM     68  C   UNL     1      14.342   1.923  10.071  1.00  0.00     0.020 A 
ATOM     69  C   UNL     1      14.018  -0.419  10.627  1.00  0.00     0.020 A 
ATOM     70  C   UNL     1      14.816   0.608  10.120  1.00  0.00     0.054 A 
BRANCH  70  71
ATOM     71  S   UNL     1      16.500   0.268   9.536  1.00  0.00     0.124 S 
ATOM     72  O   UNL     1      16.343   0.378   8.087  1.00  0.00    -0.237 OA
ATOM     73  O   UNL     1      17.280   1.330  10.164  1.00  0.00    -0.237 OA
ATOM     74  O   UNL     1      16.773  -1.079  10.031  1.00  0.00    -0.744 OA
ENDBRANCH  70  71
ENDBRANCH  51  65
BRANCH  52  75
ATOM     75  C   UNL     1       2.834   2.896  13.938  1.00  0.00    -0.014 A 
ATOM     76  C   UNL     1       2.509   4.039  14.688  1.00  0.00     0.010 A 
ATOM     77  C   UNL     1       1.812   2.000  13.575  1.00  0.00     0.010 A 
ATOM     78  C   UNL     1       1.189   4.275  15.082  1.00  0.00     0.020 A 
ATOM     79  C   UNL     1       0.487   2.247  13.943  1.00  0.00     0.020 A 
ATOM     80  C   UNL     1       0.186   3.377  14.706  1.00  0.00     0.054 A 
BRANCH  80  81
ATOM     81  S   UNL     1      -1.530   3.729  15.179  1.00  0.00     0.124 S 
ATOM     82  O   UNL     1      -1.531   3.378  16.596  1.00  0.00    -0.237 OA
ATOM     83  O   UNL     1      -1.656   5.153  14.879  1.00  0.00    -0.237 OA
ATOM     84  O   UNL     1      -2.310   2.847  14.314  1.00  0.00    -0.744 OA
ENDBRANCH  80  81
ENDBRANCH  52  75
BRANCH  64  85
ATOM     85  C   UNL     1       8.695   1.219  17.315  1.00  0.00    -0.014 A 
ATOM     86  C   UNL     1       8.238   0.071  17.987  1.00  0.00     0.010 A 
ATOM     87  C   UNL     1       9.464   2.164  18.018  1.00  0.00     0.010 A 
ATOM     88  C   UNL     1       8.511  -0.109  19.346  1.00  0.00     0.020 A 
ATOM     89  C   UNL     1       9.761   1.975  19.370  1.00  0.00     0.020 A 
ATOM     90  C   UNL     1       9.267   0.848  20.030  1.00  0.00     0.054 A 
BRANCH  90  91
ATOM     91  S   UNL     1       9.630   0.582  21.788  1.00  0.00     0.124 S 
ATOM     92  O   UNL     1       8.355   0.916  22.415  1.00  0.00    -0.237 OA
ATOM     93  O   UNL     1      10.001  -0.831  21.831  1.00  0.00    -0.237 OA
ATOM     94  O   UNL     1      10.723   1.514  22.060  1.00  0.00    -0.744 OA
ENDBRANCH  90  91
ENDBRANCH  64  85
ENDBRANCH  38  39
ENDBRANCH  30  33
ENDBRANCH  28  29
ENDBRANCH   1  28
TORSDOF 16
