REMARK SMILES O=C(NCCCNC(=O)c1cccc(Br)c1O[C@@H]1CCOC2(CCC2)C1)c1ccc(-c2c3nc(c(-c4ccc(S(=O)(=O)[O-])cc4)c4ccc([nH]4)c(-c4ccc(S(=O)(=O)[O-])cc4)c4nc(c(-c5ccc(S(=O)(=O)[O-])cc5)c5ccc2[nH]5)C=C4)C=C3)cc1
REMARK SMILES IDX 4 1 3 2 1 3 2 4 27 6 28 7 86 8 29 9 85 10 30 11 31 12 32 13
REMARK SMILES IDX 79 14 33 15 84 16 78 17 80 18 34 19 83 20 77 21 76 22 35 24
REMARK SMILES IDX 65 25 46 26 64 27 47 28 50 29 63 30 81 31 48 32 49 33 62 35
REMARK SMILES IDX 82 36 51 37 36 38 37 39 45 40 38 41 44 42 39 43 40 44 41 45
REMARK SMILES IDX 42 46 43 47 66 48 67 49 75 50 68 51 74 52 69 53 70 54 71 55
REMARK SMILES IDX 72 56 73 57 52 58 53 59 61 60 54 61 60 62 55 63 56 64 57 65
REMARK SMILES IDX 58 66 59 67 5 68 6 69 7 70 8 71 9 73 10 74 11 75 16 76 12 77
REMARK SMILES IDX 14 78 13 79 15 80 17 81 18 82 19 83 26 84 20 85 22 86 21 87
REMARK SMILES IDX 23 88 25 89 24 90
REMARK H PARENT 3 5 80 23 50 34 7 72
REMARK Flexibility Score: inf
ROOT
ATOM      1  C   UNL     1       4.628  -1.327  -0.493  1.00  0.00     0.118 C 
ENDROOT
BRANCH   1   2
ATOM      2  N   UNL     1       3.183  -1.141  -0.532  1.00  0.00    -0.352 N 
ATOM      3  O   UNL     1       1.197  -0.150  -0.146  1.00  0.00    -0.269 OA
ATOM      4  C   UNL     1       2.422  -0.072  -0.114  1.00  0.00     0.251 C 
ATOM      5  H   UNL     1       2.675  -1.893  -0.913  1.00  0.00     0.163 HD
BRANCH   4   6
ATOM      6  C   UNL     1       3.076   1.148   0.413  1.00  0.00     0.039 A 
ATOM      7  C   UNL     1       4.208   1.681  -0.204  1.00  0.00     0.014 A 
ATOM      8  C   UNL     1       2.562   1.754   1.563  1.00  0.00     0.014 A 
ATOM      9  C   UNL     1       4.936   2.681   0.433  1.00  0.00     0.010 A 
ATOM     10  C   UNL     1       3.235   2.836   2.141  1.00  0.00     0.010 A 
ATOM     11  C   UNL     1       4.459   3.274   1.613  1.00  0.00    -0.014 A 
BRANCH  11  12
ATOM     12  C   UNL     1       5.244   4.364   2.253  1.00  0.00     0.031 A 
ATOM     13  C   UNL     1       5.803   4.210   3.644  1.00  0.00     0.074 A 
ATOM     14  C   UNL     1       5.484   5.493   1.555  1.00  0.00     0.049 A 
ATOM     15  N   UNL     1       6.546   5.044   4.330  1.00  0.00    -0.248 NA
ATOM     16  C   UNL     1       5.484   2.968   4.364  1.00  0.00     0.031 C 
ATOM     17  C   UNL     1       5.002   5.763   0.197  1.00  0.00     0.029 A 
ATOM     18  N   UNL     1       6.210   6.611   1.876  1.00  0.00    -0.354 N 
ATOM     19  C   UNL     1       6.759   4.443   5.566  1.00  0.00     0.074 A 
ATOM     20  C   UNL     1       6.042   3.186   5.546  1.00  0.00     0.031 C 
ATOM     21  C   UNL     1       5.496   6.937  -0.220  1.00  0.00     0.029 A 
ATOM     22  C   UNL     1       6.265   7.539   0.863  1.00  0.00     0.049 A 
ATOM     23  H   UNL     1       6.649   6.737   2.748  1.00  0.00     0.167 HD
ATOM     24  C   UNL     1       7.485   4.894   6.619  1.00  0.00     0.031 A 
ATOM     25  C   UNL     1       6.857   8.747   0.807  1.00  0.00     0.031 A 
ATOM     26  C   UNL     1       8.192   6.150   6.634  1.00  0.00     0.049 A 
ATOM     27  C   UNL     1       7.620   9.241   2.002  1.00  0.00     0.074 A 
ATOM     28  C   UNL     1       8.987   6.678   7.637  1.00  0.00     0.029 A 
ATOM     29  N   UNL     1       8.180   7.082   5.606  1.00  0.00    -0.354 N 
ATOM     30  N   UNL     1       7.841   8.640   3.146  1.00  0.00    -0.248 NA
ATOM     31  C   UNL     1       8.221  10.577   1.893  1.00  0.00     0.031 C 
ATOM     32  C   UNL     1       9.396   7.957   7.246  1.00  0.00     0.029 A 
ATOM     33  C   UNL     1       8.925   8.194   5.964  1.00  0.00     0.049 A 
ATOM     34  H   UNL     1       7.710   6.970   4.748  1.00  0.00     0.167 HD
ATOM     35  C   UNL     1       8.640   9.509   3.881  1.00  0.00     0.074 A 
ATOM     36  C   UNL     1       8.868  10.671   3.046  1.00  0.00     0.031 C 
ATOM     37  C   UNL     1       9.145   9.351   5.130  1.00  0.00     0.031 A 
BRANCH  24  38
ATOM     38  C   UNL     1       7.514   4.043   7.866  1.00  0.00    -0.014 A 
ATOM     39  C   UNL     1       8.159   2.793   7.896  1.00  0.00     0.010 A 
ATOM     40  C   UNL     1       6.904   4.519   9.043  1.00  0.00     0.010 A 
ATOM     41  C   UNL     1       8.143   2.013   9.056  1.00  0.00     0.020 A 
ATOM     42  C   UNL     1       6.914   3.758  10.215  1.00  0.00     0.020 A 
ATOM     43  C   UNL     1       7.514   2.498  10.207  1.00  0.00     0.054 A 
BRANCH  43  44
ATOM     44  S   UNL     1       7.500   1.460  11.695  1.00  0.00     0.124 S 
ATOM     45  O   UNL     1       6.569   0.400  11.313  1.00  0.00    -0.237 OA
ATOM     46  O   UNL     1       8.897   1.053  11.815  1.00  0.00    -0.237 OA
ATOM     47  O   UNL     1       7.022   2.359  12.743  1.00  0.00    -0.744 OA
ENDBRANCH  43  44
ENDBRANCH  24  38
BRANCH  25  48
ATOM     48  C   UNL     1       6.756   9.561  -0.435  1.00  0.00    -0.014 A 
ATOM     49  C   UNL     1       7.889   9.787  -1.234  1.00  0.00     0.010 A 
ATOM     50  C   UNL     1       5.516  10.089  -0.840  1.00  0.00     0.010 A 
ATOM     51  C   UNL     1       7.788  10.535  -2.410  1.00  0.00     0.020 A 
ATOM     52  C   UNL     1       5.404  10.809  -2.032  1.00  0.00     0.020 A 
ATOM     53  C   UNL     1       6.544  11.036  -2.805  1.00  0.00     0.054 A 
BRANCH  53  54
ATOM     54  S   UNL     1       6.428  11.952  -4.366  1.00  0.00     0.124 S 
ATOM     55  O   UNL     1       7.120  13.195  -4.040  1.00  0.00    -0.237 OA
ATOM     56  O   UNL     1       7.119  11.067  -5.300  1.00  0.00    -0.237 OA
ATOM     57  O   UNL     1       4.988  12.075  -4.584  1.00  0.00    -0.744 OA
ENDBRANCH  53  54
ENDBRANCH  25  48
BRANCH  37  58
ATOM     58  C   UNL     1      10.047  10.439   5.654  1.00  0.00    -0.014 A 
ATOM     59  C   UNL     1       9.557  11.716   5.982  1.00  0.00     0.010 A 
ATOM     60  C   UNL     1      11.413  10.161   5.851  1.00  0.00     0.010 A 
ATOM     61  C   UNL     1      10.424  12.706   6.455  1.00  0.00     0.020 A 
ATOM     62  C   UNL     1      12.275  11.136   6.357  1.00  0.00     0.020 A 
ATOM     63  C   UNL     1      11.778  12.409   6.639  1.00  0.00     0.054 A 
BRANCH  63  64
ATOM     64  S   UNL     1      12.877  13.701   7.282  1.00  0.00     0.124 S 
ATOM     65  O   UNL     1      12.984  14.605   6.140  1.00  0.00    -0.237 OA
ATOM     66  O   UNL     1      12.128  14.217   8.425  1.00  0.00    -0.237 OA
ATOM     67  O   UNL     1      14.101  12.979   7.621  1.00  0.00    -0.744 OA
ENDBRANCH  63  64
ENDBRANCH  37  58
ENDBRANCH  11  12
ENDBRANCH   4   6
ENDBRANCH   1   2
BRANCH   1  68
ATOM     68  C   UNL     1       5.068  -2.604   0.204  1.00  0.00     0.042 C 
BRANCH  68  69
ATOM     69  C   UNL     1       4.629  -3.894  -0.473  1.00  0.00     0.118 C 
BRANCH  69  70
ATOM     70  N   UNL     1       5.030  -3.976  -1.874  1.00  0.00    -0.352 N 
ATOM     71  C   UNL     1       5.743  -4.946  -2.543  1.00  0.00     0.255 C 
ATOM     72  H   UNL     1       4.744  -3.216  -2.431  1.00  0.00     0.163 HD
ATOM     73  O   UNL     1       5.980  -4.821  -3.739  1.00  0.00    -0.269 OA
BRANCH  71  74
ATOM     74  C   UNL     1       6.153  -6.163  -1.816  1.00  0.00     0.083 A 
ATOM     75  C   UNL     1       5.140  -6.909  -1.217  1.00  0.00     0.018 A 
ATOM     76  C   UNL     1       7.512  -6.542  -1.709  1.00  0.00     0.146 A 
ATOM     77  C   UNL     1       5.471  -7.993  -0.441  1.00  0.00     0.002 A 
ATOM     78  C   UNL     1       7.998  -7.592  -0.811  1.00  0.00     0.060 A 
ATOM     79  C   UNL     1       6.822  -8.309  -0.224  1.00  0.00     0.019 A 
ATOM     80  Br  UNL     1      10.521  -8.055  -0.460  1.00  0.00    -0.047 Br
BRANCH  76  81
ATOM     81  O   UNL     1       8.395  -5.902  -2.522  1.00  0.00    -0.488 OA
BRANCH  81  82
ATOM     82  C   UNL     1       9.508  -6.562  -2.011  1.00  0.00     0.178 C 
ATOM     83  C   UNL     1       9.213  -8.435  -2.438  1.00  0.00     0.074 C 
ATOM     84  C   UNL     1       9.467  -5.932  -0.186  1.00  0.00     0.080 C 
ATOM     85  C   UNL     1       8.843  -9.638  -0.980  1.00  0.00     0.165 C 
ATOM     86  C   UNL     1       8.926  -7.178   1.143  1.00  0.00     0.072 C 
ATOM     87  O   UNL     1       8.796  -8.945   0.728  1.00  0.00    -0.375 OA
ATOM     88  C   UNL     1       9.665  -7.035   2.538  1.00  0.00     0.036 C 
ATOM     89  C   UNL     1       7.726  -6.479   1.911  1.00  0.00     0.036 C 
ATOM     90  C   UNL     1       8.270  -7.089   3.196  1.00  0.00     0.006 C 
ENDBRANCH  81  82
ENDBRANCH  76  81
ENDBRANCH  71  74
ENDBRANCH  69  70
ENDBRANCH  68  69
ENDBRANCH   1  68
TORSDOF 15
