REMARK SMILES Nc1c(CC(=O)NCCCNC(=O)c2ccc(-c3c4nc(c(-c5ccc(S(=O)(=O)[O-])cc5)c5ccc([nH]5)c(-c5ccc(S(=O)(=O)[O-])cc5)c5nc(c(-c6ccc(S(=O)(=O)[O-])cc6)c6ccc3[nH]6)C=C5)C=C4)cc2)cccc1C(=O)c1ccc(Br)cc1
REMARK SMILES IDX 9 1 8 2 7 3 5 4 6 5 4 7 3 8 2 9 77 10 74 11 76 12 75 13 1 14
REMARK SMILES IDX 78 17 79 18 80 19 81 20 86 21 82 22 85 23 83 24 84 25 10 26
REMARK SMILES IDX 11 27 12 28 13 30 14 31 15 32 73 33 16 34 72 35 17 36 18 37
REMARK SMILES IDX 19 38 66 39 20 40 71 41 65 42 67 43 21 44 70 45 64 46 63 47
REMARK SMILES IDX 22 49 52 50 33 51 51 52 34 53 37 54 50 55 68 56 35 57 36 58
REMARK SMILES IDX 49 60 69 61 38 62 23 63 24 64 32 65 25 66 31 67 26 68 27 69
REMARK SMILES IDX 28 70 29 71 30 72 53 73 54 74 62 75 55 76 61 77 56 78 57 79
REMARK SMILES IDX 58 80 59 81 60 82 39 83 40 84 48 85 41 86 47 87 42 88 43 89
REMARK SMILES IDX 44 90 45 91 46 92
REMARK H PARENT 7 6 1 15 1 16 11 29 67 48 37 59
REMARK Flexibility Score: inf
ROOT
ATOM      1  C   UNL     1       0.914  -0.783   3.423  1.00  0.00     0.042 C 
ENDROOT
BRANCH   1   2
ATOM      2  C   UNL     1       1.732  -1.931   2.833  1.00  0.00     0.117 C 
BRANCH   2   3
ATOM      3  N   UNL     1       0.906  -3.062   2.458  1.00  0.00    -0.356 N 
ATOM      4  C   UNL     1       0.436  -3.412   1.226  1.00  0.00     0.224 C 
ATOM      5  O   UNL     1      -0.288  -4.407   1.137  1.00  0.00    -0.275 OA
ATOM      6  H   UNL     1       0.649  -3.662   3.196  1.00  0.00     0.163 HD
BRANCH   4   7
ATOM      7  C   UNL     1       0.850  -2.631  -0.011  1.00  0.00     0.137 C 
BRANCH   7   8
ATOM      8  C   UNL     1       0.245  -1.242  -0.111  1.00  0.00    -0.015 A 
ATOM      9  C   UNL     1       1.031  -0.057  -0.131  1.00  0.00     0.046 A 
ATOM     10  C   UNL     1       0.370   1.200  -0.159  1.00  0.00     0.046 A 
ATOM     11  C   UNL     1      -1.160  -1.157  -0.141  1.00  0.00     0.006 A 
ATOM     12  C   UNL     1      -1.039   1.240  -0.169  1.00  0.00     0.014 A 
ATOM     13  C   UNL     1      -1.798   0.075  -0.163  1.00  0.00     0.001 A 
BRANCH   9  14
ATOM     14  N   UNL     1       2.414  -0.179  -0.078  1.00  0.00    -0.398 N 
ATOM     15  H   UNL     1       2.829  -1.072  -0.060  1.00  0.00     0.156 HD
ATOM     16  H   UNL     1       2.980   0.627  -0.059  1.00  0.00     0.156 HD
ENDBRANCH   9  14
BRANCH  10  17
ATOM     17  C   UNL     1       1.029   2.551  -0.150  1.00  0.00     0.195 C 
ATOM     18  O   UNL     1       0.362   3.568   0.029  1.00  0.00    -0.289 OA
BRANCH  17  19
ATOM     19  C   UNL     1       2.480   2.750  -0.299  1.00  0.00     0.023 A 
ATOM     20  C   UNL     1       3.178   3.333   0.766  1.00  0.00     0.013 A 
ATOM     21  C   UNL     1       3.155   2.344  -1.455  1.00  0.00     0.013 A 
ATOM     22  C   UNL     1       4.568   3.442   0.706  1.00  0.00     0.016 A 
ATOM     23  C   UNL     1       4.548   2.446  -1.507  1.00  0.00     0.016 A 
ATOM     24  C   UNL     1       5.246   2.982  -0.423  1.00  0.00     0.018 A 
ATOM     25  Br  UNL     1       7.135   3.066  -0.478  1.00  0.00    -0.051 Br
ENDBRANCH  17  19
ENDBRANCH  10  17
ENDBRANCH   7   8
ENDBRANCH   4   7
ENDBRANCH   2   3
ENDBRANCH   1   2
BRANCH   1  26
ATOM     26  C   UNL     1       0.369  -1.073   4.819  1.00  0.00     0.118 C 
BRANCH  26  27
ATOM     27  N   UNL     1       1.430  -1.257   5.800  1.00  0.00    -0.352 N 
ATOM     28  C   UNL     1       1.635  -0.652   7.012  1.00  0.00     0.251 C 
ATOM     29  H   UNL     1       2.110  -1.924   5.552  1.00  0.00     0.163 HD
ATOM     30  O   UNL     1       2.712  -0.822   7.586  1.00  0.00    -0.269 OA
BRANCH  28  31
ATOM     31  C   UNL     1       0.598   0.204   7.629  1.00  0.00     0.039 A 
ATOM     32  C   UNL     1       1.002   1.354   8.313  1.00  0.00     0.014 A 
ATOM     33  C   UNL     1      -0.756  -0.138   7.582  1.00  0.00     0.014 A 
ATOM     34  C   UNL     1       0.048   2.187   8.901  1.00  0.00     0.010 A 
ATOM     35  C   UNL     1      -1.713   0.730   8.108  1.00  0.00     0.010 A 
ATOM     36  C   UNL     1      -1.320   1.899   8.777  1.00  0.00    -0.014 A 
BRANCH  36  37
ATOM     37  C   UNL     1      -2.346   2.827   9.316  1.00  0.00     0.031 A 
ATOM     38  C   UNL     1      -3.269   2.399  10.423  1.00  0.00     0.074 A 
ATOM     39  C   UNL     1      -2.487   4.045   8.757  1.00  0.00     0.049 A 
ATOM     40  N   UNL     1      -4.228   3.075  11.004  1.00  0.00    -0.248 NA
ATOM     41  C   UNL     1      -3.114   1.025  10.923  1.00  0.00     0.031 C 
ATOM     42  C   UNL     1      -1.698   4.554   7.633  1.00  0.00     0.029 A 
ATOM     43  N   UNL     1      -3.351   5.070   9.049  1.00  0.00    -0.354 N 
ATOM     44  C   UNL     1      -4.803   2.205  11.923  1.00  0.00     0.074 A 
ATOM     45  C   UNL     1      -4.115   0.939  11.787  1.00  0.00     0.031 C 
ATOM     46  C   UNL     1      -2.101   5.801   7.344  1.00  0.00     0.029 A 
ATOM     47  C   UNL     1      -3.196   6.167   8.236  1.00  0.00     0.049 A 
ATOM     48  H   UNL     1      -4.018   5.024   9.772  1.00  0.00     0.167 HD
ATOM     49  C   UNL     1      -5.801   2.442  12.810  1.00  0.00     0.031 A 
ATOM     50  C   UNL     1      -3.862   7.337   8.204  1.00  0.00     0.031 A 
ATOM     51  C   UNL     1      -6.486   3.702  12.936  1.00  0.00     0.049 A 
ATOM     52  C   UNL     1      -4.950   7.590   9.206  1.00  0.00     0.074 A 
ATOM     53  C   UNL     1      -7.459   4.066  13.850  1.00  0.00     0.029 A 
ATOM     54  N   UNL     1      -6.283   4.800  12.112  1.00  0.00    -0.354 N 
ATOM     55  N   UNL     1      -5.414   6.789  10.136  1.00  0.00    -0.248 NA
ATOM     56  C   UNL     1      -5.593   8.910   9.168  1.00  0.00     0.031 C 
ATOM     57  C   UNL     1      -7.883   5.365  13.543  1.00  0.00     0.029 A 
ATOM     58  C   UNL     1      -7.134   5.832  12.475  1.00  0.00     0.049 A 
ATOM     59  H   UNL     1      -5.629   4.840  11.377  1.00  0.00     0.167 HD
ATOM     60  C   UNL     1      -6.398   7.511  10.802  1.00  0.00     0.074 A 
ATOM     61  C   UNL     1      -6.443   8.821  10.182  1.00  0.00     0.031 C 
ATOM     62  C   UNL     1      -7.190   7.122  11.832  1.00  0.00     0.031 A 
BRANCH  49  63
ATOM     63  C   UNL     1      -6.222   1.293  13.692  1.00  0.00    -0.014 A 
ATOM     64  C   UNL     1      -5.366   0.782  14.686  1.00  0.00     0.010 A 
ATOM     65  C   UNL     1      -7.490   0.709  13.520  1.00  0.00     0.010 A 
ATOM     66  C   UNL     1      -5.740  -0.335  15.439  1.00  0.00     0.020 A 
ATOM     67  C   UNL     1      -7.881  -0.389  14.293  1.00  0.00     0.020 A 
ATOM     68  C   UNL     1      -6.990  -0.921  15.228  1.00  0.00     0.054 A 
BRANCH  68  69
ATOM     69  S   UNL     1      -7.439  -2.389  16.195  1.00  0.00     0.124 S 
ATOM     70  O   UNL     1      -6.636  -3.427  15.555  1.00  0.00    -0.237 OA
ATOM     71  O   UNL     1      -7.027  -2.022  17.548  1.00  0.00    -0.237 OA
ATOM     72  O   UNL     1      -8.882  -2.507  15.997  1.00  0.00    -0.744 OA
ENDBRANCH  68  69
ENDBRANCH  49  63
BRANCH  50  73
ATOM     73  C   UNL     1      -3.485   8.355   7.187  1.00  0.00    -0.014 A 
ATOM     74  C   UNL     1      -2.752   9.496   7.556  1.00  0.00     0.010 A 
ATOM     75  C   UNL     1      -3.788   8.144   5.829  1.00  0.00     0.010 A 
ATOM     76  C   UNL     1      -2.320  10.403   6.584  1.00  0.00     0.020 A 
ATOM     77  C   UNL     1      -3.336   9.035   4.852  1.00  0.00     0.020 A 
ATOM     78  C   UNL     1      -2.606  10.161   5.237  1.00  0.00     0.054 A 
BRANCH  78  79
ATOM     79  S   UNL     1      -1.944  11.298   3.986  1.00  0.00     0.124 S 
ATOM     80  O   UNL     1      -2.789  12.473   4.165  1.00  0.00    -0.237 OA
ATOM     81  O   UNL     1      -0.552  11.449   4.405  1.00  0.00    -0.237 OA
ATOM     82  O   UNL     1      -2.133  10.574   2.731  1.00  0.00    -0.744 OA
ENDBRANCH  78  79
ENDBRANCH  50  73
BRANCH  62  83
ATOM     83  C   UNL     1      -8.178   8.132  12.357  1.00  0.00    -0.014 A 
ATOM     84  C   UNL     1      -9.313   8.494  11.610  1.00  0.00     0.010 A 
ATOM     85  C   UNL     1      -7.985   8.701  13.629  1.00  0.00     0.010 A 
ATOM     86  C   UNL     1     -10.217   9.436  12.108  1.00  0.00     0.020 A 
ATOM     87  C   UNL     1      -8.901   9.622  14.143  1.00  0.00     0.020 A 
ATOM     88  C   UNL     1     -10.003   9.997  13.371  1.00  0.00     0.054 A 
BRANCH  88  89
ATOM     89  S   UNL     1     -11.203  11.199  14.008  1.00  0.00     0.124 S 
ATOM     90  O   UNL     1     -10.887  12.389  13.223  1.00  0.00    -0.237 OA
ATOM     91  O   UNL     1     -12.484  10.567  13.705  1.00  0.00    -0.237 OA
ATOM     92  O   UNL     1     -10.881  11.288  15.431  1.00  0.00    -0.744 OA
ENDBRANCH  88  89
ENDBRANCH  62  83
ENDBRANCH  36  37
ENDBRANCH  28  31
ENDBRANCH  26  27
ENDBRANCH   1  26
TORSDOF 17
