REMARK SMILES O=C(C[C@H]1C[C@H]2CC[C@@H](C1)N2C(=O)c1c[nH]c(=O)[nH]1)NCCCNC(=O)c1ccc(-c2c3nc(c(-c4ccc(S(=O)(=O)[O-])cc4)c4ccc([nH]4)c(-c4ccc(S(=O)(=O)[O-])cc4)c4nc(c(-c5ccc(S(=O)(=O)[O-])cc5)c5ccc2[nH]5)C=C4)C=C3)cc1
REMARK SMILES IDX 22 1 21 2 20 3 1 4 2 5 3 7 4 8 5 9 10 10 6 11 9 12 7 13
REMARK SMILES IDX 11 14 8 15 12 16 13 17 14 18 15 19 19 20 16 21 17 22 18 25
REMARK SMILES IDX 23 26 24 27 25 28 26 30 27 31 28 32 86 33 29 34 85 35 30 36
REMARK SMILES IDX 31 37 32 38 79 39 33 40 84 41 78 42 80 43 34 44 83 45 77 46
REMARK SMILES IDX 76 47 35 49 65 50 46 51 64 52 47 53 50 54 63 55 81 56 48 57
REMARK SMILES IDX 49 58 62 60 82 61 51 62 36 63 37 64 45 65 38 66 44 67 39 68
REMARK SMILES IDX 40 69 41 70 42 71 43 72 66 73 67 74 75 75 68 76 74 77 69 78
REMARK SMILES IDX 70 79 71 80 72 81 73 82 52 83 53 84 61 85 54 86 60 87 55 88
REMARK SMILES IDX 56 89 57 90 58 91 59 92
REMARK H PARENT 20 6 19 23 16 24 24 29 80 48 50 59
REMARK Flexibility Score: inf
ROOT
ATOM      1  C   UNL     1       1.978  -0.978   3.486  1.00  0.00     0.042 C 
ENDROOT
BRANCH   1   2
ATOM      2  C   UNL     1       1.524   0.315   2.794  1.00  0.00     0.117 C 
BRANCH   2   3
ATOM      3  N   UNL     1       2.147   0.478   1.493  1.00  0.00    -0.356 N 
ATOM      4  O   UNL     1       0.295   1.040   0.304  1.00  0.00    -0.275 OA
ATOM      5  C   UNL     1       1.500   0.789   0.326  1.00  0.00     0.220 C 
ATOM      6  H   UNL     1       3.122   0.352   1.445  1.00  0.00     0.163 HD
BRANCH   5   7
ATOM      7  C   UNL     1       2.271   0.634  -1.006  1.00  0.00     0.103 C 
BRANCH   7   8
ATOM      8  C   UNL     1       3.762   1.003  -1.237  1.00  0.00     0.002 C 
ATOM      9  C   UNL     1       4.710   0.955  -0.040  1.00  0.00     0.029 C 
ATOM     10  C   UNL     1       4.426   0.173  -2.396  1.00  0.00     0.029 C 
ATOM     11  C   UNL     1       5.181  -0.474   0.282  1.00  0.00     0.086 C 
ATOM     12  C   UNL     1       5.173  -1.120  -1.946  1.00  0.00     0.086 C 
ATOM     13  C   UNL     1       4.174  -1.647   0.179  1.00  0.00     0.027 C 
ATOM     14  N   UNL     1       6.054  -0.822  -0.815  1.00  0.00    -0.331 N 
ATOM     15  C   UNL     1       4.212  -2.108  -1.289  1.00  0.00     0.027 C 
BRANCH  14  16
ATOM     16  C   UNL     1       7.318  -1.289  -0.530  1.00  0.00     0.272 C 
ATOM     17  O   UNL     1       7.775  -1.325   0.611  1.00  0.00    -0.267 OA
BRANCH  16  18
ATOM     18  C   UNL     1       8.117  -1.830  -1.639  1.00  0.00     0.125 A 
ATOM     19  C   UNL     1       8.365  -1.287  -2.837  1.00  0.00     0.119 A 
ATOM     20  N   UNL     1       8.825  -3.002  -1.525  1.00  0.00    -0.302 N 
ATOM     21  N   UNL     1       9.207  -2.126  -3.521  1.00  0.00    -0.312 N 
ATOM     22  C   UNL     1       9.520  -3.229  -2.711  1.00  0.00     0.323 A 
ATOM     23  H   UNL     1       8.839  -3.587  -0.733  1.00  0.00     0.172 HD
ATOM     24  H   UNL     1       9.540  -1.978  -4.435  1.00  0.00     0.171 HD
ATOM     25  O   UNL     1      10.238  -4.170  -2.997  1.00  0.00    -0.248 OA
ENDBRANCH  16  18
ENDBRANCH  14  16
ENDBRANCH   7   8
ENDBRANCH   5   7
ENDBRANCH   2   3
ENDBRANCH   1   2
BRANCH   1  26
ATOM     26  C   UNL     1       3.477  -1.138   3.777  1.00  0.00     0.118 C 
BRANCH  26  27
ATOM     27  N   UNL     1       4.066  -0.059   4.545  1.00  0.00    -0.352 N 
ATOM     28  C   UNL     1       4.916  -0.096   5.627  1.00  0.00     0.251 C 
ATOM     29  H   UNL     1       3.818   0.845   4.245  1.00  0.00     0.163 HD
ATOM     30  O   UNL     1       5.242   0.969   6.150  1.00  0.00    -0.269 OA
BRANCH  28  31
ATOM     31  C   UNL     1       5.405  -1.373   6.204  1.00  0.00     0.039 A 
ATOM     32  C   UNL     1       5.406  -1.499   7.597  1.00  0.00     0.014 A 
ATOM     33  C   UNL     1       5.899  -2.422   5.422  1.00  0.00     0.014 A 
ATOM     34  C   UNL     1       5.833  -2.687   8.199  1.00  0.00     0.010 A 
ATOM     35  C   UNL     1       6.270  -3.634   6.024  1.00  0.00     0.010 A 
ATOM     36  C   UNL     1       6.230  -3.787   7.419  1.00  0.00    -0.014 A 
BRANCH  36  37
ATOM     37  C   UNL     1       6.540  -5.094   8.072  1.00  0.00     0.031 A 
ATOM     38  C   UNL     1       7.919  -5.699   8.019  1.00  0.00     0.074 A 
ATOM     39  C   UNL     1       5.555  -5.755   8.718  1.00  0.00     0.049 A 
ATOM     40  N   UNL     1       8.357  -6.800   8.581  1.00  0.00    -0.248 NA
ATOM     41  C   UNL     1       8.932  -4.991   7.224  1.00  0.00     0.031 C 
ATOM     42  C   UNL     1       4.162  -5.309   8.814  1.00  0.00     0.029 A 
ATOM     43  N   UNL     1       5.571  -6.933   9.425  1.00  0.00    -0.354 N 
ATOM     44  C   UNL     1       9.691  -6.919   8.207  1.00  0.00     0.074 A 
ATOM     45  C   UNL     1       9.976  -5.803   7.330  1.00  0.00     0.031 C 
ATOM     46  C   UNL     1       3.472  -6.176   9.571  1.00  0.00     0.029 A 
ATOM     47  C   UNL     1       4.356  -7.263   9.980  1.00  0.00     0.049 A 
ATOM     48  H   UNL     1       6.377  -7.489   9.525  1.00  0.00     0.167 HD
ATOM     49  C   UNL     1      10.601  -7.858   8.570  1.00  0.00     0.031 A 
ATOM     50  C   UNL     1       3.984  -8.316  10.735  1.00  0.00     0.031 A 
ATOM     51  C   UNL     1      10.317  -8.978   9.435  1.00  0.00     0.049 A 
ATOM     52  C   UNL     1       5.008  -9.351  11.112  1.00  0.00     0.074 A 
ATOM     53  C   UNL     1      11.188  -9.952   9.895  1.00  0.00     0.029 A 
ATOM     54  N   UNL     1       9.071  -9.282   9.963  1.00  0.00    -0.354 N 
ATOM     55  N   UNL     1       6.282  -9.402  10.805  1.00  0.00    -0.248 NA
ATOM     56  C   UNL     1       4.545 -10.461  11.957  1.00  0.00     0.031 C 
ATOM     57  C   UNL     1      10.457 -10.879  10.646  1.00  0.00     0.029 A 
ATOM     58  C   UNL     1       9.145 -10.443  10.719  1.00  0.00     0.049 A 
ATOM     59  H   UNL     1       8.254  -8.752   9.822  1.00  0.00     0.167 HD
ATOM     60  C   UNL     1       6.779 -10.534  11.444  1.00  0.00     0.074 A 
ATOM     61  C   UNL     1       5.674 -11.122  12.172  1.00  0.00     0.031 C 
ATOM     62  C   UNL     1       8.040 -11.037  11.430  1.00  0.00     0.031 A 
BRANCH  49  63
ATOM     63  C   UNL     1      12.002  -7.726   8.022  1.00  0.00    -0.014 A 
ATOM     64  C   UNL     1      12.850  -6.680   8.430  1.00  0.00     0.010 A 
ATOM     65  C   UNL     1      12.500  -8.696   7.131  1.00  0.00     0.010 A 
ATOM     66  C   UNL     1      14.152  -6.583   7.927  1.00  0.00     0.020 A 
ATOM     67  C   UNL     1      13.812  -8.620   6.651  1.00  0.00     0.020 A 
ATOM     68  C   UNL     1      14.624  -7.554   7.040  1.00  0.00     0.054 A 
BRANCH  68  69
ATOM     69  S   UNL     1      16.326  -7.416   6.426  1.00  0.00     0.124 S 
ATOM     70  O   UNL     1      16.233  -6.261   5.537  1.00  0.00    -0.237 OA
ATOM     71  O   UNL     1      17.091  -7.203   7.652  1.00  0.00    -0.237 OA
ATOM     72  O   UNL     1      16.562  -8.695   5.762  1.00  0.00    -0.744 OA
ENDBRANCH  68  69
ENDBRANCH  49  63
BRANCH  50  73
ATOM     73  C   UNL     1       2.573  -8.437  11.200  1.00  0.00    -0.014 A 
ATOM     74  C   UNL     1       2.249  -8.299  12.561  1.00  0.00     0.010 A 
ATOM     75  C   UNL     1       1.542  -8.687  10.276  1.00  0.00     0.010 A 
ATOM     76  C   UNL     1       0.925  -8.430  12.992  1.00  0.00     0.020 A 
ATOM     77  C   UNL     1       0.213  -8.784  10.698  1.00  0.00     0.020 A 
ATOM     78  C   UNL     1      -0.085  -8.667  12.056  1.00  0.00     0.054 A 
BRANCH  78  79
ATOM     79  S   UNL     1      -1.802  -8.780  12.632  1.00  0.00     0.124 S 
ATOM     80  O   UNL     1      -1.809 -10.068  13.318  1.00  0.00    -0.237 OA
ATOM     81  O   UNL     1      -1.925  -7.604  13.489  1.00  0.00    -0.237 OA
ATOM     82  O   UNL     1      -2.580  -8.724  11.396  1.00  0.00    -0.744 OA
ENDBRANCH  78  79
ENDBRANCH  50  73
BRANCH  62  83
ATOM     83  C   UNL     1       8.299 -12.270  12.262  1.00  0.00    -0.014 A 
ATOM     84  C   UNL     1       7.732 -13.515  11.934  1.00  0.00     0.010 A 
ATOM     85  C   UNL     1       9.130 -12.178  13.395  1.00  0.00     0.010 A 
ATOM     86  C   UNL     1       7.938 -14.627  12.756  1.00  0.00     0.020 A 
ATOM     87  C   UNL     1       9.369 -13.296  14.199  1.00  0.00     0.020 A 
ATOM     88  C   UNL     1       8.750 -14.508  13.889  1.00  0.00     0.054 A 
BRANCH  88  89
ATOM     89  S   UNL     1       8.997 -15.962  14.944  1.00  0.00     0.124 S 
ATOM     90  O   UNL     1       7.702 -16.080  15.608  1.00  0.00    -0.237 OA
ATOM     91  O   UNL     1       9.305 -17.012  13.976  1.00  0.00    -0.237 OA
ATOM     92  O   UNL     1      10.108 -15.577  15.812  1.00  0.00    -0.744 OA
ENDBRANCH  88  89
ENDBRANCH  62  83
ENDBRANCH  36  37
ENDBRANCH  28  31
ENDBRANCH  26  27
ENDBRANCH   1  26
TORSDOF 16
