REMARK SMILES COCCCNC(=O)/C(C#N)=C/c1ccc(C(=O)NCCCNC(=O)c2ccc(-c3c4nc(c(-c5ccc(S(=O)(=O)[O-])cc5)c5ccc([nH]5)c(-c5ccc(S(=O)(=O)[O-])cc5)c5nc(c(-c6ccc(S(=O)(=O)[O-])cc6)c6ccc3[nH]6)C=C5)C=C4)cc2)cc1
REMARK SMILES IDX 17 1 18 2 19 3 16 5 13 6 14 7 87 8 15 9 86 10 12 11 9 12
REMARK SMILES IDX 7 13 6 14 8 16 5 17 4 18 3 19 2 20 1 21 10 22 11 23 20 24
REMARK SMILES IDX 21 25 22 26 23 27 24 28 25 30 26 31 27 32 85 33 28 34 84 35
REMARK SMILES IDX 29 36 30 37 31 38 78 39 32 40 83 41 77 42 79 43 33 44 82 45
REMARK SMILES IDX 76 46 75 47 34 49 64 50 45 51 63 52 46 53 49 54 62 55 80 56
REMARK SMILES IDX 47 57 48 58 61 60 81 61 50 62 35 63 36 64 44 65 37 66 43 67
REMARK SMILES IDX 38 68 39 69 40 70 41 71 42 72 65 73 66 74 74 75 67 76 73 77
REMARK SMILES IDX 68 78 69 79 70 80 71 81 72 82 51 83 52 84 60 85 53 86 59 87
REMARK SMILES IDX 54 88 55 89 56 90 57 91 58 92
REMARK H PARENT 19 4 6 15 23 29 79 48 49 59
REMARK Flexibility Score: inf
ROOT
ATOM      1  C   UNL     1       0.678 -10.441  -3.270  1.00  0.00     0.251 C 
ATOM      2  O   UNL     1       1.204 -11.539  -3.102  1.00  0.00    -0.269 OA
ATOM      3  N   UNL     1      -0.578 -10.383  -3.821  1.00  0.00    -0.352 N 
ATOM      4  H   UNL     1      -0.917 -11.245  -4.156  1.00  0.00     0.163 HD
ENDROOT
BRANCH   1   5
ATOM      5  C   UNL     1       1.392  -9.221  -2.816  1.00  0.00     0.039 A 
ATOM      6  C   UNL     1       2.681  -6.954  -1.793  1.00  0.00    -0.024 A 
ATOM      7  C   UNL     1       2.792  -8.180  -1.130  1.00  0.00     0.009 A 
ATOM      8  C   UNL     1       1.996  -6.883  -3.007  1.00  0.00     0.009 A 
ATOM      9  C   UNL     1       2.148  -9.309  -1.640  1.00  0.00     0.014 A 
ATOM     10  C   UNL     1       1.371  -8.018  -3.523  1.00  0.00     0.014 A 
BRANCH   6  11
ATOM     11  C   UNL     1       3.257  -5.752  -1.197  1.00  0.00     0.033 C 
ATOM     12  C   UNL     1       2.518  -4.745  -0.698  1.00  0.00     0.117 C 
BRANCH  12  13
ATOM     13  C   UNL     1       3.232  -3.593  -0.039  1.00  0.00     0.261 C 
ATOM     14  N   UNL     1       2.592  -2.639   0.710  1.00  0.00    -0.351 N 
ATOM     15  H   UNL     1       3.199  -1.974   1.109  1.00  0.00     0.163 HD
ATOM     16  O   UNL     1       4.457  -3.481  -0.142  1.00  0.00    -0.268 OA
BRANCH  14  17
ATOM     17  C   UNL     1       1.184  -2.421   1.028  1.00  0.00     0.118 C 
BRANCH  17  18
ATOM     18  C   UNL     1       0.914  -1.549   2.252  1.00  0.00     0.050 C 
BRANCH  18  19
ATOM     19  C   UNL     1       1.449  -0.122   2.226  1.00  0.00     0.161 C 
BRANCH  19  20
ATOM     20  O   UNL     1       0.676   0.759   1.421  1.00  0.00    -0.385 OA
ATOM     21  C   UNL     1       1.060   0.803   0.055  1.00  0.00     0.194 C 
ENDBRANCH  19  20
ENDBRANCH  18  19
ENDBRANCH  17  18
ENDBRANCH  14  17
ENDBRANCH  12  13
BRANCH  12  22
ATOM     22  C   UNL     1       0.998  -4.745  -0.698  1.00  0.00     0.105 C 
ATOM     23  N   UNL     1      -0.263  -4.745  -0.698  1.00  0.00    -0.192 NA
ENDBRANCH  12  22
ENDBRANCH   6  11
ENDBRANCH   1   5
BRANCH   3  24
ATOM     24  C   UNL     1      -1.493  -9.266  -3.993  1.00  0.00     0.118 C 
BRANCH  24  25
ATOM     25  C   UNL     1      -1.557  -8.802  -5.448  1.00  0.00     0.042 C 
BRANCH  25  26
ATOM     26  C   UNL     1      -2.289  -9.766  -6.375  1.00  0.00     0.118 C 
BRANCH  26  27
ATOM     27  N   UNL     1      -3.718  -9.799  -6.116  1.00  0.00    -0.352 N 
ATOM     28  C   UNL     1      -4.777  -9.650  -6.975  1.00  0.00     0.251 C 
ATOM     29  H   UNL     1      -3.965  -9.953  -5.176  1.00  0.00     0.163 HD
ATOM     30  O   UNL     1      -5.905  -9.523  -6.503  1.00  0.00    -0.269 OA
BRANCH  28  31
ATOM     31  C   UNL     1      -4.585  -9.624  -8.445  1.00  0.00     0.039 A 
ATOM     32  C   UNL     1      -5.402  -8.776  -9.202  1.00  0.00     0.014 A 
ATOM     33  C   UNL     1      -3.671 -10.460  -9.093  1.00  0.00     0.014 A 
ATOM     34  C   UNL     1      -5.280  -8.745 -10.593  1.00  0.00     0.010 A 
ATOM     35  C   UNL     1      -3.500 -10.376 -10.477  1.00  0.00     0.010 A 
ATOM     36  C   UNL     1      -4.314  -9.531 -11.243  1.00  0.00    -0.014 A 
BRANCH  36  37
ATOM     37  C   UNL     1      -4.167  -9.470 -12.721  1.00  0.00     0.031 A 
ATOM     38  C   UNL     1      -4.491 -10.665 -13.577  1.00  0.00     0.074 A 
ATOM     39  C   UNL     1      -3.725  -8.332 -13.294  1.00  0.00     0.049 A 
ATOM     40  N   UNL     1      -4.469 -10.774 -14.882  1.00  0.00    -0.248 NA
ATOM     41  C   UNL     1      -4.869 -11.905 -12.880  1.00  0.00     0.031 C 
ATOM     42  C   UNL     1      -3.325  -7.122 -12.572  1.00  0.00     0.029 A 
ATOM     43  N   UNL     1      -3.547  -8.005 -14.614  1.00  0.00    -0.354 N 
ATOM     44  C   UNL     1      -4.818 -12.091 -15.161  1.00  0.00     0.074 A 
ATOM     45  C   UNL     1      -4.999 -12.755 -13.889  1.00  0.00     0.031 C 
ATOM     46  C   UNL     1      -2.988  -6.172 -13.459  1.00  0.00     0.029 A 
ATOM     47  C   UNL     1      -3.123  -6.711 -14.808  1.00  0.00     0.049 A 
ATOM     48  H   UNL     1      -3.709  -8.636 -15.353  1.00  0.00     0.167 HD
ATOM     49  C   UNL     1      -4.994 -12.689 -16.365  1.00  0.00     0.031 A 
ATOM     50  C   UNL     1      -2.883  -6.029 -15.944  1.00  0.00     0.031 A 
ATOM     51  C   UNL     1      -4.823 -12.024 -17.630  1.00  0.00     0.049 A 
ATOM     52  C   UNL     1      -3.118  -6.702 -17.267  1.00  0.00     0.074 A 
ATOM     53  C   UNL     1      -5.026 -12.527 -18.904  1.00  0.00     0.029 A 
ATOM     54  N   UNL     1      -4.410 -10.709 -17.783  1.00  0.00    -0.354 N 
ATOM     55  N   UNL     1      -3.515  -7.929 -17.509  1.00  0.00    -0.248 NA
ATOM     56  C   UNL     1      -2.895  -5.890 -18.471  1.00  0.00     0.031 C 
ATOM     57  C   UNL     1      -4.698 -11.528 -19.828  1.00  0.00     0.029 A 
ATOM     58  C   UNL     1      -4.339 -10.387 -19.129  1.00  0.00     0.049 A 
ATOM     59  H   UNL     1      -4.198 -10.094 -17.044  1.00  0.00     0.167 HD
ATOM     60  C   UNL     1      -3.611  -8.029 -18.892  1.00  0.00     0.074 A 
ATOM     61  C   UNL     1      -3.251  -6.732 -19.430  1.00  0.00     0.031 C 
ATOM     62  C   UNL     1      -3.966  -9.097 -19.649  1.00  0.00     0.031 A 
BRANCH  49  63
ATOM     63  C   UNL     1      -5.391 -14.143 -16.366  1.00  0.00    -0.014 A 
ATOM     64  C   UNL     1      -6.676 -14.544 -15.954  1.00  0.00     0.010 A 
ATOM     65  C   UNL     1      -4.483 -15.118 -16.816  1.00  0.00     0.010 A 
ATOM     66  C   UNL     1      -7.029 -15.896 -15.949  1.00  0.00     0.020 A 
ATOM     67  C   UNL     1      -4.842 -16.470 -16.838  1.00  0.00     0.020 A 
ATOM     68  C   UNL     1      -6.107 -16.852 -16.386  1.00  0.00     0.054 A 
BRANCH  68  69
ATOM     69  S   UNL     1      -6.596 -18.599 -16.384  1.00  0.00     0.124 S 
ATOM     70  O   UNL     1      -6.537 -18.926 -14.962  1.00  0.00    -0.237 OA
ATOM     71  O   UNL     1      -7.936 -18.558 -16.964  1.00  0.00    -0.237 OA
ATOM     72  O   UNL     1      -5.581 -19.243 -17.215  1.00  0.00    -0.744 OA
ENDBRANCH  68  69
ENDBRANCH  49  63
BRANCH  50  73
ATOM     73  C   UNL     1      -2.434  -4.612 -15.876  1.00  0.00    -0.014 A 
ATOM     74  C   UNL     1      -3.309  -3.568 -16.223  1.00  0.00     0.010 A 
ATOM     75  C   UNL     1      -1.133  -4.300 -15.441  1.00  0.00     0.010 A 
ATOM     76  C   UNL     1      -2.887  -2.238 -16.154  1.00  0.00     0.020 A 
ATOM     77  C   UNL     1      -0.716  -2.969 -15.346  1.00  0.00     0.020 A 
ATOM     78  C   UNL     1      -1.593  -1.946 -15.714  1.00  0.00     0.054 A 
BRANCH  78  79
ATOM     79  S   UNL     1      -1.083  -0.210 -15.573  1.00  0.00     0.124 S 
ATOM     80  O   UNL     1      -0.841   0.148 -16.966  1.00  0.00    -0.237 OA
ATOM     81  O   UNL     1      -2.249   0.413 -14.951  1.00  0.00    -0.237 OA
ATOM     82  O   UNL     1       0.105  -0.273 -14.725  1.00  0.00    -0.744 OA
ENDBRANCH  78  79
ENDBRANCH  50  73
BRANCH  62  83
ATOM     83  C   UNL     1      -4.006  -8.892 -21.140  1.00  0.00    -0.014 A 
ATOM     84  C   UNL     1      -2.823  -8.746 -21.888  1.00  0.00     0.010 A 
ATOM     85  C   UNL     1      -5.246  -8.852 -21.802  1.00  0.00     0.010 A 
ATOM     86  C   UNL     1      -2.883  -8.507 -23.263  1.00  0.00     0.020 A 
ATOM     87  C   UNL     1      -5.309  -8.640 -23.182  1.00  0.00     0.020 A 
ATOM     88  C   UNL     1      -4.127  -8.445 -23.900  1.00  0.00     0.054 A 
BRANCH  88  89
ATOM     89  S   UNL     1      -4.183  -8.133 -25.685  1.00  0.00     0.124 S 
ATOM     90  O   UNL     1      -3.941  -6.694 -25.748  1.00  0.00    -0.237 OA
ATOM     91  O   UNL     1      -3.104  -8.975 -26.196  1.00  0.00    -0.237 OA
ATOM     92  O   UNL     1      -5.529  -8.556 -26.067  1.00  0.00    -0.744 OA
ENDBRANCH  88  89
ENDBRANCH  62  83
ENDBRANCH  36  37
ENDBRANCH  28  31
ENDBRANCH  26  27
ENDBRANCH  25  26
ENDBRANCH  24  25
ENDBRANCH   3  24
TORSDOF 20
