REMARK SMILES CC[C@H](C(=O)NCCCNC(=O)c1ccc(-c2c3nc(c(-c4ccc(S(=O)(=O)[O-])cc4)c4ccc([nH]4)c(-c4ccc(S(=O)(=O)[O-])cc4)c4nc(c(-c5ccc(S(=O)(=O)[O-])cc5)c5ccc2[nH]5)C=C4)C=C3)cc1)N1C(=O)c2ccc([N+](=O)[O-])cc2C1=O
REMARK SMILES IDX 8 1 7 2 6 3 4 4 5 5 3 7 2 8 1 9 73 10 74 11 85 12 75 13
REMARK SMILES IDX 76 14 84 15 86 16 77 17 83 18 78 19 79 20 80 21 81 22 82 23
REMARK SMILES IDX 9 24 10 25 11 26 12 28 13 29 14 30 72 31 15 32 71 33 16 34
REMARK SMILES IDX 17 35 18 36 65 37 19 38 70 39 64 40 66 41 20 42 69 43 63 44
REMARK SMILES IDX 62 45 21 47 51 48 32 49 50 50 33 51 36 52 49 53 67 54 34 55
REMARK SMILES IDX 35 56 48 58 68 59 37 60 22 61 23 62 31 63 24 64 30 65 25 66
REMARK SMILES IDX 26 67 27 68 28 69 29 70 52 71 53 72 61 73 54 74 60 75 55 76
REMARK SMILES IDX 56 77 57 78 58 79 59 80 38 81 39 82 47 83 40 84 46 85 41 86
REMARK SMILES IDX 42 87 43 88 44 89 45 90
REMARK H PARENT 6 6 10 27 66 46 36 57
REMARK Flexibility Score: inf
ROOT
ATOM      1  C   UNL     1      -1.432   0.399   2.070  1.00  0.00     0.042 C 
ENDROOT
BRANCH   1   2
ATOM      2  C   UNL     1      -1.374  -0.807   1.151  1.00  0.00     0.117 C 
BRANCH   2   3
ATOM      3  N   UNL     1      -0.327  -0.695   0.147  1.00  0.00    -0.354 N 
ATOM      4  C   UNL     1       0.627  -1.595  -0.231  1.00  0.00     0.243 C 
ATOM      5  O   UNL     1       1.192  -1.395  -1.312  1.00  0.00    -0.273 OA
ATOM      6  H   UNL     1      -0.303   0.163  -0.335  1.00  0.00     0.163 HD
BRANCH   4   7
ATOM      7  C   UNL     1       0.927  -2.880   0.572  1.00  0.00     0.183 C 
BRANCH   7   8
ATOM      8  C   UNL     1       1.036  -2.794   2.104  1.00  0.00     0.032 C 
ATOM      9  C   UNL     1       1.813  -1.583   2.608  1.00  0.00     0.006 C 
ENDBRANCH   7   8
BRANCH   7  10
ATOM     10  N   UNL     1       0.117  -4.011   0.093  1.00  0.00    -0.262 N 
ATOM     11  C   UNL     1      -1.187  -3.962  -0.308  1.00  0.00     0.262 C 
ATOM     12  C   UNL     1       0.564  -5.309   0.123  1.00  0.00     0.262 C 
ATOM     13  O   UNL     1      -1.972  -3.038  -0.411  1.00  0.00    -0.269 OA
ATOM     14  C   UNL     1      -1.593  -5.314  -0.644  1.00  0.00     0.053 A 
ATOM     15  C   UNL     1      -0.534  -6.151  -0.359  1.00  0.00     0.060 A 
ATOM     16  O   UNL     1       1.631  -5.752   0.495  1.00  0.00    -0.269 OA
ATOM     17  C   UNL     1      -2.799  -5.769  -1.145  1.00  0.00     0.022 A 
ATOM     18  C   UNL     1      -0.629  -7.519  -0.528  1.00  0.00     0.100 A 
ATOM     19  C   UNL     1      -2.926  -7.144  -1.345  1.00  0.00     0.086 A 
ATOM     20  C   UNL     1      -1.850  -8.010  -1.026  1.00  0.00     0.270 A 
BRANCH  20  21
ATOM     21  N   UNL     1      -2.025  -9.455  -1.214  1.00  0.00     0.062 N 
ATOM     22  O   UNL     1      -2.996  -9.833  -1.883  1.00  0.00    -0.258 OA
ATOM     23  O   UNL     1      -1.192 -10.205  -0.690  1.00  0.00    -0.258 OA
ENDBRANCH  20  21
ENDBRANCH   7  10
ENDBRANCH   4   7
ENDBRANCH   2   3
ENDBRANCH   1   2
BRANCH   1  24
ATOM     24  C   UNL     1      -2.127   1.582   1.411  1.00  0.00     0.118 C 
BRANCH  24  25
ATOM     25  N   UNL     1      -3.555   1.341   1.219  1.00  0.00    -0.352 N 
ATOM     26  C   UNL     1      -4.639   1.960   1.791  1.00  0.00     0.251 C 
ATOM     27  H   UNL     1      -3.774   0.625   0.580  1.00  0.00     0.163 HD
ATOM     28  O   UNL     1      -5.756   1.463   1.677  1.00  0.00    -0.269 OA
BRANCH  26  29
ATOM     29  C   UNL     1      -4.456   3.211   2.555  1.00  0.00     0.039 A 
ATOM     30  C   UNL     1      -5.159   3.391   3.748  1.00  0.00     0.014 A 
ATOM     31  C   UNL     1      -3.594   4.207   2.091  1.00  0.00     0.014 A 
ATOM     32  C   UNL     1      -4.939   4.539   4.511  1.00  0.00     0.010 A 
ATOM     33  C   UNL     1      -3.303   5.300   2.897  1.00  0.00     0.010 A 
ATOM     34  C   UNL     1      -3.979   5.484   4.111  1.00  0.00    -0.014 A 
BRANCH  34  35
ATOM     35  C   UNL     1      -3.668   6.675   4.940  1.00  0.00     0.031 A 
ATOM     36  C   UNL     1      -3.900   8.056   4.388  1.00  0.00     0.074 A 
ATOM     37  C   UNL     1      -3.105   6.514   6.154  1.00  0.00     0.049 A 
ATOM     38  N   UNL     1      -3.614   9.215   4.922  1.00  0.00    -0.248 NA
ATOM     39  C   UNL     1      -4.502   8.146   3.046  1.00  0.00     0.031 C 
ATOM     40  C   UNL     1      -2.783   5.227   6.777  1.00  0.00     0.029 A 
ATOM     41  N   UNL     1      -2.696   7.440   7.079  1.00  0.00    -0.354 N 
ATOM     42  C   UNL     1      -3.977  10.167   3.976  1.00  0.00     0.074 A 
ATOM     43  C   UNL     1      -4.454   9.450   2.815  1.00  0.00     0.031 C 
ATOM     44  C   UNL     1      -2.256   5.446   7.992  1.00  0.00     0.029 A 
ATOM     45  C   UNL     1      -2.161   6.885   8.218  1.00  0.00     0.049 A 
ATOM     46  H   UNL     1      -2.776   8.412   6.941  1.00  0.00     0.167 HD
ATOM     47  C   UNL     1      -3.937  11.517   4.072  1.00  0.00     0.031 A 
ATOM     48  C   UNL     1      -1.648   7.467   9.318  1.00  0.00     0.031 A 
ATOM     49  C   UNL     1      -3.484  12.226   5.238  1.00  0.00     0.049 A 
ATOM     50  C   UNL     1      -1.624   8.968   9.406  1.00  0.00     0.074 A 
ATOM     51  C   UNL     1      -3.467  13.591   5.462  1.00  0.00     0.029 A 
ATOM     52  N   UNL     1      -2.972  11.626   6.378  1.00  0.00    -0.354 N 
ATOM     53  N   UNL     1      -2.033   9.851   8.526  1.00  0.00    -0.248 NA
ATOM     54  C   UNL     1      -1.079   9.551  10.640  1.00  0.00     0.031 C 
ATOM     55  C   UNL     1      -2.901  13.819   6.721  1.00  0.00     0.029 A 
ATOM     56  C   UNL     1      -2.615  12.593   7.301  1.00  0.00     0.049 A 
ATOM     57  H   UNL     1      -2.877  10.655   6.511  1.00  0.00     0.167 HD
ATOM     58  C   UNL     1      -1.814  11.094   9.109  1.00  0.00     0.074 A 
ATOM     59  C   UNL     1      -1.254  10.847  10.422  1.00  0.00     0.031 C 
ATOM     60  C   UNL     1      -2.055  12.328   8.602  1.00  0.00     0.031 A 
BRANCH  47  61
ATOM     61  C   UNL     1      -4.398  12.313   2.879  1.00  0.00    -0.014 A 
ATOM     62  C   UNL     1      -5.755  12.346   2.508  1.00  0.00     0.010 A 
ATOM     63  C   UNL     1      -3.468  13.062   2.135  1.00  0.00     0.010 A 
ATOM     64  C   UNL     1      -6.166  13.075   1.390  1.00  0.00     0.020 A 
ATOM     65  C   UNL     1      -3.880  13.817   1.033  1.00  0.00     0.020 A 
ATOM     66  C   UNL     1      -5.225  13.803   0.657  1.00  0.00     0.054 A 
BRANCH  66  67
ATOM     67  S   UNL     1      -5.790  14.757  -0.779  1.00  0.00     0.124 S 
ATOM     68  O   UNL     1      -6.037  13.704  -1.761  1.00  0.00    -0.237 OA
ATOM     69  O   UNL     1      -6.982  15.430  -0.269  1.00  0.00    -0.237 OA
ATOM     70  O   UNL     1      -4.662  15.635  -1.078  1.00  0.00    -0.744 OA
ENDBRANCH  66  67
ENDBRANCH  47  61
BRANCH  48  71
ATOM     71  C   UNL     1      -1.132   6.625  10.432  1.00  0.00    -0.014 A 
ATOM     72  C   UNL     1      -1.841   6.536  11.643  1.00  0.00     0.010 A 
ATOM     73  C   UNL     1       0.058   5.891  10.280  1.00  0.00     0.010 A 
ATOM     74  C   UNL     1      -1.361   5.741  12.687  1.00  0.00     0.020 A 
ATOM     75  C   UNL     1       0.527   5.074  11.312  1.00  0.00     0.020 A 
ATOM     76  C   UNL     1      -0.180   5.013  12.514  1.00  0.00     0.054 A 
BRANCH  76  77
ATOM     77  S   UNL     1       0.394   3.942  13.862  1.00  0.00     0.124 S 
ATOM     78  O   UNL     1       0.927   4.911  14.814  1.00  0.00    -0.237 OA
ATOM     79  O   UNL     1      -0.833   3.262  14.270  1.00  0.00    -0.237 OA
ATOM     80  O   UNL     1       1.386   3.084  13.217  1.00  0.00    -0.744 OA
ENDBRANCH  76  77
ENDBRANCH  48  71
BRANCH  60  81
ATOM     81  C   UNL     1      -1.735  13.508   9.479  1.00  0.00    -0.014 A 
ATOM     82  C   UNL     1      -0.406  13.895   9.719  1.00  0.00     0.010 A 
ATOM     83  C   UNL     1      -2.784  14.270  10.027  1.00  0.00     0.010 A 
ATOM     84  C   UNL     1      -0.129  15.009  10.516  1.00  0.00     0.020 A 
ATOM     85  C   UNL     1      -2.511  15.399  10.802  1.00  0.00     0.020 A 
ATOM     86  C   UNL     1      -1.184  15.753  11.053  1.00  0.00     0.054 A 
BRANCH  86  87
ATOM     87  S   UNL     1      -0.800  17.220  12.048  1.00  0.00     0.124 S 
ATOM     88  O   UNL     1      -0.347  16.625  13.303  1.00  0.00    -0.237 OA
ATOM     89  O   UNL     1       0.234  17.883  11.257  1.00  0.00    -0.237 OA
ATOM     90  O   UNL     1      -2.074  17.933  12.120  1.00  0.00    -0.744 OA
ENDBRANCH  86  87
ENDBRANCH  60  81
ENDBRANCH  34  35
ENDBRANCH  26  29
ENDBRANCH  24  25
ENDBRANCH   1  24
TORSDOF 16
