REMARK SMILES O=C(NCCCNC(=O)[C@H]1CC2(CCN(C(=O)c3cc4ccccc4[nH]3)CC2)CN1C(=O)C1CC1)c1ccc(-c2c3nc(c(-c4ccc(S(=O)(=O)[O-])cc4)c4ccc([nH]4)c(-c4ccc(S(=O)(=O)[O-])cc4)c4nc(c(-c5ccc(S(=O)(=O)[O-])cc5)c5ccc2[nH]5)C=C4)C=C3)cc1
REMARK SMILES IDX 4 1 3 2 1 3 2 4 36 6 37 7 95 8 38 9 94 10 39 11 40 12 41 13
REMARK SMILES IDX 88 14 42 15 93 16 87 17 89 18 43 19 92 20 86 21 85 22 44 24
REMARK SMILES IDX 74 25 55 26 73 27 56 28 59 29 72 30 90 31 57 32 58 33 71 35
REMARK SMILES IDX 91 36 60 37 45 38 46 39 54 40 47 41 53 42 48 43 49 44 50 45
REMARK SMILES IDX 51 46 52 47 75 48 76 49 84 50 77 51 83 52 78 53 79 54 80 55
REMARK SMILES IDX 81 56 82 57 61 58 62 59 70 60 63 61 69 62 64 63 65 64 66 65
REMARK SMILES IDX 67 66 68 67 5 68 6 69 7 70 8 71 9 73 10 74 11 75 30 76 12 77
REMARK SMILES IDX 29 78 13 79 28 80 14 81 27 82 15 83 16 84 17 85 31 86 32 87
REMARK SMILES IDX 33 88 34 89 35 90 18 91 19 92 26 93 20 94 25 95 21 97 24 98
REMARK SMILES IDX 22 99 23 100
REMARK H PARENT 3 5 89 23 59 34 7 72 26 96
REMARK Flexibility Score: inf
ROOT
ATOM      1  C   UNL     1       9.696  -3.984   2.734  1.00  0.00     0.118 C 
ENDROOT
BRANCH   1   2
ATOM      2  N   UNL     1      10.525  -5.129   3.069  1.00  0.00    -0.352 N 
ATOM      3  O   UNL     1      11.524  -7.110   2.796  1.00  0.00    -0.269 OA
ATOM      4  C   UNL     1      11.105  -6.081   2.270  1.00  0.00     0.251 C 
ATOM      5  H   UNL     1      10.700  -5.241   4.031  1.00  0.00     0.163 HD
BRANCH   4   6
ATOM      6  C   UNL     1      11.244  -5.894   0.807  1.00  0.00     0.039 A 
ATOM      7  C   UNL     1      11.619  -4.666   0.252  1.00  0.00     0.014 A 
ATOM      8  C   UNL     1      11.113  -7.016  -0.020  1.00  0.00     0.014 A 
ATOM      9  C   UNL     1      11.791  -4.544  -1.129  1.00  0.00     0.010 A 
ATOM     10  C   UNL     1      11.331  -6.904  -1.396  1.00  0.00     0.010 A 
ATOM     11  C   UNL     1      11.661  -5.664  -1.963  1.00  0.00    -0.014 A 
BRANCH  11  12
ATOM     12  C   UNL     1      11.931  -5.558  -3.419  1.00  0.00     0.031 A 
ATOM     13  C   UNL     1      10.818  -5.700  -4.417  1.00  0.00     0.074 A 
ATOM     14  C   UNL     1      13.195  -5.380  -3.845  1.00  0.00     0.049 A 
ATOM     15  N   UNL     1      10.880  -5.684  -5.724  1.00  0.00    -0.248 NA
ATOM     16  C   UNL     1       9.464  -5.893  -3.878  1.00  0.00     0.031 C 
ATOM     17  C   UNL     1      14.368  -5.254  -2.979  1.00  0.00     0.029 A 
ATOM     18  N   UNL     1      13.706  -5.288  -5.116  1.00  0.00    -0.354 N 
ATOM     19  C   UNL     1       9.579  -5.889  -6.167  1.00  0.00     0.074 A 
ATOM     20  C   UNL     1       8.752  -6.039  -4.987  1.00  0.00     0.031 C 
ATOM     21  C   UNL     1      15.461  -5.098  -3.742  1.00  0.00     0.029 A 
ATOM     22  C   UNL     1      15.072  -5.148  -5.149  1.00  0.00     0.049 A 
ATOM     23  H   UNL     1      13.147  -5.319  -5.926  1.00  0.00     0.167 HD
ATOM     24  C   UNL     1       9.114  -5.946  -7.438  1.00  0.00     0.031 A 
ATOM     25  C   UNL     1      15.925  -5.089  -6.190  1.00  0.00     0.031 A 
ATOM     26  C   UNL     1       9.931  -5.798  -8.612  1.00  0.00     0.049 A 
ATOM     27  C   UNL     1      15.392  -5.157  -7.590  1.00  0.00     0.074 A 
ATOM     28  C   UNL     1       9.539  -5.792  -9.939  1.00  0.00     0.029 A 
ATOM     29  N   UNL     1      11.309  -5.641  -8.601  1.00  0.00    -0.354 N 
ATOM     30  N   UNL     1      14.150  -5.292  -7.988  1.00  0.00    -0.248 NA
ATOM     31  C   UNL     1      16.371  -5.062  -8.681  1.00  0.00     0.031 C 
ATOM     32  C   UNL     1      10.686  -5.663 -10.733  1.00  0.00     0.029 A 
ATOM     33  C   UNL     1      11.787  -5.558  -9.898  1.00  0.00     0.049 A 
ATOM     34  H   UNL     1      11.866  -5.595  -7.790  1.00  0.00     0.167 HD
ATOM     35  C   UNL     1      14.196  -5.288  -9.376  1.00  0.00     0.074 A 
ATOM     36  C   UNL     1      15.587  -5.129  -9.751  1.00  0.00     0.031 C 
ATOM     37  C   UNL     1      13.173  -5.404 -10.258  1.00  0.00     0.031 A 
BRANCH  24  38
ATOM     38  C   UNL     1       7.645  -6.210  -7.612  1.00  0.00    -0.014 A 
ATOM     39  C   UNL     1       6.695  -5.202  -7.374  1.00  0.00     0.010 A 
ATOM     40  C   UNL     1       7.210  -7.487  -8.010  1.00  0.00     0.010 A 
ATOM     41  C   UNL     1       5.330  -5.482  -7.475  1.00  0.00     0.020 A 
ATOM     42  C   UNL     1       5.846  -7.766  -8.128  1.00  0.00     0.020 A 
ATOM     43  C   UNL     1       4.914  -6.768  -7.834  1.00  0.00     0.054 A 
BRANCH  43  44
ATOM     44  S   UNL     1       3.138  -7.124  -7.926  1.00  0.00     0.124 S 
ATOM     45  O   UNL     1       2.809  -7.358  -6.522  1.00  0.00    -0.237 OA
ATOM     46  O   UNL     1       2.588  -5.900  -8.503  1.00  0.00    -0.237 OA
ATOM     47  O   UNL     1       3.068  -8.301  -8.789  1.00  0.00    -0.744 OA
ENDBRANCH  43  44
ENDBRANCH  24  38
BRANCH  25  48
ATOM     48  C   UNL     1      17.380  -4.961  -5.918  1.00  0.00    -0.014 A 
ATOM     49  C   UNL     1      18.016  -3.714  -6.024  1.00  0.00     0.010 A 
ATOM     50  C   UNL     1      18.110  -6.072  -5.458  1.00  0.00     0.010 A 
ATOM     51  C   UNL     1      19.358  -3.575  -5.656  1.00  0.00     0.020 A 
ATOM     52  C   UNL     1      19.446  -5.933  -5.074  1.00  0.00     0.020 A 
ATOM     53  C   UNL     1      20.061  -4.683  -5.175  1.00  0.00     0.054 A 
BRANCH  53  54
ATOM     54  S   UNL     1      21.764  -4.459  -4.586  1.00  0.00     0.124 S 
ATOM     55  O   UNL     1      22.522  -4.488  -5.832  1.00  0.00    -0.237 OA
ATOM     56  O   UNL     1      21.702  -3.164  -3.912  1.00  0.00    -0.237 OA
ATOM     57  O   UNL     1      21.967  -5.602  -3.698  1.00  0.00    -0.744 OA
ENDBRANCH  53  54
ENDBRANCH  25  48
BRANCH  37  58
ATOM     58  C   UNL     1      13.509  -5.350 -11.721  1.00  0.00    -0.014 A 
ATOM     59  C   UNL     1      14.010  -6.483 -12.385  1.00  0.00     0.010 A 
ATOM     60  C   UNL     1      13.241  -4.181 -12.455  1.00  0.00     0.010 A 
ATOM     61  C   UNL     1      14.243  -6.446 -13.762  1.00  0.00     0.020 A 
ATOM     62  C   UNL     1      13.460  -4.146 -13.835  1.00  0.00     0.020 A 
ATOM     63  C   UNL     1      13.966  -5.277 -14.479  1.00  0.00     0.054 A 
BRANCH  63  64
ATOM     64  S   UNL     1      14.201  -5.271 -16.279  1.00  0.00     0.124 S 
ATOM     65  O   UNL     1      15.642  -5.069 -16.395  1.00  0.00    -0.237 OA
ATOM     66  O   UNL     1      13.717  -6.592 -16.675  1.00  0.00    -0.237 OA
ATOM     67  O   UNL     1      13.375  -4.153 -16.729  1.00  0.00    -0.744 OA
ENDBRANCH  63  64
ENDBRANCH  37  58
ENDBRANCH  11  12
ENDBRANCH   4   6
ENDBRANCH   1   2
BRANCH   1  68
ATOM     68  C   UNL     1       8.252  -4.174   3.196  1.00  0.00     0.042 C 
BRANCH  68  69
ATOM     69  C   UNL     1       8.092  -4.341   4.706  1.00  0.00     0.117 C 
BRANCH  69  70
ATOM     70  N   UNL     1       8.539  -3.183   5.470  1.00  0.00    -0.354 N 
ATOM     71  C   UNL     1       7.808  -2.130   5.959  1.00  0.00     0.242 C 
ATOM     72  H   UNL     1       9.504  -3.153   5.662  1.00  0.00     0.163 HD
ATOM     73  O   UNL     1       8.377  -1.289   6.656  1.00  0.00    -0.273 OA
BRANCH  71  74
ATOM     74  C   UNL     1       6.295  -2.112   5.687  1.00  0.00     0.175 C 
ATOM     75  C   UNL     1       5.652  -2.921   6.825  1.00  0.00     0.044 C 
ATOM     76  N   UNL     1       5.563  -0.852   5.733  1.00  0.00    -0.330 N 
ATOM     77  C   UNL     1       4.207  -2.405   6.973  1.00  0.00    -0.006 C 
ATOM     78  C   UNL     1       4.226  -1.043   6.261  1.00  0.00     0.127 C 
ATOM     79  C   UNL     1       3.827  -2.222   8.457  1.00  0.00     0.030 C 
ATOM     80  C   UNL     1       3.189  -3.369   6.323  1.00  0.00     0.030 C 
ATOM     81  C   UNL     1       3.730  -3.555   9.188  1.00  0.00     0.120 C 
ATOM     82  C   UNL     1       3.010  -4.675   7.104  1.00  0.00     0.120 C 
ATOM     83  N   UNL     1       2.774  -4.442   8.528  1.00  0.00    -0.337 N 
ATOM     84  C   UNL     1       1.958  -5.352   9.212  1.00  0.00     0.270 C 
ATOM     85  O   UNL     1       1.536  -6.370   8.666  1.00  0.00    -0.267 OA
BRANCH  76  86
ATOM     86  C   UNL     1       5.808   0.312   5.021  1.00  0.00     0.226 C 
ATOM     87  O   UNL     1       4.944   1.162   4.850  1.00  0.00    -0.275 OA
BRANCH  86  88
ATOM     88  C   UNL     1       7.189   0.615   4.562  1.00  0.00     0.079 C 
ATOM     89  C   UNL     1       8.001  -0.194   3.587  1.00  0.00     0.014 C 
ATOM     90  C   UNL     1       7.372   1.081   3.129  1.00  0.00     0.014 C 
ENDBRANCH  86  88
ENDBRANCH  76  86
BRANCH  84  91
ATOM     91  C   UNL     1       1.621  -5.052  10.587  1.00  0.00     0.105 A 
ATOM     92  C   UNL     1       1.575  -5.915  11.668  1.00  0.00     0.042 A 
ATOM     93  N   UNL     1       1.177  -3.831  11.045  1.00  0.00    -0.351 N 
ATOM     94  C   UNL     1       1.195  -5.174  12.819  1.00  0.00     0.000 A 
ATOM     95  C   UNL     1       0.960  -3.865  12.403  1.00  0.00     0.046 A 
ATOM     96  H   UNL     1       1.034  -3.040  10.476  1.00  0.00     0.167 HD
ATOM     97  C   UNL     1       1.026  -5.494  14.180  1.00  0.00     0.010 A 
ATOM     98  C   UNL     1       0.567  -2.851  13.283  1.00  0.00     0.026 A 
ATOM     99  C   UNL     1       0.639  -4.491  15.075  1.00  0.00     0.001 A 
ATOM    100  C   UNL     1       0.414  -3.190  14.631  1.00  0.00     0.002 A 
ENDBRANCH  84  91
ENDBRANCH  71  74
ENDBRANCH  69  70
ENDBRANCH  68  69
ENDBRANCH   1  68
TORSDOF 16
