REMARK SMILES O=C(Cn1nc(-c2ccc(Br)cc2)ccc1=O)N[C@H](C(=O)NCCCNC(=O)c1ccc(-c2c3nc(c(-c4ccc(S(=O)(=O)[O-])cc4)c4ccc([nH]4)c(-c4ccc(S(=O)(=O)[O-])cc4)c4nc(c(-c5ccc(S(=O)(=O)[O-])cc5)c5ccc2[nH]5)C=C4)C=C3)cc1)c1ccccc1
REMARK SMILES IDX 23 1 22 2 20 3 21 4 19 6 18 7 1 8 2 9 3 11 4 12 5 13 16 14
REMARK SMILES IDX 6 15 15 16 17 17 14 18 7 19 8 20 13 21 9 22 12 23 10 24
REMARK SMILES IDX 11 25 89 26 90 27 94 28 91 29 93 30 92 31 24 32 25 33 26 34
REMARK SMILES IDX 27 35 28 37 29 38 30 39 88 40 31 41 87 42 32 43 33 44 34 45
REMARK SMILES IDX 81 46 35 47 86 48 80 49 82 50 36 51 85 52 79 53 78 54 37 56
REMARK SMILES IDX 67 57 48 58 66 59 49 60 52 61 65 62 83 63 50 64 51 65 64 67
REMARK SMILES IDX 84 68 53 69 38 70 39 71 47 72 40 73 46 74 41 75 42 76 43 77
REMARK SMILES IDX 44 78 45 79 68 80 69 81 77 82 70 83 76 84 71 85 72 86 73 87
REMARK SMILES IDX 74 88 75 89 54 90 55 91 63 92 56 93 62 94 57 95 58 96 59 97
REMARK SMILES IDX 60 98 61 99
REMARK H PARENT 22 5 18 10 26 36 82 55 52 66
REMARK Flexibility Score: inf
ROOT
ATOM      1  C   UNL     1       2.920   0.953  -2.571  1.00  0.00     0.117 C 
ENDROOT
BRANCH   1   2
ATOM      2  N   UNL     1       2.907   0.487  -1.196  1.00  0.00    -0.354 N 
ATOM      3  C   UNL     1       2.781  -0.799  -0.716  1.00  0.00     0.247 C 
ATOM      4  O   UNL     1       2.780  -0.922   0.515  1.00  0.00    -0.272 OA
ATOM      5  H   UNL     1       3.002   1.188  -0.510  1.00  0.00     0.163 HD
BRANCH   3   6
ATOM      6  C   UNL     1       2.413  -1.982  -1.676  1.00  0.00     0.202 C 
BRANCH   6   7
ATOM      7  N   UNL     1       2.899  -1.890  -3.048  1.00  0.00    -0.339 N 
ATOM      8  O   UNL     1       5.081  -1.536  -2.429  1.00  0.00    -0.273 OA
ATOM      9  C   UNL     1       4.242  -1.712  -3.312  1.00  0.00     0.242 C 
ATOM     10  H   UNL     1       2.261  -1.956  -3.796  1.00  0.00     0.164 HD
BRANCH   9  11
ATOM     11  C   UNL     1       4.588  -1.528  -4.784  1.00  0.00     0.248 C 
BRANCH  11  12
ATOM     12  N   UNL     1       4.900  -2.722  -5.548  1.00  0.00    -0.220 N 
ATOM     13  N   UNL     1       4.818  -2.541  -6.920  1.00  0.00    -0.169 NA
ATOM     14  C   UNL     1       5.591  -3.776  -4.967  1.00  0.00     0.267 A 
ATOM     15  C   UNL     1       5.299  -3.473  -7.674  1.00  0.00     0.091 A 
ATOM     16  C   UNL     1       6.008  -4.861  -5.871  1.00  0.00     0.075 A 
ATOM     17  O   UNL     1       5.857  -3.906  -3.772  1.00  0.00    -0.268 OA
ATOM     18  C   UNL     1       5.875  -4.741  -7.191  1.00  0.00     0.036 A 
BRANCH  15  19
ATOM     19  C   UNL     1       5.362  -3.282  -9.134  1.00  0.00     0.002 A 
ATOM     20  C   UNL     1       6.182  -2.269  -9.643  1.00  0.00     0.011 A 
ATOM     21  C   UNL     1       4.684  -4.156  -9.988  1.00  0.00     0.011 A 
ATOM     22  C   UNL     1       6.363  -2.162 -11.022  1.00  0.00     0.016 A 
ATOM     23  C   UNL     1       4.861  -4.038 -11.366  1.00  0.00     0.016 A 
ATOM     24  C   UNL     1       5.711  -3.054 -11.875  1.00  0.00     0.018 A 
ATOM     25  Br  UNL     1       6.000  -2.947 -13.740  1.00  0.00    -0.051 Br
ENDBRANCH  15  19
ENDBRANCH  11  12
ENDBRANCH   9  11
ENDBRANCH   6   7
BRANCH   6  26
ATOM     26  C   UNL     1       2.679  -3.390  -1.156  1.00  0.00    -0.016 A 
ATOM     27  C   UNL     1       3.908  -3.744  -0.582  1.00  0.00     0.006 A 
ATOM     28  C   UNL     1       1.743  -4.409  -1.411  1.00  0.00     0.006 A 
ATOM     29  C   UNL     1       4.209  -5.079  -0.303  1.00  0.00     0.000 A 
ATOM     30  C   UNL     1       2.043  -5.743  -1.126  1.00  0.00     0.000 A 
ATOM     31  C   UNL     1       3.281  -6.079  -0.583  1.00  0.00     0.000 A 
ENDBRANCH   6  26
ENDBRANCH   3   6
ENDBRANCH   1   2
BRANCH   1  32
ATOM     32  C   UNL     1       3.096   2.447  -2.740  1.00  0.00     0.042 C 
BRANCH  32  33
ATOM     33  C   UNL     1       4.447   2.936  -2.222  1.00  0.00     0.118 C 
BRANCH  33  34
ATOM     34  N   UNL     1       5.608   2.551  -3.034  1.00  0.00    -0.352 N 
ATOM     35  C   UNL     1       6.392   3.255  -3.929  1.00  0.00     0.251 C 
ATOM     36  H   UNL     1       5.880   1.612  -2.918  1.00  0.00     0.163 HD
ATOM     37  O   UNL     1       7.309   2.688  -4.519  1.00  0.00    -0.269 OA
BRANCH  35  38
ATOM     38  C   UNL     1       6.080   4.666  -4.247  1.00  0.00     0.039 A 
ATOM     39  C   UNL     1       5.660   5.532  -3.250  1.00  0.00     0.014 A 
ATOM     40  C   UNL     1       6.096   5.103  -5.574  1.00  0.00     0.014 A 
ATOM     41  C   UNL     1       4.904   6.638  -3.599  1.00  0.00     0.010 A 
ATOM     42  C   UNL     1       5.506   6.329  -5.907  1.00  0.00     0.010 A 
ATOM     43  C   UNL     1       4.800   7.053  -4.936  1.00  0.00    -0.014 A 
BRANCH  43  44
ATOM     44  C   UNL     1       3.910   8.202  -5.278  1.00  0.00     0.031 A 
ATOM     45  C   UNL     1       2.793   8.045  -6.287  1.00  0.00     0.074 A 
ATOM     46  C   UNL     1       4.038   9.364  -4.603  1.00  0.00     0.049 A 
ATOM     47  N   UNL     1       1.923   8.938  -6.693  1.00  0.00    -0.248 NA
ATOM     48  C   UNL     1       2.627   6.730  -6.930  1.00  0.00     0.031 C 
ATOM     49  C   UNL     1       5.049   9.632  -3.575  1.00  0.00     0.029 A 
ATOM     50  N   UNL     1       3.293  10.517  -4.633  1.00  0.00    -0.354 N 
ATOM     51  C   UNL     1       1.142   8.306  -7.656  1.00  0.00     0.074 A 
ATOM     52  C   UNL     1       1.654   6.963  -7.800  1.00  0.00     0.031 C 
ATOM     53  C   UNL     1       4.796  10.815  -3.004  1.00  0.00     0.029 A 
ATOM     54  C   UNL     1       3.688  11.453  -3.705  1.00  0.00     0.049 A 
ATOM     55  H   UNL     1       2.547  10.660  -5.260  1.00  0.00     0.167 HD
ATOM     56  C   UNL     1       0.084   8.796  -8.347  1.00  0.00     0.031 A 
ATOM     57  C   UNL     1       3.238  12.697  -3.450  1.00  0.00     0.031 A 
ATOM     58  C   UNL     1      -0.447  10.123  -8.166  1.00  0.00     0.049 A 
ATOM     59  C   UNL     1       2.098  13.236  -4.261  1.00  0.00     0.074 A 
ATOM     60  C   UNL     1      -1.523  10.707  -8.812  1.00  0.00     0.029 A 
ATOM     61  N   UNL     1       0.039  11.064  -7.269  1.00  0.00    -0.354 N 
ATOM     62  N   UNL     1       1.395  12.629  -5.187  1.00  0.00    -0.248 NA
ATOM     63  C   UNL     1       1.692  14.623  -4.005  1.00  0.00     0.031 C 
ATOM     64  C   UNL     1      -1.642  12.022  -8.361  1.00  0.00     0.029 A 
ATOM     65  C   UNL     1      -0.699  12.232  -7.367  1.00  0.00     0.049 A 
ATOM     66  H   UNL     1       0.795  10.922  -6.655  1.00  0.00     0.167 HD
ATOM     67  C   UNL     1       0.454  13.556  -5.615  1.00  0.00     0.074 A 
ATOM     68  C   UNL     1       0.662  14.757  -4.831  1.00  0.00     0.031 C 
ATOM     69  C   UNL     1      -0.491  13.422  -6.577  1.00  0.00     0.031 A 
BRANCH  56  70
ATOM     70  C   UNL     1      -0.589   7.913  -9.371  1.00  0.00    -0.014 A 
ATOM     71  C   UNL     1      -0.551   8.273 -10.732  1.00  0.00     0.010 A 
ATOM     72  C   UNL     1      -1.371   6.810  -8.983  1.00  0.00     0.010 A 
ATOM     73  C   UNL     1      -1.310   7.578 -11.678  1.00  0.00     0.020 A 
ATOM     74  C   UNL     1      -2.107   6.090  -9.932  1.00  0.00     0.020 A 
ATOM     75  C   UNL     1      -2.093   6.496 -11.269  1.00  0.00     0.054 A 
BRANCH  75  76
ATOM     76  S   UNL     1      -3.102   5.630 -12.503  1.00  0.00     0.124 S 
ATOM     77  O   UNL     1      -4.178   6.585 -12.748  1.00  0.00    -0.237 OA
ATOM     78  O   UNL     1      -2.163   5.438 -13.605  1.00  0.00    -0.237 OA
ATOM     79  O   UNL     1      -3.501   4.402 -11.817  1.00  0.00    -0.744 OA
ENDBRANCH  75  76
ENDBRANCH  56  70
BRANCH  57  80
ATOM     80  C   UNL     1       3.889  13.495  -2.372  1.00  0.00    -0.014 A 
ATOM     81  C   UNL     1       5.247  13.859  -2.478  1.00  0.00     0.010 A 
ATOM     82  C   UNL     1       3.195  13.799  -1.188  1.00  0.00     0.010 A 
ATOM     83  C   UNL     1       5.917  14.433  -1.397  1.00  0.00     0.020 A 
ATOM     84  C   UNL     1       3.853  14.414  -0.117  1.00  0.00     0.020 A 
ATOM     85  C   UNL     1       5.218  14.692  -0.216  1.00  0.00     0.054 A 
BRANCH  85  86
ATOM     86  S   UNL     1       6.128  15.373   1.198  1.00  0.00     0.124 S 
ATOM     87  O   UNL     1       6.880  14.208   1.658  1.00  0.00    -0.237 OA
ATOM     88  O   UNL     1       6.923  16.433   0.584  1.00  0.00    -0.237 OA
ATOM     89  O   UNL     1       5.071  15.831   2.096  1.00  0.00    -0.744 OA
ENDBRANCH  85  86
ENDBRANCH  57  80
BRANCH  69  90
ATOM     90  C   UNL     1      -1.401  14.591  -6.851  1.00  0.00    -0.014 A 
ATOM     91  C   UNL     1      -2.778  14.476  -6.583  1.00  0.00     0.010 A 
ATOM     92  C   UNL     1      -0.923  15.740  -7.505  1.00  0.00     0.010 A 
ATOM     93  C   UNL     1      -3.668  15.465  -7.006  1.00  0.00     0.020 A 
ATOM     94  C   UNL     1      -1.807  16.749  -7.899  1.00  0.00     0.020 A 
ATOM     95  C   UNL     1      -3.177  16.590  -7.674  1.00  0.00     0.054 A 
BRANCH  95  96
ATOM     96  S   UNL     1      -4.355  17.836  -8.263  1.00  0.00     0.124 S 
ATOM     97  O   UNL     1      -4.958  17.169  -9.413  1.00  0.00    -0.237 OA
ATOM     98  O   UNL     1      -5.232  18.019  -7.109  1.00  0.00    -0.237 OA
ATOM     99  O   UNL     1      -3.509  18.985  -8.581  1.00  0.00    -0.744 OA
ENDBRANCH  95  96
ENDBRANCH  69  90
ENDBRANCH  43  44
ENDBRANCH  35  38
ENDBRANCH  33  34
ENDBRANCH  32  33
ENDBRANCH   1  32
TORSDOF 18
