REMARK SMILES COc1ccc2c(c1)c(Cc1nc(-c3ccc(C(=O)NCCCNC(=O)c4ccc(-c5c6nc(c(-c7ccc(S(=O)(=O)[O-])cc7)c7ccc([nH]7)c(-c7ccc(S(=O)(=O)[O-])cc7)c7nc(c(-c8ccc(S(=O)(=O)[O-])cc8)c8ccc5[nH]8)C=C7)C=C6)cc4)cc3)cs1)c(C)n2C(=O)c1ccc(Cl)cc1
REMARK SMILES IDX 21 1 20 2 18 3 19 4 17 6 14 7 15 8 88 9 16 10 87 11 13 12
REMARK SMILES IDX 11 13 12 14 90 15 89 16 10 17 9 18 3 19 4 20 8 21 5 22 7 23
REMARK SMILES IDX 6 24 93 25 91 26 92 27 2 28 1 29 94 30 95 31 96 32 97 33
REMARK SMILES IDX 102 34 98 35 101 36 99 37 100 38 22 39 23 40 24 41 25 42
REMARK SMILES IDX 26 44 27 45 28 46 86 47 29 48 85 49 30 50 31 51 32 52 79 53
REMARK SMILES IDX 33 54 84 55 78 56 80 57 34 58 83 59 77 60 76 61 35 63 65 64
REMARK SMILES IDX 46 65 64 66 47 67 50 68 63 69 81 70 48 71 49 72 62 74 82 75
REMARK SMILES IDX 51 76 36 77 37 78 45 79 38 80 44 81 39 82 40 83 41 84 42 85
REMARK SMILES IDX 43 86 66 87 67 88 75 89 68 90 74 91 69 92 70 93 71 94 72 95
REMARK SMILES IDX 73 96 52 97 53 98 61 99 54 100 60 101 55 102 56 103 57 104
REMARK SMILES IDX 58 105 59 106
REMARK H PARENT 20 5 24 43 80 62 50 73
REMARK Flexibility Score: inf
ROOT
ATOM      1  C   UNL     1      -4.054  -2.359  -5.890  1.00  0.00     0.118 C 
ENDROOT
BRANCH   1   2
ATOM      2  N   UNL     1      -3.037  -2.199  -6.916  1.00  0.00    -0.352 N 
ATOM      3  C   UNL     1      -2.118  -1.211  -7.183  1.00  0.00     0.251 C 
ATOM      4  O   UNL     1      -1.354  -1.389  -8.134  1.00  0.00    -0.269 OA
ATOM      5  H   UNL     1      -2.997  -2.951  -7.550  1.00  0.00     0.163 HD
BRANCH   3   6
ATOM      6  C   UNL     1      -2.051   0.081  -6.445  1.00  0.00     0.039 A 
ATOM      7  C   UNL     1      -2.085   2.655  -5.279  1.00  0.00     0.001 A 
ATOM      8  C   UNL     1      -1.653   2.485  -6.597  1.00  0.00     0.011 A 
ATOM      9  C   UNL     1      -2.382   1.516  -4.520  1.00  0.00     0.011 A 
ATOM     10  C   UNL     1      -1.643   1.210  -7.175  1.00  0.00     0.014 A 
ATOM     11  C   UNL     1      -2.331   0.237  -5.088  1.00  0.00     0.014 A 
BRANCH   7  12
ATOM     12  C   UNL     1      -2.204   3.972  -4.670  1.00  0.00     0.081 A 
ATOM     13  C   UNL     1      -2.154   5.388  -2.964  1.00  0.00     0.098 A 
ATOM     14  N   UNL     1      -2.072   4.121  -3.308  1.00  0.00    -0.241 NA
ATOM     15  S   UNL     1      -2.511   6.466  -4.253  1.00  0.00    -0.126 S 
ATOM     16  C   UNL     1      -2.490   5.141  -5.347  1.00  0.00     0.095 A 
BRANCH  13  17
ATOM     17  C   UNL     1      -1.920   5.885  -1.567  1.00  0.00     0.105 C 
BRANCH  17  18
ATOM     18  C   UNL     1      -0.457   5.806  -1.195  1.00  0.00    -0.012 A 
ATOM     19  C   UNL     1       0.817   2.232  -0.727  1.00  0.00     0.119 A 
ATOM     20  C   UNL     1       2.091   2.578  -0.316  1.00  0.00     0.048 A 
ATOM     21  C   UNL     1      -0.099   3.236  -1.029  1.00  0.00     0.057 A 
ATOM     22  C   UNL     1       2.469   3.924  -0.216  1.00  0.00     0.031 A 
ATOM     23  C   UNL     1       0.265   4.602  -0.965  1.00  0.00     0.008 A 
ATOM     24  C   UNL     1       1.569   4.944  -0.601  1.00  0.00     0.057 A 
ATOM     25  N   UNL     1       1.699   6.343  -0.719  1.00  0.00    -0.280 N 
ATOM     26  C   UNL     1       0.428   6.863  -1.021  1.00  0.00     0.028 A 
ATOM     27  C   UNL     1       0.081   8.311  -1.169  1.00  0.00     0.065 C 
BRANCH  19  28
ATOM     28  O   UNL     1       0.373   0.952  -0.913  1.00  0.00    -0.497 OA
ATOM     29  C   UNL     1       0.880  -0.003   0.010  1.00  0.00     0.278 C 
ENDBRANCH  19  28
BRANCH  25  30
ATOM     30  C   UNL     1       2.908   7.087  -0.565  1.00  0.00     0.262 C 
ATOM     31  O   UNL     1       2.880   8.311  -0.574  1.00  0.00    -0.268 OA
BRANCH  30  32
ATOM     32  C   UNL     1       4.247   6.499  -0.369  1.00  0.00     0.040 A 
ATOM     33  C   UNL     1       4.860   5.751  -1.379  1.00  0.00     0.015 A 
ATOM     34  C   UNL     1       4.880   6.697   0.863  1.00  0.00     0.015 A 
ATOM     35  C   UNL     1       6.084   5.128  -1.120  1.00  0.00     0.021 A 
ATOM     36  C   UNL     1       6.106   6.079   1.113  1.00  0.00     0.021 A 
ATOM     37  C   UNL     1       6.694   5.285   0.127  1.00  0.00     0.041 A 
ATOM     38  Cl  UNL     1       8.176   4.477   0.460  1.00  0.00    -0.084 Cl
ENDBRANCH  30  32
ENDBRANCH  25  30
ENDBRANCH  17  18
ENDBRANCH  13  17
ENDBRANCH   7  12
ENDBRANCH   3   6
ENDBRANCH   1   2
BRANCH   1  39
ATOM     39  C   UNL     1      -5.478  -2.486  -6.419  1.00  0.00     0.042 C 
BRANCH  39  40
ATOM     40  C   UNL     1      -5.794  -3.727  -7.250  1.00  0.00     0.118 C 
BRANCH  40  41
ATOM     41  N   UNL     1      -5.331  -4.992  -6.713  1.00  0.00    -0.352 N 
ATOM     42  C   UNL     1      -5.810  -5.913  -5.820  1.00  0.00     0.251 C 
ATOM     43  H   UNL     1      -4.457  -5.254  -7.081  1.00  0.00     0.163 HD
ATOM     44  O   UNL     1      -5.199  -6.986  -5.790  1.00  0.00    -0.269 OA
BRANCH  42  45
ATOM     45  C   UNL     1      -6.940  -5.709  -4.870  1.00  0.00     0.039 A 
ATOM     46  C   UNL     1      -7.762  -4.586  -4.810  1.00  0.00     0.014 A 
ATOM     47  C   UNL     1      -7.150  -6.735  -3.926  1.00  0.00     0.014 A 
ATOM     48  C   UNL     1      -8.697  -4.446  -3.781  1.00  0.00     0.010 A 
ATOM     49  C   UNL     1      -8.105  -6.615  -2.917  1.00  0.00     0.010 A 
ATOM     50  C   UNL     1      -8.856  -5.449  -2.818  1.00  0.00    -0.014 A 
BRANCH  50  51
ATOM     51  C   UNL     1      -9.891  -5.263  -1.796  1.00  0.00     0.031 A 
ATOM     52  C   UNL     1     -11.293  -5.157  -2.295  1.00  0.00     0.074 A 
ATOM     53  C   UNL     1      -9.679  -5.312  -0.465  1.00  0.00     0.049 A 
ATOM     54  N   UNL     1     -12.130  -4.181  -2.151  1.00  0.00    -0.248 NA
ATOM     55  C   UNL     1     -11.803  -6.268  -3.113  1.00  0.00     0.031 C 
ATOM     56  C   UNL     1      -8.468  -5.742   0.237  1.00  0.00     0.029 A 
ATOM     57  N   UNL     1     -10.566  -5.087   0.551  1.00  0.00    -0.354 N 
ATOM     58  C   UNL     1     -13.329  -4.604  -2.726  1.00  0.00     0.074 A 
ATOM     59  C   UNL     1     -13.038  -5.848  -3.393  1.00  0.00     0.031 C 
ATOM     60  C   UNL     1      -8.767  -5.968   1.537  1.00  0.00     0.029 A 
ATOM     61  C   UNL     1     -10.138  -5.554   1.785  1.00  0.00     0.049 A 
ATOM     62  H   UNL     1     -11.431  -4.634   0.419  1.00  0.00     0.167 HD
ATOM     63  C   UNL     1     -14.518  -3.980  -2.494  1.00  0.00     0.031 A 
ATOM     64  C   UNL     1     -10.877  -5.661   2.915  1.00  0.00     0.031 A 
ATOM     65  C   UNL     1     -14.341  -2.683  -1.904  1.00  0.00     0.049 A 
ATOM     66  C   UNL     1     -12.038  -4.750   2.798  1.00  0.00     0.074 A 
ATOM     67  C   UNL     1     -13.780  -1.492  -2.312  1.00  0.00     0.029 A 
ATOM     68  N   UNL     1     -14.524  -2.585  -0.547  1.00  0.00    -0.354 N 
ATOM     69  N   UNL     1     -11.952  -3.450   2.781  1.00  0.00    -0.248 NA
ATOM     70  C   UNL     1     -13.324  -5.294   2.388  1.00  0.00     0.031 C 
ATOM     71  C   UNL     1     -13.271  -0.891  -1.127  1.00  0.00     0.029 A 
ATOM     72  C   UNL     1     -13.572  -1.732  -0.052  1.00  0.00     0.049 A 
ATOM     73  H   UNL     1     -15.218  -3.046  -0.022  1.00  0.00     0.167 HD
ATOM     74  C   UNL     1     -13.005  -3.034   1.984  1.00  0.00     0.074 A 
ATOM     75  C   UNL     1     -13.890  -4.190   1.898  1.00  0.00     0.031 C 
ATOM     76  C   UNL     1     -12.925  -1.893   1.239  1.00  0.00     0.031 A 
BRANCH  63  77
ATOM     77  C   UNL     1     -15.871  -4.653  -2.533  1.00  0.00    -0.014 A 
ATOM     78  C   UNL     1     -16.037  -6.052  -2.523  1.00  0.00     0.010 A 
ATOM     79  C   UNL     1     -17.034  -3.877  -2.321  1.00  0.00     0.010 A 
ATOM     80  C   UNL     1     -17.284  -6.651  -2.322  1.00  0.00     0.020 A 
ATOM     81  C   UNL     1     -18.282  -4.468  -2.071  1.00  0.00     0.020 A 
ATOM     82  C   UNL     1     -18.397  -5.856  -2.076  1.00  0.00     0.054 A 
BRANCH  82  83
ATOM     83  S   UNL     1     -19.959  -6.673  -1.663  1.00  0.00     0.124 S 
ATOM     84  O   UNL     1     -20.350  -7.240  -2.951  1.00  0.00    -0.237 OA
ATOM     85  O   UNL     1     -19.548  -7.639  -0.648  1.00  0.00    -0.237 OA
ATOM     86  O   UNL     1     -20.800  -5.582  -1.178  1.00  0.00    -0.744 OA
ENDBRANCH  82  83
ENDBRANCH  63  77
BRANCH  64  87
ATOM     87  C   UNL     1     -10.827  -6.749   3.923  1.00  0.00    -0.014 A 
ATOM     88  C   UNL     1     -10.396  -8.037   3.542  1.00  0.00     0.010 A 
ATOM     89  C   UNL     1     -11.483  -6.614   5.161  1.00  0.00     0.010 A 
ATOM     90  C   UNL     1     -10.679  -9.159   4.325  1.00  0.00     0.020 A 
ATOM     91  C   UNL     1     -11.777  -7.739   5.950  1.00  0.00     0.020 A 
ATOM     92  C   UNL     1     -11.405  -9.008   5.504  1.00  0.00     0.054 A 
BRANCH  92  93
ATOM     93  S   UNL     1     -11.931 -10.508   6.381  1.00  0.00     0.124 S 
ATOM     94  O   UNL     1     -12.886 -11.089   5.440  1.00  0.00    -0.237 OA
ATOM     95  O   UNL     1     -10.677 -11.242   6.532  1.00  0.00    -0.237 OA
ATOM     96  O   UNL     1     -12.507 -10.001   7.623  1.00  0.00    -0.744 OA
ENDBRANCH  92  93
ENDBRANCH  64  87
BRANCH  76  97
ATOM     97  C   UNL     1     -11.883  -0.854   1.590  1.00  0.00    -0.014 A 
ATOM     98  C   UNL     1     -12.316   0.481   1.708  1.00  0.00     0.010 A 
ATOM     99  C   UNL     1     -10.499  -1.112   1.616  1.00  0.00     0.010 A 
ATOM    100  C   UNL     1     -11.401   1.531   1.802  1.00  0.00     0.020 A 
ATOM    101  C   UNL     1      -9.575  -0.064   1.741  1.00  0.00     0.020 A 
ATOM    102  C   UNL     1     -10.033   1.254   1.802  1.00  0.00     0.054 A 
BRANCH 102 103
ATOM    103  S   UNL     1      -8.874   2.648   1.851  1.00  0.00     0.124 S 
ATOM    104  O   UNL     1      -8.985   3.190   0.499  1.00  0.00    -0.237 OA
ATOM    105  O   UNL     1      -9.427   3.494   2.907  1.00  0.00    -0.237 OA
ATOM    106  O   UNL     1      -7.589   2.029   2.168  1.00  0.00    -0.744 OA
ENDBRANCH 102 103
ENDBRANCH  76  97
ENDBRANCH  50  51
ENDBRANCH  42  45
ENDBRANCH  40  41
ENDBRANCH  39  40
ENDBRANCH   1  39
TORSDOF 19
