REMARK SMILES O=C(NCCCNC(=O)c1cccc(N2CCCCC2)n1)c1ccc(-c2c3nc(c(-c4ccc(S(=O)(=O)[O-])cc4)c4ccc([nH]4)c(-c4ccc(S(=O)(=O)[O-])cc4)c4nc(c(-c5ccc(S(=O)(=O)[O-])cc5)c5ccc2[nH]5)C=C4)C=C3)cc1
REMARK SMILES IDX 4 1 3 2 1 3 2 4 22 6 23 7 81 8 24 9 80 10 25 11 26 12 27 13
REMARK SMILES IDX 74 14 28 15 79 16 73 17 75 18 29 19 78 20 72 21 71 22 30 24
REMARK SMILES IDX 60 25 41 26 59 27 42 28 45 29 58 30 76 31 43 32 44 33 57 35
REMARK SMILES IDX 77 36 46 37 31 38 32 39 40 40 33 41 39 42 34 43 35 44 36 45
REMARK SMILES IDX 37 46 38 47 61 48 62 49 70 50 63 51 69 52 64 53 65 54 66 55
REMARK SMILES IDX 67 56 68 57 47 58 48 59 56 60 49 61 55 62 50 63 51 64 52 65
REMARK SMILES IDX 53 66 54 67 5 68 6 69 7 70 8 71 9 73 10 74 11 75 21 76 12 77
REMARK SMILES IDX 14 78 13 79 15 80 16 81 20 82 17 83 19 84 18 85
REMARK H PARENT 3 5 75 23 45 34 7 72
REMARK Flexibility Score: inf
ROOT
ATOM      1  C   UNL     1       4.602  -0.929   0.820  1.00  0.00     0.118 C 
ENDROOT
BRANCH   1   2
ATOM      2  N   UNL     1       3.159  -0.892   0.624  1.00  0.00    -0.352 N 
ATOM      3  O   UNL     1       1.153  -0.050   0.066  1.00  0.00    -0.269 OA
ATOM      4  C   UNL     1       2.377   0.005  -0.059  1.00  0.00     0.251 C 
ATOM      5  H   UNL     1       2.665  -1.630   1.049  1.00  0.00     0.163 HD
BRANCH   4   6
ATOM      6  C   UNL     1       2.985   1.046  -0.917  1.00  0.00     0.039 A 
ATOM      7  C   UNL     1       4.051   0.752  -1.770  1.00  0.00     0.014 A 
ATOM      8  C   UNL     1       2.445   2.335  -0.898  1.00  0.00     0.014 A 
ATOM      9  C   UNL     1       4.670   1.771  -2.491  1.00  0.00     0.010 A 
ATOM     10  C   UNL     1       3.013   3.338  -1.687  1.00  0.00     0.010 A 
ATOM     11  C   UNL     1       4.150   3.072  -2.466  1.00  0.00    -0.014 A 
BRANCH  11  12
ATOM     12  C   UNL     1       4.763   4.145  -3.291  1.00  0.00     0.031 A 
ATOM     13  C   UNL     1       5.380   5.352  -2.642  1.00  0.00     0.074 A 
ATOM     14  C   UNL     1       4.726   4.046  -4.633  1.00  0.00     0.049 A 
ATOM     15  N   UNL     1       5.873   6.428  -3.201  1.00  0.00    -0.248 NA
ATOM     16  C   UNL     1       5.441   5.356  -1.172  1.00  0.00     0.031 C 
ATOM     17  C   UNL     1       4.162   2.920  -5.381  1.00  0.00     0.029 A 
ATOM     18  N   UNL     1       5.157   4.910  -5.608  1.00  0.00    -0.354 N 
ATOM     19  C   UNL     1       6.276   7.250  -2.155  1.00  0.00     0.074 A 
ATOM     20  C   UNL     1       5.947   6.557  -0.927  1.00  0.00     0.031 C 
ATOM     21  C   UNL     1       4.288   3.158  -6.694  1.00  0.00     0.029 A 
ATOM     22  C   UNL     1       4.877   4.479  -6.883  1.00  0.00     0.049 A 
ATOM     23  H   UNL     1       5.622   5.756  -5.413  1.00  0.00     0.167 HD
ATOM     24  C   UNL     1       6.862   8.471  -2.214  1.00  0.00     0.031 A 
ATOM     25  C   UNL     1       5.034   5.090  -8.073  1.00  0.00     0.031 A 
ATOM     26  C   UNL     1       7.167   9.158  -3.443  1.00  0.00     0.049 A 
ATOM     27  C   UNL     1       5.638   6.463  -8.118  1.00  0.00     0.074 A 
ATOM     28  C   UNL     1       7.788  10.383  -3.611  1.00  0.00     0.029 A 
ATOM     29  N   UNL     1       6.861   8.687  -4.712  1.00  0.00    -0.354 N 
ATOM     30  N   UNL     1       6.044   7.213  -7.121  1.00  0.00    -0.248 NA
ATOM     31  C   UNL     1       5.814   7.071  -9.443  1.00  0.00     0.031 C 
ATOM     32  C   UNL     1       7.798  10.683  -4.978  1.00  0.00     0.029 A 
ATOM     33  C   UNL     1       7.254   9.610  -5.667  1.00  0.00     0.049 A 
ATOM     34  H   UNL     1       6.429   7.824  -4.905  1.00  0.00     0.167 HD
ATOM     35  C   UNL     1       6.553   8.369  -7.700  1.00  0.00     0.074 A 
ATOM     36  C   UNL     1       6.403   8.220  -9.134  1.00  0.00     0.031 C 
ATOM     37  C   UNL     1       7.104   9.449  -7.094  1.00  0.00     0.031 A 
BRANCH  24  38
ATOM     38  C   UNL     1       7.159   9.162  -0.907  1.00  0.00    -0.014 A 
ATOM     39  C   UNL     1       8.137   8.676  -0.020  1.00  0.00     0.010 A 
ATOM     40  C   UNL     1       6.445  10.325  -0.561  1.00  0.00     0.010 A 
ATOM     41  C   UNL     1       8.344   9.296   1.216  1.00  0.00     0.020 A 
ATOM     42  C   UNL     1       6.672  10.968   0.660  1.00  0.00     0.020 A 
ATOM     43  C   UNL     1       7.601  10.431   1.553  1.00  0.00     0.054 A 
BRANCH  43  44
ATOM     44  S   UNL     1       7.863  11.194   3.177  1.00  0.00     0.124 S 
ATOM     45  O   UNL     1       7.227  10.226   4.068  1.00  0.00    -0.237 OA
ATOM     46  O   UNL     1       9.319  11.267   3.268  1.00  0.00    -0.237 OA
ATOM     47  O   UNL     1       7.183  12.482   3.071  1.00  0.00    -0.744 OA
ENDBRANCH  43  44
ENDBRANCH  24  38
BRANCH  25  48
ATOM     48  C   UNL     1       4.588   4.389  -9.307  1.00  0.00    -0.014 A 
ATOM     49  C   UNL     1       5.524   3.849 -10.204  1.00  0.00     0.010 A 
ATOM     50  C   UNL     1       3.214   4.181  -9.541  1.00  0.00     0.010 A 
ATOM     51  C   UNL     1       5.096   3.106 -11.308  1.00  0.00     0.020 A 
ATOM     52  C   UNL     1       2.784   3.415 -10.627  1.00  0.00     0.020 A 
ATOM     53  C   UNL     1       3.729   2.883 -11.505  1.00  0.00     0.054 A 
BRANCH  53  54
ATOM     54  S   UNL     1       3.207   1.830 -12.887  1.00  0.00     0.124 S 
ATOM     55  O   UNL     1       3.475   2.685 -14.039  1.00  0.00    -0.237 OA
ATOM     56  O   UNL     1       4.080   0.668 -12.743  1.00  0.00    -0.237 OA
ATOM     57  O   UNL     1       1.795   1.576 -12.610  1.00  0.00    -0.744 OA
ENDBRANCH  53  54
ENDBRANCH  25  48
BRANCH  37  58
ATOM     58  C   UNL     1       7.646  10.548  -7.971  1.00  0.00    -0.014 A 
ATOM     59  C   UNL     1       6.794  11.442  -8.641  1.00  0.00     0.010 A 
ATOM     60  C   UNL     1       9.038  10.748  -8.033  1.00  0.00     0.010 A 
ATOM     61  C   UNL     1       7.326  12.516  -9.361  1.00  0.00     0.020 A 
ATOM     62  C   UNL     1       9.572  11.834  -8.729  1.00  0.00     0.020 A 
ATOM     63  C   UNL     1       8.712  12.711  -9.392  1.00  0.00     0.054 A 
BRANCH  63  64
ATOM     64  S   UNL     1       9.371  14.166 -10.252  1.00  0.00     0.124 S 
ATOM     65  O   UNL     1       9.159  13.814 -11.653  1.00  0.00    -0.237 OA
ATOM     66  O   UNL     1       8.532  15.247  -9.741  1.00  0.00    -0.237 OA
ATOM     67  O   UNL     1      10.768  14.216  -9.828  1.00  0.00    -0.744 OA
ENDBRANCH  63  64
ENDBRANCH  37  58
ENDBRANCH  11  12
ENDBRANCH   4   6
ENDBRANCH   1   2
BRANCH   1  68
ATOM     68  C   UNL     1       5.011  -0.621   2.255  1.00  0.00     0.042 C 
BRANCH  68  69
ATOM     69  C   UNL     1       4.527  -1.640   3.278  1.00  0.00     0.118 C 
BRANCH  69  70
ATOM     70  N   UNL     1       5.077  -2.967   3.047  1.00  0.00    -0.351 N 
ATOM     71  C   UNL     1       5.901  -3.734   3.842  1.00  0.00     0.269 C 
ATOM     72  H   UNL     1       4.821  -3.380   2.191  1.00  0.00     0.163 HD
ATOM     73  O   UNL     1       6.360  -4.777   3.380  1.00  0.00    -0.268 OA
BRANCH  71  74
ATOM     74  C   UNL     1       6.182  -3.334   5.253  1.00  0.00     0.130 A 
ATOM     75  C   UNL     1       5.123  -3.009   6.093  1.00  0.00     0.034 A 
ATOM     76  N   UNL     1       7.480  -3.393   5.653  1.00  0.00    -0.226 NA
ATOM     77  C   UNL     1       5.415  -2.667   7.401  1.00  0.00     0.006 A 
ATOM     78  C   UNL     1       7.748  -3.129   6.945  1.00  0.00     0.129 A 
ATOM     79  C   UNL     1       6.736  -2.738   7.828  1.00  0.00     0.047 A 
BRANCH  78  80
ATOM     80  N   UNL     1       9.040  -3.256   7.417  1.00  0.00    -0.357 N 
ATOM     81  C   UNL     1      10.159  -2.809   6.597  1.00  0.00     0.118 C 
ATOM     82  C   UNL     1       9.300  -4.156   8.533  1.00  0.00     0.118 C 
ATOM     83  C   UNL     1      11.050  -3.976   6.178  1.00  0.00     0.022 C 
ATOM     84  C   UNL     1      10.146  -5.342   8.072  1.00  0.00     0.022 C 
ATOM     85  C   UNL     1      11.411  -4.866   7.365  1.00  0.00     0.004 C 
ENDBRANCH  78  80
ENDBRANCH  71  74
ENDBRANCH  69  70
ENDBRANCH  68  69
ENDBRANCH   1  68
TORSDOF 14
