REMARK SMILES [NH3+][C@@H](C(=O)NCCCNC(=O)c1ccc(-c2c3nc(c(-c4ccc(S(=O)(=O)[O-])cc4)c4ccc([nH]4)c(-c4ccc(S(=O)(=O)[O-])cc4)c4nc(c(-c5ccc(S(=O)(=O)[O-])cc5)c5ccc2[nH]5)C=C4)C=C3)cc1)[C@@H](O)c1cccs1
REMARK SMILES IDX 7 1 6 2 5 3 3 4 4 5 2 7 1 8 72 12 73 13 74 15 75 16 78 17
REMARK SMILES IDX 76 18 77 19 8 20 9 21 10 22 11 24 12 25 13 26 71 27 14 28
REMARK SMILES IDX 70 29 15 30 16 31 17 32 64 33 18 34 69 35 63 36 65 37 19 38
REMARK SMILES IDX 68 39 62 40 61 41 20 43 50 44 31 45 49 46 32 47 35 48 48 49
REMARK SMILES IDX 66 50 33 51 34 52 47 54 67 55 36 56 21 57 22 58 30 59 23 60
REMARK SMILES IDX 29 61 24 62 25 63 26 64 27 65 28 66 51 67 52 68 60 69 53 70
REMARK SMILES IDX 59 71 54 72 55 73 56 74 57 75 58 76 37 77 38 78 46 79 39 80
REMARK SMILES IDX 45 81 40 82 41 83 42 84 43 85 44 86
REMARK H PARENT 5 6 1 9 1 10 1 11 73 14 9 23 65 42 35 53
REMARK Flexibility Score: inf
ROOT
ATOM      1  C   UNL     1       4.280   0.567  -1.017  1.00  0.00     0.042 C 
ENDROOT
BRANCH   1   2
ATOM      2  C   UNL     1       3.356   1.727  -0.654  1.00  0.00     0.118 C 
BRANCH   2   3
ATOM      3  N   UNL     1       2.296   1.881  -1.635  1.00  0.00    -0.351 N 
ATOM      4  C   UNL     1       0.971   1.558  -1.551  1.00  0.00     0.281 C 
ATOM      5  O   UNL     1       0.303   1.590  -2.586  1.00  0.00    -0.268 OA
ATOM      6  H   UNL     1       2.574   2.278  -2.492  1.00  0.00     0.163 HD
BRANCH   4   7
ATOM      7  C   UNL     1       0.385   1.116  -0.202  1.00  0.00     0.305 C 
BRANCH   7   8
ATOM      8  N   UNL     1       0.679  -0.334   0.028  1.00  0.00    -0.345 N 
ATOM      9  H   UNL     1       1.688  -0.483   0.010  1.00  0.00     0.345 HD
ATOM     10  H   UNL     1       0.241  -0.890  -0.706  1.00  0.00     0.345 HD
ATOM     11  H   UNL     1       0.310  -0.616   0.935  1.00  0.00     0.345 HD
ENDBRANCH   7   8
BRANCH   7  12
ATOM     12  C   UNL     1      -1.147   1.334  -0.174  1.00  0.00     0.222 C 
BRANCH  12  13
ATOM     13  O   UNL     1      -1.665   0.866   1.080  1.00  0.00    -0.381 OA
ATOM     14  H   UNL     1      -1.298   1.400   1.801  1.00  0.00     0.211 HD
ENDBRANCH  12  13
BRANCH  12  15
ATOM     15  C   UNL     1      -1.617   2.757  -0.330  1.00  0.00     0.040 A 
ATOM     16  C   UNL     1      -2.738   3.183  -1.022  1.00  0.00     0.018 A 
ATOM     17  S   UNL     1      -0.778   4.090   0.352  1.00  0.00    -0.146 S 
ATOM     18  C   UNL     1      -2.871   4.599  -1.040  1.00  0.00     0.012 A 
ATOM     19  C   UNL     1      -1.857   5.217  -0.345  1.00  0.00     0.065 A 
ENDBRANCH  12  15
ENDBRANCH   7  12
ENDBRANCH   4   7
ENDBRANCH   2   3
ENDBRANCH   1   2
BRANCH   1  20
ATOM     20  C   UNL     1       5.038   0.756  -2.330  1.00  0.00     0.118 C 
BRANCH  20  21
ATOM     21  N   UNL     1       5.970   1.873  -2.286  1.00  0.00    -0.352 N 
ATOM     22  C   UNL     1       7.328   1.898  -2.483  1.00  0.00     0.251 C 
ATOM     23  H   UNL     1       5.564   2.746  -2.083  1.00  0.00     0.163 HD
ATOM     24  O   UNL     1       7.954   2.926  -2.221  1.00  0.00    -0.269 OA
BRANCH  22  25
ATOM     25  C   UNL     1       8.046   0.703  -2.978  1.00  0.00     0.039 A 
ATOM     26  C   UNL     1       9.259   0.354  -2.379  1.00  0.00     0.014 A 
ATOM     27  C   UNL     1       7.545  -0.063  -4.035  1.00  0.00     0.014 A 
ATOM     28  C   UNL     1       9.926  -0.806  -2.782  1.00  0.00     0.010 A 
ATOM     29  C   UNL     1       8.177  -1.255  -4.391  1.00  0.00     0.010 A 
ATOM     30  C   UNL     1       9.367  -1.646  -3.759  1.00  0.00    -0.014 A 
BRANCH  30  31
ATOM     31  C   UNL     1       9.986  -2.958  -4.086  1.00  0.00     0.031 A 
ATOM     32  C   UNL     1      10.530  -3.234  -5.462  1.00  0.00     0.074 A 
ATOM     33  C   UNL     1       9.999  -3.930  -3.150  1.00  0.00     0.049 A 
ATOM     34  N   UNL     1      11.055  -4.338  -5.932  1.00  0.00    -0.248 NA
ATOM     35  C   UNL     1      10.462  -2.139  -6.443  1.00  0.00     0.031 C 
ATOM     36  C   UNL     1       9.467  -3.802  -1.790  1.00  0.00     0.029 A 
ATOM     37  N   UNL     1      10.468  -5.220  -3.199  1.00  0.00    -0.354 N 
ATOM     38  C   UNL     1      11.366  -4.077  -7.262  1.00  0.00     0.074 A 
ATOM     39  C   UNL     1      10.938  -2.722  -7.535  1.00  0.00     0.031 C 
ATOM     40  C   UNL     1       9.661  -4.955  -1.130  1.00  0.00     0.029 A 
ATOM     41  C   UNL     1      10.285  -5.920  -2.029  1.00  0.00     0.049 A 
ATOM     42  H   UNL     1      10.896  -5.607  -3.997  1.00  0.00     0.167 HD
ATOM     43  C   UNL     1      11.965  -4.887  -8.167  1.00  0.00     0.031 A 
ATOM     44  C   UNL     1      10.571  -7.199  -1.714  1.00  0.00     0.031 A 
ATOM     45  C   UNL     1      12.400  -6.232  -7.888  1.00  0.00     0.049 A 
ATOM     46  C   UNL     1      11.215  -8.082  -2.749  1.00  0.00     0.074 A 
ATOM     47  C   UNL     1      13.076  -7.104  -8.724  1.00  0.00     0.029 A 
ATOM     48  N   UNL     1      12.197  -6.902  -6.692  1.00  0.00    -0.354 N 
ATOM     49  N   UNL     1      11.574  -7.787  -3.975  1.00  0.00    -0.248 NA
ATOM     50  C   UNL     1      11.499  -9.469  -2.354  1.00  0.00     0.031 C 
ATOM     51  C   UNL     1      13.227  -8.323  -8.056  1.00  0.00     0.029 A 
ATOM     52  C   UNL     1      12.703  -8.189  -6.780  1.00  0.00     0.049 A 
ATOM     53  H   UNL     1      11.759  -6.521  -5.897  1.00  0.00     0.167 HD
ATOM     54  C   UNL     1      12.149  -8.944  -4.488  1.00  0.00     0.074 A 
ATOM     55  C   UNL     1      12.111  -9.935  -3.433  1.00  0.00     0.031 C 
ATOM     56  C   UNL     1      12.660  -9.167  -5.724  1.00  0.00     0.031 A 
BRANCH  43  57
ATOM     57  C   UNL     1      12.189  -4.353  -9.558  1.00  0.00    -0.014 A 
ATOM     58  C   UNL     1      13.166  -3.374  -9.811  1.00  0.00     0.010 A 
ATOM     59  C   UNL     1      11.480  -4.908 -10.640  1.00  0.00     0.010 A 
ATOM     60  C   UNL     1      13.417  -2.947 -11.118  1.00  0.00     0.020 A 
ATOM     61  C   UNL     1      11.746  -4.502 -11.950  1.00  0.00     0.020 A 
ATOM     62  C   UNL     1      12.708  -3.517 -12.180  1.00  0.00     0.054 A 
BRANCH  62  63
ATOM     63  S   UNL     1      13.100  -2.986 -13.870  1.00  0.00     0.124 S 
ATOM     64  O   UNL     1      12.553  -1.632 -13.895  1.00  0.00    -0.237 OA
ATOM     65  O   UNL     1      14.558  -3.075 -13.902  1.00  0.00    -0.237 OA
ATOM     66  O   UNL     1      12.401  -3.955 -14.710  1.00  0.00    -0.744 OA
ENDBRANCH  62  63
ENDBRANCH  43  57
BRANCH  44  67
ATOM     67  C   UNL     1      10.238  -7.733  -0.364  1.00  0.00    -0.014 A 
ATOM     68  C   UNL     1      11.256  -8.094   0.536  1.00  0.00     0.010 A 
ATOM     69  C   UNL     1       8.895  -7.907   0.018  1.00  0.00     0.010 A 
ATOM     70  C   UNL     1      10.938  -8.652   1.778  1.00  0.00     0.020 A 
ATOM     71  C   UNL     1       8.573  -8.433   1.272  1.00  0.00     0.020 A 
ATOM     72  C   UNL     1       9.598  -8.821   2.137  1.00  0.00     0.054 A 
BRANCH  72  73
ATOM     73  S   UNL     1       9.207  -9.529   3.760  1.00  0.00     0.124 S 
ATOM     74  O   UNL     1       9.537 -10.937   3.564  1.00  0.00    -0.237 OA
ATOM     75  O   UNL     1      10.096  -8.787   4.651  1.00  0.00    -0.237 OA
ATOM     76  O   UNL     1       7.785  -9.235   3.926  1.00  0.00    -0.744 OA
ENDBRANCH  72  73
ENDBRANCH  44  67
BRANCH  56  77
ATOM     77  C   UNL     1      13.246 -10.527  -5.997  1.00  0.00    -0.014 A 
ATOM     78  C   UNL     1      12.427 -11.662  -6.125  1.00  0.00     0.010 A 
ATOM     79  C   UNL     1      14.636 -10.662  -6.174  1.00  0.00     0.010 A 
ATOM     80  C   UNL     1      12.989 -12.914  -6.392  1.00  0.00     0.020 A 
ATOM     81  C   UNL     1      15.199 -11.905  -6.472  1.00  0.00     0.020 A 
ATOM     82  C   UNL     1      14.372 -13.027  -6.564  1.00  0.00     0.054 A 
BRANCH  82  83
ATOM     83  S   UNL     1      15.072 -14.655  -6.950  1.00  0.00     0.124 S 
ATOM     84  O   UNL     1      14.954 -15.348  -5.670  1.00  0.00    -0.237 OA
ATOM     85  O   UNL     1      14.192 -15.138  -8.011  1.00  0.00    -0.237 OA
ATOM     86  O   UNL     1      16.439 -14.354  -7.371  1.00  0.00    -0.744 OA
ENDBRANCH  82  83
ENDBRANCH  56  77
ENDBRANCH  30  31
ENDBRANCH  22  25
ENDBRANCH  20  21
ENDBRANCH   1  20
TORSDOF 17
