REMARK SMILES COc1nc(-c2ccccc2)nc(C)c1CC(=O)NCCCNC(=O)c1ccc(-c2c3nc(c(-c4ccc(S(=O)(=O)[O-])cc4)c4ccc([nH]4)c(-c4ccc(S(=O)(=O)[O-])cc4)c4nc(c(-c5ccc(S(=O)(=O)[O-])cc5)c5ccc2[nH]5)C=C4)C=C3)cc1
REMARK SMILES IDX 21 1 20 2 19 3 17 4 18 5 16 7 15 8 3 9 4 10 5 11 13 12 12 13
REMARK SMILES IDX 14 14 2 15 1 16 6 17 7 18 11 19 8 20 10 21 9 22 22 23 23 24
REMARK SMILES IDX 24 25 25 27 26 28 27 29 85 30 28 31 84 32 29 33 30 34 31 35
REMARK SMILES IDX 78 36 32 37 83 38 77 39 79 40 33 41 82 42 76 43 75 44 34 46
REMARK SMILES IDX 64 47 45 48 63 49 46 50 49 51 62 52 80 53 47 54 48 55 61 57
REMARK SMILES IDX 81 58 50 59 35 60 36 61 44 62 37 63 43 64 38 65 39 66 40 67
REMARK SMILES IDX 41 68 42 69 65 70 66 71 74 72 67 73 73 74 68 75 69 76 70 77
REMARK SMILES IDX 71 78 72 79 51 80 52 81 60 82 53 83 59 84 54 85 55 86 56 87
REMARK SMILES IDX 57 88 58 89
REMARK H PARENT 19 6 23 26 79 45 49 56
REMARK Flexibility Score: inf
ROOT
ATOM      1  C   UNL     1       1.792  -3.308   3.110  1.00  0.00     0.042 C 
ENDROOT
BRANCH   1   2
ATOM      2  C   UNL     1       3.139  -2.898   2.521  1.00  0.00     0.117 C 
BRANCH   2   3
ATOM      3  N   UNL     1       3.031  -2.338   1.187  1.00  0.00    -0.356 N 
ATOM      4  C   UNL     1       3.158  -1.056   0.748  1.00  0.00     0.224 C 
ATOM      5  O   UNL     1       3.173  -0.885  -0.475  1.00  0.00    -0.275 OA
ATOM      6  H   UNL     1       2.834  -2.996   0.482  1.00  0.00     0.163 HD
BRANCH   4   7
ATOM      7  C   UNL     1       3.352   0.120   1.697  1.00  0.00     0.143 C 
BRANCH   7   8
ATOM      8  C   UNL     1       2.295   0.280   2.754  1.00  0.00     0.045 A 
ATOM      9  C   UNL     1       0.984   0.611   2.420  1.00  0.00     0.220 A 
ATOM     10  N   UNL     1      -0.047   0.658   3.285  1.00  0.00    -0.193 NA
ATOM     11  C   UNL     1       0.267   0.425   4.567  1.00  0.00     0.163 A 
ATOM     12  C   UNL     1       2.517   0.123   4.114  1.00  0.00     0.049 A 
ATOM     13  N   UNL     1       1.515   0.189   5.012  1.00  0.00    -0.233 NA
ATOM     14  C   UNL     1       3.857  -0.098   4.752  1.00  0.00     0.067 C 
BRANCH   9  15
ATOM     15  O   UNL     1       0.754   1.208   1.202  1.00  0.00    -0.481 OA
ATOM     16  C   UNL     1       0.293   0.296   0.213  1.00  0.00     0.280 C 
ENDBRANCH   9  15
BRANCH  11  17
ATOM     17  C   UNL     1      -0.781   0.432   5.594  1.00  0.00     0.019 A 
ATOM     18  C   UNL     1      -0.615   1.180   6.777  1.00  0.00     0.012 A 
ATOM     19  C   UNL     1      -1.933  -0.363   5.480  1.00  0.00     0.012 A 
ATOM     20  C   UNL     1      -1.556   1.130   7.809  1.00  0.00     0.001 A 
ATOM     21  C   UNL     1      -2.868  -0.427   6.520  1.00  0.00     0.001 A 
ATOM     22  C   UNL     1      -2.679   0.318   7.683  1.00  0.00     0.000 A 
ENDBRANCH  11  17
ENDBRANCH   7   8
ENDBRANCH   4   7
ENDBRANCH   2   3
ENDBRANCH   1   2
BRANCH   1  23
ATOM     23  C   UNL     1       1.125  -4.486   2.401  1.00  0.00     0.118 C 
BRANCH  23  24
ATOM     24  N   UNL     1       1.939  -5.695   2.429  1.00  0.00    -0.352 N 
ATOM     25  C   UNL     1       1.686  -6.928   2.968  1.00  0.00     0.251 C 
ATOM     26  H   UNL     1       2.814  -5.611   1.987  1.00  0.00     0.163 HD
ATOM     27  O   UNL     1       2.612  -7.742   3.050  1.00  0.00    -0.269 OA
BRANCH  25  28
ATOM     28  C   UNL     1       0.340  -7.297   3.455  1.00  0.00     0.039 A 
ATOM     29  C   UNL     1       0.229  -8.056   4.624  1.00  0.00     0.014 A 
ATOM     30  C   UNL     1      -0.811  -6.947   2.744  1.00  0.00     0.014 A 
ATOM     31  C   UNL     1      -1.032  -8.410   5.111  1.00  0.00     0.010 A 
ATOM     32  C   UNL     1      -2.070  -7.237   3.268  1.00  0.00     0.010 A 
ATOM     33  C   UNL     1      -2.195  -7.974   4.455  1.00  0.00    -0.014 A 
BRANCH  33  34
ATOM     34  C   UNL     1      -3.546  -8.271   5.000  1.00  0.00     0.031 A 
ATOM     35  C   UNL     1      -4.514  -9.119   4.216  1.00  0.00     0.074 A 
ATOM     36  C   UNL     1      -3.926  -7.721   6.172  1.00  0.00     0.049 A 
ATOM     37  N   UNL     1      -5.755  -9.425   4.497  1.00  0.00    -0.248 NA
ATOM     38  C   UNL     1      -4.036  -9.677   2.939  1.00  0.00     0.031 C 
ATOM     39  C   UNL     1      -3.096  -6.848   7.008  1.00  0.00     0.029 A 
ATOM     40  N   UNL     1      -5.111  -7.804   6.860  1.00  0.00    -0.354 N 
ATOM     41  C   UNL     1      -6.212 -10.185   3.426  1.00  0.00     0.074 A 
ATOM     42  C   UNL     1      -5.128 -10.267   2.472  1.00  0.00     0.031 C 
ATOM     43  C   UNL     1      -3.790  -6.497   8.103  1.00  0.00     0.029 A 
ATOM     44  C   UNL     1      -5.125  -7.079   8.030  1.00  0.00     0.049 A 
ATOM     45  H   UNL     1      -5.880  -8.334   6.546  1.00  0.00     0.167 HD
ATOM     46  C   UNL     1      -7.420 -10.773   3.258  1.00  0.00     0.031 A 
ATOM     47  C   UNL     1      -6.106  -6.892   8.935  1.00  0.00     0.031 A 
ATOM     48  C   UNL     1      -8.486 -10.716   4.223  1.00  0.00     0.049 A 
ATOM     49  C   UNL     1      -7.439  -7.560   8.720  1.00  0.00     0.074 A 
ATOM     50  C   UNL     1      -9.718 -11.347   4.178  1.00  0.00     0.029 A 
ATOM     51  N   UNL     1      -8.452  -9.991   5.403  1.00  0.00    -0.354 N 
ATOM     52  N   UNL     1      -7.819  -8.343   7.739  1.00  0.00    -0.248 NA
ATOM     53  C   UNL     1      -8.470  -7.327   9.741  1.00  0.00     0.031 C 
ATOM     54  C   UNL     1     -10.451 -10.956   5.302  1.00  0.00     0.029 A 
ATOM     55  C   UNL     1      -9.652 -10.134   6.079  1.00  0.00     0.049 A 
ATOM     56  H   UNL     1      -7.688  -9.453   5.715  1.00  0.00     0.167 HD
ATOM     57  C   UNL     1      -9.122  -8.724   8.045  1.00  0.00     0.074 A 
ATOM     58  C   UNL     1      -9.457  -8.100   9.307  1.00  0.00     0.031 C 
ATOM     59  C   UNL     1      -9.966  -9.519   7.343  1.00  0.00     0.031 A 
BRANCH  46  60
ATOM     60  C   UNL     1      -7.671 -11.535   1.983  1.00  0.00    -0.014 A 
ATOM     61  C   UNL     1      -7.059 -12.778   1.746  1.00  0.00     0.010 A 
ATOM     62  C   UNL     1      -8.610 -11.046   1.056  1.00  0.00     0.010 A 
ATOM     63  C   UNL     1      -7.369 -13.511   0.597  1.00  0.00     0.020 A 
ATOM     64  C   UNL     1      -8.942 -11.787  -0.082  1.00  0.00     0.020 A 
ATOM     65  C   UNL     1      -8.313 -13.013  -0.307  1.00  0.00     0.054 A 
BRANCH  65  66
ATOM     66  S   UNL     1      -8.747 -14.020  -1.752  1.00  0.00     0.124 S 
ATOM     67  O   UNL     1      -7.543 -13.906  -2.572  1.00  0.00    -0.237 OA
ATOM     68  O   UNL     1      -8.984 -15.336  -1.165  1.00  0.00    -0.237 OA
ATOM     69  O   UNL     1      -9.932 -13.360  -2.293  1.00  0.00    -0.744 OA
ENDBRANCH  65  66
ENDBRANCH  46  60
BRANCH  47  70
ATOM     70  C   UNL     1      -5.878  -6.029  10.128  1.00  0.00    -0.014 A 
ATOM     71  C   UNL     1      -5.856  -6.585  11.420  1.00  0.00     0.010 A 
ATOM     72  C   UNL     1      -5.722  -4.639   9.982  1.00  0.00     0.010 A 
ATOM     73  C   UNL     1      -5.728  -5.764  12.544  1.00  0.00     0.020 A 
ATOM     74  C   UNL     1      -5.561  -3.818  11.101  1.00  0.00     0.020 A 
ATOM     75  C   UNL     1      -5.588  -4.383  12.377  1.00  0.00     0.054 A 
BRANCH  75  76
ATOM     76  S   UNL     1      -5.425  -3.333  13.847  1.00  0.00     0.124 S 
ATOM     77  O   UNL     1      -6.789  -3.325  14.365  1.00  0.00    -0.237 OA
ATOM     78  O   UNL     1      -4.446  -4.062  14.650  1.00  0.00    -0.237 OA
ATOM     79  O   UNL     1      -4.952  -2.061  13.306  1.00  0.00    -0.744 OA
ENDBRANCH  75  76
ENDBRANCH  47  70
BRANCH  59  80
ATOM     80  C   UNL     1     -11.315  -9.805   7.945  1.00  0.00    -0.014 A 
ATOM     81  C   UNL     1     -12.313  -8.817   8.010  1.00  0.00     0.010 A 
ATOM     82  C   UNL     1     -11.604 -11.104   8.405  1.00  0.00     0.010 A 
ATOM     83  C   UNL     1     -13.566  -9.114   8.555  1.00  0.00     0.020 A 
ATOM     84  C   UNL     1     -12.865 -11.412   8.922  1.00  0.00     0.020 A 
ATOM     85  C   UNL     1     -13.833 -10.410   9.008  1.00  0.00     0.054 A 
BRANCH  85  86
ATOM     86  S   UNL     1     -15.479 -10.781   9.672  1.00  0.00     0.124 S 
ATOM     87  O   UNL     1     -15.439 -10.117  10.972  1.00  0.00    -0.237 OA
ATOM     88  O   UNL     1     -16.368 -10.174   8.684  1.00  0.00    -0.237 OA
ATOM     89  O   UNL     1     -15.514 -12.241   9.719  1.00  0.00    -0.744 OA
ENDBRANCH  85  86
ENDBRANCH  59  80
ENDBRANCH  33  34
ENDBRANCH  25  28
ENDBRANCH  23  24
ENDBRANCH   1  23
TORSDOF 16
