REMARK SMILES O=C(NCCCNC(=O)c1ccc(-c2c3nc(c(-c4ccc(S(=O)(=O)[O-])cc4)c4ccc([nH]4)c(-c4ccc(S(=O)(=O)[O-])cc4)c4nc(c(-c5ccc(S(=O)(=O)[O-])cc5)c5ccc2[nH]5)C=C4)C=C3)cc1)c1ccc(NS(=O)(=O)C2=Cc3ccccc3CC2)cc1
REMARK SMILES IDX 5 1 4 2 3 3 1 4 2 5 70 7 71 8 89 9 72 10 88 11 73 12 74 13
REMARK SMILES IDX 75 15 76 16 77 17 78 18 79 19 87 20 80 21 86 22 81 23 85 24
REMARK SMILES IDX 82 25 84 26 83 27 6 28 7 29 8 30 9 32 10 33 11 34 69 35
REMARK SMILES IDX 12 36 68 37 13 38 14 39 15 40 62 41 16 42 67 43 61 44 63 45
REMARK SMILES IDX 17 46 66 47 60 48 59 49 18 51 48 52 29 53 47 54 30 55 33 56
REMARK SMILES IDX 46 57 64 58 31 59 32 60 45 62 65 63 34 64 19 65 20 66 28 67
REMARK SMILES IDX 21 68 27 69 22 70 23 71 24 72 25 73 26 74 49 75 50 76 58 77
REMARK SMILES IDX 51 78 57 79 52 80 53 81 54 82 55 83 56 84 35 85 36 86 44 87
REMARK SMILES IDX 37 88 43 89 38 90 39 91 40 92 41 93 42 94
REMARK H PARENT 3 6 74 14 7 31 63 50 33 61
REMARK Flexibility Score: inf
ROOT
ATOM      1  C   UNL     1       4.889   2.120   1.492  1.00  0.00     0.042 C 
ENDROOT
BRANCH   1   2
ATOM      2  C   UNL     1       4.384   0.711   1.222  1.00  0.00     0.118 C 
BRANCH   2   3
ATOM      3  N   UNL     1       2.940   0.673   1.041  1.00  0.00    -0.352 N 
ATOM      4  O   UNL     1       1.008   0.545  -0.112  1.00  0.00    -0.269 OA
ATOM      5  C   UNL     1       2.210   0.300  -0.058  1.00  0.00     0.251 C 
ATOM      6  H   UNL     1       2.410   0.957   1.821  1.00  0.00     0.163 HD
BRANCH   5   7
ATOM      7  C   UNL     1       2.855  -0.434  -1.166  1.00  0.00     0.039 A 
ATOM      8  C   UNL     1       3.682  -1.526  -0.896  1.00  0.00     0.016 A 
ATOM      9  C   UNL     1       2.528  -0.120  -2.488  1.00  0.00     0.016 A 
ATOM     10  C   UNL     1       4.210  -2.276  -1.944  1.00  0.00     0.027 A 
ATOM     11  C   UNL     1       3.069  -0.873  -3.538  1.00  0.00     0.027 A 
ATOM     12  C   UNL     1       3.929  -1.945  -3.270  1.00  0.00     0.049 A 
BRANCH  12  13
ATOM     13  N   UNL     1       4.304  -2.830  -4.328  1.00  0.00    -0.280 N 
ATOM     14  H   UNL     1       3.604  -3.261  -4.869  1.00  0.00     0.180 HD
BRANCH  13  15
ATOM     15  S   UNL     1       5.941  -3.150  -4.671  1.00  0.00     0.258 S 
ATOM     16  O   UNL     1       5.900  -4.386  -5.434  1.00  0.00    -0.202 OA
ATOM     17  O   UNL     1       6.426  -1.949  -5.318  1.00  0.00    -0.202 OA
BRANCH  15  18
ATOM     18  C   UNL     1       6.818  -3.394  -3.160  1.00  0.00     0.066 C 
ATOM     19  C   UNL     1       7.111  -4.671  -2.829  1.00  0.00     0.026 C 
ATOM     20  C   UNL     1       7.894  -2.375  -2.873  1.00  0.00     0.055 C 
ATOM     21  C   UNL     1       8.420  -5.142  -3.367  1.00  0.00    -0.021 A 
ATOM     22  C   UNL     1       9.169  -2.723  -3.655  1.00  0.00     0.041 C 
ATOM     23  C   UNL     1       8.662  -6.515  -3.471  1.00  0.00     0.008 A 
ATOM     24  C   UNL     1       9.406  -4.216  -3.772  1.00  0.00    -0.040 A 
ATOM     25  C   UNL     1       9.861  -6.971  -4.020  1.00  0.00     0.001 A 
ATOM     26  C   UNL     1      10.595  -4.688  -4.339  1.00  0.00     0.004 A 
ATOM     27  C   UNL     1      10.818  -6.060  -4.466  1.00  0.00     0.000 A 
ENDBRANCH  15  18
ENDBRANCH  13  15
ENDBRANCH  12  13
ENDBRANCH   5   7
ENDBRANCH   2   3
ENDBRANCH   1   2
BRANCH   1  28
ATOM     28  C   UNL     1       4.360   2.735   2.780  1.00  0.00     0.118 C 
BRANCH  28  29
ATOM     29  N   UNL     1       4.813   2.032   3.973  1.00  0.00    -0.352 N 
ATOM     30  C   UNL     1       5.624   2.458   4.999  1.00  0.00     0.251 C 
ATOM     31  H   UNL     1       4.488   1.107   4.058  1.00  0.00     0.163 HD
ATOM     32  O   UNL     1       6.027   1.644   5.825  1.00  0.00    -0.269 OA
BRANCH  30  33
ATOM     33  C   UNL     1       6.032   3.877   5.092  1.00  0.00     0.039 A 
ATOM     34  C   UNL     1       7.351   4.183   5.439  1.00  0.00     0.014 A 
ATOM     35  C   UNL     1       5.123   4.906   4.839  1.00  0.00     0.014 A 
ATOM     36  C   UNL     1       7.774   5.515   5.450  1.00  0.00     0.010 A 
ATOM     37  C   UNL     1       5.569   6.220   4.753  1.00  0.00     0.010 A 
ATOM     38  C   UNL     1       6.898   6.541   5.063  1.00  0.00    -0.014 A 
BRANCH  38  39
ATOM     39  C   UNL     1       7.340   7.957   4.984  1.00  0.00     0.031 A 
ATOM     40  C   UNL     1       6.681   9.001   5.847  1.00  0.00     0.074 A 
ATOM     41  C   UNL     1       8.271   8.320   4.080  1.00  0.00     0.049 A 
ATOM     42  N   UNL     1       6.855  10.298   5.851  1.00  0.00    -0.248 NA
ATOM     43  C   UNL     1       5.671   8.528   6.808  1.00  0.00     0.031 C 
ATOM     44  C   UNL     1       8.952   7.415   3.149  1.00  0.00     0.029 A 
ATOM     45  N   UNL     1       8.801   9.552   3.788  1.00  0.00    -0.354 N 
ATOM     46  C   UNL     1       5.957  10.796   6.788  1.00  0.00     0.074 A 
ATOM     47  C   UNL     1       5.208   9.668   7.298  1.00  0.00     0.031 C 
ATOM     48  C   UNL     1       9.828   8.118   2.413  1.00  0.00     0.029 A 
ATOM     49  C   UNL     1       9.744   9.526   2.787  1.00  0.00     0.049 A 
ATOM     50  H   UNL     1       8.531  10.378   4.251  1.00  0.00     0.167 HD
ATOM     51  C   UNL     1       5.784  12.073   7.205  1.00  0.00     0.031 A 
ATOM     52  C   UNL     1      10.457  10.522   2.229  1.00  0.00     0.031 A 
ATOM     53  C   UNL     1       6.549  13.189   6.721  1.00  0.00     0.049 A 
ATOM     54  C   UNL     1      10.262  11.930   2.719  1.00  0.00     0.074 A 
ATOM     55  C   UNL     1       6.496  14.511   7.127  1.00  0.00     0.029 A 
ATOM     56  N   UNL     1       7.512  13.114   5.726  1.00  0.00    -0.354 N 
ATOM     57  N   UNL     1       9.447  12.372   3.647  1.00  0.00    -0.248 NA
ATOM     58  C   UNL     1      11.090  12.970   2.094  1.00  0.00     0.031 C 
ATOM     59  C   UNL     1       7.402  15.243   6.352  1.00  0.00     0.029 A 
ATOM     60  C   UNL     1       8.050  14.368   5.493  1.00  0.00     0.049 A 
ATOM     61  H   UNL     1       7.775  12.290   5.255  1.00  0.00     0.167 HD
ATOM     62  C   UNL     1       9.677  13.740   3.730  1.00  0.00     0.074 A 
ATOM     63  C   UNL     1      10.717  14.049   2.769  1.00  0.00     0.031 C 
ATOM     64  C   UNL     1       9.081  14.658   4.530  1.00  0.00     0.031 A 
BRANCH  51  65
ATOM     65  C   UNL     1       4.719  12.322   8.239  1.00  0.00    -0.014 A 
ATOM     66  C   UNL     1       4.883  11.887   9.568  1.00  0.00     0.010 A 
ATOM     67  C   UNL     1       3.545  13.009   7.884  1.00  0.00     0.010 A 
ATOM     68  C   UNL     1       3.871  12.088  10.508  1.00  0.00     0.020 A 
ATOM     69  C   UNL     1       2.540  13.236   8.830  1.00  0.00     0.020 A 
ATOM     70  C   UNL     1       2.701  12.754  10.131  1.00  0.00     0.054 A 
BRANCH  70  71
ATOM     71  S   UNL     1       1.402  13.005  11.371  1.00  0.00     0.124 S 
ATOM     72  O   UNL     1       0.799  11.676  11.446  1.00  0.00    -0.237 OA
ATOM     73  O   UNL     1       2.157  13.419  12.551  1.00  0.00    -0.237 OA
ATOM     74  O   UNL     1       0.556  14.040  10.782  1.00  0.00    -0.744 OA
ENDBRANCH  70  71
ENDBRANCH  51  65
BRANCH  52  75
ATOM     75  C   UNL     1      11.442  10.216   1.158  1.00  0.00    -0.014 A 
ATOM     76  C   UNL     1      12.820  10.246   1.434  1.00  0.00     0.010 A 
ATOM     77  C   UNL     1      11.009   9.863  -0.133  1.00  0.00     0.010 A 
ATOM     78  C   UNL     1      13.749   9.939   0.436  1.00  0.00     0.020 A 
ATOM     79  C   UNL     1      11.935   9.533  -1.127  1.00  0.00     0.020 A 
ATOM     80  C   UNL     1      13.300   9.581  -0.838  1.00  0.00     0.054 A 
BRANCH  80  81
ATOM     81  S   UNL     1      14.520   9.118  -2.100  1.00  0.00     0.124 S 
ATOM     82  O   UNL     1      15.046  10.418  -2.504  1.00  0.00    -0.237 OA
ATOM     83  O   UNL     1      15.442   8.266  -1.352  1.00  0.00    -0.237 OA
ATOM     84  O   UNL     1      13.720   8.423  -3.106  1.00  0.00    -0.744 OA
ENDBRANCH  80  81
ENDBRANCH  52  75
BRANCH  64  85
ATOM     85  C   UNL     1       9.555  16.080   4.419  1.00  0.00    -0.014 A 
ATOM     86  C   UNL     1       9.192  16.881   3.322  1.00  0.00     0.010 A 
ATOM     87  C   UNL     1      10.330  16.637   5.452  1.00  0.00     0.010 A 
ATOM     88  C   UNL     1       9.619  18.209   3.247  1.00  0.00     0.020 A 
ATOM     89  C   UNL     1      10.740  17.971   5.392  1.00  0.00     0.020 A 
ATOM     90  C   UNL     1      10.392  18.745   4.282  1.00  0.00     0.054 A 
BRANCH  90  91
ATOM     91  S   UNL     1      10.897  20.484   4.186  1.00  0.00     0.124 S 
ATOM     92  O   UNL     1      11.988  20.430   3.217  1.00  0.00    -0.237 OA
ATOM     93  O   UNL     1       9.681  21.149   3.727  1.00  0.00    -0.237 OA
ATOM     94  O   UNL     1      11.294  20.804   5.556  1.00  0.00    -0.744 OA
ENDBRANCH  90  91
ENDBRANCH  64  85
ENDBRANCH  38  39
ENDBRANCH  30  33
ENDBRANCH  28  29
ENDBRANCH   1  28
TORSDOF 16
