REMARK SMILES COC(=O)c1sc(NC(=O)[C@H]2CC=CC[C@H]2C(=O)NCCCNC(=O)c2ccc(-c3c4nc(c(-c5ccc(S(=O)(=O)[O-])cc5)c5ccc([nH]5)c(-c5ccc(S(=O)(=O)[O-])cc5)c5nc(c(-c6ccc(S(=O)(=O)[O-])cc6)c6ccc3[nH]6)C=C5)C=C4)cc2)nc1C
REMARK SMILES IDX 20 1 19 2 17 3 18 4 16 6 11 7 12 8 13 9 15 10 14 11 9 12
REMARK SMILES IDX 8 13 10 15 7 16 5 17 6 18 87 19 86 20 88 21 3 22 4 23 2 24
REMARK SMILES IDX 1 25 21 26 22 27 23 28 24 29 25 31 26 32 27 33 85 34 28 35
REMARK SMILES IDX 84 36 29 37 30 38 31 39 78 40 32 41 83 42 77 43 79 44 33 45
REMARK SMILES IDX 82 46 76 47 75 48 34 50 64 51 45 52 63 53 46 54 49 55 62 56
REMARK SMILES IDX 80 57 47 58 48 59 61 61 81 62 50 63 35 64 36 65 44 66 37 67
REMARK SMILES IDX 43 68 38 69 39 70 40 71 41 72 42 73 65 74 66 75 74 76 67 77
REMARK SMILES IDX 73 78 68 79 69 80 70 81 71 82 72 83 51 84 52 85 60 86 53 87
REMARK SMILES IDX 59 88 54 89 55 90 56 91 57 92 58 93
REMARK H PARENT 19 5 8 14 23 30 79 49 49 60
REMARK Flexibility Score: inf
ROOT
ATOM      1  C   UNL     1      -0.695  -3.024   6.635  1.00  0.00     0.117 C 
ENDROOT
BRANCH   1   2
ATOM      2  N   UNL     1      -2.084  -2.809   6.277  1.00  0.00    -0.356 N 
ATOM      3  C   UNL     1      -2.693  -1.670   5.841  1.00  0.00     0.224 C 
ATOM      4  O   UNL     1      -3.513  -1.815   4.924  1.00  0.00    -0.275 OA
ATOM      5  H   UNL     1      -2.669  -3.597   6.360  1.00  0.00     0.163 HD
BRANCH   3   6
ATOM      6  C   UNL     1      -2.616  -0.332   6.584  1.00  0.00     0.095 C 
ATOM      7  C   UNL     1      -1.680  -0.084   7.770  1.00  0.00     0.095 C 
ATOM      8  C   UNL     1      -2.409   0.992   8.647  1.00  0.00     0.041 C 
ATOM      9  C   UNL     1      -2.757   2.222   7.849  1.00  0.00    -0.030 C 
ATOM     10  C   UNL     1      -2.871   0.920   5.715  1.00  0.00     0.041 C 
ATOM     11  C   UNL     1      -2.940   2.189   6.522  1.00  0.00    -0.030 C 
BRANCH   7  12
ATOM     12  C   UNL     1      -0.200   0.360   7.714  1.00  0.00     0.230 C 
ATOM     13  N   UNL     1       0.691   0.328   6.705  1.00  0.00    -0.302 N 
ATOM     14  H   UNL     1       1.598   0.607   6.966  1.00  0.00     0.172 HD
ATOM     15  O   UNL     1       0.324   0.726   8.785  1.00  0.00    -0.274 OA
BRANCH  13  16
ATOM     16  C   UNL     1       0.578  -0.016   5.402  1.00  0.00     0.190 A 
ATOM     17  C   UNL     1       1.165  -0.391   3.098  1.00  0.00     0.137 A 
ATOM     18  S   UNL     1       2.035   0.027   4.520  1.00  0.00    -0.089 S 
ATOM     19  C   UNL     1      -0.170  -0.585   3.408  1.00  0.00     0.065 A 
ATOM     20  N   UNL     1      -0.470  -0.414   4.746  1.00  0.00    -0.224 NA
ATOM     21  C   UNL     1      -1.296  -0.938   2.502  1.00  0.00     0.069 C 
BRANCH  17  22
ATOM     22  C   UNL     1       1.841  -0.467   1.830  1.00  0.00     0.350 C 
ATOM     23  O   UNL     1       2.963  -0.903   1.630  1.00  0.00    -0.245 OA
BRANCH  22  24
ATOM     24  O   UNL     1       1.018   0.040   0.868  1.00  0.00    -0.465 OA
ATOM     25  C   UNL     1       1.510  -0.025  -0.468  1.00  0.00     0.282 C 
ENDBRANCH  22  24
ENDBRANCH  17  22
ENDBRANCH  13  16
ENDBRANCH   7  12
ENDBRANCH   3   6
ENDBRANCH   1   2
BRANCH   1  26
ATOM     26  C   UNL     1      -0.479  -3.528   8.049  1.00  0.00     0.042 C 
BRANCH  26  27
ATOM     27  C   UNL     1       0.691  -4.499   8.156  1.00  0.00     0.118 C 
BRANCH  27  28
ATOM     28  N   UNL     1       1.963  -4.016   7.632  1.00  0.00    -0.352 N 
ATOM     29  C   UNL     1       3.247  -4.312   8.042  1.00  0.00     0.251 C 
ATOM     30  H   UNL     1       1.896  -3.387   6.877  1.00  0.00     0.163 HD
ATOM     31  O   UNL     1       4.196  -3.798   7.454  1.00  0.00    -0.269 OA
BRANCH  29  32
ATOM     32  C   UNL     1       3.486  -5.189   9.216  1.00  0.00     0.039 A 
ATOM     33  C   UNL     1       4.505  -4.850  10.114  1.00  0.00     0.014 A 
ATOM     34  C   UNL     1       2.696  -6.309   9.469  1.00  0.00     0.014 A 
ATOM     35  C   UNL     1       4.649  -5.565  11.309  1.00  0.00     0.010 A 
ATOM     36  C   UNL     1       2.766  -6.946  10.704  1.00  0.00     0.010 A 
ATOM     37  C   UNL     1       3.738  -6.579  11.645  1.00  0.00    -0.014 A 
BRANCH  37  38
ATOM     38  C   UNL     1       3.766  -7.264  12.966  1.00  0.00     0.031 A 
ATOM     39  C   UNL     1       3.905  -8.764  13.037  1.00  0.00     0.074 A 
ATOM     40  C   UNL     1       3.563  -6.556  14.097  1.00  0.00     0.049 A 
ATOM     41  N   UNL     1       3.799  -9.556  14.073  1.00  0.00    -0.248 NA
ATOM     42  C   UNL     1       4.153  -9.470  11.768  1.00  0.00     0.031 C 
ATOM     43  C   UNL     1       3.347  -5.108  14.170  1.00  0.00     0.029 A 
ATOM     44  N   UNL     1       3.487  -6.964  15.407  1.00  0.00    -0.354 N 
ATOM     45  C   UNL     1       3.935 -10.848  13.578  1.00  0.00     0.074 A 
ATOM     46  C   UNL     1       4.073 -10.738  12.142  1.00  0.00     0.031 C 
ATOM     47  C   UNL     1       3.192  -4.747  15.454  1.00  0.00     0.029 A 
ATOM     48  C   UNL     1       3.252  -5.938  16.294  1.00  0.00     0.049 A 
ATOM     49  H   UNL     1       3.592  -7.902  15.685  1.00  0.00     0.167 HD
ATOM     50  C   UNL     1       3.973 -12.021  14.255  1.00  0.00     0.031 A 
ATOM     51  C   UNL     1       3.093  -5.953  17.632  1.00  0.00     0.031 A 
ATOM     52  C   UNL     1       3.877 -12.130  15.685  1.00  0.00     0.049 A 
ATOM     53  C   UNL     1       3.183  -7.262  18.367  1.00  0.00     0.074 A 
ATOM     54  C   UNL     1       3.951 -13.268  16.469  1.00  0.00     0.029 A 
ATOM     55  N   UNL     1       3.705 -11.059  16.548  1.00  0.00    -0.354 N 
ATOM     56  N   UNL     1       3.354  -8.468  17.881  1.00  0.00    -0.248 NA
ATOM     57  C   UNL     1       3.073  -7.211  19.832  1.00  0.00     0.031 C 
ATOM     58  C   UNL     1       3.800 -12.887  17.807  1.00  0.00     0.029 A 
ATOM     59  C   UNL     1       3.675 -11.508  17.857  1.00  0.00     0.049 A 
ATOM     60  H   UNL     1       3.617 -10.118  16.271  1.00  0.00     0.167 HD
ATOM     61  C   UNL     1       3.397  -9.316  18.982  1.00  0.00     0.074 A 
ATOM     62  C   UNL     1       3.251  -8.484  20.159  1.00  0.00     0.031 C 
ATOM     63  C   UNL     1       3.541 -10.663  19.016  1.00  0.00     0.031 A 
BRANCH  50  64
ATOM     64  C   UNL     1       4.151 -13.280  13.447  1.00  0.00    -0.014 A 
ATOM     65  C   UNL     1       5.375 -13.560  12.813  1.00  0.00     0.010 A 
ATOM     66  C   UNL     1       3.099 -14.208  13.343  1.00  0.00     0.010 A 
ATOM     67  C   UNL     1       5.529 -14.719  12.049  1.00  0.00     0.020 A 
ATOM     68  C   UNL     1       3.259 -15.384  12.603  1.00  0.00     0.020 A 
ATOM     69  C   UNL     1       4.467 -15.622  11.944  1.00  0.00     0.054 A 
BRANCH  69  70
ATOM     70  S   UNL     1       4.701 -17.126  10.959  1.00  0.00     0.124 S 
ATOM     71  O   UNL     1       4.628 -16.606   9.596  1.00  0.00    -0.237 OA
ATOM     72  O   UNL     1       6.019 -17.589  11.385  1.00  0.00    -0.237 OA
ATOM     73  O   UNL     1       3.585 -17.980  11.360  1.00  0.00    -0.744 OA
ENDBRANCH  69  70
ENDBRANCH  50  64
BRANCH  51  74
ATOM     74  C   UNL     1       2.850  -4.682  18.369  1.00  0.00    -0.014 A 
ATOM     75  C   UNL     1       3.854  -4.125  19.181  1.00  0.00     0.010 A 
ATOM     76  C   UNL     1       1.614  -4.020  18.262  1.00  0.00     0.010 A 
ATOM     77  C   UNL     1       3.618  -2.946  19.894  1.00  0.00     0.020 A 
ATOM     78  C   UNL     1       1.383  -2.826  18.952  1.00  0.00     0.020 A 
ATOM     79  C   UNL     1       2.382  -2.305  19.777  1.00  0.00     0.054 A 
BRANCH  79  80
ATOM     80  S   UNL     1       2.107  -0.756  20.682  1.00  0.00     0.124 S 
ATOM     81  O   UNL     1       1.889  -1.235  22.043  1.00  0.00    -0.237 OA
ATOM     82  O   UNL     1       3.357  -0.032  20.459  1.00  0.00    -0.237 OA
ATOM     83  O   UNL     1       0.937  -0.180  20.024  1.00  0.00    -0.744 OA
ENDBRANCH  79  80
ENDBRANCH  51  74
BRANCH  63  84
ATOM     84  C   UNL     1       3.591 -11.321  20.367  1.00  0.00    -0.014 A 
ATOM     85  C   UNL     1       2.430 -11.477  21.144  1.00  0.00     0.010 A 
ATOM     86  C   UNL     1       4.810 -11.843  20.838  1.00  0.00     0.010 A 
ATOM     87  C   UNL     1       2.493 -12.121  22.383  1.00  0.00     0.020 A 
ATOM     88  C   UNL     1       4.871 -12.508  22.064  1.00  0.00     0.020 A 
ATOM     89  C   UNL     1       3.713 -12.632  22.835  1.00  0.00     0.054 A 
BRANCH  89  90
ATOM     90  S   UNL     1       3.760 -13.508  24.423  1.00  0.00     0.124 S 
ATOM     91  O   UNL     1       3.690 -12.406  25.379  1.00  0.00    -0.237 OA
ATOM     92  O   UNL     1       2.574 -14.359  24.356  1.00  0.00    -0.237 OA
ATOM     93  O   UNL     1       5.034 -14.222  24.386  1.00  0.00    -0.744 OA
ENDBRANCH  89  90
ENDBRANCH  63  84
ENDBRANCH  37  38
ENDBRANCH  29  32
ENDBRANCH  27  28
ENDBRANCH  26  27
ENDBRANCH   1  26
TORSDOF 17
