REMARK SMILES C[C@H](Oc1ccnc2c(F)cc(F)cc12)C(=O)NCCCNC(=O)c1ccc(-c2c3nc(c(-c4ccc(S(=O)(=O)[O-])cc4)c4ccc([nH]4)c(-c4ccc(S(=O)(=O)[O-])cc4)c4nc(c(-c5ccc(S(=O)(=O)[O-])cc5)c5ccc2[nH]5)C=C4)C=C3)cc1
REMARK SMILES IDX 20 1 19 2 18 3 16 4 17 5 2 7 1 8 3 9 4 10 5 11 15 12 6 13
REMARK SMILES IDX 8 14 14 15 7 16 9 17 12 18 10 19 11 20 13 21 21 22 22 23
REMARK SMILES IDX 23 24 24 26 25 27 26 28 84 29 27 30 83 31 28 32 29 33 30 34
REMARK SMILES IDX 77 35 31 36 82 37 76 38 78 39 32 40 81 41 75 42 74 43 33 45
REMARK SMILES IDX 63 46 44 47 62 48 45 49 48 50 61 51 79 52 46 53 47 54 60 56
REMARK SMILES IDX 80 57 49 58 34 59 35 60 43 61 36 62 42 63 37 64 38 65 39 66
REMARK SMILES IDX 40 67 41 68 64 69 65 70 73 71 66 72 72 73 67 74 68 75 69 76
REMARK SMILES IDX 70 77 71 78 50 79 51 80 59 81 52 82 58 83 53 84 54 85 55 86
REMARK SMILES IDX 56 87 57 88
REMARK H PARENT 18 6 22 25 78 44 48 55
REMARK Flexibility Score: inf
ROOT
ATOM      1  C   UNL     1      -2.449  -2.448  -0.495  1.00  0.00     0.042 C 
ENDROOT
BRANCH   1   2
ATOM      2  C   UNL     1      -2.073  -1.692  -1.768  1.00  0.00     0.118 C 
BRANCH   2   3
ATOM      3  N   UNL     1      -1.961  -0.270  -1.510  1.00  0.00    -0.353 N 
ATOM      4  C   UNL     1      -0.923   0.514  -1.115  1.00  0.00     0.260 C 
ATOM      5  O   UNL     1      -1.236   1.666  -0.782  1.00  0.00    -0.271 OA
ATOM      6  H   UNL     1      -2.800   0.224  -1.649  1.00  0.00     0.163 HD
BRANCH   4   7
ATOM      7  C   UNL     1       0.583   0.093  -1.107  1.00  0.00     0.258 C 
ATOM      8  C   UNL     1       1.127  -0.546  -2.388  1.00  0.00     0.064 C 
BRANCH   7   9
ATOM      9  O   UNL     1       1.253  -0.313   0.083  1.00  0.00    -0.480 OA
BRANCH   9  10
ATOM     10  C   UNL     1       1.046  -1.505   0.713  1.00  0.00     0.131 A 
ATOM     11  C   UNL     1       0.646  -2.664   0.074  1.00  0.00     0.067 A 
ATOM     12  C   UNL     1       1.356  -1.561   2.095  1.00  0.00     0.048 A 
ATOM     13  C   UNL     1       0.419  -3.795   0.836  1.00  0.00     0.115 A 
ATOM     14  C   UNL     1       1.089  -2.764   2.790  1.00  0.00     0.110 A 
ATOM     15  C   UNL     1       1.946  -0.486   2.796  1.00  0.00     0.053 A 
ATOM     16  N   UNL     1       0.589  -3.846   2.165  1.00  0.00    -0.253 NA
ATOM     17  C   UNL     1       1.384  -2.820   4.155  1.00  0.00     0.152 A 
ATOM     18  C   UNL     1       2.269  -0.608   4.144  1.00  0.00     0.127 A 
ATOM     19  F   UNL     1       1.104  -3.937   4.848  1.00  0.00    -0.204 F 
ATOM     20  C   UNL     1       1.982  -1.767   4.838  1.00  0.00     0.080 A 
ATOM     21  F   UNL     1       2.876   0.410   4.769  1.00  0.00    -0.207 F 
ENDBRANCH   9  10
ENDBRANCH   7   9
ENDBRANCH   4   7
ENDBRANCH   2   3
ENDBRANCH   1   2
BRANCH   1  22
ATOM     22  C   UNL     1      -3.951  -2.570  -0.266  1.00  0.00     0.118 C 
BRANCH  22  23
ATOM     23  N   UNL     1      -4.447  -3.835  -0.785  1.00  0.00    -0.352 N 
ATOM     24  C   UNL     1      -4.485  -5.077  -0.193  1.00  0.00     0.251 C 
ATOM     25  H   UNL     1      -4.811  -3.797  -1.699  1.00  0.00     0.163 HD
ATOM     26  O   UNL     1      -4.583  -6.064  -0.921  1.00  0.00    -0.269 OA
BRANCH  24  27
ATOM     27  C   UNL     1      -4.412  -5.260   1.282  1.00  0.00     0.039 A 
ATOM     28  C   UNL     1      -3.804  -6.417   1.787  1.00  0.00     0.014 A 
ATOM     29  C   UNL     1      -5.051  -4.388   2.168  1.00  0.00     0.014 A 
ATOM     30  C   UNL     1      -3.827  -6.690   3.161  1.00  0.00     0.010 A 
ATOM     31  C   UNL     1      -5.017  -4.627   3.546  1.00  0.00     0.010 A 
ATOM     32  C   UNL     1      -4.436  -5.797   4.055  1.00  0.00    -0.014 A 
BRANCH  32  33
ATOM     33  C   UNL     1      -4.554  -6.114   5.504  1.00  0.00     0.031 A 
ATOM     34  C   UNL     1      -5.909  -6.402   6.103  1.00  0.00     0.074 A 
ATOM     35  C   UNL     1      -3.462  -6.126   6.293  1.00  0.00     0.049 A 
ATOM     36  N   UNL     1      -6.224  -6.658   7.348  1.00  0.00    -0.248 NA
ATOM     37  C   UNL     1      -7.062  -6.388   5.186  1.00  0.00     0.031 C 
ATOM     38  C   UNL     1      -2.094  -5.856   5.850  1.00  0.00     0.029 A 
ATOM     39  N   UNL     1      -3.335  -6.379   7.638  1.00  0.00    -0.354 N 
ATOM     40  C   UNL     1      -7.605  -6.821   7.365  1.00  0.00     0.074 A 
ATOM     41  C   UNL     1      -8.075  -6.598   6.016  1.00  0.00     0.031 C 
ATOM     42  C   UNL     1      -1.262  -5.982   6.898  1.00  0.00     0.029 A 
ATOM     43  C   UNL     1      -2.039  -6.311   8.092  1.00  0.00     0.049 A 
ATOM     44  H   UNL     1      -4.099  -6.589   8.221  1.00  0.00     0.167 HD
ATOM     45  C   UNL     1      -8.410  -7.147   8.403  1.00  0.00     0.031 A 
ATOM     46  C   UNL     1      -1.529  -6.491   9.328  1.00  0.00     0.031 A 
ATOM     47  C   UNL     1      -7.949  -7.397   9.741  1.00  0.00     0.049 A 
ATOM     48  C   UNL     1      -2.444  -6.831  10.473  1.00  0.00     0.074 A 
ATOM     49  C   UNL     1      -8.692  -7.779  10.845  1.00  0.00     0.029 A 
ATOM     50  N   UNL     1      -6.632  -7.300  10.157  1.00  0.00    -0.354 N 
ATOM     51  N   UNL     1      -3.743  -7.005  10.461  1.00  0.00    -0.248 NA
ATOM     52  C   UNL     1      -1.826  -7.000  11.797  1.00  0.00     0.031 C 
ATOM     53  C   UNL     1      -7.828  -7.877  11.939  1.00  0.00     0.029 A 
ATOM     54  C   UNL     1      -6.542  -7.597  11.505  1.00  0.00     0.049 A 
ATOM     55  H   UNL     1      -5.873  -7.055   9.579  1.00  0.00     0.167 HD
ATOM     56  C   UNL     1      -4.095  -7.322  11.769  1.00  0.00     0.074 A 
ATOM     57  C   UNL     1      -2.875  -7.317  12.547  1.00  0.00     0.031 C 
ATOM     58  C   UNL     1      -5.323  -7.594  12.272  1.00  0.00     0.031 A 
BRANCH  45  59
ATOM     59  C   UNL     1      -9.886  -7.266   8.137  1.00  0.00    -0.014 A 
ATOM     60  C   UNL     1     -10.406  -8.390   7.471  1.00  0.00     0.010 A 
ATOM     61  C   UNL     1     -10.768  -6.286   8.626  1.00  0.00     0.010 A 
ATOM     62  C   UNL     1     -11.783  -8.521   7.280  1.00  0.00     0.020 A 
ATOM     63  C   UNL     1     -12.148  -6.424   8.455  1.00  0.00     0.020 A 
ATOM     64  C   UNL     1     -12.646  -7.539   7.777  1.00  0.00     0.054 A 
BRANCH  64  65
ATOM     65  S   UNL     1     -14.431  -7.756   7.535  1.00  0.00     0.124 S 
ATOM     66  O   UNL     1     -14.544  -7.745   6.078  1.00  0.00    -0.237 OA
ATOM     67  O   UNL     1     -14.681  -9.045   8.174  1.00  0.00    -0.237 OA
ATOM     68  O   UNL     1     -15.018  -6.601   8.209  1.00  0.00    -0.744 OA
ENDBRANCH  64  65
ENDBRANCH  45  59
BRANCH  46  69
ATOM     69  C   UNL     1      -0.062  -6.370   9.534  1.00  0.00    -0.014 A 
ATOM     70  C   UNL     1       0.729  -7.522   9.683  1.00  0.00     0.010 A 
ATOM     71  C   UNL     1       0.558  -5.107   9.527  1.00  0.00     0.010 A 
ATOM     72  C   UNL     1       2.117  -7.415   9.812  1.00  0.00     0.020 A 
ATOM     73  C   UNL     1       1.947  -4.997   9.639  1.00  0.00     0.020 A 
ATOM     74  C   UNL     1       2.718  -6.153   9.778  1.00  0.00     0.054 A 
BRANCH  74  75
ATOM     75  S   UNL     1       4.527  -6.051   9.879  1.00  0.00     0.124 S 
ATOM     76  O   UNL     1       4.795  -6.608  11.201  1.00  0.00    -0.237 OA
ATOM     77  O   UNL     1       4.948  -6.875   8.748  1.00  0.00    -0.237 OA
ATOM     78  O   UNL     1       4.800  -4.622   9.737  1.00  0.00    -0.744 OA
ENDBRANCH  74  75
ENDBRANCH  46  69
BRANCH  58  79
ATOM     79  C   UNL     1      -5.438  -7.931  13.732  1.00  0.00    -0.014 A 
ATOM     80  C   UNL     1      -5.456  -6.916  14.703  1.00  0.00     0.010 A 
ATOM     81  C   UNL     1      -5.683  -9.262  14.120  1.00  0.00     0.010 A 
ATOM     82  C   UNL     1      -5.730  -7.225  16.038  1.00  0.00     0.020 A 
ATOM     83  C   UNL     1      -5.973  -9.572  15.451  1.00  0.00     0.020 A 
ATOM     84  C   UNL     1      -6.002  -8.549  16.401  1.00  0.00     0.054 A 
BRANCH  84  85
ATOM     85  S   UNL     1      -6.448  -8.900  18.125  1.00  0.00     0.124 S 
ATOM     86  O   UNL     1      -5.241  -8.501  18.844  1.00  0.00    -0.237 OA
ATOM     87  O   UNL     1      -7.613  -8.043  18.329  1.00  0.00    -0.237 OA
ATOM     88  O   UNL     1      -6.726 -10.335  18.128  1.00  0.00    -0.744 OA
ENDBRANCH  84  85
ENDBRANCH  58  79
ENDBRANCH  32  33
ENDBRANCH  24  27
ENDBRANCH  22  23
ENDBRANCH   1  22
TORSDOF 15
