REMARK SMILES O=C(NCCCNC(=O)[C@H](CO)NC(=O)[C@H](CS)NC(=O)[C@H](Cc1ccccc1)NC(=O)c1ccc(F)cc1)c1ccc(-c2c3nc(c(-c4ccc(S(=O)(=O)[O-])cc4)c4ccc([nH]4)c(-c4ccc(S(=O)(=O)[O-])cc4)c4nc(c(-c5ccc(S(=O)(=O)[O-])cc5)c5ccc2[nH]5)C=C4)C=C3)cc1
REMARK SMILES IDX 7 1 8 2 9 3 6 5 5 6 4 7 3 8 1 9 2 10 40 12 41 13 99 14 42 15
REMARK SMILES IDX 98 16 43 17 44 18 45 19 92 20 46 21 97 22 91 23 93 24 47 25
REMARK SMILES IDX 96 26 90 27 89 28 48 30 78 31 59 32 77 33 60 34 63 35 76 36
REMARK SMILES IDX 94 37 61 38 62 39 75 41 95 42 64 43 49 44 50 45 58 46 51 47
REMARK SMILES IDX 57 48 52 49 53 50 54 51 55 52 56 53 79 54 80 55 88 56 81 57
REMARK SMILES IDX 87 58 82 59 83 60 84 61 85 62 86 63 65 64 66 65 74 66 67 67
REMARK SMILES IDX 73 68 68 69 69 70 70 71 71 72 72 73 10 74 13 75 14 76 15 78
REMARK SMILES IDX 16 79 19 80 20 81 21 83 22 84 30 85 31 86 32 88 33 89 34 90
REMARK SMILES IDX 39 91 35 92 38 93 36 94 37 95 23 96 24 97 25 98 29 99 26 100
REMARK SMILES IDX 28 101 27 102 17 103 18 104 11 106 12 107
REMARK H PARENT 7 4 3 11 93 29 63 40 13 77 19 82 30 87 18 105 12 108
REMARK Flexibility Score: inf
ROOT
ATOM      1  N   UNL     1       1.513  -9.860  -3.702  1.00  0.00    -0.354 N 
ATOM      2  C   UNL     1       2.446 -10.139  -2.752  1.00  0.00     0.244 C 
ATOM      3  O   UNL     1       2.146  -9.943  -1.572  1.00  0.00    -0.273 OA
ATOM      4  H   UNL     1       0.701  -9.419  -3.364  1.00  0.00     0.163 HD
ENDROOT
BRANCH   1   5
ATOM      5  C   UNL     1       1.519 -10.104  -5.135  1.00  0.00     0.117 C 
BRANCH   5   6
ATOM      6  C   UNL     1       0.539 -11.197  -5.526  1.00  0.00     0.042 C 
BRANCH   6   7
ATOM      7  C   UNL     1      -0.897 -10.883  -5.134  1.00  0.00     0.118 C 
BRANCH   7   8
ATOM      8  N   UNL     1      -1.391  -9.663  -5.762  1.00  0.00    -0.352 N 
ATOM      9  O   UNL     1      -2.405  -8.404  -7.328  1.00  0.00    -0.269 OA
ATOM     10  C   UNL     1      -2.294  -9.499  -6.784  1.00  0.00     0.251 C 
ATOM     11  H   UNL     1      -1.019  -8.827  -5.397  1.00  0.00     0.163 HD
BRANCH  10  12
ATOM     12  C   UNL     1      -3.108 -10.646  -7.234  1.00  0.00     0.039 A 
ATOM     13  C   UNL     1      -3.663 -11.521  -6.300  1.00  0.00     0.014 A 
ATOM     14  C   UNL     1      -3.316 -10.855  -8.600  1.00  0.00     0.014 A 
ATOM     15  C   UNL     1      -4.247 -12.703  -6.728  1.00  0.00     0.010 A 
ATOM     16  C   UNL     1      -4.013 -11.989  -9.027  1.00  0.00     0.010 A 
ATOM     17  C   UNL     1      -4.443 -12.947  -8.096  1.00  0.00    -0.014 A 
BRANCH  17  18
ATOM     18  C   UNL     1      -5.134 -14.196  -8.508  1.00  0.00     0.031 A 
ATOM     19  C   UNL     1      -4.436 -15.232  -9.347  1.00  0.00     0.074 A 
ATOM     20  C   UNL     1      -6.388 -14.414  -8.064  1.00  0.00     0.049 A 
ATOM     21  N   UNL     1      -4.876 -16.400  -9.742  1.00  0.00    -0.248 NA
ATOM     22  C   UNL     1      -3.075 -14.920  -9.812  1.00  0.00     0.031 C 
ATOM     23  C   UNL     1      -7.167 -13.480  -7.243  1.00  0.00     0.029 A 
ATOM     24  N   UNL     1      -7.215 -15.498  -8.203  1.00  0.00    -0.354 N 
ATOM     25  C   UNL     1      -3.867 -16.945 -10.528  1.00  0.00     0.074 A 
ATOM     26  C   UNL     1      -2.796 -15.973 -10.568  1.00  0.00     0.031 C 
ATOM     27  C   UNL     1      -8.321 -14.062  -6.888  1.00  0.00     0.029 A 
ATOM     28  C   UNL     1      -8.399 -15.376  -7.515  1.00  0.00     0.049 A 
ATOM     29  H   UNL     1      -6.983 -16.288  -8.742  1.00  0.00     0.167 HD
ATOM     30  C   UNL     1      -3.837 -18.144 -11.158  1.00  0.00     0.031 A 
ATOM     31  C   UNL     1      -9.439 -16.221  -7.402  1.00  0.00     0.031 A 
ATOM     32  C   UNL     1      -4.900 -19.113 -11.099  1.00  0.00     0.049 A 
ATOM     33  C   UNL     1      -9.379 -17.543  -8.109  1.00  0.00     0.074 A 
ATOM     34  C   UNL     1      -4.952 -20.371 -11.675  1.00  0.00     0.029 A 
ATOM     35  N   UNL     1      -6.098 -18.935 -10.423  1.00  0.00    -0.354 N 
ATOM     36  N   UNL     1      -8.407 -18.044  -8.833  1.00  0.00    -0.248 NA
ATOM     37  C   UNL     1     -10.554 -18.413  -7.982  1.00  0.00     0.031 C 
ATOM     38  C   UNL     1      -6.200 -20.934 -11.386  1.00  0.00     0.029 A 
ATOM     39  C   UNL     1      -6.903 -20.051 -10.583  1.00  0.00     0.049 A 
ATOM     40  H   UNL     1      -6.341 -18.134  -9.906  1.00  0.00     0.167 HD
ATOM     41  C   UNL     1      -8.845 -19.300  -9.231  1.00  0.00     0.074 A 
ATOM     42  C   UNL     1     -10.161 -19.486  -8.654  1.00  0.00     0.031 C 
ATOM     43  C   UNL     1      -8.212 -20.218 -10.004  1.00  0.00     0.031 A 
BRANCH  30  44
ATOM     44  C   UNL     1      -2.628 -18.459 -12.002  1.00  0.00    -0.014 A 
ATOM     45  C   UNL     1      -1.380 -18.749 -11.423  1.00  0.00     0.010 A 
ATOM     46  C   UNL     1      -2.755 -18.495 -13.403  1.00  0.00     0.010 A 
ATOM     47  C   UNL     1      -0.272 -19.024 -12.231  1.00  0.00     0.020 A 
ATOM     48  C   UNL     1      -1.656 -18.794 -14.213  1.00  0.00     0.020 A 
ATOM     49  C   UNL     1      -0.416 -19.037 -13.622  1.00  0.00     0.054 A 
BRANCH  49  50
ATOM     50  S   UNL     1       1.036 -19.400 -14.648  1.00  0.00     0.124 S 
ATOM     51  O   UNL     1       1.788 -18.151 -14.555  1.00  0.00    -0.237 OA
ATOM     52  O   UNL     1       1.634 -20.546 -13.967  1.00  0.00    -0.237 OA
ATOM     53  O   UNL     1       0.468 -19.688 -15.963  1.00  0.00    -0.744 OA
ENDBRANCH  49  50
ENDBRANCH  30  44
BRANCH  31  54
ATOM     54  C   UNL     1     -10.617 -15.835  -6.581  1.00  0.00    -0.014 A 
ATOM     55  C   UNL     1     -10.877 -16.479  -5.359  1.00  0.00     0.010 A 
ATOM     56  C   UNL     1     -11.465 -14.794  -7.001  1.00  0.00     0.010 A 
ATOM     57  C   UNL     1     -11.970 -16.095  -4.577  1.00  0.00     0.020 A 
ATOM     58  C   UNL     1     -12.540 -14.388  -6.208  1.00  0.00     0.020 A 
ATOM     59  C   UNL     1     -12.793 -15.049  -5.005  1.00  0.00     0.054 A 
BRANCH  59  60
ATOM     60  S   UNL     1     -14.169 -14.525  -3.946  1.00  0.00     0.124 S 
ATOM     61  O   UNL     1     -15.143 -15.589  -4.167  1.00  0.00    -0.237 OA
ATOM     62  O   UNL     1     -13.555 -14.492  -2.621  1.00  0.00    -0.237 OA
ATOM     63  O   UNL     1     -14.535 -13.217  -4.486  1.00  0.00    -0.744 OA
ENDBRANCH  59  60
ENDBRANCH  31  54
BRANCH  43  64
ATOM     64  C   UNL     1      -8.924 -21.523 -10.231  1.00  0.00    -0.014 A 
ATOM     65  C   UNL     1     -10.044 -21.608 -11.076  1.00  0.00     0.010 A 
ATOM     66  C   UNL     1      -8.444 -22.688  -9.604  1.00  0.00     0.010 A 
ATOM     67  C   UNL     1     -10.699 -22.829 -11.255  1.00  0.00     0.020 A 
ATOM     68  C   UNL     1      -9.080 -23.915  -9.803  1.00  0.00     0.020 A 
ATOM     69  C   UNL     1     -10.216 -23.974 -10.613  1.00  0.00     0.054 A 
BRANCH  69  70
ATOM     70  S   UNL     1     -11.068 -25.553 -10.877  1.00  0.00     0.124 S 
ATOM     71  O   UNL     1     -12.251 -25.403 -10.034  1.00  0.00    -0.237 OA
ATOM     72  O   UNL     1     -11.317 -25.548 -12.317  1.00  0.00    -0.237 OA
ATOM     73  O   UNL     1     -10.099 -26.548 -10.423  1.00  0.00    -0.744 OA
ENDBRANCH  69  70
ENDBRANCH  43  64
ENDBRANCH  17  18
ENDBRANCH  10  12
ENDBRANCH   7   8
ENDBRANCH   6   7
ENDBRANCH   5   6
ENDBRANCH   1   5
BRANCH   2  74
ATOM     74  C   UNL     1       3.804 -10.735  -3.127  1.00  0.00     0.197 C 
BRANCH  74  75
ATOM     75  N   UNL     1       3.601 -12.129  -3.509  1.00  0.00    -0.340 N 
ATOM     76  C   UNL     1       3.756 -13.280  -2.801  1.00  0.00     0.244 C 
ATOM     77  H   UNL     1       3.300 -12.258  -4.437  1.00  0.00     0.164 HD
ATOM     78  O   UNL     1       3.175 -14.264  -3.274  1.00  0.00    -0.273 OA
BRANCH  76  79
ATOM     79  C   UNL     1       4.791 -13.441  -1.654  1.00  0.00     0.181 C 
BRANCH  79  80
ATOM     80  N   UNL     1       4.912 -12.322  -0.705  1.00  0.00    -0.342 N 
ATOM     81  C   UNL     1       5.910 -11.425  -0.444  1.00  0.00     0.243 C 
ATOM     82  H   UNL     1       4.113 -12.194  -0.145  1.00  0.00     0.164 HD
ATOM     83  O   UNL     1       5.723 -10.693   0.536  1.00  0.00    -0.273 OA
BRANCH  81  84
ATOM     84  C   UNL     1       7.268 -11.385  -1.202  1.00  0.00     0.176 C 
BRANCH  84  85
ATOM     85  N   UNL     1       7.167 -11.769  -2.610  1.00  0.00    -0.340 N 
ATOM     86  C   UNL     1       7.802 -12.740  -3.340  1.00  0.00     0.251 C 
ATOM     87  H   UNL     1       6.524 -11.232  -3.128  1.00  0.00     0.164 HD
ATOM     88  O   UNL     1       7.671 -12.728  -4.563  1.00  0.00    -0.269 OA
BRANCH  86  89
ATOM     89  C   UNL     1       8.631 -13.812  -2.717  1.00  0.00     0.040 A 
ATOM     90  C   UNL     1       9.700 -14.318  -3.474  1.00  0.00     0.017 A 
ATOM     91  C   UNL     1       8.347 -14.402  -1.478  1.00  0.00     0.017 A 
ATOM     92  C   UNL     1      10.481 -15.369  -2.987  1.00  0.00     0.040 A 
ATOM     93  C   UNL     1       9.131 -15.449  -0.988  1.00  0.00     0.040 A 
ATOM     94  C   UNL     1      10.192 -15.922  -1.746  1.00  0.00     0.123 A 
ATOM     95  F   UNL     1      10.936 -16.932  -1.279  1.00  0.00    -0.207 F 
ENDBRANCH  86  89
ENDBRANCH  84  85
BRANCH  84  96
ATOM     96  C   UNL     1       7.874  -9.958  -1.066  1.00  0.00     0.070 C 
BRANCH  96  97
ATOM     97  C   UNL     1       9.052  -9.677  -1.978  1.00  0.00    -0.045 A 
ATOM     98  C   UNL     1      10.162 -10.531  -2.012  1.00  0.00     0.004 A 
ATOM     99  C   UNL     1       9.021  -8.575  -2.846  1.00  0.00     0.004 A 
ATOM    100  C   UNL     1      11.182 -10.329  -2.944  1.00  0.00     0.000 A 
ATOM    101  C   UNL     1      10.049  -8.365  -3.766  1.00  0.00     0.000 A 
ATOM    102  C   UNL     1      11.121  -9.251  -3.825  1.00  0.00     0.000 A 
ENDBRANCH  96  97
ENDBRANCH  84  96
ENDBRANCH  81  84
ENDBRANCH  79  80
BRANCH  79 103
ATOM    103  C   UNL     1       4.516 -14.740  -0.861  1.00  0.00     0.101 C 
BRANCH 103 104
ATOM    104  S   UNL     1       5.077 -16.260  -1.705  1.00  0.00    -0.177 SA
ATOM    105  H   UNL     1       4.402 -16.404  -2.876  1.00  0.00     0.102 HD
ENDBRANCH 103 104
ENDBRANCH  79 103
ENDBRANCH  76  79
ENDBRANCH  74  75
BRANCH  74 106
ATOM    106  C   UNL     1       4.565  -9.897  -4.161  1.00  0.00     0.191 C 
BRANCH 106 107
ATOM    107  O   UNL     1       5.785  -9.413  -3.592  1.00  0.00    -0.394 OA
ATOM    108  H   UNL     1       5.585  -8.860  -2.820  1.00  0.00     0.210 HD
ENDBRANCH 106 107
ENDBRANCH  74 106
ENDBRANCH   2  74
TORSDOF 25
