REMARK SMILES C[C@@H](C(=O)NCCCNC(=O)c1ccc(-c2c3nc(c(-c4ccc(S(=O)(=O)[O-])cc4)c4ccc([nH]4)c(-c4ccc(S(=O)(=O)[O-])cc4)c4nc(c(-c5ccc(S(=O)(=O)[O-])cc5)c5ccc2[nH]5)C=C4)C=C3)cc1)c1ccc(-c2cccc(OC(=O)NCCC3CCCCC3)c2)c(F)c1
REMARK SMILES IDX 3 1 4 2 5 3 2 5 1 6 72 7 73 8 96 9 74 10 94 11 75 12 95 13
REMARK SMILES IDX 76 14 77 15 93 16 78 17 80 18 79 19 81 20 82 21 83 22 84 23
REMARK SMILES IDX 85 25 86 26 87 27 88 28 92 29 89 30 91 31 90 32 6 33 7 34
REMARK SMILES IDX 8 35 9 36 10 37 11 39 12 40 13 41 71 42 14 43 70 44 15 45
REMARK SMILES IDX 16 46 17 47 64 48 18 49 69 50 63 51 65 52 19 53 68 54 62 55
REMARK SMILES IDX 61 56 20 58 50 59 31 60 49 61 32 62 35 63 48 64 66 65 33 66
REMARK SMILES IDX 34 67 47 69 67 70 36 71 21 72 22 73 30 74 23 75 29 76 24 77
REMARK SMILES IDX 25 78 26 79 27 80 28 81 51 82 52 83 60 84 53 85 59 86 54 87
REMARK SMILES IDX 55 88 56 89 57 90 58 91 37 92 38 93 46 94 39 95 45 96 40 97
REMARK SMILES IDX 41 98 42 99 43 100 44 101
REMARK H PARENT 5 4 84 24 9 38 65 57 35 68
REMARK Flexibility Score: inf
ROOT
ATOM      1  C   UNL     1       1.122   2.313  -0.163  1.00  0.00     0.227 C 
ATOM      2  O   UNL     1       0.519   3.088  -0.909  1.00  0.00    -0.274 OA
ATOM      3  N   UNL     1       2.420   2.631   0.116  1.00  0.00    -0.356 N 
ATOM      4  H   UNL     1       2.677   3.556  -0.102  1.00  0.00     0.163 HD
ENDROOT
BRANCH   1   5
ATOM      5  C   UNL     1       0.486   1.059   0.465  1.00  0.00     0.105 C 
ATOM      6  C   UNL     1       0.956  -0.174  -0.320  1.00  0.00     0.023 C 
BRANCH   5   7
ATOM      7  C   UNL     1      -1.044   1.111   0.581  1.00  0.00    -0.033 A 
ATOM      8  C   UNL     1      -1.742   2.322   0.735  1.00  0.00     0.005 A 
ATOM      9  C   UNL     1      -1.803  -0.069   0.587  1.00  0.00     0.044 A 
ATOM     10  C   UNL     1      -3.142   2.358   0.790  1.00  0.00     0.012 A 
ATOM     11  C   UNL     1      -3.192  -0.029   0.651  1.00  0.00     0.131 A 
ATOM     12  C   UNL     1      -3.891   1.178   0.740  1.00  0.00     0.018 A 
ATOM     13  F   UNL     1      -3.853  -1.198   0.637  1.00  0.00    -0.206 F 
BRANCH  12  14
ATOM     14  C   UNL     1      -5.349   1.193   0.877  1.00  0.00    -0.012 A 
ATOM     15  C   UNL     1      -6.184   1.878  -0.017  1.00  0.00     0.009 A 
ATOM     16  C   UNL     1      -5.935   0.502   1.948  1.00  0.00     0.056 A 
ATOM     17  C   UNL     1      -7.571   1.866   0.160  1.00  0.00     0.004 A 
ATOM     18  C   UNL     1      -7.310   0.515   2.144  1.00  0.00     0.133 A 
ATOM     19  C   UNL     1      -8.135   1.187   1.242  1.00  0.00     0.047 A 
BRANCH  18  20
ATOM     20  O   UNL     1      -7.954  -0.124   3.230  1.00  0.00    -0.410 OA
BRANCH  20  21
ATOM     21  C   UNL     1      -7.293  -0.604   4.360  1.00  0.00     0.412 C 
ATOM     22  O   UNL     1      -6.084  -0.615   4.564  1.00  0.00    -0.224 OA
ATOM     23  N   UNL     1      -8.127  -1.075   5.328  1.00  0.00    -0.321 N 
ATOM     24  H   UNL     1      -7.693  -1.404   6.149  1.00  0.00     0.167 HD
BRANCH  23  25
ATOM     25  C   UNL     1      -9.568  -1.153   5.299  1.00  0.00     0.119 C 
BRANCH  25  26
ATOM     26  C   UNL     1     -10.045  -2.605   5.313  1.00  0.00     0.025 C 
BRANCH  26  27
ATOM     27  C   UNL     1      -9.604  -3.412   6.554  1.00  0.00    -0.009 C 
ATOM     28  C   UNL     1     -10.245  -2.880   7.846  1.00  0.00     0.003 C 
ATOM     29  C   UNL     1      -9.936  -4.900   6.353  1.00  0.00     0.003 C 
ATOM     30  C   UNL     1      -9.888  -3.734   9.061  1.00  0.00     0.000 C 
ATOM     31  C   UNL     1      -9.558  -5.736   7.572  1.00  0.00     0.000 C 
ATOM     32  C   UNL     1     -10.222  -5.205   8.837  1.00  0.00     0.000 C 
ENDBRANCH  26  27
ENDBRANCH  25  26
ENDBRANCH  23  25
ENDBRANCH  20  21
ENDBRANCH  18  20
ENDBRANCH  12  14
ENDBRANCH   5   7
ENDBRANCH   1   5
BRANCH   3  33
ATOM     33  C   UNL     1       3.480   1.818   0.684  1.00  0.00     0.117 C 
BRANCH  33  34
ATOM     34  C   UNL     1       4.392   1.257  -0.408  1.00  0.00     0.042 C 
BRANCH  34  35
ATOM     35  C   UNL     1       5.105   2.322  -1.235  1.00  0.00     0.118 C 
BRANCH  35  36
ATOM     36  N   UNL     1       6.063   3.084  -0.451  1.00  0.00    -0.352 N 
ATOM     37  C   UNL     1       7.427   3.176  -0.587  1.00  0.00     0.251 C 
ATOM     38  H   UNL     1       5.678   3.613   0.285  1.00  0.00     0.163 HD
ATOM     39  O   UNL     1       8.091   3.705   0.300  1.00  0.00    -0.269 OA
BRANCH  37  40
ATOM     40  C   UNL     1       8.095   2.614  -1.782  1.00  0.00     0.039 A 
ATOM     41  C   UNL     1       9.251   1.848  -1.611  1.00  0.00     0.014 A 
ATOM     42  C   UNL     1       7.585   2.836  -3.064  1.00  0.00     0.014 A 
ATOM     43  C   UNL     1       9.846   1.236  -2.716  1.00  0.00     0.010 A 
ATOM     44  C   UNL     1       8.137   2.168  -4.154  1.00  0.00     0.010 A 
ATOM     45  C   UNL     1       9.266   1.350  -3.990  1.00  0.00    -0.014 A 
BRANCH  45  46
ATOM     46  C   UNL     1       9.788   0.583  -5.151  1.00  0.00     0.031 A 
ATOM     47  C   UNL     1      10.337   1.300  -6.355  1.00  0.00     0.074 A 
ATOM     48  C   UNL     1       9.681  -0.763  -5.155  1.00  0.00     0.049 A 
ATOM     49  N   UNL     1      10.743   0.800  -7.494  1.00  0.00    -0.248 NA
ATOM     50  C   UNL     1      10.424   2.768  -6.280  1.00  0.00     0.031 C 
ATOM     51  C   UNL     1       9.132  -1.572  -4.062  1.00  0.00     0.029 A 
ATOM     52  N   UNL     1      10.007  -1.688  -6.116  1.00  0.00    -0.354 N 
ATOM     53  C   UNL     1      11.106   1.888  -8.279  1.00  0.00     0.074 A 
ATOM     54  C   UNL     1      10.850   3.078  -7.497  1.00  0.00     0.031 C 
ATOM     55  C   UNL     1       9.172  -2.868  -4.410  1.00  0.00     0.029 A 
ATOM     56  C   UNL     1       9.695  -2.983  -5.766  1.00  0.00     0.049 A 
ATOM     57  H   UNL     1      10.426  -1.449  -6.974  1.00  0.00     0.167 HD
ATOM     58  C   UNL     1      11.611   1.892  -9.535  1.00  0.00     0.031 A 
ATOM     59  C   UNL     1       9.788  -4.131  -6.467  1.00  0.00     0.031 A 
ATOM     60  C   UNL     1      11.880   0.703 -10.300  1.00  0.00     0.049 A 
ATOM     61  C   UNL     1      10.326  -4.089  -7.872  1.00  0.00     0.074 A 
ATOM     62  C   UNL     1      12.476   0.605 -11.546  1.00  0.00     0.029 A 
ATOM     63  N   UNL     1      11.558  -0.586  -9.908  1.00  0.00    -0.354 N 
ATOM     64  N   UNL     1      10.766  -3.058  -8.555  1.00  0.00    -0.248 NA
ATOM     65  C   UNL     1      10.382  -5.363  -8.604  1.00  0.00     0.031 C 
ATOM     66  C   UNL     1      12.445  -0.736 -11.939  1.00  0.00     0.029 A 
ATOM     67  C   UNL     1      11.895  -1.481 -10.909  1.00  0.00     0.049 A 
ATOM     68  H   UNL     1      11.151  -0.829  -9.045  1.00  0.00     0.167 HD
ATOM     69  C   UNL     1      11.169  -3.565  -9.785  1.00  0.00     0.074 A 
ATOM     70  C   UNL     1      10.945  -4.994  -9.746  1.00  0.00     0.031 C 
ATOM     71  C   UNL     1      11.674  -2.903 -10.855  1.00  0.00     0.031 A 
BRANCH  58  72
ATOM     72  C   UNL     1      11.895   3.220 -10.188  1.00  0.00    -0.014 A 
ATOM     73  C   UNL     1      12.976   4.020  -9.778  1.00  0.00     0.010 A 
ATOM     74  C   UNL     1      11.130   3.620 -11.300  1.00  0.00     0.010 A 
ATOM     75  C   UNL     1      13.277   5.203 -10.460  1.00  0.00     0.020 A 
ATOM     76  C   UNL     1      11.444   4.788 -12.000  1.00  0.00     0.020 A 
ATOM     77  C   UNL     1      12.512   5.576 -11.570  1.00  0.00     0.054 A 
BRANCH  77  78
ATOM     78  S   UNL     1      12.970   7.080 -12.474  1.00  0.00     0.124 S 
ATOM     79  O   UNL     1      12.600   8.127 -11.525  1.00  0.00    -0.237 OA
ATOM     80  O   UNL     1      14.405   6.902 -12.684  1.00  0.00    -0.237 OA
ATOM     81  O   UNL     1      12.154   7.022 -13.684  1.00  0.00    -0.744 OA
ENDBRANCH  77  78
ENDBRANCH  58  72
BRANCH  59  82
ATOM     82  C   UNL     1       9.328  -5.417  -5.871  1.00  0.00    -0.014 A 
ATOM     83  C   UNL     1      10.242  -6.449  -5.594  1.00  0.00     0.010 A 
ATOM     84  C   UNL     1       7.962  -5.629  -5.607  1.00  0.00     0.010 A 
ATOM     85  C   UNL     1       9.796  -7.680  -5.103  1.00  0.00     0.020 A 
ATOM     86  C   UNL     1       7.516  -6.845  -5.082  1.00  0.00     0.020 A 
ATOM     87  C   UNL     1       8.434  -7.870  -4.853  1.00  0.00     0.054 A 
BRANCH  87  88
ATOM     88  S   UNL     1       7.877  -9.471  -4.206  1.00  0.00     0.124 S 
ATOM     89  O   UNL     1       8.014 -10.334  -5.375  1.00  0.00    -0.237 OA
ATOM     90  O   UNL     1       8.823  -9.718  -3.121  1.00  0.00    -0.237 OA
ATOM     91  O   UNL     1       6.505  -9.208  -3.778  1.00  0.00    -0.744 OA
ENDBRANCH  87  88
ENDBRANCH  59  82
BRANCH  71  92
ATOM     92  C   UNL     1      12.044  -3.712 -12.069  1.00  0.00    -0.014 A 
ATOM     93  C   UNL     1      11.055  -4.264 -12.902  1.00  0.00     0.010 A 
ATOM     94  C   UNL     1      13.398  -3.847 -12.429  1.00  0.00     0.010 A 
ATOM     95  C   UNL     1      11.413  -4.946 -14.068  1.00  0.00     0.020 A 
ATOM     96  C   UNL     1      13.758  -4.502 -13.609  1.00  0.00     0.020 A 
ATOM     97  C   UNL     1      12.763  -5.054 -14.418  1.00  0.00     0.054 A 
BRANCH  97  98
ATOM     98  S   UNL     1      13.194  -5.875 -15.977  1.00  0.00     0.124 S 
ATOM     99  O   UNL     1      12.896  -7.273 -15.678  1.00  0.00    -0.237 OA
ATOM    100  O   UNL     1      12.298  -5.231 -16.934  1.00  0.00    -0.237 OA
ATOM    101  O   UNL     1      14.611  -5.565 -16.153  1.00  0.00    -0.744 OA
ENDBRANCH  97  98
ENDBRANCH  71  92
ENDBRANCH  45  46
ENDBRANCH  37  40
ENDBRANCH  35  36
ENDBRANCH  34  35
ENDBRANCH  33  34
ENDBRANCH   3  33
TORSDOF 20
