REMARK SMILES O=C(COc1ccc(/C=N/NC(=O)C(=O)Nc2ccc(F)cc2)cc1)NCCCNC(=O)c1ccc(-c2c3nc(c(-c4ccc(S(=O)(=O)[O-])cc4)c4ccc([nH]4)c(-c4ccc(S(=O)(=O)[O-])cc4)c4nc(c(-c5ccc(S(=O)(=O)[O-])cc5)c5ccc2[nH]5)C=C4)C=C3)cc1
REMARK SMILES IDX 1 1 2 2 26 3 3 5 4 6 5 7 6 8 25 9 7 10 24 11 8 12 9 13 10 14
REMARK SMILES IDX 11 15 12 16 13 18 14 19 15 20 16 21 17 23 18 24 23 25 19 26
REMARK SMILES IDX 22 27 20 28 21 29 27 30 28 31 29 32 30 33 31 34 32 36 33 37
REMARK SMILES IDX 34 38 92 39 35 40 91 41 36 42 37 43 38 44 85 45 39 46 90 47
REMARK SMILES IDX 84 48 86 49 40 50 89 51 83 52 82 53 41 55 71 56 52 57 70 58
REMARK SMILES IDX 53 59 56 60 69 61 87 62 54 63 55 64 68 66 88 67 57 68 42 69
REMARK SMILES IDX 43 70 51 71 44 72 50 73 45 74 46 75 47 76 48 77 49 78 72 79
REMARK SMILES IDX 73 80 81 81 74 82 80 83 75 84 76 85 77 86 78 87 79 88 58 89
REMARK SMILES IDX 59 90 67 91 60 92 66 93 61 94 62 95 63 96 64 97 65 98
REMARK H PARENT 26 4 11 17 16 22 30 35 86 54 56 65
REMARK Flexibility Score: inf
ROOT
ATOM      1  O   UNL     1       0.981   0.528  -0.796  1.00  0.00    -0.271 OA
ATOM      2  C   UNL     1       2.090   0.259  -0.344  1.00  0.00     0.257 C 
ATOM      3  N   UNL     1       2.776  -0.899  -0.649  1.00  0.00    -0.353 N 
ATOM      4  H   UNL     1       3.733  -0.962  -0.425  1.00  0.00     0.163 HD
ENDROOT
BRANCH   2   5
ATOM      5  C   UNL     1       2.801   1.171   0.665  1.00  0.00     0.329 C 
BRANCH   5   6
ATOM      6  O   UNL     1       3.724   0.581   1.575  1.00  0.00    -0.484 OA
BRANCH   6   7
ATOM      7  C   UNL     1       3.201  -0.152   2.608  1.00  0.00     0.120 A 
ATOM      8  C   UNL     1       3.867  -0.047   3.836  1.00  0.00     0.047 A 
ATOM      9  C   UNL     1       2.163  -1.074   2.473  1.00  0.00     0.047 A 
ATOM     10  C   UNL     1       3.516  -0.871   4.912  1.00  0.00     0.013 A 
ATOM     11  C   UNL     1       1.846  -1.936   3.518  1.00  0.00     0.013 A 
ATOM     12  C   UNL     1       2.530  -1.836   4.726  1.00  0.00    -0.005 A 
BRANCH  12  13
ATOM     13  C   UNL     1       2.234  -2.852   5.737  1.00  0.00     0.141 C 
ATOM     14  N   UNL     1       1.906  -2.556   6.952  1.00  0.00    -0.180 NA
BRANCH  14  15
ATOM     15  N   UNL     1       1.564  -3.608   7.750  1.00  0.00    -0.239 N 
ATOM     16  C   UNL     1       0.735  -4.700   7.521  1.00  0.00     0.329 C 
ATOM     17  H   UNL     1       1.976  -3.591   8.644  1.00  0.00     0.194 HD
ATOM     18  O   UNL     1       0.757  -5.621   8.336  1.00  0.00    -0.262 OA
BRANCH  16  19
ATOM     19  C   UNL     1      -0.201  -4.769   6.266  1.00  0.00     0.315 C 
ATOM     20  O   UNL     1      -0.113  -3.987   5.326  1.00  0.00    -0.263 OA
ATOM     21  N   UNL     1      -1.056  -5.846   6.121  1.00  0.00    -0.318 N 
ATOM     22  H   UNL     1      -1.242  -6.101   5.188  1.00  0.00     0.170 HD
BRANCH  21  23
ATOM     23  C   UNL     1      -1.701  -6.633   7.082  1.00  0.00     0.041 A 
ATOM     24  C   UNL     1      -2.105  -7.919   6.702  1.00  0.00     0.029 A 
ATOM     25  C   UNL     1      -2.028  -6.154   8.353  1.00  0.00     0.029 A 
ATOM     26  C   UNL     1      -2.765  -8.745   7.614  1.00  0.00     0.041 A 
ATOM     27  C   UNL     1      -2.704  -6.974   9.259  1.00  0.00     0.041 A 
ATOM     28  C   UNL     1      -3.055  -8.265   8.886  1.00  0.00     0.123 A 
ATOM     29  F   UNL     1      -3.690  -9.056   9.761  1.00  0.00    -0.207 F 
ENDBRANCH  21  23
ENDBRANCH  16  19
ENDBRANCH  14  15
ENDBRANCH  12  13
ENDBRANCH   6   7
ENDBRANCH   5   6
ENDBRANCH   2   5
BRANCH   3  30
ATOM     30  C   UNL     1       2.128  -2.026  -1.290  1.00  0.00     0.117 C 
BRANCH  30  31
ATOM     31  C   UNL     1       2.433  -2.136  -2.773  1.00  0.00     0.042 C 
BRANCH  31  32
ATOM     32  C   UNL     1       3.906  -2.362  -3.084  1.00  0.00     0.118 C 
BRANCH  32  33
ATOM     33  N   UNL     1       4.412  -3.637  -2.590  1.00  0.00    -0.352 N 
ATOM     34  C   UNL     1       5.056  -4.653  -3.261  1.00  0.00     0.251 C 
ATOM     35  H   UNL     1       4.272  -3.797  -1.628  1.00  0.00     0.163 HD
ATOM     36  O   UNL     1       5.287  -5.708  -2.687  1.00  0.00    -0.269 OA
BRANCH  34  37
ATOM     37  C   UNL     1       5.436  -4.478  -4.682  1.00  0.00     0.039 A 
ATOM     38  C   UNL     1       5.181  -5.516  -5.582  1.00  0.00     0.014 A 
ATOM     39  C   UNL     1       6.030  -3.296  -5.129  1.00  0.00     0.014 A 
ATOM     40  C   UNL     1       5.439  -5.334  -6.943  1.00  0.00     0.010 A 
ATOM     41  C   UNL     1       6.212  -3.086  -6.493  1.00  0.00     0.010 A 
ATOM     42  C   UNL     1       5.911  -4.099  -7.417  1.00  0.00    -0.014 A 
BRANCH  42  43
ATOM     43  C   UNL     1       6.082  -3.832  -8.869  1.00  0.00     0.031 A 
ATOM     44  C   UNL     1       7.444  -3.512  -9.424  1.00  0.00     0.074 A 
ATOM     45  C   UNL     1       5.000  -3.789  -9.673  1.00  0.00     0.049 A 
ATOM     46  N   UNL     1       7.775  -3.144 -10.635  1.00  0.00    -0.248 NA
ATOM     47  C   UNL     1       8.578  -3.594  -8.489  1.00  0.00     0.031 C 
ATOM     48  C   UNL     1       3.620  -4.049  -9.254  1.00  0.00     0.029 A 
ATOM     49  N   UNL     1       4.888  -3.496 -11.010  1.00  0.00    -0.354 N 
ATOM     50  C   UNL     1       9.148  -2.929 -10.603  1.00  0.00     0.074 A 
ATOM     51  C   UNL     1       9.581  -3.165  -9.243  1.00  0.00     0.031 C 
ATOM     52  C   UNL     1       2.806  -3.922 -10.314  1.00  0.00     0.029 A 
ATOM     53  C   UNL     1       3.594  -3.523 -11.476  1.00  0.00     0.049 A 
ATOM     54  H   UNL     1       5.662  -3.286 -11.582  1.00  0.00     0.167 HD
ATOM     55  C   UNL     1       9.976  -2.581 -11.617  1.00  0.00     0.031 A 
ATOM     56  C   UNL     1       3.092  -3.243 -12.695  1.00  0.00     0.031 A 
ATOM     57  C   UNL     1       9.543  -2.356 -12.970  1.00  0.00     0.049 A 
ATOM     58  C   UNL     1       4.028  -2.832 -13.799  1.00  0.00     0.074 A 
ATOM     59  C   UNL     1      10.315  -2.052 -14.079  1.00  0.00     0.029 A 
ATOM     60  N   UNL     1       8.226  -2.404 -13.401  1.00  0.00    -0.354 N 
ATOM     61  N   UNL     1       5.332  -2.693 -13.763  1.00  0.00    -0.248 NA
ATOM     62  C   UNL     1       3.427  -2.548 -15.110  1.00  0.00     0.031 C 
ATOM     63  C   UNL     1       9.459  -1.862 -15.168  1.00  0.00     0.029 A 
ATOM     64  C   UNL     1       8.160  -2.111 -14.752  1.00  0.00     0.049 A 
ATOM     65  H   UNL     1       7.452  -2.616 -12.830  1.00  0.00     0.167 HD
ATOM     66  C   UNL     1       5.710  -2.337 -15.053  1.00  0.00     0.074 A 
ATOM     67  C   UNL     1       4.500  -2.289 -15.847  1.00  0.00     0.031 C 
ATOM     68  C   UNL     1       6.950  -2.076 -15.535  1.00  0.00     0.031 A 
BRANCH  55  69
ATOM     69  C   UNL     1      11.439  -2.413 -11.297  1.00  0.00    -0.014 A 
ATOM     70  C   UNL     1      12.245  -3.519 -10.973  1.00  0.00     0.010 A 
ATOM     71  C   UNL     1      12.026  -1.136 -11.365  1.00  0.00     0.010 A 
ATOM     72  C   UNL     1      13.600  -3.346 -10.680  1.00  0.00     0.020 A 
ATOM     73  C   UNL     1      13.388  -0.963 -11.103  1.00  0.00     0.020 A 
ATOM     74  C   UNL     1      14.162  -2.068 -10.744  1.00  0.00     0.054 A 
BRANCH  74  75
ATOM     75  S   UNL     1      15.928  -1.877 -10.377  1.00  0.00     0.124 S 
ATOM     76  O   UNL     1      15.957  -2.077  -8.930  1.00  0.00    -0.237 OA
ATOM     77  O   UNL     1      16.537  -2.942 -11.170  1.00  0.00    -0.237 OA
ATOM     78  O   UNL     1      16.232  -0.520 -10.824  1.00  0.00    -0.744 OA
ENDBRANCH  74  75
ENDBRANCH  55  69
BRANCH  56  79
ATOM     79  C   UNL     1       1.625  -3.344 -12.936  1.00  0.00    -0.014 A 
ATOM     80  C   UNL     1       1.106  -4.368 -13.748  1.00  0.00     0.010 A 
ATOM     81  C   UNL     1       0.739  -2.425 -12.345  1.00  0.00     0.010 A 
ATOM     82  C   UNL     1      -0.270  -4.461 -13.977  1.00  0.00     0.020 A 
ATOM     83  C   UNL     1      -0.640  -2.533 -12.548  1.00  0.00     0.020 A 
ATOM     84  C   UNL     1      -1.135  -3.544 -13.373  1.00  0.00     0.054 A 
BRANCH  84  85
ATOM     85  S   UNL     1      -2.921  -3.716 -13.646  1.00  0.00     0.124 S 
ATOM     86  O   UNL     1      -3.061  -3.271 -15.028  1.00  0.00    -0.237 OA
ATOM     87  O   UNL     1      -3.138  -5.142 -13.414  1.00  0.00    -0.237 OA
ATOM     88  O   UNL     1      -3.506  -2.833 -12.639  1.00  0.00    -0.744 OA
ENDBRANCH  84  85
ENDBRANCH  56  79
BRANCH  68  89
ATOM     89  C   UNL     1       7.080  -1.757 -17.001  1.00  0.00    -0.014 A 
ATOM     90  C   UNL     1       6.664  -0.519 -17.520  1.00  0.00     0.010 A 
ATOM     91  C   UNL     1       7.709  -2.683 -17.854  1.00  0.00     0.010 A 
ATOM     92  C   UNL     1       6.862  -0.219 -18.871  1.00  0.00     0.020 A 
ATOM     93  C   UNL     1       7.934  -2.375 -19.198  1.00  0.00     0.020 A 
ATOM     94  C   UNL     1       7.501  -1.147 -19.700  1.00  0.00     0.054 A 
BRANCH  94  95
ATOM     95  S   UNL     1       7.813  -0.702 -21.430  1.00  0.00     0.124 S 
ATOM     96  O   UNL     1       6.474  -0.774 -22.009  1.00  0.00    -0.237 OA
ATOM     97  O   UNL     1       8.377   0.641 -21.319  1.00  0.00    -0.237 OA
ATOM     98  O   UNL     1       8.746  -1.727 -21.890  1.00  0.00    -0.744 OA
ENDBRANCH  94  95
ENDBRANCH  68  89
ENDBRANCH  42  43
ENDBRANCH  34  37
ENDBRANCH  32  33
ENDBRANCH  31  32
ENDBRANCH  30  31
ENDBRANCH   3  30
TORSDOF 19
