REMARK SMILES CCOCCCC(=O)N[C@@H]1COC[C@H]1C(=O)NCCCNC(=O)c1ccc(-c2c3nc(c(-c4ccc(S(=O)(=O)[O-])cc4)c4ccc([nH]4)c(-c4ccc(S(=O)(=O)[O-])cc4)c4nc(c(-c5ccc(S(=O)(=O)[O-])cc5)c5ccc2[nH]5)C=C4)C=C3)cc1
REMARK SMILES IDX 15 1 16 2 17 3 14 5 10 6 11 7 12 8 13 9 9 10 7 11 8 12 6 14
REMARK SMILES IDX 5 15 4 16 3 17 2 18 1 19 18 20 19 21 20 22 21 23 22 24 23 26
REMARK SMILES IDX 24 27 25 28 83 29 26 30 82 31 27 32 28 33 29 34 76 35 30 36
REMARK SMILES IDX 81 37 75 38 77 39 31 40 80 41 74 42 73 43 32 45 62 46 43 47
REMARK SMILES IDX 61 48 44 49 47 50 60 51 78 52 45 53 46 54 59 56 79 57 48 58
REMARK SMILES IDX 33 59 34 60 42 61 35 62 41 63 36 64 37 65 38 66 39 67 40 68
REMARK SMILES IDX 63 69 64 70 72 71 65 72 71 73 66 74 67 75 68 76 69 77 70 78
REMARK SMILES IDX 49 79 50 80 58 81 51 82 57 83 52 84 53 85 54 86 55 87 56 88
REMARK H PARENT 17 4 9 13 21 25 77 44 47 55
REMARK Flexibility Score: inf
ROOT
ATOM      1  C   UNL     1      -0.444  -0.600  -1.566  1.00  0.00     0.227 C 
ATOM      2  O   UNL     1      -0.982  -1.483  -0.891  1.00  0.00    -0.275 OA
ATOM      3  N   UNL     1      -0.609  -0.678  -2.911  1.00  0.00    -0.356 N 
ATOM      4  H   UNL     1      -1.166  -1.434  -3.206  1.00  0.00     0.163 HD
ENDROOT
BRANCH   1   5
ATOM      5  C   UNL     1       0.337   0.514  -0.886  1.00  0.00     0.129 C 
ATOM      6  C   UNL     1       1.801   0.593  -1.264  1.00  0.00     0.122 C 
ATOM      7  C   UNL     1       2.042   2.008  -1.755  1.00  0.00     0.185 C 
ATOM      8  O   UNL     1       0.787   2.698  -1.798  1.00  0.00    -0.378 OA
ATOM      9  C   UNL     1      -0.243   1.880  -1.224  1.00  0.00     0.176 C 
BRANCH   6  10
ATOM     10  N   UNL     1       2.853  -0.022  -0.435  1.00  0.00    -0.350 N 
ATOM     11  C   UNL     1       3.583   0.073   0.683  1.00  0.00     0.220 C 
ATOM     12  O   UNL     1       4.481  -0.790   0.723  1.00  0.00    -0.275 OA
ATOM     13  H   UNL     1       3.137  -0.844  -0.895  1.00  0.00     0.163 HD
BRANCH  11  14
ATOM     14  C   UNL     1       3.435   0.925   1.930  1.00  0.00     0.102 C 
BRANCH  14  15
ATOM     15  C   UNL     1       3.282   2.434   1.978  1.00  0.00     0.038 C 
BRANCH  15  16
ATOM     16  C   UNL     1       1.943   3.014   1.564  1.00  0.00     0.160 C 
BRANCH  16  17
ATOM     17  O   UNL     1       0.941   2.021   1.491  1.00  0.00    -0.382 OA
BRANCH  17  18
ATOM     18  C   UNL     1       0.282   1.702   2.709  1.00  0.00     0.156 C 
ATOM     19  C   UNL     1       0.205   0.187   2.867  1.00  0.00     0.035 C 
ENDBRANCH  17  18
ENDBRANCH  16  17
ENDBRANCH  15  16
ENDBRANCH  14  15
ENDBRANCH  11  14
ENDBRANCH   6  10
ENDBRANCH   1   5
BRANCH   3  20
ATOM     20  C   UNL     1      -0.114   0.153  -3.996  1.00  0.00     0.117 C 
BRANCH  20  21
ATOM     21  C   UNL     1       1.021  -0.522  -4.752  1.00  0.00     0.042 C 
BRANCH  21  22
ATOM     22  C   UNL     1       0.576  -1.792  -5.457  1.00  0.00     0.118 C 
BRANCH  22  23
ATOM     23  N   UNL     1      -0.424  -1.507  -6.480  1.00  0.00    -0.352 N 
ATOM     24  C   UNL     1      -0.249  -1.364  -7.830  1.00  0.00     0.251 C 
ATOM     25  H   UNL     1      -1.349  -1.404  -6.156  1.00  0.00     0.163 HD
ATOM     26  O   UNL     1      -1.106  -0.777  -8.504  1.00  0.00    -0.269 OA
BRANCH  24  27
ATOM     27  C   UNL     1       0.959  -1.912  -8.468  1.00  0.00     0.039 A 
ATOM     28  C   UNL     1       1.617  -1.186  -9.463  1.00  0.00     0.014 A 
ATOM     29  C   UNL     1       1.441  -3.161  -8.069  1.00  0.00     0.014 A 
ATOM     30  C   UNL     1       2.793  -1.694 -10.016  1.00  0.00     0.010 A 
ATOM     31  C   UNL     1       2.666  -3.608  -8.536  1.00  0.00     0.010 A 
ATOM     32  C   UNL     1       3.343  -2.894  -9.532  1.00  0.00    -0.014 A 
BRANCH  32  33
ATOM     33  C   UNL     1       4.608  -3.450 -10.070  1.00  0.00     0.031 A 
ATOM     34  C   UNL     1       4.605  -4.812 -10.713  1.00  0.00     0.074 A 
ATOM     35  C   UNL     1       5.761  -2.776  -9.893  1.00  0.00     0.049 A 
ATOM     36  N   UNL     1       5.614  -5.518 -11.152  1.00  0.00    -0.248 NA
ATOM     37  C   UNL     1       3.301  -5.488 -10.843  1.00  0.00     0.031 C 
ATOM     38  C   UNL     1       5.893  -1.478  -9.223  1.00  0.00     0.029 A 
ATOM     39  N   UNL     1       7.046  -3.095 -10.250  1.00  0.00    -0.354 N 
ATOM     40  C   UNL     1       5.072  -6.728 -11.571  1.00  0.00     0.074 A 
ATOM     41  C   UNL     1       3.656  -6.684 -11.288  1.00  0.00     0.031 C 
ATOM     42  C   UNL     1       7.182  -1.103  -9.242  1.00  0.00     0.029 A 
ATOM     43  C   UNL     1       7.972  -2.147  -9.885  1.00  0.00     0.049 A 
ATOM     44  H   UNL     1       7.283  -3.926 -10.723  1.00  0.00     0.167 HD
ATOM     45  C   UNL     1       5.695  -7.774 -12.162  1.00  0.00     0.031 A 
ATOM     46  C   UNL     1       9.309  -2.126 -10.044  1.00  0.00     0.031 A 
ATOM     47  C   UNL     1       7.097  -7.789 -12.478  1.00  0.00     0.049 A 
ATOM     48  C   UNL     1       9.973  -3.283 -10.739  1.00  0.00     0.074 A 
ATOM     49  C   UNL     1       7.814  -8.755 -13.159  1.00  0.00     0.029 A 
ATOM     50  N   UNL     1       7.994  -6.788 -12.134  1.00  0.00    -0.354 N 
ATOM     51  N   UNL     1       9.430  -4.380 -11.211  1.00  0.00    -0.248 NA
ATOM     52  C   UNL     1      11.426  -3.195 -10.934  1.00  0.00     0.031 C 
ATOM     53  C   UNL     1       9.156  -8.363 -13.183  1.00  0.00     0.029 A 
ATOM     54  C   UNL     1       9.264  -7.125 -12.567  1.00  0.00     0.049 A 
ATOM     55  H   UNL     1       7.761  -5.961 -11.654  1.00  0.00     0.167 HD
ATOM     56  C   UNL     1      10.472  -5.103 -11.779  1.00  0.00     0.074 A 
ATOM     57  C   UNL     1      11.672  -4.309 -11.609  1.00  0.00     0.031 C 
ATOM     58  C   UNL     1      10.442  -6.316 -12.386  1.00  0.00     0.031 A 
BRANCH  45  59
ATOM     59  C   UNL     1       4.866  -8.982 -12.510  1.00  0.00    -0.014 A 
ATOM     60  C   UNL     1       3.899  -8.935 -13.531  1.00  0.00     0.010 A 
ATOM     61  C   UNL     1       5.087 -10.197 -11.834  1.00  0.00     0.010 A 
ATOM     62  C   UNL     1       3.144 -10.068 -13.845  1.00  0.00     0.020 A 
ATOM     63  C   UNL     1       4.354 -11.340 -12.166  1.00  0.00     0.020 A 
ATOM     64  C   UNL     1       3.377 -11.264 -13.160  1.00  0.00     0.054 A 
BRANCH  64  65
ATOM     65  S   UNL     1       2.409 -12.729 -13.616  1.00  0.00     0.124 S 
ATOM     66  O   UNL     1       1.096 -12.406 -13.062  1.00  0.00    -0.237 OA
ATOM     67  O   UNL     1       2.492 -12.726 -15.075  1.00  0.00    -0.237 OA
ATOM     68  O   UNL     1       3.109 -13.828 -12.957  1.00  0.00    -0.744 OA
ENDBRANCH  64  65
ENDBRANCH  45  59
BRANCH  46  69
ATOM     69  C   UNL     1      10.101  -0.967  -9.549  1.00  0.00    -0.014 A 
ATOM     70  C   UNL     1      10.688  -0.064 -10.453  1.00  0.00     0.010 A 
ATOM     71  C   UNL     1      10.258  -0.749  -8.168  1.00  0.00     0.010 A 
ATOM     72  C   UNL     1      11.437   1.021  -9.986  1.00  0.00     0.020 A 
ATOM     73  C   UNL     1      10.981   0.351  -7.697  1.00  0.00     0.020 A 
ATOM     74  C   UNL     1      11.578   1.222  -8.610  1.00  0.00     0.054 A 
BRANCH  74  75
ATOM     75  S   UNL     1      12.514   2.663  -8.027  1.00  0.00     0.124 S 
ATOM     76  O   UNL     1      13.890   2.262  -8.302  1.00  0.00    -0.237 OA
ATOM     77  O   UNL     1      11.988   3.740  -8.861  1.00  0.00    -0.237 OA
ATOM     78  O   UNL     1      12.157   2.752  -6.612  1.00  0.00    -0.744 OA
ENDBRANCH  74  75
ENDBRANCH  46  69
BRANCH  58  79
ATOM     79  C   UNL     1      11.738  -6.846 -12.933  1.00  0.00    -0.014 A 
ATOM     80  C   UNL     1      12.747  -7.322 -12.078  1.00  0.00     0.010 A 
ATOM     81  C   UNL     1      11.919  -6.929 -14.326  1.00  0.00     0.010 A 
ATOM     82  C   UNL     1      13.929  -7.845 -12.608  1.00  0.00     0.020 A 
ATOM     83  C   UNL     1      13.087  -7.478 -14.859  1.00  0.00     0.020 A 
ATOM     84  C   UNL     1      14.090  -7.920 -13.995  1.00  0.00     0.054 A 
BRANCH  84  85
ATOM     85  S   UNL     1      15.614  -8.648 -14.657  1.00  0.00     0.124 S 
ATOM     86  O   UNL     1      16.590  -7.592 -14.402  1.00  0.00    -0.237 OA
ATOM     87  O   UNL     1      15.769  -9.856 -13.850  1.00  0.00    -0.237 OA
ATOM     88  O   UNL     1      15.302  -8.882 -16.065  1.00  0.00    -0.744 OA
ENDBRANCH  84  85
ENDBRANCH  58  79
ENDBRANCH  32  33
ENDBRANCH  24  27
ENDBRANCH  22  23
ENDBRANCH  21  22
ENDBRANCH  20  21
ENDBRANCH   3  20
TORSDOF 19
