REMARK SMILES Cc1ccc(C)c(-c2cc(C(=O)NCCCNC(=O)c3ccc(-c4c5nc(c(-c6ccc(S(=O)(=O)[O-])cc6)c6ccc([nH]6)c(-c6ccc(S(=O)(=O)[O-])cc6)c6nc(c(-c7ccc(S(=O)(=O)[O-])cc7)c7ccc4[nH]7)C=C6)C=C5)cc3)c3cc(C)ccc3n2)c1
REMARK SMILES IDX 16 1 15 2 14 3 13 4 11 5 12 6 10 8 8 9 9 10 87 11 86 12
REMARK SMILES IDX 80 13 85 14 81 15 84 16 82 17 83 18 7 19 1 20 2 21 3 22
REMARK SMILES IDX 88 23 4 24 5 25 6 26 17 27 18 28 19 30 20 31 21 32 79 33
REMARK SMILES IDX 22 34 78 35 23 36 24 37 25 38 72 39 26 40 77 41 71 42 73 43
REMARK SMILES IDX 27 44 76 45 70 46 69 47 28 49 58 50 39 51 57 52 40 53 43 54
REMARK SMILES IDX 56 55 74 56 41 57 42 58 55 60 75 61 44 62 29 63 30 64 38 65
REMARK SMILES IDX 31 66 37 67 32 68 33 69 34 70 35 71 36 72 59 73 60 74 68 75
REMARK SMILES IDX 61 76 67 77 62 78 63 79 64 80 65 81 66 82 45 83 46 84 54 85
REMARK SMILES IDX 47 86 53 87 48 88 49 89 50 90 51 91 52 92
REMARK H PARENT 13 7 17 29 73 48 43 59
REMARK Flexibility Score: inf
ROOT
ATOM      1  C   UNL     1      -2.885   9.541  -0.515  1.00  0.00     0.118 C 
ENDROOT
BRANCH   1   2
ATOM      2  C   UNL     1      -2.519   8.422   0.419  1.00  0.00     0.042 C 
BRANCH   2   3
ATOM      3  C   UNL     1      -2.925   7.076  -0.130  1.00  0.00     0.118 C 
BRANCH   3   4
ATOM      4  N   UNL     1      -2.397   6.598  -1.400  1.00  0.00    -0.352 N 
ATOM      5  C   UNL     1      -2.384   5.290  -1.870  1.00  0.00     0.252 C 
ATOM      6  O   UNL     1      -2.104   5.071  -3.045  1.00  0.00    -0.269 OA
ATOM      7  H   UNL     1      -2.006   7.279  -1.994  1.00  0.00     0.163 HD
BRANCH   5   8
ATOM      8  C   UNL     1      -2.582   4.142  -0.938  1.00  0.00     0.051 A 
ATOM      9  C   UNL     1      -1.544   2.274   0.094  1.00  0.00     0.072 A 
ATOM     10  C   UNL     1      -1.588   3.165  -0.962  1.00  0.00     0.043 A 
ATOM     11  N   UNL     1      -2.315   2.430   1.202  1.00  0.00    -0.248 NA
ATOM     12  C   UNL     1      -3.281   3.359   1.196  1.00  0.00     0.072 A 
ATOM     13  C   UNL     1      -3.575   4.121   0.063  1.00  0.00     0.013 A 
ATOM     14  C   UNL     1      -3.981   3.636   2.364  1.00  0.00     0.029 A 
ATOM     15  C   UNL     1      -4.753   4.904   0.048  1.00  0.00     0.014 A 
ATOM     16  C   UNL     1      -4.976   4.620   2.414  1.00  0.00     0.005 A 
ATOM     17  C   UNL     1      -5.391   5.246   1.242  1.00  0.00    -0.050 A 
ATOM     18  C   UNL     1      -6.321   6.426   1.281  1.00  0.00     0.044 C 
BRANCH   9  19
ATOM     19  C   UNL     1      -0.736   1.048   0.058  1.00  0.00     0.003 A 
ATOM     20  C   UNL     1       2.955   0.025   0.004  1.00  0.00     0.044 C 
ATOM     21  C   UNL     1       1.456  -0.048   0.020  1.00  0.00    -0.050 A 
ATOM     22  C   UNL     1       0.827  -1.295   0.000  1.00  0.00     0.004 A 
ATOM     23  C   UNL     1       0.671   1.114   0.052  1.00  0.00     0.014 A 
ATOM     24  C   UNL     1      -0.563  -1.383  -0.004  1.00  0.00     0.004 A 
ATOM     25  C   UNL     1      -1.355  -0.224   0.006  1.00  0.00    -0.042 A 
ATOM     26  C   UNL     1      -2.853  -0.400  -0.014  1.00  0.00     0.045 C 
ENDBRANCH   9  19
ENDBRANCH   5   8
ENDBRANCH   3   4
ENDBRANCH   2   3
ENDBRANCH   1   2
BRANCH   1  27
ATOM     27  N   UNL     1      -4.285   9.838  -0.761  1.00  0.00    -0.352 N 
ATOM     28  C   UNL     1      -4.815  10.698  -1.723  1.00  0.00     0.251 C 
ATOM     29  H   UNL     1      -4.936   9.379  -0.182  1.00  0.00     0.163 HD
ATOM     30  O   UNL     1      -6.025  10.794  -1.837  1.00  0.00    -0.269 OA
BRANCH  28  31
ATOM     31  C   UNL     1      -3.918  11.496  -2.617  1.00  0.00     0.039 A 
ATOM     32  C   UNL     1      -4.325  11.854  -3.911  1.00  0.00     0.014 A 
ATOM     33  C   UNL     1      -2.578  11.708  -2.296  1.00  0.00     0.014 A 
ATOM     34  C   UNL     1      -3.319  12.095  -4.862  1.00  0.00     0.010 A 
ATOM     35  C   UNL     1      -1.850  12.544  -3.080  1.00  0.00     0.010 A 
ATOM     36  C   UNL     1      -2.013  12.210  -4.403  1.00  0.00    -0.014 A 
BRANCH  36  37
ATOM     37  C   UNL     1      -0.782  11.839  -5.096  1.00  0.00     0.031 A 
ATOM     38  C   UNL     1       0.305  12.840  -4.955  1.00  0.00     0.074 A 
ATOM     39  C   UNL     1      -0.329  10.600  -5.389  1.00  0.00     0.049 A 
ATOM     40  N   UNL     1       0.543  13.829  -5.745  1.00  0.00    -0.248 NA
ATOM     41  C   UNL     1       1.076  12.865  -3.697  1.00  0.00     0.031 C 
ATOM     42  C   UNL     1      -0.845   9.277  -5.036  1.00  0.00     0.029 A 
ATOM     43  N   UNL     1       0.846  10.308  -6.020  1.00  0.00    -0.354 N 
ATOM     44  C   UNL     1       1.613  14.501  -5.178  1.00  0.00     0.074 A 
ATOM     45  C   UNL     1       1.705  14.035  -3.817  1.00  0.00     0.031 C 
ATOM     46  C   UNL     1       0.097   8.338  -5.323  1.00  0.00     0.029 A 
ATOM     47  C   UNL     1       1.215   8.974  -6.008  1.00  0.00     0.049 A 
ATOM     48  H   UNL     1       1.394  11.001  -6.456  1.00  0.00     0.167 HD
ATOM     49  C   UNL     1       2.501  15.213  -5.924  1.00  0.00     0.031 A 
ATOM     50  C   UNL     1       2.377   8.475  -6.505  1.00  0.00     0.031 A 
ATOM     51  C   UNL     1       2.159  15.178  -7.327  1.00  0.00     0.049 A 
ATOM     52  C   UNL     1       2.970   9.512  -7.397  1.00  0.00     0.074 A 
ATOM     53  C   UNL     1       1.074  15.575  -8.082  1.00  0.00     0.029 A 
ATOM     54  N   UNL     1       2.832  14.246  -8.089  1.00  0.00    -0.354 N 
ATOM     55  N   UNL     1       2.412   9.939  -8.496  1.00  0.00    -0.248 NA
ATOM     56  C   UNL     1       4.046  10.352  -6.893  1.00  0.00     0.031 C 
ATOM     57  C   UNL     1       0.902  14.549  -9.061  1.00  0.00     0.029 A 
ATOM     58  C   UNL     1       1.911  13.598  -8.877  1.00  0.00     0.049 A 
ATOM     59  H   UNL     1       3.802  14.074  -8.071  1.00  0.00     0.167 HD
ATOM     60  C   UNL     1       2.776  11.274  -8.600  1.00  0.00     0.074 A 
ATOM     61  C   UNL     1       3.888  11.428  -7.671  1.00  0.00     0.031 C 
ATOM     62  C   UNL     1       1.963  12.184  -9.217  1.00  0.00     0.031 A 
BRANCH  49  63
ATOM     63  C   UNL     1       3.861  15.644  -5.449  1.00  0.00    -0.014 A 
ATOM     64  C   UNL     1       4.566  16.602  -6.202  1.00  0.00     0.010 A 
ATOM     65  C   UNL     1       4.554  15.021  -4.392  1.00  0.00     0.010 A 
ATOM     66  C   UNL     1       5.905  16.900  -5.925  1.00  0.00     0.020 A 
ATOM     67  C   UNL     1       5.871  15.350  -4.071  1.00  0.00     0.020 A 
ATOM     68  C   UNL     1       6.550  16.265  -4.863  1.00  0.00     0.054 A 
BRANCH  68  69
ATOM     69  S   UNL     1       8.303  16.590  -4.562  1.00  0.00     0.124 S 
ATOM     70  O   UNL     1       8.930  15.905  -5.688  1.00  0.00    -0.237 OA
ATOM     71  O   UNL     1       8.362  18.049  -4.593  1.00  0.00    -0.237 OA
ATOM     72  O   UNL     1       8.541  15.991  -3.250  1.00  0.00    -0.744 OA
ENDBRANCH  68  69
ENDBRANCH  49  63
BRANCH  50  73
ATOM     73  C   UNL     1       3.140   7.260  -6.124  1.00  0.00    -0.014 A 
ATOM     74  C   UNL     1       4.101   6.708  -6.995  1.00  0.00     0.010 A 
ATOM     75  C   UNL     1       3.125   6.804  -4.792  1.00  0.00     0.010 A 
ATOM     76  C   UNL     1       5.054   5.783  -6.534  1.00  0.00     0.020 A 
ATOM     77  C   UNL     1       4.069   5.878  -4.326  1.00  0.00     0.020 A 
ATOM     78  C   UNL     1       5.045   5.390  -5.194  1.00  0.00     0.054 A 
BRANCH  78  79
ATOM     79  S   UNL     1       6.391   4.342  -4.564  1.00  0.00     0.124 S 
ATOM     80  O   UNL     1       6.091   3.048  -5.169  1.00  0.00    -0.237 OA
ATOM     81  O   UNL     1       7.583   5.016  -5.072  1.00  0.00    -0.237 OA
ATOM     82  O   UNL     1       6.223   4.402  -3.112  1.00  0.00    -0.744 OA
ENDBRANCH  78  79
ENDBRANCH  50  73
BRANCH  62  83
ATOM     83  C   UNL     1       0.853  11.656 -10.106  1.00  0.00    -0.014 A 
ATOM     84  C   UNL     1      -0.172  10.803  -9.650  1.00  0.00     0.010 A 
ATOM     85  C   UNL     1       0.770  12.145 -11.423  1.00  0.00     0.010 A 
ATOM     86  C   UNL     1      -1.234  10.435 -10.489  1.00  0.00     0.020 A 
ATOM     87  C   UNL     1      -0.297  11.799 -12.259  1.00  0.00     0.020 A 
ATOM     88  C   UNL     1      -1.292  10.940 -11.790  1.00  0.00     0.054 A 
BRANCH  88  89
ATOM     89  S   UNL     1      -2.711  10.521 -12.841  1.00  0.00     0.124 S 
ATOM     90  O   UNL     1      -2.466   9.118 -13.162  1.00  0.00    -0.237 OA
ATOM     91  O   UNL     1      -3.852  10.777 -11.965  1.00  0.00    -0.237 OA
ATOM     92  O   UNL     1      -2.591  11.444 -13.970  1.00  0.00    -0.744 OA
ENDBRANCH  88  89
ENDBRANCH  62  83
ENDBRANCH  36  37
ENDBRANCH  28  31
ENDBRANCH   1  27
TORSDOF 14
