REMARK SMILES C[C@@H](C(=O)NCCCNC(=O)c1ccc(-c2c3nc(c(-c4ccc(S(=O)(=O)[O-])cc4)c4ccc([nH]4)c(-c4ccc(S(=O)(=O)[O-])cc4)c4nc(c(-c5ccc(S(=O)(=O)[O-])cc5)c5ccc2[nH]5)C=C4)C=C3)cc1)c1ccc(-c2cccc(OC(=O)NCCCc3ccccc3)c2)c(F)c1
REMARK SMILES IDX 1 1 2 2 3 3 4 4 5 5 6 7 7 8 8 9 9 10 10 11 11 13 12 14 13 15
REMARK SMILES IDX 71 16 14 17 70 18 15 19 16 20 17 21 64 22 18 23 69 24 63 25
REMARK SMILES IDX 65 26 19 27 68 28 62 29 61 30 20 32 50 33 31 34 49 35 32 36
REMARK SMILES IDX 35 37 48 38 66 39 33 40 34 41 47 43 67 44 36 45 21 46 22 47
REMARK SMILES IDX 30 48 23 49 29 50 24 51 25 52 26 53 27 54 28 55 51 56 52 57
REMARK SMILES IDX 60 58 53 59 59 60 54 61 55 62 56 63 57 64 58 65 37 66 38 67
REMARK SMILES IDX 46 68 39 69 45 70 40 71 41 72 42 73 43 74 44 75 72 76 73 77
REMARK SMILES IDX 97 78 74 79 95 80 75 81 96 82 76 83 77 84 94 85 78 86 80 87
REMARK SMILES IDX 79 88 81 89 82 90 83 91 84 92 85 94 86 95 87 96 88 97 89 98
REMARK SMILES IDX 93 99 90 100 92 101 91 102
REMARK H PARENT 5 6 9 12 65 31 35 42 84 93
REMARK Flexibility Score: inf
ROOT
ATOM      1  C   UNL     1       0.935  -0.047   0.009  1.00  0.00     0.023 C 
ATOM      2  C   UNL     1       0.527   0.750  -1.235  1.00  0.00     0.105 C 
ENDROOT
BRANCH   2   3
ATOM      3  C   UNL     1       1.147   0.198  -2.529  1.00  0.00     0.227 C 
ATOM      4  O   UNL     1       0.493  -0.364  -3.410  1.00  0.00    -0.274 OA
ATOM      5  N   UNL     1       2.478   0.356  -2.769  1.00  0.00    -0.356 N 
ATOM      6  H   UNL     1       2.773   0.074  -3.665  1.00  0.00     0.163 HD
BRANCH   5   7
ATOM      7  C   UNL     1       3.528   0.871  -1.916  1.00  0.00     0.117 C 
BRANCH   7   8
ATOM      8  C   UNL     1       4.375  -0.257  -1.333  1.00  0.00     0.042 C 
BRANCH   8   9
ATOM      9  C   UNL     1       5.097  -1.101  -2.380  1.00  0.00     0.118 C 
BRANCH   9  10
ATOM     10  N   UNL     1       6.016  -0.316  -3.189  1.00  0.00    -0.352 N 
ATOM     11  C   UNL     1       7.370  -0.439  -3.369  1.00  0.00     0.251 C 
ATOM     12  H   UNL     1       5.599   0.423  -3.688  1.00  0.00     0.163 HD
ATOM     13  O   UNL     1       7.979   0.468  -3.930  1.00  0.00    -0.269 OA
BRANCH  11  14
ATOM     14  C   UNL     1       8.099  -1.634  -2.886  1.00  0.00     0.039 A 
ATOM     15  C   UNL     1       9.370  -1.457  -2.333  1.00  0.00     0.014 A 
ATOM     16  C   UNL     1       7.569  -2.921  -3.014  1.00  0.00     0.014 A 
ATOM     17  C   UNL     1      10.081  -2.561  -1.859  1.00  0.00     0.010 A 
ATOM     18  C   UNL     1       8.247  -4.013  -2.471  1.00  0.00     0.010 A 
ATOM     19  C   UNL     1       9.511  -3.845  -1.890  1.00  0.00    -0.014 A 
BRANCH  19  20
ATOM     20  C   UNL     1      10.226  -5.003  -1.292  1.00  0.00     0.031 A 
ATOM     21  C   UNL     1      10.681  -6.156  -2.146  1.00  0.00     0.074 A 
ATOM     22  C   UNL     1      10.441  -5.025   0.039  1.00  0.00     0.049 A 
ATOM     23  N   UNL     1      11.324  -7.239  -1.790  1.00  0.00    -0.248 NA
ATOM     24  C   UNL     1      10.358  -6.096  -3.581  1.00  0.00     0.031 C 
ATOM     25  C   UNL     1      10.004  -3.992   0.983  1.00  0.00     0.029 A 
ATOM     26  N   UNL     1      11.082  -5.944   0.830  1.00  0.00    -0.354 N 
ATOM     27  C   UNL     1      11.483  -7.987  -2.950  1.00  0.00     0.074 A 
ATOM     28  C   UNL     1      10.820  -7.262  -4.012  1.00  0.00     0.031 C 
ATOM     29  C   UNL     1      10.417  -4.320   2.217  1.00  0.00     0.029 A 
ATOM     30  C   UNL     1      11.112  -5.602   2.162  1.00  0.00     0.049 A 
ATOM     31  H   UNL     1      11.482  -6.772   0.478  1.00  0.00     0.167 HD
ATOM     32  C   UNL     1      12.140  -9.160  -3.123  1.00  0.00     0.031 A 
ATOM     33  C   UNL     1      11.634  -6.246   3.223  1.00  0.00     0.031 A 
ATOM     34  C   UNL     1      12.796  -9.883  -2.063  1.00  0.00     0.049 A 
ATOM     35  C   UNL     1      12.348  -7.551   3.007  1.00  0.00     0.074 A 
ATOM     36  C   UNL     1      13.521 -11.059  -2.145  1.00  0.00     0.029 A 
ATOM     37  N   UNL     1      12.804  -9.503  -0.729  1.00  0.00    -0.354 N 
ATOM     38  N   UNL     1      12.545  -8.207   1.888  1.00  0.00    -0.248 NA
ATOM     39  C   UNL     1      12.924  -8.195   4.195  1.00  0.00     0.031 C 
ATOM     40  C   UNL     1      13.922 -11.418  -0.853  1.00  0.00     0.029 A 
ATOM     41  C   UNL     1      13.501 -10.433   0.025  1.00  0.00     0.049 A 
ATOM     42  H   UNL     1      12.377  -8.691  -0.371  1.00  0.00     0.167 HD
ATOM     43  C   UNL     1      13.283  -9.333   2.236  1.00  0.00     0.074 A 
ATOM     44  C   UNL     1      13.523  -9.251   3.662  1.00  0.00     0.031 C 
ATOM     45  C   UNL     1      13.720 -10.347   1.447  1.00  0.00     0.031 A 
BRANCH  32  46
ATOM     46  C   UNL     1      12.190  -9.736  -4.515  1.00  0.00    -0.014 A 
ATOM     47  C   UNL     1      12.955  -9.123  -5.524  1.00  0.00     0.010 A 
ATOM     48  C   UNL     1      11.515 -10.937  -4.805  1.00  0.00     0.010 A 
ATOM     49  C   UNL     1      13.020  -9.681  -6.803  1.00  0.00     0.020 A 
ATOM     50  C   UNL     1      11.600 -11.513  -6.076  1.00  0.00     0.020 A 
ATOM     51  C   UNL     1      12.342 -10.874  -7.072  1.00  0.00     0.054 A 
BRANCH  51  52
ATOM     52  S   UNL     1      12.477 -11.594  -8.731  1.00  0.00     0.124 S 
ATOM     53  O   UNL     1      11.681 -10.665  -9.529  1.00  0.00    -0.237 OA
ATOM     54  O   UNL     1      13.916 -11.559  -8.978  1.00  0.00    -0.237 OA
ATOM     55  O   UNL     1      11.906 -12.930  -8.578  1.00  0.00    -0.744 OA
ENDBRANCH  51  52
ENDBRANCH  32  46
BRANCH  33  56
ATOM     56  C   UNL     1      11.500  -5.663   4.587  1.00  0.00    -0.014 A 
ATOM     57  C   UNL     1      12.623  -5.170   5.274  1.00  0.00     0.010 A 
ATOM     58  C   UNL     1      10.237  -5.597   5.205  1.00  0.00     0.010 A 
ATOM     59  C   UNL     1      12.490  -4.647   6.564  1.00  0.00     0.020 A 
ATOM     60  C   UNL     1      10.096  -5.046   6.481  1.00  0.00     0.020 A 
ATOM     61  C   UNL     1      11.226  -4.588   7.159  1.00  0.00     0.054 A 
BRANCH  61  62
ATOM     62  S   UNL     1      11.070  -3.868   8.817  1.00  0.00     0.124 S 
ATOM     63  O   UNL     1      11.638  -4.916   9.658  1.00  0.00    -0.237 OA
ATOM     64  O   UNL     1      11.863  -2.645   8.706  1.00  0.00    -0.237 OA
ATOM     65  O   UNL     1       9.632  -3.656   8.963  1.00  0.00    -0.744 OA
ENDBRANCH  61  62
ENDBRANCH  33  56
BRANCH  45  66
ATOM     66  C   UNL     1      14.517 -11.438   2.111  1.00  0.00    -0.014 A 
ATOM     67  C   UNL     1      13.912 -12.345   3.000  1.00  0.00     0.010 A 
ATOM     68  C   UNL     1      15.889 -11.570   1.828  1.00  0.00     0.010 A 
ATOM     69  C   UNL     1      14.675 -13.331   3.632  1.00  0.00     0.020 A 
ATOM     70  C   UNL     1      16.648 -12.575   2.433  1.00  0.00     0.020 A 
ATOM     71  C   UNL     1      16.040 -13.437   3.348  1.00  0.00     0.054 A 
BRANCH  71  72
ATOM     72  S   UNL     1      17.005 -14.732   4.171  1.00  0.00     0.124 S 
ATOM     73  O   UNL     1      17.117 -14.210   5.530  1.00  0.00    -0.237 OA
ATOM     74  O   UNL     1      16.156 -15.911   4.019  1.00  0.00    -0.237 OA
ATOM     75  O   UNL     1      18.254 -14.769   3.414  1.00  0.00    -0.744 OA
ENDBRANCH  71  72
ENDBRANCH  45  66
ENDBRANCH  19  20
ENDBRANCH  11  14
ENDBRANCH   9  10
ENDBRANCH   8   9
ENDBRANCH   7   8
ENDBRANCH   5   7
ENDBRANCH   2   3
BRANCH   2  76
ATOM     76  C   UNL     1      -0.993   0.809  -1.322  1.00  0.00    -0.033 A 
ATOM     77  C   UNL     1      -1.664   2.040  -1.310  1.00  0.00     0.005 A 
ATOM     78  C   UNL     1      -1.746  -0.370  -1.399  1.00  0.00     0.044 A 
ATOM     79  C   UNL     1      -3.063   2.086  -1.331  1.00  0.00     0.012 A 
ATOM     80  C   UNL     1      -3.132  -0.315  -1.425  1.00  0.00     0.131 A 
ATOM     81  C   UNL     1      -3.819   0.905  -1.364  1.00  0.00     0.018 A 
ATOM     82  F   UNL     1      -3.809  -1.474  -1.474  1.00  0.00    -0.206 F 
BRANCH  81  83
ATOM     83  C   UNL     1      -5.277   0.931  -1.218  1.00  0.00    -0.012 A 
ATOM     84  C   UNL     1      -6.114   1.631  -2.097  1.00  0.00     0.009 A 
ATOM     85  C   UNL     1      -5.858   0.237  -0.144  1.00  0.00     0.056 A 
ATOM     86  C   UNL     1      -7.500   1.630  -1.908  1.00  0.00     0.004 A 
ATOM     87  C   UNL     1      -7.232   0.249   0.052  1.00  0.00     0.133 A 
ATOM     88  C   UNL     1      -8.059   0.939  -0.833  1.00  0.00     0.047 A 
BRANCH  87  89
ATOM     89  O   UNL     1      -7.881  -0.445   1.098  1.00  0.00    -0.410 OA
BRANCH  89  90
ATOM     90  C   UNL     1      -7.247  -1.039   2.189  1.00  0.00     0.412 C 
ATOM     91  O   UNL     1      -6.054  -1.005   2.456  1.00  0.00    -0.224 OA
ATOM     92  N   UNL     1      -8.115  -1.692   3.018  1.00  0.00    -0.321 N 
ATOM     93  H   UNL     1      -7.726  -2.237   3.739  1.00  0.00     0.167 HD
BRANCH  92  94
ATOM     94  C   UNL     1      -9.552  -1.650   2.925  1.00  0.00     0.120 C 
BRANCH  94  95
ATOM     95  C   UNL     1     -10.257  -2.896   3.457  1.00  0.00     0.026 C 
BRANCH  95  96
ATOM     96  C   UNL     1      -9.706  -3.562   4.724  1.00  0.00     0.037 C 
BRANCH  96  97
ATOM     97  C   UNL     1      -9.851  -2.894   6.073  1.00  0.00    -0.048 A 
ATOM     98  C   UNL     1     -10.064  -1.526   6.268  1.00  0.00     0.004 A 
ATOM     99  C   UNL     1      -9.694  -3.702   7.214  1.00  0.00     0.004 A 
ATOM    100  C   UNL     1     -10.111  -0.981   7.555  1.00  0.00     0.000 A 
ATOM    101  C   UNL     1      -9.752  -3.162   8.500  1.00  0.00     0.000 A 
ATOM    102  C   UNL     1      -9.955  -1.798   8.671  1.00  0.00     0.000 A 
ENDBRANCH  96  97
ENDBRANCH  95  96
ENDBRANCH  94  95
ENDBRANCH  92  94
ENDBRANCH  89  90
ENDBRANCH  87  89
ENDBRANCH  81  83
ENDBRANCH   2  76
TORSDOF 21
