REMARK SMILES CC(=O)N1CCC(C(=O)Nc2sccc2C(=O)NCCCNC(=O)c2ccc(-c3c4nc(c(-c5ccc(S(=O)(=O)[O-])cc5)c5ccc([nH]5)c(-c5ccc(S(=O)(=O)[O-])cc5)c5nc(c(-c6ccc(S(=O)(=O)[O-])cc6)c6ccc3[nH]6)C=C5)C=C4)cc2)CC1
REMARK SMILES IDX 20 1 19 2 18 3 16 4 17 5 15 7 11 8 12 9 13 10 14 11 10 12
REMARK SMILES IDX 8 13 9 14 7 16 1 17 2 18 3 19 4 20 5 21 86 22 6 23 85 24
REMARK SMILES IDX 21 25 22 26 23 27 24 29 25 30 26 31 84 32 27 33 83 34 28 35
REMARK SMILES IDX 29 36 30 37 77 38 31 39 82 40 76 41 78 42 32 43 81 44 75 45
REMARK SMILES IDX 74 46 33 48 63 49 44 50 62 51 45 52 48 53 61 54 79 55 46 56
REMARK SMILES IDX 47 57 60 59 80 60 49 61 34 62 35 63 43 64 36 65 42 66 37 67
REMARK SMILES IDX 38 68 39 69 40 70 41 71 64 72 65 73 73 74 66 75 72 76 67 77
REMARK SMILES IDX 68 78 69 79 70 80 71 81 50 82 51 83 59 84 52 85 58 86 53 87
REMARK SMILES IDX 54 88 55 89 56 90 57 91
REMARK H PARENT 18 6 10 15 22 28 78 47 48 58
REMARK Flexibility Score: inf
ROOT
ATOM      1  C   UNL     1      -0.377  -3.075   8.426  1.00  0.00     0.042 C 
ENDROOT
BRANCH   1   2
ATOM      2  C   UNL     1       0.285  -2.347   7.267  1.00  0.00     0.118 C 
BRANCH   2   3
ATOM      3  N   UNL     1      -0.662  -1.633   6.437  1.00  0.00    -0.352 N 
ATOM      4  C   UNL     1      -0.506  -0.600   5.556  1.00  0.00     0.254 C 
ATOM      5  O   UNL     1      -1.541  -0.184   5.031  1.00  0.00    -0.269 OA
ATOM      6  H   UNL     1      -1.591  -1.949   6.524  1.00  0.00     0.163 HD
BRANCH   4   7
ATOM      7  C   UNL     1       0.784   0.037   5.269  1.00  0.00     0.074 A 
ATOM      8  C   UNL     1       2.091  -0.408   5.388  1.00  0.00     0.108 A 
ATOM      9  S   UNL     1       3.225   0.875   5.322  1.00  0.00    -0.126 S 
ATOM     10  C   UNL     1       2.054   1.960   4.733  1.00  0.00     0.068 A 
ATOM     11  C   UNL     1       0.802   1.397   4.761  1.00  0.00     0.028 A 
BRANCH   8  12
ATOM     12  N   UNL     1       2.721  -1.592   5.680  1.00  0.00    -0.317 N 
ATOM     13  C   UNL     1       2.717  -2.792   5.034  1.00  0.00     0.228 C 
ATOM     14  O   UNL     1       3.266  -3.737   5.617  1.00  0.00    -0.274 OA
ATOM     15  H   UNL     1       3.271  -1.571   6.496  1.00  0.00     0.170 HD
BRANCH  13  16
ATOM     16  C   UNL     1       2.215  -3.009   3.608  1.00  0.00     0.082 C 
ATOM     17  C   UNL     1       1.345   0.155  -0.012  1.00  0.00     0.114 C 
ATOM     18  C   UNL     1       0.469  -0.771   0.794  1.00  0.00     0.219 C 
ATOM     19  O   UNL     1      -0.704  -0.470   1.012  1.00  0.00    -0.275 OA
ATOM     20  N   UNL     1       1.039  -1.958   1.229  1.00  0.00    -0.343 N 
ATOM     21  C   UNL     1       0.239  -2.913   1.986  1.00  0.00     0.120 C 
ATOM     22  C   UNL     1       2.463  -2.260   1.208  1.00  0.00     0.120 C 
ATOM     23  C   UNL     1       0.697  -2.953   3.441  1.00  0.00     0.035 C 
ATOM     24  C   UNL     1       3.005  -2.131   2.623  1.00  0.00     0.035 C 
ENDBRANCH  13  16
ENDBRANCH   8  12
ENDBRANCH   4   7
ENDBRANCH   2   3
ENDBRANCH   1   2
BRANCH   1  25
ATOM     25  C   UNL     1      -1.291  -4.209   7.976  1.00  0.00     0.118 C 
BRANCH  25  26
ATOM     26  N   UNL     1      -0.577  -5.416   7.570  1.00  0.00    -0.352 N 
ATOM     27  C   UNL     1      -0.428  -6.626   8.211  1.00  0.00     0.251 C 
ATOM     28  H   UNL     1      -0.129  -5.355   6.695  1.00  0.00     0.163 HD
ATOM     29  O   UNL     1       0.296  -7.491   7.724  1.00  0.00    -0.269 OA
BRANCH  27  30
ATOM     30  C   UNL     1      -1.093  -6.867   9.509  1.00  0.00     0.039 A 
ATOM     31  C   UNL     1      -0.356  -7.423  10.559  1.00  0.00     0.014 A 
ATOM     32  C   UNL     1      -2.423  -6.506   9.711  1.00  0.00     0.014 A 
ATOM     33  C   UNL     1      -0.921  -7.503  11.835  1.00  0.00     0.010 A 
ATOM     34  C   UNL     1      -2.938  -6.467  11.001  1.00  0.00     0.010 A 
ATOM     35  C   UNL     1      -2.193  -6.961  12.083  1.00  0.00    -0.014 A 
BRANCH  35  36
ATOM     36  C   UNL     1      -2.769  -6.889  13.453  1.00  0.00     0.031 A 
ATOM     37  C   UNL     1      -4.108  -7.521  13.742  1.00  0.00     0.074 A 
ATOM     38  C   UNL     1      -2.148  -6.167  14.409  1.00  0.00     0.049 A 
ATOM     39  N   UNL     1      -4.841  -7.443  14.823  1.00  0.00    -0.248 NA
ATOM     40  C   UNL     1      -4.724  -8.303  12.657  1.00  0.00     0.031 C 
ATOM     41  C   UNL     1      -0.882  -5.446  14.246  1.00  0.00     0.029 A 
ATOM     42  N   UNL     1      -2.506  -5.908  15.710  1.00  0.00    -0.354 N 
ATOM     43  C   UNL     1      -6.020  -8.120  14.529  1.00  0.00     0.074 A 
ATOM     44  C   UNL     1      -5.924  -8.561  13.155  1.00  0.00     0.031 C 
ATOM     45  C   UNL     1      -0.555  -4.857  15.408  1.00  0.00     0.029 A 
ATOM     46  C   UNL     1      -1.605  -5.119  16.386  1.00  0.00     0.049 A 
ATOM     47  H   UNL     1      -3.330  -6.255  16.120  1.00  0.00     0.167 HD
ATOM     48  C   UNL     1      -7.078  -8.376  15.335  1.00  0.00     0.031 A 
ATOM     49  C   UNL     1      -1.622  -4.651  17.650  1.00  0.00     0.031 A 
ATOM     50  C   UNL     1      -7.147  -7.991  16.718  1.00  0.00     0.049 A 
ATOM     51  C   UNL     1      -2.777  -5.002  18.546  1.00  0.00     0.074 A 
ATOM     52  C   UNL     1      -8.135  -8.280  17.642  1.00  0.00     0.029 A 
ATOM     53  N   UNL     1      -6.182  -7.248  17.379  1.00  0.00    -0.354 N 
ATOM     54  N   UNL     1      -3.852  -5.699  18.266  1.00  0.00    -0.248 NA
ATOM     55  C   UNL     1      -2.716  -4.514  19.931  1.00  0.00     0.031 C 
ATOM     56  C   UNL     1      -7.782  -7.684  18.858  1.00  0.00     0.029 A 
ATOM     57  C   UNL     1      -6.554  -7.061  18.699  1.00  0.00     0.049 A 
ATOM     58  H   UNL     1      -5.355  -6.904  16.971  1.00  0.00     0.167 HD
ATOM     59  C   UNL     1      -4.584  -5.754  19.446  1.00  0.00     0.074 A 
ATOM     60  C   UNL     1      -3.823  -5.032  20.446  1.00  0.00     0.031 C 
ATOM     61  C   UNL     1      -5.780  -6.348  19.681  1.00  0.00     0.031 A 
BRANCH  48  62
ATOM     62  C   UNL     1      -8.243  -9.120  14.737  1.00  0.00    -0.014 A 
ATOM     63  C   UNL     1      -8.137 -10.481  14.396  1.00  0.00     0.010 A 
ATOM     64  C   UNL     1      -9.468  -8.458  14.537  1.00  0.00     0.010 A 
ATOM     65  C   UNL     1      -9.218 -11.153  13.821  1.00  0.00     0.020 A 
ATOM     66  C   UNL     1     -10.561  -9.135  13.989  1.00  0.00     0.020 A 
ATOM     67  C   UNL     1     -10.422 -10.473  13.616  1.00  0.00     0.054 A 
BRANCH  67  68
ATOM     68  S   UNL     1     -11.816 -11.374  12.883  1.00  0.00     0.124 S 
ATOM     69  O   UNL     1     -11.425 -11.437  11.477  1.00  0.00    -0.237 OA
ATOM     70  O   UNL     1     -11.789 -12.647  13.599  1.00  0.00    -0.237 OA
ATOM     71  O   UNL     1     -12.968 -10.524  13.173  1.00  0.00    -0.744 OA
ENDBRANCH  67  68
ENDBRANCH  48  62
BRANCH  49  72
ATOM     72  C   UNL     1      -0.494  -3.819  18.152  1.00  0.00    -0.014 A 
ATOM     73  C   UNL     1       0.431  -4.356  19.066  1.00  0.00     0.010 A 
ATOM     74  C   UNL     1      -0.330  -2.494  17.712  1.00  0.00     0.010 A 
ATOM     75  C   UNL     1       1.487  -3.577  19.547  1.00  0.00     0.020 A 
ATOM     76  C   UNL     1       0.740  -1.719  18.172  1.00  0.00     0.020 A 
ATOM     77  C   UNL     1       1.635  -2.262  19.096  1.00  0.00     0.054 A 
BRANCH  77  78
ATOM     78  S   UNL     1       3.043  -1.284  19.692  1.00  0.00     0.124 S 
ATOM     79  O   UNL     1       2.612  -0.920  21.037  1.00  0.00    -0.237 OA
ATOM     80  O   UNL     1       4.147  -2.238  19.617  1.00  0.00    -0.237 OA
ATOM     81  O   UNL     1       3.119  -0.181  18.736  1.00  0.00    -0.744 OA
ENDBRANCH  77  78
ENDBRANCH  49  72
BRANCH  61  82
ATOM     82  C   UNL     1      -6.325  -6.275  21.080  1.00  0.00    -0.014 A 
ATOM     83  C   UNL     1      -6.880  -5.086  21.583  1.00  0.00     0.010 A 
ATOM     84  C   UNL     1      -6.338  -7.433  21.879  1.00  0.00     0.010 A 
ATOM     85  C   UNL     1      -7.416  -5.049  22.872  1.00  0.00     0.020 A 
ATOM     86  C   UNL     1      -6.894  -7.406  23.160  1.00  0.00     0.020 A 
ATOM     87  C   UNL     1      -7.419  -6.210  23.653  1.00  0.00     0.054 A 
BRANCH  87  88
ATOM     88  S   UNL     1      -8.166  -6.151  25.305  1.00  0.00     0.124 S 
ATOM     89  O   UNL     1      -7.138  -5.462  26.078  1.00  0.00    -0.237 OA
ATOM     90  O   UNL     1      -9.395  -5.394  25.076  1.00  0.00    -0.237 OA
ATOM     91  O   UNL     1      -8.364  -7.559  25.644  1.00  0.00    -0.744 OA
ENDBRANCH  87  88
ENDBRANCH  61  82
ENDBRANCH  35  36
ENDBRANCH  27  30
ENDBRANCH  25  26
ENDBRANCH   1  25
TORSDOF 15
