REMARK SMILES CC(=O)NCC(=O)N1[C@@H](C(=O)NCCCNC(=O)c2ccc(-c3c4nc(c(-c5ccc(S(=O)(=O)[O-])cc5)c5ccc([nH]5)c(-c5ccc(S(=O)(=O)[O-])cc5)c5nc(c(-c6ccc(S(=O)(=O)[O-])cc6)c6ccc3[nH]6)C=C5)C=C4)cc2)CC[C@H]2CCCC[C@H]21
REMARK SMILES IDX 14 1 13 2 12 3 10 4 11 5 9 7 8 8 86 9 79 10 81 11 85 12
REMARK SMILES IDX 80 13 82 14 84 15 83 16 6 17 7 18 5 19 4 20 1 21 2 22 3 23
REMARK SMILES IDX 15 25 16 26 17 27 18 29 19 30 20 31 78 32 21 33 77 34 22 35
REMARK SMILES IDX 23 36 24 37 71 38 25 39 76 40 70 41 72 42 26 43 75 44 69 45
REMARK SMILES IDX 68 46 27 48 57 49 38 50 56 51 39 52 42 53 55 54 73 55 40 56
REMARK SMILES IDX 41 57 54 59 74 60 43 61 28 62 29 63 37 64 30 65 36 66 31 67
REMARK SMILES IDX 32 68 33 69 34 70 35 71 58 72 59 73 67 74 60 75 66 76 61 77
REMARK SMILES IDX 62 78 63 79 64 80 65 81 44 82 45 83 53 84 46 85 52 86 47 87
REMARK SMILES IDX 48 88 49 89 50 90 51 91
REMARK H PARENT 12 6 4 24 16 28 72 47 42 58
REMARK Flexibility Score: inf
ROOT
ATOM      1  C   UNL     1       1.815   4.904   4.587  1.00  0.00     0.042 C 
ENDROOT
BRANCH   1   2
ATOM      2  C   UNL     1       1.973   3.519   3.991  1.00  0.00     0.117 C 
BRANCH   2   3
ATOM      3  N   UNL     1       1.507   3.452   2.618  1.00  0.00    -0.354 N 
ATOM      4  C   UNL     1       2.148   2.978   1.514  1.00  0.00     0.242 C 
ATOM      5  O   UNL     1       1.615   3.148   0.413  1.00  0.00    -0.273 OA
ATOM      6  H   UNL     1       0.598   3.799   2.463  1.00  0.00     0.163 HD
BRANCH   4   7
ATOM      7  C   UNL     1       3.578   2.400   1.587  1.00  0.00     0.174 C 
ATOM      8  N   UNL     1       3.917   1.514   2.730  1.00  0.00    -0.326 N 
ATOM      9  C   UNL     1       5.353   1.201   2.862  1.00  0.00     0.089 C 
ATOM     10  C   UNL     1       4.478   3.659   1.552  1.00  0.00     0.036 C 
ATOM     11  C   UNL     1       6.213   2.466   2.961  1.00  0.00     0.012 C 
ATOM     12  C   UNL     1       5.786   0.222   3.961  1.00  0.00     0.025 C 
ATOM     13  C   UNL     1       5.957   3.378   1.759  1.00  0.00     0.008 C 
ATOM     14  C   UNL     1       6.056   3.186   4.312  1.00  0.00     0.006 C 
ATOM     15  C   UNL     1       5.921   0.829   5.356  1.00  0.00     0.002 C 
ATOM     16  C   UNL     1       5.566   2.305   5.463  1.00  0.00     0.000 C 
BRANCH   8  17
ATOM     17  C   UNL     1       3.009   0.595   3.254  1.00  0.00     0.242 C 
ATOM     18  O   UNL     1       2.912   0.417   4.471  1.00  0.00    -0.273 OA
BRANCH  17  19
ATOM     19  C   UNL     1       2.103  -0.177   2.296  1.00  0.00     0.216 C 
BRANCH  19  20
ATOM     20  N   UNL     1       0.806   0.433   2.099  1.00  0.00    -0.347 N 
ATOM     21  C   UNL     1       0.673  -0.169  -0.280  1.00  0.00     0.114 C 
ATOM     22  C   UNL     1       0.071   0.458   0.949  1.00  0.00     0.217 C 
ATOM     23  O   UNL     1      -1.051   0.959   0.949  1.00  0.00    -0.275 OA
ATOM     24  H   UNL     1       0.409   0.880   2.881  1.00  0.00     0.164 HD
ENDBRANCH  19  20
ENDBRANCH  17  19
ENDBRANCH   8  17
ENDBRANCH   4   7
ENDBRANCH   2   3
ENDBRANCH   1   2
BRANCH   1  25
ATOM     25  C   UNL     1       0.367   5.291   4.823  1.00  0.00     0.118 C 
BRANCH  25  26
ATOM     26  N   UNL     1      -0.270   4.486   5.857  1.00  0.00    -0.352 N 
ATOM     27  C   UNL     1      -0.895   4.891   7.013  1.00  0.00     0.251 C 
ATOM     28  H   UNL     1      -0.249   3.513   5.706  1.00  0.00     0.163 HD
ATOM     29  O   UNL     1      -1.234   4.070   7.853  1.00  0.00    -0.269 OA
BRANCH  27  30
ATOM     30  C   UNL     1      -1.118   6.335   7.242  1.00  0.00     0.039 A 
ATOM     31  C   UNL     1      -0.796   6.880   8.486  1.00  0.00     0.014 A 
ATOM     32  C   UNL     1      -1.600   7.150   6.215  1.00  0.00     0.014 A 
ATOM     33  C   UNL     1      -0.886   8.260   8.673  1.00  0.00     0.010 A 
ATOM     34  C   UNL     1      -1.592   8.530   6.372  1.00  0.00     0.010 A 
ATOM     35  C   UNL     1      -1.243   9.100   7.604  1.00  0.00    -0.014 A 
BRANCH  35  36
ATOM     36  C   UNL     1      -1.264  10.576   7.756  1.00  0.00     0.031 A 
ATOM     37  C   UNL     1      -2.552  11.332   7.571  1.00  0.00     0.074 A 
ATOM     38  C   UNL     1      -0.114  11.239   7.994  1.00  0.00     0.049 A 
ATOM     39  N   UNL     1      -2.763  12.622   7.615  1.00  0.00    -0.248 NA
ATOM     40  C   UNL     1      -3.755  10.538   7.268  1.00  0.00     0.031 C 
ATOM     41  C   UNL     1       1.208  10.622   8.138  1.00  0.00     0.029 A 
ATOM     42  N   UNL     1       0.128  12.580   8.155  1.00  0.00    -0.354 N 
ATOM     43  C   UNL     1      -4.111  12.794   7.326  1.00  0.00     0.074 A 
ATOM     44  C   UNL     1      -4.657  11.483   7.053  1.00  0.00     0.031 C 
ATOM     45  C   UNL     1       2.114  11.579   8.400  1.00  0.00     0.029 A 
ATOM     46  C   UNL     1       1.448  12.877   8.403  1.00  0.00     0.049 A 
ATOM     47  H   UNL     1      -0.576  13.265   8.098  1.00  0.00     0.167 HD
ATOM     48  C   UNL     1      -4.838  13.936   7.314  1.00  0.00     0.031 A 
ATOM     49  C   UNL     1       2.054  14.062   8.610  1.00  0.00     0.031 A 
ATOM     50  C   UNL     1      -4.294  15.235   7.606  1.00  0.00     0.049 A 
ATOM     51  C   UNL     1       1.226  15.317   8.600  1.00  0.00     0.074 A 
ATOM     52  C   UNL     1      -4.957  16.447   7.682  1.00  0.00     0.029 A 
ATOM     53  N   UNL     1      -2.957  15.491   7.871  1.00  0.00    -0.354 N 
ATOM     54  N   UNL     1      -0.063  15.451   8.396  1.00  0.00    -0.248 NA
ATOM     55  C   UNL     1       1.931  16.579   8.862  1.00  0.00     0.031 C 
ATOM     56  C   UNL     1      -4.011  17.444   7.945  1.00  0.00     0.029 A 
ATOM     57  C   UNL     1      -2.770  16.845   8.091  1.00  0.00     0.049 A 
ATOM     58  H   UNL     1      -2.246  14.810   7.899  1.00  0.00     0.167 HD
ATOM     59  C   UNL     1      -0.328  16.809   8.531  1.00  0.00     0.074 A 
ATOM     60  C   UNL     1       0.931  17.451   8.849  1.00  0.00     0.031 C 
ATOM     61  C   UNL     1      -1.508  17.465   8.405  1.00  0.00     0.031 A 
BRANCH  48  62
ATOM     62  C   UNL     1      -6.301  13.827   6.975  1.00  0.00    -0.014 A 
ATOM     63  C   UNL     1      -7.207  13.210   7.857  1.00  0.00     0.010 A 
ATOM     64  C   UNL     1      -6.784  14.374   5.772  1.00  0.00     0.010 A 
ATOM     65  C   UNL     1      -8.560  13.104   7.525  1.00  0.00     0.020 A 
ATOM     66  C   UNL     1      -8.142  14.296   5.449  1.00  0.00     0.020 A 
ATOM     67  C   UNL     1      -9.018  13.646   6.320  1.00  0.00     0.054 A 
BRANCH  67  68
ATOM     68  S   UNL     1     -10.783  13.516   5.925  1.00  0.00     0.124 S 
ATOM     69  O   UNL     1     -10.912  12.100   5.586  1.00  0.00    -0.237 OA
ATOM     70  O   UNL     1     -11.422  13.922   7.175  1.00  0.00    -0.237 OA
ATOM     71  O   UNL     1     -10.959  14.442   4.810  1.00  0.00    -0.744 OA
ENDBRANCH  67  68
ENDBRANCH  48  62
BRANCH  49  72
ATOM     72  C   UNL     1       3.520  14.112   8.867  1.00  0.00    -0.014 A 
ATOM     73  C   UNL     1       4.009  14.429  10.147  1.00  0.00     0.010 A 
ATOM     74  C   UNL     1       4.435  13.827   7.837  1.00  0.00     0.010 A 
ATOM     75  C   UNL     1       5.386  14.477  10.388  1.00  0.00     0.020 A 
ATOM     76  C   UNL     1       5.811  13.848   8.081  1.00  0.00     0.020 A 
ATOM     77  C   UNL     1       6.278  14.184   9.353  1.00  0.00     0.054 A 
BRANCH  77  78
ATOM     78  S   UNL     1       8.059  14.201   9.701  1.00  0.00     0.124 S 
ATOM     79  O   UNL     1       8.337  15.631   9.793  1.00  0.00    -0.237 OA
ATOM     80  O   UNL     1       8.143  13.458  10.956  1.00  0.00    -0.237 OA
ATOM     81  O   UNL     1       8.639  13.522   8.545  1.00  0.00    -0.744 OA
ENDBRANCH  77  78
ENDBRANCH  49  72
BRANCH  61  82
ATOM     82  C   UNL     1      -1.502  18.951   8.644  1.00  0.00    -0.014 A 
ATOM     83  C   UNL     1      -0.932  19.837   7.713  1.00  0.00     0.010 A 
ATOM     84  C   UNL     1      -2.128  19.470   9.793  1.00  0.00     0.010 A 
ATOM     85  C   UNL     1      -0.962  21.215   7.943  1.00  0.00     0.020 A 
ATOM     86  C   UNL     1      -2.184  20.848  10.011  1.00  0.00     0.020 A 
ATOM     87  C   UNL     1      -1.587  21.712   9.091  1.00  0.00     0.054 A 
BRANCH  87  88
ATOM     88  S   UNL     1      -1.651  23.506   9.343  1.00  0.00     0.124 S 
ATOM     89  O   UNL     1      -0.276  23.807   9.731  1.00  0.00    -0.237 OA
ATOM     90  O   UNL     1      -2.057  24.001   8.030  1.00  0.00    -0.237 OA
ATOM     91  O   UNL     1      -2.647  23.673  10.400  1.00  0.00    -0.744 OA
ENDBRANCH  87  88
ENDBRANCH  61  82
ENDBRANCH  35  36
ENDBRANCH  27  30
ENDBRANCH  25  26
ENDBRANCH   1  25
TORSDOF 16
