REMARK SMILES CC(C)CCc1cc2c(cc1Cl)C=C(C(=O)NCCCNC(=O)c1ccc(-c3c4nc(c(-c5ccc(S(=O)(=O)[O-])cc5)c5ccc([nH]5)c(-c5ccc(S(=O)(=O)[O-])cc5)c5nc(c(-c6ccc(S(=O)(=O)[O-])cc6)c6ccc3[nH]6)C=C5)C=C4)cc1)[C@@H](C(F)(F)F)O2
REMARK SMILES IDX 19 1 18 2 17 3 15 4 16 5 14 7 6 8 7 9 11 10 8 11 10 12 12 13
REMARK SMILES IDX 9 14 89 15 13 16 84 17 5 18 4 19 2 20 1 21 3 22 85 23 86 24
REMARK SMILES IDX 87 25 88 26 20 27 21 28 22 29 23 31 24 32 25 33 83 34 26 35
REMARK SMILES IDX 82 36 27 37 28 38 29 39 76 40 30 41 81 42 75 43 77 44 31 45
REMARK SMILES IDX 80 46 74 47 73 48 32 50 62 51 43 52 61 53 44 54 47 55 60 56
REMARK SMILES IDX 78 57 45 58 46 59 59 61 79 62 48 63 33 64 34 65 42 66 35 67
REMARK SMILES IDX 41 68 36 69 37 70 38 71 39 72 40 73 63 74 64 75 72 76 65 77
REMARK SMILES IDX 71 78 66 79 67 80 68 81 69 82 70 83 49 84 50 85 58 86 51 87
REMARK SMILES IDX 57 88 52 89 53 90 54 91 55 92 56 93
REMARK H PARENT 17 6 21 30 77 49 47 60
REMARK Flexibility Score: inf
ROOT
ATOM      1  C   UNL     1      -0.619   9.926  -4.416  1.00  0.00     0.042 C 
ENDROOT
BRANCH   1   2
ATOM      2  C   UNL     1      -1.519   8.970  -5.181  1.00  0.00     0.118 C 
BRANCH   2   3
ATOM      3  N   UNL     1      -0.759   8.110  -6.074  1.00  0.00    -0.352 N 
ATOM      4  C   UNL     1      -0.354   6.820  -6.101  1.00  0.00     0.251 C 
ATOM      5  O   UNL     1       0.309   6.500  -7.092  1.00  0.00    -0.270 OA
ATOM      6  H   UNL     1      -0.457   8.598  -6.874  1.00  0.00     0.163 HD
BRANCH   4   7
ATOM      7  C   UNL     1      -0.664   5.801  -5.060  1.00  0.00     0.067 C 
ATOM      8  C   UNL     1      -1.223   1.502  -2.470  1.00  0.00    -0.026 A 
ATOM      9  C   UNL     1      -1.280   2.873  -2.142  1.00  0.00     0.052 A 
ATOM     10  C   UNL     1      -0.854   1.166  -3.786  1.00  0.00     0.045 A 
ATOM     11  C   UNL     1      -0.979   3.853  -3.085  1.00  0.00     0.128 A 
ATOM     12  C   UNL     1      -0.476   2.158  -4.706  1.00  0.00     0.032 A 
ATOM     13  Cl  UNL     1      -0.893  -0.444  -4.409  1.00  0.00    -0.084 Cl
ATOM     14  C   UNL     1      -0.546   3.504  -4.359  1.00  0.00     0.019 A 
ATOM     15  O   UNL     1      -1.138   5.159  -2.711  1.00  0.00    -0.475 OA
ATOM     16  C   UNL     1      -0.210   4.558  -5.308  1.00  0.00     0.025 C 
ATOM     17  C   UNL     1      -1.464   6.060  -3.812  1.00  0.00     0.314 C 
BRANCH   8  18
ATOM     18  C   UNL     1      -1.671   0.538  -1.388  1.00  0.00     0.037 C 
BRANCH  18  19
ATOM     19  C   UNL     1      -0.963  -0.813  -1.215  1.00  0.00     0.008 C 
BRANCH  19  20
ATOM     20  C   UNL     1       0.573  -0.753  -1.126  1.00  0.00    -0.017 C 
ATOM     21  C   UNL     1       1.042  -0.174   0.208  1.00  0.00     0.007 C 
ATOM     22  C   UNL     1       1.152  -2.157  -1.323  1.00  0.00     0.007 C 
ENDBRANCH  19  20
ENDBRANCH  18  19
ENDBRANCH   8  18
BRANCH  17  23
ATOM     23  C   UNL     1      -2.986   6.041  -4.076  1.00  0.00     0.429 C 
ATOM     24  F   UNL     1      -3.654   6.644  -3.062  1.00  0.00    -0.167 F 
ATOM     25  F   UNL     1      -3.324   6.705  -5.209  1.00  0.00    -0.167 F 
ATOM     26  F   UNL     1      -3.487   4.791  -4.202  1.00  0.00    -0.167 F 
ENDBRANCH  17  23
ENDBRANCH   4   7
ENDBRANCH   2   3
ENDBRANCH   1   2
BRANCH   1  27
ATOM     27  C   UNL     1      -0.118  11.073  -5.283  1.00  0.00     0.118 C 
BRANCH  27  28
ATOM     28  N   UNL     1      -1.198  11.971  -5.690  1.00  0.00    -0.352 N 
ATOM     29  C   UNL     1      -1.424  13.287  -5.364  1.00  0.00     0.251 C 
ATOM     30  H   UNL     1      -1.867  11.570  -6.291  1.00  0.00     0.163 HD
ATOM     31  O   UNL     1      -2.505  13.805  -5.632  1.00  0.00    -0.269 OA
BRANCH  29  32
ATOM     32  C   UNL     1      -0.375  14.062  -4.673  1.00  0.00     0.039 A 
ATOM     33  C   UNL     1       0.959  13.926  -5.056  1.00  0.00     0.014 A 
ATOM     34  C   UNL     1      -0.720  14.912  -3.618  1.00  0.00     0.014 A 
ATOM     35  C   UNL     1       1.957  14.464  -4.259  1.00  0.00     0.010 A 
ATOM     36  C   UNL     1       0.287  15.550  -2.888  1.00  0.00     0.010 A 
ATOM     37  C   UNL     1       1.636  15.286  -3.166  1.00  0.00    -0.014 A 
BRANCH  37  38
ATOM     38  C   UNL     1       2.740  15.852  -2.349  1.00  0.00     0.031 A 
ATOM     39  C   UNL     1       2.890  15.493  -0.895  1.00  0.00     0.074 A 
ATOM     40  C   UNL     1       3.662  16.628  -2.953  1.00  0.00     0.049 A 
ATOM     41  N   UNL     1       3.837  15.841  -0.061  1.00  0.00    -0.248 NA
ATOM     42  C   UNL     1       1.849  14.644  -0.293  1.00  0.00     0.031 C 
ATOM     43  C   UNL     1       3.624  17.025  -4.363  1.00  0.00     0.029 A 
ATOM     44  N   UNL     1       4.829  17.174  -2.485  1.00  0.00    -0.354 N 
ATOM     45  C   UNL     1       3.492  15.282   1.164  1.00  0.00     0.074 A 
ATOM     46  C   UNL     1       2.238  14.590   0.974  1.00  0.00     0.031 C 
ATOM     47  C   UNL     1       4.759  17.667  -4.668  1.00  0.00     0.029 A 
ATOM     48  C   UNL     1       5.567  17.805  -3.460  1.00  0.00     0.049 A 
ATOM     49  H   UNL     1       5.111  17.121  -1.544  1.00  0.00     0.167 HD
ATOM     50  C   UNL     1       4.166  15.337   2.337  1.00  0.00     0.031 A 
ATOM     51  C   UNL     1       6.759  18.429  -3.400  1.00  0.00     0.031 A 
ATOM     52  C   UNL     1       5.428  16.009   2.508  1.00  0.00     0.049 A 
ATOM     53  C   UNL     1       7.482  18.490  -2.089  1.00  0.00     0.074 A 
ATOM     54  C   UNL     1       6.202  16.098   3.652  1.00  0.00     0.029 A 
ATOM     55  N   UNL     1       6.105  16.700   1.513  1.00  0.00    -0.354 N 
ATOM     56  N   UNL     1       7.136  17.958  -0.941  1.00  0.00    -0.248 NA
ATOM     57  C   UNL     1       8.744  19.238  -2.056  1.00  0.00     0.031 C 
ATOM     58  C   UNL     1       7.314  16.893   3.365  1.00  0.00     0.029 A 
ATOM     59  C   UNL     1       7.271  17.243   2.025  1.00  0.00     0.049 A 
ATOM     60  H   UNL     1       5.800  16.791   0.581  1.00  0.00     0.167 HD
ATOM     61  C   UNL     1       8.136  18.309  -0.045  1.00  0.00     0.074 A 
ATOM     62  C   UNL     1       9.114  19.078  -0.790  1.00  0.00     0.031 C 
ATOM     63  C   UNL     1       8.228  18.023   1.277  1.00  0.00     0.031 A 
BRANCH  50  64
ATOM     64  C   UNL     1       3.551  14.674   3.543  1.00  0.00    -0.014 A 
ATOM     65  C   UNL     1       3.089  15.468   4.610  1.00  0.00     0.010 A 
ATOM     66  C   UNL     1       3.503  13.274   3.664  1.00  0.00     0.010 A 
ATOM     67  C   UNL     1       2.603  14.878   5.779  1.00  0.00     0.020 A 
ATOM     68  C   UNL     1       2.991  12.679   4.823  1.00  0.00     0.020 A 
ATOM     69  C   UNL     1       2.561  13.485   5.880  1.00  0.00     0.054 A 
BRANCH  69  70
ATOM     70  S   UNL     1       1.912  12.732   7.398  1.00  0.00     0.124 S 
ATOM     71  O   UNL     1       3.046  12.846   8.309  1.00  0.00    -0.237 OA
ATOM     72  O   UNL     1       0.761  13.577   7.710  1.00  0.00    -0.237 OA
ATOM     73  O   UNL     1       1.575  11.371   6.983  1.00  0.00    -0.744 OA
ENDBRANCH  69  70
ENDBRANCH  50  64
BRANCH  51  74
ATOM     74  C   UNL     1       7.320  19.009  -4.651  1.00  0.00    -0.014 A 
ATOM     75  C   UNL     1       6.687  20.106  -5.267  1.00  0.00     0.010 A 
ATOM     76  C   UNL     1       8.383  18.371  -5.312  1.00  0.00     0.010 A 
ATOM     77  C   UNL     1       7.046  20.496  -6.559  1.00  0.00     0.020 A 
ATOM     78  C   UNL     1       8.766  18.781  -6.594  1.00  0.00     0.020 A 
ATOM     79  C   UNL     1       8.066  19.813  -7.224  1.00  0.00     0.054 A 
BRANCH  79  80
ATOM     80  S   UNL     1       8.437  20.260  -8.943  1.00  0.00     0.124 S 
ATOM     81  O   UNL     1       7.333  19.626  -9.659  1.00  0.00    -0.237 OA
ATOM     82  O   UNL     1       8.409  21.720  -8.908  1.00  0.00    -0.237 OA
ATOM     83  O   UNL     1       9.753  19.669  -9.173  1.00  0.00    -0.744 OA
ENDBRANCH  79  80
ENDBRANCH  51  74
BRANCH  63  84
ATOM     84  C   UNL     1       9.417  18.552   2.032  1.00  0.00    -0.014 A 
ATOM     85  C   UNL     1      10.391  17.659   2.515  1.00  0.00     0.010 A 
ATOM     86  C   UNL     1       9.498  19.912   2.378  1.00  0.00     0.010 A 
ATOM     87  C   UNL     1      11.405  18.109   3.363  1.00  0.00     0.020 A 
ATOM     88  C   UNL     1      10.527  20.371   3.205  1.00  0.00     0.020 A 
ATOM     89  C   UNL     1      11.458  19.461   3.713  1.00  0.00     0.054 A 
BRANCH  89  90
ATOM     90  S   UNL     1      12.759  20.021   4.846  1.00  0.00     0.124 S 
ATOM     91  O   UNL     1      12.247  19.584   6.141  1.00  0.00    -0.237 OA
ATOM     92  O   UNL     1      13.938  19.306   4.362  1.00  0.00    -0.237 OA
ATOM     93  O   UNL     1      12.790  21.467   4.642  1.00  0.00    -0.744 OA
ENDBRANCH  89  90
ENDBRANCH  63  84
ENDBRANCH  37  38
ENDBRANCH  29  32
ENDBRANCH  27  28
ENDBRANCH   1  27
TORSDOF 17
