REMARK SMILES CC(C)(C)OC(=O)[C@]1(C(=O)NCCCNC(=O)c2ccc(-c3c4nc(c(-c5ccc(S(=O)(=O)[O-])cc5)c5ccc([nH]5)c(-c5ccc(S(=O)(=O)[O-])cc5)c5nc(c(-c6ccc(S(=O)(=O)[O-])cc6)c6ccc3[nH]6)C=C5)C=C4)cc2)CC=CC[C@@H]1[NH3+]
REMARK SMILES IDX 13 1 12 2 11 3 9 4 10 5 8 7 78 8 82 9 79 10 81 11 80 12 6 13
REMARK SMILES IDX 7 14 5 15 2 16 1 17 3 18 4 19 83 20 14 24 15 25 16 26 17 28
REMARK SMILES IDX 18 29 19 30 77 31 20 32 76 33 21 34 22 35 23 36 70 37 24 38
REMARK SMILES IDX 75 39 69 40 71 41 25 42 74 43 68 44 67 45 26 47 56 48 37 49
REMARK SMILES IDX 55 50 38 51 41 52 54 53 72 54 39 55 40 56 53 58 73 59 42 60
REMARK SMILES IDX 27 61 28 62 36 63 29 64 35 65 30 66 31 67 32 68 33 69 34 70
REMARK SMILES IDX 57 71 58 72 66 73 59 74 65 75 60 76 61 77 62 78 63 79 64 80
REMARK SMILES IDX 43 81 44 82 52 83 45 84 51 85 46 86 47 87 48 88 49 89 50 90
REMARK H PARENT 11 6 83 21 83 22 83 23 15 27 71 46 41 57
REMARK Flexibility Score: inf
ROOT
ATOM      1  C   UNL     1      -2.431  -3.361  -3.929  1.00  0.00     0.042 C 
ENDROOT
BRANCH   1   2
ATOM      2  C   UNL     1      -1.746  -2.016  -3.713  1.00  0.00     0.117 C 
BRANCH   2   3
ATOM      3  N   UNL     1      -0.514  -2.140  -2.946  1.00  0.00    -0.355 N 
ATOM      4  C   UNL     1       0.808  -2.018  -3.294  1.00  0.00     0.244 C 
ATOM      5  O   UNL     1       1.587  -2.078  -2.339  1.00  0.00    -0.274 OA
ATOM      6  H   UNL     1      -0.657  -2.352  -1.995  1.00  0.00     0.163 HD
BRANCH   4   7
ATOM      7  C   UNL     1       1.252  -1.716  -4.747  1.00  0.00     0.201 C 
ATOM      8  C   UNL     1       0.641  -2.794  -5.693  1.00  0.00     0.062 C 
ATOM      9  C   UNL     1       0.842  -0.219  -5.000  1.00  0.00     0.212 C 
ATOM     10  C   UNL     1      -0.215  -2.310  -6.820  1.00  0.00    -0.029 C 
ATOM     11  C   UNL     1       0.211   0.111  -6.369  1.00  0.00     0.093 C 
ATOM     12  C   UNL     1      -0.406  -1.022  -7.116  1.00  0.00    -0.025 C 
BRANCH   7  13
ATOM     13  C   UNL     1       2.749  -1.845  -5.033  1.00  0.00     0.328 C 
ATOM     14  O   UNL     1       3.214  -1.625  -6.150  1.00  0.00    -0.251 OA
BRANCH  13  15
ATOM     15  O   UNL     1       3.502  -2.210  -3.972  1.00  0.00    -0.459 OA
BRANCH  15  16
ATOM     16  C   UNL     1       4.938  -2.395  -4.079  1.00  0.00     0.104 C 
ATOM     17  C   UNL     1       5.426  -2.639  -2.642  1.00  0.00     0.056 C 
ATOM     18  C   UNL     1       5.642  -1.141  -4.613  1.00  0.00     0.056 C 
ATOM     19  C   UNL     1       5.246  -3.637  -4.921  1.00  0.00     0.056 C 
ENDBRANCH  15  16
ENDBRANCH  13  15
ENDBRANCH   7  13
BRANCH   9  20
ATOM     20  N   UNL     1       1.889   0.800  -4.724  1.00  0.00    -0.353 N 
ATOM     21  H   UNL     1       2.622   0.734  -5.430  1.00  0.00     0.344 HD
ATOM     22  H   UNL     1       2.291   0.633  -3.801  1.00  0.00     0.344 HD
ATOM     23  H   UNL     1       1.474   1.731  -4.751  1.00  0.00     0.344 HD
ENDBRANCH   9  20
ENDBRANCH   4   7
ENDBRANCH   2   3
ENDBRANCH   1   2
BRANCH   1  24
ATOM     24  C   UNL     1      -3.144  -3.875  -2.687  1.00  0.00     0.118 C 
BRANCH  24  25
ATOM     25  N   UNL     1      -4.349  -3.112  -2.395  1.00  0.00    -0.352 N 
ATOM     26  C   UNL     1      -5.646  -3.545  -2.283  1.00  0.00     0.251 C 
ATOM     27  H   UNL     1      -4.214  -2.147  -2.257  1.00  0.00     0.163 HD
ATOM     28  O   UNL     1      -6.559  -2.719  -2.246  1.00  0.00    -0.269 OA
BRANCH  26  29
ATOM     29  C   UNL     1      -5.951  -4.991  -2.226  1.00  0.00     0.039 A 
ATOM     30  C   UNL     1      -7.056  -5.482  -2.927  1.00  0.00     0.014 A 
ATOM     31  C   UNL     1      -5.160  -5.862  -1.471  1.00  0.00     0.014 A 
ATOM     32  C   UNL     1      -7.334  -6.851  -2.913  1.00  0.00     0.010 A 
ATOM     33  C   UNL     1      -5.385  -7.233  -1.531  1.00  0.00     0.010 A 
ATOM     34  C   UNL     1      -6.483  -7.743  -2.241  1.00  0.00    -0.014 A 
BRANCH  34  35
ATOM     35  C   UNL     1      -6.730  -9.207  -2.242  1.00  0.00     0.031 A 
ATOM     36  C   UNL     1      -7.000  -9.924  -0.944  1.00  0.00     0.074 A 
ATOM     37  C   UNL     1      -6.642  -9.903  -3.393  1.00  0.00     0.049 A 
ATOM     38  N   UNL     1      -7.146 -11.204  -0.724  1.00  0.00    -0.248 NA
ATOM     39  C   UNL     1      -7.088  -9.093   0.269  1.00  0.00     0.031 C 
ATOM     40  C   UNL     1      -6.356  -9.331  -4.711  1.00  0.00     0.029 A 
ATOM     41  N   UNL     1      -6.774 -11.247  -3.638  1.00  0.00    -0.354 N 
ATOM     42  C   UNL     1      -7.321 -11.334   0.650  1.00  0.00     0.074 A 
ATOM     43  C   UNL     1      -7.209 -10.009   1.218  1.00  0.00     0.031 C 
ATOM     44  C   UNL     1      -6.359 -10.313  -5.627  1.00  0.00     0.029 A 
ATOM     45  C   UNL     1      -6.596 -11.588  -4.959  1.00  0.00     0.049 A 
ATOM     46  H   UNL     1      -6.977 -11.906  -2.935  1.00  0.00     0.167 HD
ATOM     47  C   UNL     1      -7.571 -12.452   1.372  1.00  0.00     0.031 A 
ATOM     48  C   UNL     1      -6.608 -12.793  -5.563  1.00  0.00     0.031 A 
ATOM     49  C   UNL     1      -7.694 -13.767   0.801  1.00  0.00     0.049 A 
ATOM     50  C   UNL     1      -6.869 -14.024  -4.737  1.00  0.00     0.074 A 
ATOM     51  C   UNL     1      -7.998 -14.956   1.439  1.00  0.00     0.029 A 
ATOM     52  N   UNL     1      -7.517 -14.067  -0.542  1.00  0.00    -0.354 N 
ATOM     53  N   UNL     1      -7.089 -14.119  -3.447  1.00  0.00    -0.248 NA
ATOM     54  C   UNL     1      -6.894 -15.308  -5.449  1.00  0.00     0.031 C 
ATOM     55  C   UNL     1      -7.946 -15.984   0.493  1.00  0.00     0.029 A 
ATOM     56  C   UNL     1      -7.680 -15.426  -0.748  1.00  0.00     0.049 A 
ATOM     57  H   UNL     1      -7.306 -13.410  -1.244  1.00  0.00     0.167 HD
ATOM     58  C   UNL     1      -7.313 -15.469  -3.200  1.00  0.00     0.074 A 
ATOM     59  C   UNL     1      -7.213 -16.149  -4.475  1.00  0.00     0.031 C 
ATOM     60  C   UNL     1      -7.583 -16.088  -2.024  1.00  0.00     0.031 A 
BRANCH  47  61
ATOM     61  C   UNL     1      -7.720 -12.302   2.865  1.00  0.00    -0.014 A 
ATOM     62  C   UNL     1      -8.822 -11.629   3.425  1.00  0.00     0.010 A 
ATOM     63  C   UNL     1      -6.764 -12.875   3.723  1.00  0.00     0.010 A 
ATOM     64  C   UNL     1      -8.941 -11.495   4.810  1.00  0.00     0.020 A 
ATOM     65  C   UNL     1      -6.897 -12.772   5.111  1.00  0.00     0.020 A 
ATOM     66  C   UNL     1      -7.976 -12.066   5.645  1.00  0.00     0.054 A 
BRANCH  66  67
ATOM     67  S   UNL     1      -8.171 -11.895   7.440  1.00  0.00     0.124 S 
ATOM     68  O   UNL     1      -7.876 -10.478   7.641  1.00  0.00    -0.237 OA
ATOM     69  O   UNL     1      -9.563 -12.283   7.649  1.00  0.00    -0.237 OA
ATOM     70  O   UNL     1      -7.180 -12.820   7.987  1.00  0.00    -0.744 OA
ENDBRANCH  66  67
ENDBRANCH  47  61
BRANCH  48  71
ATOM     71  C   UNL     1      -6.376 -12.892  -7.031  1.00  0.00    -0.014 A 
ATOM     72  C   UNL     1      -7.420 -13.264  -7.897  1.00  0.00     0.010 A 
ATOM     73  C   UNL     1      -5.110 -12.604  -7.574  1.00  0.00     0.010 A 
ATOM     74  C   UNL     1      -7.197 -13.368  -9.274  1.00  0.00     0.020 A 
ATOM     75  C   UNL     1      -4.891 -12.676  -8.952  1.00  0.00     0.020 A 
ATOM     76  C   UNL     1      -5.934 -13.070  -9.793  1.00  0.00     0.054 A 
BRANCH  76  77
ATOM     77  S   UNL     1      -5.682 -13.164 -11.587  1.00  0.00     0.124 S 
ATOM     78  O   UNL     1      -5.705 -14.604 -11.821  1.00  0.00    -0.237 OA
ATOM     79  O   UNL     1      -6.827 -12.419 -12.105  1.00  0.00    -0.237 OA
ATOM     80  O   UNL     1      -4.386 -12.518 -11.785  1.00  0.00    -0.744 OA
ENDBRANCH  76  77
ENDBRANCH  48  71
BRANCH  60  81
ATOM     81  C   UNL     1      -7.838 -17.573  -2.060  1.00  0.00    -0.014 A 
ATOM     82  C   UNL     1      -6.801 -18.491  -2.302  1.00  0.00     0.010 A 
ATOM     83  C   UNL     1      -9.131 -18.056  -1.782  1.00  0.00     0.010 A 
ATOM     84  C   UNL     1      -7.060 -19.865  -2.294  1.00  0.00     0.020 A 
ATOM     85  C   UNL     1      -9.386 -19.428  -1.742  1.00  0.00     0.020 A 
ATOM     86  C   UNL     1      -8.351 -20.324  -2.011  1.00  0.00     0.054 A 
BRANCH  86  87
ATOM     87  S   UNL     1      -8.648 -22.113  -1.956  1.00  0.00     0.124 S 
ATOM     88  O   UNL     1      -8.572 -22.477  -3.368  1.00  0.00    -0.237 OA
ATOM     89  O   UNL     1      -7.549 -22.593  -1.123  1.00  0.00    -0.237 OA
ATOM     90  O   UNL     1      -9.974 -22.226  -1.354  1.00  0.00    -0.744 OA
ENDBRANCH  86  87
ENDBRANCH  60  81
ENDBRANCH  34  35
ENDBRANCH  26  29
ENDBRANCH  24  25
ENDBRANCH   1  24
TORSDOF 17
