REMARK SMILES CC1(C)[C@@H](C(=O)NCCCNC(=O)c2ccc(-c3c4nc(c(-c5ccc(S(=O)(=O)[O-])cc5)c5ccc([nH]5)c(-c5ccc(S(=O)(=O)[O-])cc5)c5nc(c(-c6ccc(S(=O)(=O)[O-])cc6)c6ccc3[nH]6)C=C5)C=C4)cc2)[C@@H]1C(=O)NCCc1ccc(S(N)(=O)=O)cc1
REMARK SMILES IDX 5 1 6 2 7 3 4 5 1 6 2 7 3 8 74 9 75 10 76 11 77 12 78 14
REMARK SMILES IDX 79 15 80 16 81 17 89 18 82 19 88 20 83 21 84 22 86 23 87 24
REMARK SMILES IDX 85 25 8 28 9 29 10 30 11 31 12 32 13 34 14 35 15 36 73 37
REMARK SMILES IDX 16 38 72 39 17 40 18 41 19 42 66 43 20 44 71 45 65 46 67 47
REMARK SMILES IDX 21 48 70 49 64 50 63 51 22 53 52 54 33 55 51 56 34 57 37 58
REMARK SMILES IDX 50 59 68 60 35 61 36 62 49 64 69 65 38 66 23 67 24 68 32 69
REMARK SMILES IDX 25 70 31 71 26 72 27 73 28 74 29 75 30 76 53 77 54 78 62 79
REMARK SMILES IDX 55 80 61 81 56 82 57 83 58 84 59 85 60 86 39 87 40 88 48 89
REMARK SMILES IDX 41 90 47 91 42 92 43 93 44 94 45 95 46 96
REMARK H PARENT 7 4 77 13 85 26 85 27 11 33 67 52 37 63
REMARK Flexibility Score: inf
ROOT
ATOM      1  C   UNL     1      -1.318  -1.296  -1.468  1.00  0.00     0.224 C 
ATOM      2  O   UNL     1      -0.671  -1.598  -2.467  1.00  0.00    -0.275 OA
ATOM      3  N   UNL     1      -2.352  -2.102  -1.080  1.00  0.00    -0.356 N 
ATOM      4  H   UNL     1      -2.463  -2.909  -1.634  1.00  0.00     0.163 HD
ENDROOT
BRANCH   1   5
ATOM      5  C   UNL     1      -0.975  -0.048  -0.739  1.00  0.00     0.098 C 
ATOM      6  C   UNL     1       1.219  -1.183   0.103  1.00  0.00     0.013 C 
ATOM      7  C   UNL     1       0.354   0.051   0.001  1.00  0.00    -0.011 C 
ATOM      8  C   UNL     1       1.149   1.324  -0.168  1.00  0.00     0.013 C 
ATOM      9  C   UNL     1      -0.967   0.078   0.766  1.00  0.00     0.098 C 
BRANCH   9  10
ATOM     10  C   UNL     1      -1.378   1.295   1.514  1.00  0.00     0.224 C 
ATOM     11  O   UNL     1      -0.741   1.608   2.516  1.00  0.00    -0.275 OA
ATOM     12  N   UNL     1      -2.467   2.044   1.158  1.00  0.00    -0.355 N 
ATOM     13  H   UNL     1      -2.628   2.815   1.748  1.00  0.00     0.163 HD
BRANCH  12  14
ATOM     14  C   UNL     1      -3.434   1.920   0.077  1.00  0.00     0.120 C 
BRANCH  14  15
ATOM     15  C   UNL     1      -4.810   1.446   0.544  1.00  0.00     0.056 C 
BRANCH  15  16
ATOM     16  C   UNL     1      -5.681   2.510   1.157  1.00  0.00    -0.046 A 
ATOM     17  C   UNL     1      -5.549   2.849   2.510  1.00  0.00     0.005 A 
ATOM     18  C   UNL     1      -6.668   3.137   0.379  1.00  0.00     0.005 A 
ATOM     19  C   UNL     1      -6.399   3.797   3.082  1.00  0.00     0.022 A 
ATOM     20  C   UNL     1      -7.524   4.077   0.949  1.00  0.00     0.022 A 
ATOM     21  C   UNL     1      -7.390   4.396   2.301  1.00  0.00     0.082 A 
BRANCH  21  22
ATOM     22  S   UNL     1      -8.429   5.644   3.013  1.00  0.00     0.238 S 
ATOM     23  O   UNL     1      -7.619   6.419   3.925  1.00  0.00    -0.207 OA
ATOM     24  O   UNL     1      -9.194   6.243   1.947  1.00  0.00    -0.207 OA
BRANCH  22  25
ATOM     25  N   UNL     1      -9.491   4.741   3.949  1.00  0.00    -0.225 NA
ATOM     26  H   UNL     1      -8.980   4.302   4.715  1.00  0.00     0.137 HD
ATOM     27  H   UNL     1      -9.924   4.020   3.372  1.00  0.00     0.137 HD
ENDBRANCH  22  25
ENDBRANCH  21  22
ENDBRANCH  15  16
ENDBRANCH  14  15
ENDBRANCH  12  14
ENDBRANCH   9  10
ENDBRANCH   1   5
BRANCH   3  28
ATOM     28  C   UNL     1      -3.317  -1.986  -0.001  1.00  0.00     0.117 C 
BRANCH  28  29
ATOM     29  C   UNL     1      -4.731  -1.754  -0.513  1.00  0.00     0.042 C 
BRANCH  29  30
ATOM     30  C   UNL     1      -5.354  -2.946  -1.219  1.00  0.00     0.118 C 
BRANCH  30  31
ATOM     31  N   UNL     1      -5.670  -4.033  -0.305  1.00  0.00    -0.352 N 
ATOM     32  C   UNL     1      -6.866  -4.454   0.227  1.00  0.00     0.251 C 
ATOM     33  H   UNL     1      -4.890  -4.560  -0.016  1.00  0.00     0.163 HD
ATOM     34  O   UNL     1      -6.845  -5.273   1.144  1.00  0.00    -0.269 OA
BRANCH  32  35
ATOM     35  C   UNL     1      -8.167  -3.932  -0.261  1.00  0.00     0.039 A 
ATOM     36  C   UNL     1      -9.213  -3.766   0.655  1.00  0.00     0.014 A 
ATOM     37  C   UNL     1      -8.395  -3.661  -1.611  1.00  0.00     0.014 A 
ATOM     38  C   UNL     1     -10.451  -3.272   0.228  1.00  0.00     0.010 A 
ATOM     39  C   UNL     1      -9.591  -3.073  -2.017  1.00  0.00     0.010 A 
ATOM     40  C   UNL     1     -10.640  -2.884  -1.107  1.00  0.00    -0.014 A 
BRANCH  40  41
ATOM     41  C   UNL     1     -11.928  -2.314  -1.589  1.00  0.00     0.031 A 
ATOM     42  C   UNL     1     -12.705  -3.022  -2.672  1.00  0.00     0.074 A 
ATOM     43  C   UNL     1     -12.367  -1.133  -1.110  1.00  0.00     0.049 A 
ATOM     44  N   UNL     1     -13.778  -2.628  -3.311  1.00  0.00    -0.248 NA
ATOM     45  C   UNL     1     -12.193  -4.330  -3.115  1.00  0.00     0.031 C 
ATOM     46  C   UNL     1     -11.703  -0.333  -0.077  1.00  0.00     0.029 A 
ATOM     47  N   UNL     1     -13.476  -0.391  -1.437  1.00  0.00    -0.354 N 
ATOM     48  C   UNL     1     -14.052  -3.625  -4.242  1.00  0.00     0.074 A 
ATOM     49  C   UNL     1     -13.007  -4.616  -4.121  1.00  0.00     0.031 C 
ATOM     50  C   UNL     1     -12.431   0.770   0.163  1.00  0.00     0.029 A 
ATOM     51  C   UNL     1     -13.585   0.785  -0.730  1.00  0.00     0.049 A 
ATOM     52  H   UNL     1     -14.132  -0.674  -2.115  1.00  0.00     0.167 HD
ATOM     53  C   UNL     1     -15.093  -3.722  -5.104  1.00  0.00     0.031 A 
ATOM     54  C   UNL     1     -14.504   1.768  -0.799  1.00  0.00     0.031 A 
ATOM     55  C   UNL     1     -16.149  -2.752  -5.205  1.00  0.00     0.049 A 
ATOM     56  C   UNL     1     -15.643   1.644  -1.776  1.00  0.00     0.074 A 
ATOM     57  C   UNL     1     -17.267  -2.780  -6.021  1.00  0.00     0.029 A 
ATOM     58  N   UNL     1     -16.228  -1.587  -4.459  1.00  0.00    -0.354 N 
ATOM     59  N   UNL     1     -15.901   0.675  -2.622  1.00  0.00    -0.248 NA
ATOM     60  C   UNL     1     -16.620   2.742  -1.802  1.00  0.00     0.031 C 
ATOM     61  C   UNL     1     -18.001  -1.611  -5.796  1.00  0.00     0.029 A 
ATOM     62  C   UNL     1     -17.369  -0.883  -4.802  1.00  0.00     0.049 A 
ATOM     63  H   UNL     1     -15.569  -1.302  -3.784  1.00  0.00     0.167 HD
ATOM     64  C   UNL     1     -17.090   1.030  -3.251  1.00  0.00     0.074 A 
ATOM     65  C   UNL     1     -17.505   2.295  -2.683  1.00  0.00     0.031 C 
ATOM     66  C   UNL     1     -17.777   0.366  -4.212  1.00  0.00     0.031 A 
BRANCH  53  67
ATOM     67  C   UNL     1     -15.147  -4.929  -6.003  1.00  0.00    -0.014 A 
ATOM     68  C   UNL     1     -15.438  -6.204  -5.484  1.00  0.00     0.010 A 
ATOM     69  C   UNL     1     -14.963  -4.781  -7.390  1.00  0.00     0.010 A 
ATOM     70  C   UNL     1     -15.510  -7.314  -6.330  1.00  0.00     0.020 A 
ATOM     71  C   UNL     1     -15.062  -5.885  -8.244  1.00  0.00     0.020 A 
ATOM     72  C   UNL     1     -15.320  -7.147  -7.705  1.00  0.00     0.054 A 
BRANCH  72  73
ATOM     73  S   UNL     1     -15.456  -8.600  -8.782  1.00  0.00     0.124 S 
ATOM     74  O   UNL     1     -14.223  -9.319  -8.472  1.00  0.00    -0.237 OA
ATOM     75  O   UNL     1     -16.687  -9.232  -8.313  1.00  0.00    -0.237 OA
ATOM     76  O   UNL     1     -15.524  -8.031 -10.126  1.00  0.00    -0.744 OA
ENDBRANCH  72  73
ENDBRANCH  53  67
BRANCH  54  77
ATOM     77  C   UNL     1     -14.406   2.951   0.102  1.00  0.00    -0.014 A 
ATOM     78  C   UNL     1     -15.352   3.139   1.125  1.00  0.00     0.010 A 
ATOM     79  C   UNL     1     -13.381   3.901  -0.062  1.00  0.00     0.010 A 
ATOM     80  C   UNL     1     -15.292   4.266   1.949  1.00  0.00     0.020 A 
ATOM     81  C   UNL     1     -13.297   5.014   0.781  1.00  0.00     0.020 A 
ATOM     82  C   UNL     1     -14.264   5.195   1.772  1.00  0.00     0.054 A 
BRANCH  82  83
ATOM     83  S   UNL     1     -14.181   6.618   2.893  1.00  0.00     0.124 S 
ATOM     84  O   UNL     1     -15.275   7.453   2.409  1.00  0.00    -0.237 OA
ATOM     85  O   UNL     1     -14.382   5.997   4.201  1.00  0.00    -0.237 OA
ATOM     86  O   UNL     1     -12.835   7.143   2.676  1.00  0.00    -0.744 OA
ENDBRANCH  82  83
ENDBRANCH  54  77
BRANCH  66  87
ATOM     87  C   UNL     1     -19.079   0.962  -4.677  1.00  0.00    -0.014 A 
ATOM     88  C   UNL     1     -19.108   2.103  -5.497  1.00  0.00     0.010 A 
ATOM     89  C   UNL     1     -20.288   0.325  -4.342  1.00  0.00     0.010 A 
ATOM     90  C   UNL     1     -20.328   2.611  -5.954  1.00  0.00     0.020 A 
ATOM     91  C   UNL     1     -21.506   0.814  -4.819  1.00  0.00     0.020 A 
ATOM     92  C   UNL     1     -21.519   1.962  -5.613  1.00  0.00     0.054 A 
BRANCH  92  93
ATOM     93  S   UNL     1     -23.083   2.609  -6.266  1.00  0.00     0.124 S 
ATOM     94  O   UNL     1     -23.279   3.806  -5.453  1.00  0.00    -0.237 OA
ATOM     95  O   UNL     1     -22.769   2.848  -7.672  1.00  0.00    -0.237 OA
ATOM     96  O   UNL     1     -24.034   1.526  -6.021  1.00  0.00    -0.744 OA
ENDBRANCH  92  93
ENDBRANCH  66  87
ENDBRANCH  40  41
ENDBRANCH  32  35
ENDBRANCH  30  31
ENDBRANCH  29  30
ENDBRANCH  28  29
ENDBRANCH   3  28
TORSDOF 19
