REMARK SMILES O=C(NCCCNC(=O)c1nn(Cc2ccc(F)cc2)c2c1CN(C(=O)[C@H]1CC1(F)F)CC2)c1ccc(-c2c3nc(c(-c4ccc(S(=O)(=O)[O-])cc4)c4ccc([nH]4)c(-c4ccc(S(=O)(=O)[O-])cc4)c4nc(c(-c5ccc(S(=O)(=O)[O-])cc5)c5ccc2[nH]5)C=C4)C=C3)cc1
REMARK SMILES IDX 4 1 3 2 1 3 2 4 34 6 35 7 93 8 36 9 92 10 37 11 38 12 39 13
REMARK SMILES IDX 86 14 40 15 91 16 85 17 87 18 41 19 90 20 84 21 83 22 42 24
REMARK SMILES IDX 72 25 53 26 71 27 54 28 57 29 70 30 88 31 55 32 56 33 69 35
REMARK SMILES IDX 89 36 58 37 43 38 44 39 52 40 45 41 51 42 46 43 47 44 48 45
REMARK SMILES IDX 49 46 50 47 73 48 74 49 82 50 75 51 81 52 76 53 77 54 78 55
REMARK SMILES IDX 79 56 80 57 59 58 60 59 68 60 61 61 67 62 62 63 63 64 64 65
REMARK SMILES IDX 65 66 66 67 5 68 6 69 7 70 8 71 9 73 10 74 11 75 22 76 12 77
REMARK SMILES IDX 21 78 23 79 33 80 24 81 32 82 13 83 14 84 15 85 20 86 16 87
REMARK SMILES IDX 19 88 17 89 18 90 25 91 26 92 27 93 28 94 29 95 30 96 31 97
REMARK H PARENT 3 5 87 23 57 34 7 72
REMARK Flexibility Score: inf
ROOT
ATOM      1  C   UNL     1      15.386  -0.755  16.352  1.00  0.00     0.118 C 
ENDROOT
BRANCH   1   2
ATOM      2  N   UNL     1      16.280  -0.613  17.485  1.00  0.00    -0.352 N 
ATOM      3  O   UNL     1      17.305  -0.819  19.421  1.00  0.00    -0.269 OA
ATOM      4  C   UNL     1      16.232  -0.925  18.818  1.00  0.00     0.251 C 
ATOM      5  H   UNL     1      17.131  -0.186  17.235  1.00  0.00     0.163 HD
BRANCH   4   6
ATOM      6  C   UNL     1      15.020  -1.326  19.592  1.00  0.00     0.039 A 
ATOM      7  C   UNL     1      13.789  -1.711  19.061  1.00  0.00     0.014 A 
ATOM      8  C   UNL     1      15.158  -1.309  20.997  1.00  0.00     0.014 A 
ATOM      9  C   UNL     1      12.723  -2.037  19.911  1.00  0.00     0.010 A 
ATOM     10  C   UNL     1      14.098  -1.630  21.846  1.00  0.00     0.010 A 
ATOM     11  C   UNL     1      12.868  -1.985  21.305  1.00  0.00    -0.014 A 
BRANCH  11  12
ATOM     12  C   UNL     1      11.768  -2.465  22.149  1.00  0.00     0.031 A 
ATOM     13  C   UNL     1      11.481  -3.926  22.055  1.00  0.00     0.074 A 
ATOM     14  C   UNL     1      11.123  -1.755  23.099  1.00  0.00     0.049 A 
ATOM     15  N   UNL     1      10.421  -4.506  21.591  1.00  0.00    -0.248 NA
ATOM     16  C   UNL     1      12.539  -4.857  22.472  1.00  0.00     0.031 C 
ATOM     17  C   UNL     1      11.457  -0.426  23.613  1.00  0.00     0.029 A 
ATOM     18  N   UNL     1      10.066  -2.134  23.882  1.00  0.00    -0.354 N 
ATOM     19  C   UNL     1      10.590  -5.870  21.828  1.00  0.00     0.074 A 
ATOM     20  C   UNL     1      11.960  -6.037  22.246  1.00  0.00     0.031 C 
ATOM     21  C   UNL     1      10.755  -0.198  24.748  1.00  0.00     0.029 A 
ATOM     22  C   UNL     1       9.826  -1.297  24.965  1.00  0.00     0.049 A 
ATOM     23  H   UNL     1       9.521  -2.932  23.693  1.00  0.00     0.167 HD
ATOM     24  C   UNL     1       9.542  -6.741  21.853  1.00  0.00     0.031 A 
ATOM     25  C   UNL     1       8.960  -1.508  25.989  1.00  0.00     0.031 A 
ATOM     26  C   UNL     1       8.346  -6.168  21.293  1.00  0.00     0.049 A 
ATOM     27  C   UNL     1       7.959  -2.505  25.544  1.00  0.00     0.074 A 
ATOM     28  C   UNL     1       7.994  -5.624  20.074  1.00  0.00     0.029 A 
ATOM     29  N   UNL     1       7.355  -5.799  22.170  1.00  0.00    -0.354 N 
ATOM     30  N   UNL     1       7.047  -2.271  24.644  1.00  0.00    -0.248 NA
ATOM     31  C   UNL     1       8.178  -3.906  25.862  1.00  0.00     0.031 C 
ATOM     32  C   UNL     1       7.078  -4.578  20.386  1.00  0.00     0.029 A 
ATOM     33  C   UNL     1       6.892  -4.575  21.769  1.00  0.00     0.049 A 
ATOM     34  H   UNL     1       7.037  -6.319  22.944  1.00  0.00     0.167 HD
ATOM     35  C   UNL     1       6.877  -3.480  23.989  1.00  0.00     0.074 A 
ATOM     36  C   UNL     1       7.505  -4.471  24.858  1.00  0.00     0.031 C 
ATOM     37  C   UNL     1       6.486  -3.526  22.682  1.00  0.00     0.031 A 
BRANCH  24  38
ATOM     38  C   UNL     1       9.485  -7.982  22.720  1.00  0.00    -0.014 A 
ATOM     39  C   UNL     1       8.353  -8.823  22.630  1.00  0.00     0.010 A 
ATOM     40  C   UNL     1      10.347  -8.192  23.814  1.00  0.00     0.010 A 
ATOM     41  C   UNL     1       8.051  -9.752  23.635  1.00  0.00     0.020 A 
ATOM     42  C   UNL     1      10.081  -9.151  24.796  1.00  0.00     0.020 A 
ATOM     43  C   UNL     1       8.910  -9.893  24.724  1.00  0.00     0.054 A 
BRANCH  43  44
ATOM     44  S   UNL     1       8.444 -10.993  26.083  1.00  0.00     0.124 S 
ATOM     45  O   UNL     1       7.309 -10.284  26.664  1.00  0.00    -0.237 OA
ATOM     46  O   UNL     1       8.126 -12.235  25.384  1.00  0.00    -0.237 OA
ATOM     47  O   UNL     1       9.647 -11.040  26.911  1.00  0.00    -0.744 OA
ENDBRANCH  43  44
ENDBRANCH  24  38
BRANCH  25  48
ATOM     48  C   UNL     1       9.057  -1.083  27.409  1.00  0.00    -0.014 A 
ATOM     49  C   UNL     1       7.946  -1.179  28.271  1.00  0.00     0.010 A 
ATOM     50  C   UNL     1      10.319  -0.859  27.994  1.00  0.00     0.010 A 
ATOM     51  C   UNL     1       8.103  -1.129  29.667  1.00  0.00     0.020 A 
ATOM     52  C   UNL     1      10.482  -0.797  29.383  1.00  0.00     0.020 A 
ATOM     53  C   UNL     1       9.377  -0.961  30.215  1.00  0.00     0.054 A 
BRANCH  53  54
ATOM     54  S   UNL     1       9.602  -1.098  32.014  1.00  0.00     0.124 S 
ATOM     55  O   UNL     1       9.002   0.142  32.498  1.00  0.00    -0.237 OA
ATOM     56  O   UNL     1       8.873  -2.321  32.336  1.00  0.00    -0.237 OA
ATOM     57  O   UNL     1      11.053  -1.187  32.172  1.00  0.00    -0.744 OA
ENDBRANCH  53  54
ENDBRANCH  25  48
BRANCH  37  58
ATOM     58  C   UNL     1       5.837  -2.310  22.066  1.00  0.00    -0.014 A 
ATOM     59  C   UNL     1       6.432  -1.035  22.017  1.00  0.00     0.010 A 
ATOM     60  C   UNL     1       4.620  -2.506  21.387  1.00  0.00     0.010 A 
ATOM     61  C   UNL     1       5.810   0.020  21.332  1.00  0.00     0.020 A 
ATOM     62  C   UNL     1       4.007  -1.467  20.685  1.00  0.00     0.020 A 
ATOM     63  C   UNL     1       4.600  -0.205  20.668  1.00  0.00     0.054 A 
BRANCH  63  64
ATOM     64  S   UNL     1       3.827   1.148  19.738  1.00  0.00     0.124 S 
ATOM     65  O   UNL     1       3.381   2.049  20.796  1.00  0.00    -0.237 OA
ATOM     66  O   UNL     1       4.922   1.644  18.907  1.00  0.00    -0.237 OA
ATOM     67  O   UNL     1       2.752   0.490  18.994  1.00  0.00    -0.744 OA
ENDBRANCH  63  64
ENDBRANCH  37  58
ENDBRANCH  11  12
ENDBRANCH   4   6
ENDBRANCH   1   2
BRANCH   1  68
ATOM     68  C   UNL     1      14.395   0.392  16.156  1.00  0.00     0.042 C 
BRANCH  68  69
ATOM     69  C   UNL     1      15.023   1.764  15.878  1.00  0.00     0.118 C 
BRANCH  69  70
ATOM     70  N   UNL     1      15.702   1.835  14.587  1.00  0.00    -0.351 N 
ATOM     71  C   UNL     1      15.405   2.555  13.445  1.00  0.00     0.272 C 
ATOM     72  H   UNL     1      16.508   1.274  14.518  1.00  0.00     0.163 HD
ATOM     73  O   UNL     1      16.066   2.311  12.433  1.00  0.00    -0.267 OA
BRANCH  71  74
ATOM     74  C   UNL     1      14.311   3.543  13.421  1.00  0.00     0.155 A 
ATOM     75  N   UNL     1      13.976   4.306  14.482  1.00  0.00    -0.167 NA
ATOM     76  C   UNL     1      13.507   3.892  12.295  1.00  0.00     0.026 A 
ATOM     77  N   UNL     1      12.877   4.992  14.095  1.00  0.00    -0.264 N 
ATOM     78  C   UNL     1      12.540   4.737  12.803  1.00  0.00     0.046 A 
ATOM     79  C   UNL     1      13.541   3.425  10.871  1.00  0.00     0.159 C 
ATOM     80  C   UNL     1      11.364   5.231  12.044  1.00  0.00     0.078 C 
ATOM     81  N   UNL     1      12.458   4.108  10.117  1.00  0.00    -0.337 N 
ATOM     82  C   UNL     1      11.177   4.294  10.833  1.00  0.00     0.126 C 
BRANCH  77  83
ATOM     83  C   UNL     1      12.266   5.960  14.999  1.00  0.00     0.180 C 
BRANCH  83  84
ATOM     84  C   UNL     1      11.542   5.296  16.142  1.00  0.00    -0.026 A 
ATOM     85  C   UNL     1      12.270   4.810  17.241  1.00  0.00     0.008 A 
ATOM     86  C   UNL     1      10.145   5.149  16.128  1.00  0.00     0.008 A 
ATOM     87  C   UNL     1      11.617   4.196  18.307  1.00  0.00     0.039 A 
ATOM     88  C   UNL     1       9.493   4.536  17.201  1.00  0.00     0.039 A 
ATOM     89  C   UNL     1      10.235   4.069  18.280  1.00  0.00     0.123 A 
ATOM     90  F   UNL     1       9.613   3.490  19.312  1.00  0.00    -0.207 F 
ENDBRANCH  83  84
ENDBRANCH  77  83
BRANCH  81  91
ATOM     91  C   UNL     1      12.697   4.543   8.824  1.00  0.00     0.232 C 
ATOM     92  O   UNL     1      13.749   4.340   8.216  1.00  0.00    -0.274 OA
BRANCH  91  93
ATOM     93  C   UNL     1      11.598   5.263   8.147  1.00  0.00     0.154 C 
ATOM     94  C   UNL     1      11.329   6.719   8.502  1.00  0.00     0.097 C 
ATOM     95  C   UNL     1      11.854   6.344   7.168  1.00  0.00     0.260 C 
ATOM     96  F   UNL     1      13.108   6.769   6.805  1.00  0.00    -0.206 F 
ATOM     97  F   UNL     1      11.036   6.507   6.071  1.00  0.00    -0.206 F 
ENDBRANCH  91  93
ENDBRANCH  81  91
ENDBRANCH  71  74
ENDBRANCH  69  70
ENDBRANCH  68  69
ENDBRANCH   1  68
TORSDOF 17
