REMARK SMILES CN(/C=C\C(=O)NCCCNC(=O)c1ccc(-c2c3nc(c(-c4ccc(S(=O)(=O)[O-])cc4)c4ccc([nH]4)c(-c4ccc(S(=O)(=O)[O-])cc4)c4nc(c(-c5ccc(S(=O)(=O)[O-])cc5)c5ccc2[nH]5)C=C4)C=C3)cc1)C[C@@H]1CCCO1
REMARK SMILES IDX 9 1 8 2 7 3 5 4 6 5 4 7 3 8 2 9 1 10 74 11 75 12 76 13 79 14
REMARK SMILES IDX 77 15 78 16 10 17 11 18 12 19 13 21 14 22 15 23 73 24 16 25
REMARK SMILES IDX 72 26 17 27 18 28 19 29 66 30 20 31 71 32 65 33 67 34 21 35
REMARK SMILES IDX 70 36 64 37 63 38 22 40 52 41 33 42 51 43 34 44 37 45 50 46
REMARK SMILES IDX 68 47 35 48 36 49 49 51 69 52 38 53 23 54 24 55 32 56 25 57
REMARK SMILES IDX 31 58 26 59 27 60 28 61 29 62 30 63 53 64 54 65 62 66 55 67
REMARK SMILES IDX 61 68 56 69 57 70 58 71 59 72 60 73 39 74 40 75 48 76 41 77
REMARK SMILES IDX 47 78 42 79 43 80 44 81 45 82 46 83
REMARK H PARENT 7 6 11 20 67 39 37 50
REMARK Flexibility Score: inf
ROOT
ATOM      1  C   UNL     1       3.527  -2.692  -1.868  1.00  0.00     0.042 C 
ENDROOT
BRANCH   1   2
ATOM      2  C   UNL     1       2.176  -2.688  -1.174  1.00  0.00     0.118 C 
BRANCH   2   3
ATOM      3  N   UNL     1       1.325  -3.835  -1.435  1.00  0.00    -0.352 N 
ATOM      4  C   UNL     1       0.185  -4.193  -0.782  1.00  0.00     0.245 C 
ATOM      5  O   UNL     1      -0.463  -5.167  -1.159  1.00  0.00    -0.270 OA
ATOM      6  H   UNL     1       1.606  -4.425  -2.172  1.00  0.00     0.163 HD
BRANCH   4   7
ATOM      7  C   UNL     1      -0.192  -3.489   0.456  1.00  0.00     0.088 C 
ATOM      8  C   UNL     1      -0.345  -2.171   0.631  1.00  0.00     0.086 C 
BRANCH   8   9
ATOM      9  N   UNL     1      -0.305  -1.088  -0.249  1.00  0.00    -0.378 N 
ATOM     10  C   UNL     1       0.256   0.168   0.255  1.00  0.00     0.143 C 
BRANCH   9  11
ATOM     11  C   UNL     1      -1.207  -1.069  -1.435  1.00  0.00     0.147 C 
BRANCH  11  12
ATOM     12  C   UNL     1      -0.947  -0.108  -2.617  1.00  0.00     0.137 C 
ATOM     13  C   UNL     1       0.301  -0.324  -3.450  1.00  0.00     0.036 C 
ATOM     14  O   UNL     1      -0.986   1.296  -2.296  1.00  0.00    -0.376 OA
ATOM     15  C   UNL     1       0.402   0.989  -4.187  1.00  0.00     0.031 C 
ATOM     16  C   UNL     1       0.013   1.959  -3.096  1.00  0.00     0.160 C 
ENDBRANCH  11  12
ENDBRANCH   9  11
ENDBRANCH   8   9
ENDBRANCH   4   7
ENDBRANCH   2   3
ENDBRANCH   1   2
BRANCH   1  17
ATOM     17  C   UNL     1       3.513  -3.121  -3.328  1.00  0.00     0.118 C 
BRANCH  17  18
ATOM     18  N   UNL     1       3.035  -2.116  -4.274  1.00  0.00    -0.352 N 
ATOM     19  C   UNL     1       3.705  -1.165  -5.010  1.00  0.00     0.251 C 
ATOM     20  H   UNL     1       2.060  -2.120  -4.410  1.00  0.00     0.163 HD
ATOM     21  O   UNL     1       3.081  -0.356  -5.695  1.00  0.00    -0.269 OA
BRANCH  19  22
ATOM     22  C   UNL     1       5.175  -1.102  -4.964  1.00  0.00     0.039 A 
ATOM     23  C   UNL     1       5.834   0.124  -4.850  1.00  0.00     0.014 A 
ATOM     24  C   UNL     1       5.904  -2.284  -5.020  1.00  0.00     0.014 A 
ATOM     25  C   UNL     1       7.223   0.143  -4.694  1.00  0.00     0.010 A 
ATOM     26  C   UNL     1       7.242  -2.276  -4.684  1.00  0.00     0.010 A 
ATOM     27  C   UNL     1       7.929  -1.062  -4.559  1.00  0.00    -0.014 A 
BRANCH  27  28
ATOM     28  C   UNL     1       9.393  -1.129  -4.343  1.00  0.00     0.031 A 
ATOM     29  C   UNL     1      10.234  -1.932  -5.304  1.00  0.00     0.074 A 
ATOM     30  C   UNL     1       9.929  -0.608  -3.223  1.00  0.00     0.049 A 
ATOM     31  N   UNL     1      11.481  -2.307  -5.200  1.00  0.00    -0.248 NA
ATOM     32  C   UNL     1       9.557  -2.444  -6.511  1.00  0.00     0.031 C 
ATOM     33  C   UNL     1       9.194   0.123  -2.187  1.00  0.00     0.029 A 
ATOM     34  N   UNL     1      11.217  -0.640  -2.753  1.00  0.00    -0.354 N 
ATOM     35  C   UNL     1      11.712  -3.145  -6.286  1.00  0.00     0.074 A 
ATOM     36  C   UNL     1      10.461  -3.279  -6.995  1.00  0.00     0.031 C 
ATOM     37  C   UNL     1      10.046   0.490  -1.218  1.00  0.00     0.029 A 
ATOM     38  C   UNL     1      11.373  -0.024  -1.534  1.00  0.00     0.049 A 
ATOM     39  H   UNL     1      11.959  -1.064  -3.242  1.00  0.00     0.167 HD
ATOM     40  C   UNL     1      12.869  -3.731  -6.672  1.00  0.00     0.031 A 
ATOM     41  C   UNL     1      12.463   0.098  -0.752  1.00  0.00     0.031 A 
ATOM     42  C   UNL     1      14.112  -3.539  -5.976  1.00  0.00     0.049 A 
ATOM     43  C   UNL     1      13.757  -0.498  -1.231  1.00  0.00     0.074 A 
ATOM     44  C   UNL     1      15.373  -3.985  -6.325  1.00  0.00     0.029 A 
ATOM     45  N   UNL     1      14.247  -2.835  -4.787  1.00  0.00    -0.354 N 
ATOM     46  N   UNL     1      13.982  -1.215  -2.308  1.00  0.00    -0.248 NA
ATOM     47  C   UNL     1      14.945  -0.256  -0.405  1.00  0.00     0.031 C 
ATOM     48  C   UNL     1      16.260  -3.601  -5.315  1.00  0.00     0.029 A 
ATOM     49  C   UNL     1      15.566  -2.856  -4.373  1.00  0.00     0.049 A 
ATOM     50  H   UNL     1      13.512  -2.387  -4.310  1.00  0.00     0.167 HD
ATOM     51  C   UNL     1      15.343  -1.493  -2.301  1.00  0.00     0.074 A 
ATOM     52  C   UNL     1      15.890  -0.850  -1.121  1.00  0.00     0.031 C 
ATOM     53  C   UNL     1      16.076  -2.212  -3.188  1.00  0.00     0.031 A 
BRANCH  40  54
ATOM     54  C   UNL     1      12.832  -4.629  -7.884  1.00  0.00    -0.014 A 
ATOM     55  C   UNL     1      12.527  -4.131  -9.165  1.00  0.00     0.010 A 
ATOM     56  C   UNL     1      13.106  -6.002  -7.740  1.00  0.00     0.010 A 
ATOM     57  C   UNL     1      12.428  -4.994 -10.260  1.00  0.00     0.020 A 
ATOM     58  C   UNL     1      13.048  -6.864  -8.840  1.00  0.00     0.020 A 
ATOM     59  C   UNL     1      12.684  -6.357 -10.089  1.00  0.00     0.054 A 
BRANCH  59  60
ATOM     60  S   UNL     1      12.551  -7.454 -11.527  1.00  0.00     0.124 S 
ATOM     61  O   UNL     1      11.105  -7.504 -11.734  1.00  0.00    -0.237 OA
ATOM     62  O   UNL     1      13.305  -6.733 -12.550  1.00  0.00    -0.237 OA
ATOM     63  O   UNL     1      13.158  -8.701 -11.071  1.00  0.00    -0.744 OA
ENDBRANCH  59  60
ENDBRANCH  40  54
BRANCH  41  64
ATOM     64  C   UNL     1      12.362   0.835   0.537  1.00  0.00    -0.014 A 
ATOM     65  C   UNL     1      12.926   2.116   0.674  1.00  0.00     0.010 A 
ATOM     66  C   UNL     1      11.632   0.294   1.612  1.00  0.00     0.010 A 
ATOM     67  C   UNL     1      12.761   2.841   1.858  1.00  0.00     0.020 A 
ATOM     68  C   UNL     1      11.441   1.028   2.787  1.00  0.00     0.020 A 
ATOM     69  C   UNL     1      12.010   2.297   2.904  1.00  0.00     0.054 A 
BRANCH  69  70
ATOM     70  S   UNL     1      11.730   3.297   4.392  1.00  0.00     0.124 S 
ATOM     71  O   UNL     1      13.050   3.294   5.015  1.00  0.00    -0.237 OA
ATOM     72  O   UNL     1      11.296   4.576   3.833  1.00  0.00    -0.237 OA
ATOM     73  O   UNL     1      10.695   2.558   5.112  1.00  0.00    -0.744 OA
ENDBRANCH  69  70
ENDBRANCH  41  64
BRANCH  53  74
ATOM     74  C   UNL     1      17.555  -2.317  -2.932  1.00  0.00    -0.014 A 
ATOM     75  C   UNL     1      18.060  -3.103  -1.882  1.00  0.00     0.010 A 
ATOM     76  C   UNL     1      18.452  -1.670  -3.802  1.00  0.00     0.010 A 
ATOM     77  C   UNL     1      19.438  -3.213  -1.687  1.00  0.00     0.020 A 
ATOM     78  C   UNL     1      19.830  -1.806  -3.631  1.00  0.00     0.020 A 
ATOM     79  C   UNL     1      20.314  -2.566  -2.564  1.00  0.00     0.054 A 
BRANCH  79  80
ATOM     80  S   UNL     1      22.098  -2.764  -2.317  1.00  0.00     0.124 S 
ATOM     81  O   UNL     1      22.329  -1.960  -1.119  1.00  0.00    -0.237 OA
ATOM     82  O   UNL     1      22.238  -4.207  -2.142  1.00  0.00    -0.237 OA
ATOM     83  O   UNL     1      22.681  -2.231  -3.546  1.00  0.00    -0.744 OA
ENDBRANCH  79  80
ENDBRANCH  53  74
ENDBRANCH  27  28
ENDBRANCH  19  22
ENDBRANCH  17  18
ENDBRANCH   1  17
TORSDOF 16
