REMARK SMILES CSc1ccc(-c2cc(C[C@H]3CCCC3=O)ccc2[C@@H](C)C(=O)NCCCNC(=O)c2ccc(-c3c4nc(c(-c5ccc(S(=O)(=O)[O-])cc5)c5ccc([nH]5)c(-c5ccc(S(=O)(=O)[O-])cc5)c5nc(c(-c6ccc(S(=O)(=O)[O-])cc6)c6ccc3[nH]6)C=C5)C=C4)cc2)cc1
REMARK SMILES IDX 26 1 25 2 24 3 22 4 23 5 20 7 21 8 19 9 7 10 8 11 9 12 18 13
REMARK SMILES IDX 17 14 6 15 3 16 4 17 92 18 5 19 91 20 2 21 1 22 10 23 11 24
REMARK SMILES IDX 12 25 15 26 13 27 14 28 16 29 27 30 28 31 29 32 30 34 31 35
REMARK SMILES IDX 32 36 90 37 33 38 89 39 34 40 35 41 36 42 83 43 37 44 88 45
REMARK SMILES IDX 82 46 84 47 38 48 87 49 81 50 80 51 39 53 69 54 50 55 68 56
REMARK SMILES IDX 51 57 54 58 67 59 85 60 52 61 53 62 66 64 86 65 55 66 40 67
REMARK SMILES IDX 41 68 49 69 42 70 48 71 43 72 44 73 45 74 46 75 47 76 70 77
REMARK SMILES IDX 71 78 79 79 72 80 78 81 73 82 74 83 75 84 76 85 77 86 56 87
REMARK SMILES IDX 57 88 65 89 58 90 64 91 59 92 60 93 61 94 62 95 63 96
REMARK H PARENT 24 6 28 33 84 52 54 63
REMARK Flexibility Score: inf
ROOT
ATOM      1  C   UNL     1       5.960  -2.074  -9.192  1.00  0.00     0.042 C 
ENDROOT
BRANCH   1   2
ATOM      2  C   UNL     1       6.698  -1.934  -7.862  1.00  0.00     0.117 C 
BRANCH   2   3
ATOM      3  N   UNL     1       6.046  -1.002  -6.962  1.00  0.00    -0.356 N 
ATOM      4  C   UNL     1       5.195  -1.171  -5.913  1.00  0.00     0.227 C 
ATOM      5  O   UNL     1       4.780  -0.128  -5.389  1.00  0.00    -0.274 OA
ATOM      6  H   UNL     1       6.261  -0.059  -7.147  1.00  0.00     0.163 HD
BRANCH   4   7
ATOM      7  C   UNL     1       4.741  -2.536  -5.363  1.00  0.00     0.106 C 
ATOM      8  C   UNL     1       5.869  -3.478  -4.943  1.00  0.00     0.023 C 
BRANCH   7   9
ATOM      9  C   UNL     1       3.637  -3.180  -6.197  1.00  0.00    -0.028 A 
ATOM     10  C   UNL     1       2.268  -3.093  -5.845  1.00  0.00    -0.014 A 
ATOM     11  C   UNL     1       1.299  -3.640  -6.716  1.00  0.00     0.012 A 
ATOM     12  C   UNL     1       1.659  -4.326  -7.883  1.00  0.00    -0.047 A 
ATOM     13  C   UNL     1       3.972  -3.893  -7.360  1.00  0.00     0.005 A 
ATOM     14  C   UNL     1       3.007  -4.424  -8.210  1.00  0.00     0.004 A 
BRANCH  10  15
ATOM     15  C   UNL     1       1.806  -2.641  -4.522  1.00  0.00    -0.018 A 
ATOM     16  C   UNL     1       0.872  -1.896  -1.951  1.00  0.00     0.007 A 
ATOM     17  C   UNL     1       0.977  -3.242  -2.307  1.00  0.00     0.015 A 
ATOM     18  C   UNL     1       1.235  -0.925  -2.892  1.00  0.00     0.015 A 
ATOM     19  C   UNL     1       1.444  -3.608  -3.570  1.00  0.00     0.010 A 
ATOM     20  C   UNL     1       1.696  -1.294  -4.167  1.00  0.00     0.010 A 
BRANCH  16  21
ATOM     21  S   UNL     1       0.225  -1.544  -0.322  1.00  0.00    -0.130 SA
ATOM     22  C   UNL     1       0.982   0.053   0.062  1.00  0.00     0.091 C 
ENDBRANCH  16  21
ENDBRANCH  10  15
BRANCH  12  23
ATOM     23  C   UNL     1       0.638  -5.096  -8.683  1.00  0.00     0.047 C 
BRANCH  23  24
ATOM     24  C   UNL     1       0.361  -6.513  -8.155  1.00  0.00     0.060 C 
ATOM     25  C   UNL     1       1.579  -7.396  -7.838  1.00  0.00     0.012 C 
ATOM     26  C   UNL     1      -0.350  -6.485  -6.819  1.00  0.00     0.136 C 
ATOM     27  C   UNL     1       1.831  -7.254  -6.339  1.00  0.00     0.009 C 
ATOM     28  C   UNL     1       0.447  -7.141  -5.722  1.00  0.00     0.076 C 
ATOM     29  O   UNL     1      -1.462  -6.000  -6.642  1.00  0.00    -0.299 OA
ENDBRANCH  23  24
ENDBRANCH  12  23
ENDBRANCH   7   9
ENDBRANCH   4   7
ENDBRANCH   2   3
ENDBRANCH   1   2
BRANCH   1  30
ATOM     30  C   UNL     1       6.291  -0.991 -10.208  1.00  0.00     0.118 C 
BRANCH  30  31
ATOM     31  N   UNL     1       7.652  -1.111 -10.708  1.00  0.00    -0.352 N 
ATOM     32  C   UNL     1       8.123  -1.398 -11.966  1.00  0.00     0.251 C 
ATOM     33  H   UNL     1       8.352  -0.960 -10.033  1.00  0.00     0.163 HD
ATOM     34  O   UNL     1       9.311  -1.681 -12.100  1.00  0.00    -0.269 OA
BRANCH  32  35
ATOM     35  C   UNL     1       7.231  -1.381 -13.150  1.00  0.00     0.039 A 
ATOM     36  C   UNL     1       7.465  -2.299 -14.180  1.00  0.00     0.014 A 
ATOM     37  C   UNL     1       6.215  -0.433 -13.292  1.00  0.00     0.014 A 
ATOM     38  C   UNL     1       6.655  -2.295 -15.320  1.00  0.00     0.010 A 
ATOM     39  C   UNL     1       5.355  -0.485 -14.388  1.00  0.00     0.010 A 
ATOM     40  C   UNL     1       5.575  -1.405 -15.423  1.00  0.00    -0.014 A 
BRANCH  40  41
ATOM     41  C   UNL     1       4.681  -1.405 -16.610  1.00  0.00     0.031 A 
ATOM     42  C   UNL     1       4.596  -0.187 -17.494  1.00  0.00     0.074 A 
ATOM     43  C   UNL     1       3.896  -2.473 -16.855  1.00  0.00     0.049 A 
ATOM     44  N   UNL     1       3.825   0.029 -18.529  1.00  0.00    -0.248 NA
ATOM     45  C   UNL     1       5.473   0.947 -17.155  1.00  0.00     0.031 C 
ATOM     46  C   UNL     1       3.851  -3.695 -16.048  1.00  0.00     0.029 A 
ATOM     47  N   UNL     1       2.975  -2.699 -17.848  1.00  0.00    -0.354 N 
ATOM     48  C   UNL     1       4.101   1.327 -18.944  1.00  0.00     0.074 A 
ATOM     49  C   UNL     1       5.080   1.865 -18.026  1.00  0.00     0.031 C 
ATOM     50  C   UNL     1       2.966  -4.548 -16.590  1.00  0.00     0.029 A 
ATOM     51  C   UNL     1       2.351  -3.921 -17.756  1.00  0.00     0.049 A 
ATOM     52  H   UNL     1       2.779  -2.047 -18.559  1.00  0.00     0.167 HD
ATOM     53  C   UNL     1       3.598   2.005 -20.003  1.00  0.00     0.031 A 
ATOM     54  C   UNL     1       1.386  -4.473 -18.516  1.00  0.00     0.031 A 
ATOM     55  C   UNL     1       2.644   1.457 -20.930  1.00  0.00     0.049 A 
ATOM     56  C   UNL     1       0.854  -3.706 -19.696  1.00  0.00     0.074 A 
ATOM     57  C   UNL     1       2.130   2.035 -22.078  1.00  0.00     0.029 A 
ATOM     58  N   UNL     1       2.060   0.204 -20.817  1.00  0.00    -0.354 N 
ATOM     59  N   UNL     1       1.185  -2.508 -20.116  1.00  0.00    -0.248 NA
ATOM     60  C   UNL     1      -0.171  -4.371 -20.513  1.00  0.00     0.031 C 
ATOM     61  C   UNL     1       1.197   1.153 -22.631  1.00  0.00     0.029 A 
ATOM     62  C   UNL     1       1.172   0.002 -21.861  1.00  0.00     0.049 A 
ATOM     63  H   UNL     1       2.248  -0.444 -20.101  1.00  0.00     0.167 HD
ATOM     64  C   UNL     1       0.427  -2.286 -21.260  1.00  0.00     0.074 A 
ATOM     65  C   UNL     1      -0.365  -3.479 -21.475  1.00  0.00     0.031 C 
ATOM     66  C   UNL     1       0.392  -1.193 -22.061  1.00  0.00     0.031 A 
BRANCH  53  67
ATOM     67  C   UNL     1       4.065   3.422 -20.215  1.00  0.00    -0.014 A 
ATOM     68  C   UNL     1       5.377   3.702 -20.638  1.00  0.00     0.010 A 
ATOM     69  C   UNL     1       3.163   4.487 -20.036  1.00  0.00     0.010 A 
ATOM     70  C   UNL     1       5.790   5.022 -20.839  1.00  0.00     0.020 A 
ATOM     71  C   UNL     1       3.564   5.807 -20.263  1.00  0.00     0.020 A 
ATOM     72  C   UNL     1       4.881   6.067 -20.647  1.00  0.00     0.054 A 
BRANCH  72  73
ATOM     73  S   UNL     1       5.438   7.768 -20.942  1.00  0.00     0.124 S 
ATOM     74  O   UNL     1       6.289   8.011 -19.780  1.00  0.00    -0.237 OA
ATOM     75  O   UNL     1       6.137   7.660 -22.220  1.00  0.00    -0.237 OA
ATOM     76  O   UNL     1       4.197   8.538 -20.978  1.00  0.00    -0.744 OA
ENDBRANCH  72  73
ENDBRANCH  53  67
BRANCH  54  77
ATOM     77  C   UNL     1       0.866  -5.829 -18.188  1.00  0.00    -0.014 A 
ATOM     78  C   UNL     1       1.165  -6.928 -19.012  1.00  0.00     0.010 A 
ATOM     79  C   UNL     1       0.076  -6.029 -17.041  1.00  0.00     0.010 A 
ATOM     80  C   UNL     1       0.669  -8.199 -18.705  1.00  0.00     0.020 A 
ATOM     81  C   UNL     1      -0.398  -7.303 -16.716  1.00  0.00     0.020 A 
ATOM     82  C   UNL     1      -0.108  -8.378 -17.557  1.00  0.00     0.054 A 
BRANCH  82  83
ATOM     83  S   UNL     1      -0.696 -10.045 -17.148  1.00  0.00     0.124 S 
ATOM     84  O   UNL     1      -1.776 -10.231 -18.111  1.00  0.00    -0.237 OA
ATOM     85  O   UNL     1       0.495 -10.863 -17.365  1.00  0.00    -0.237 OA
ATOM     86  O   UNL     1      -1.113  -9.926 -15.752  1.00  0.00    -0.744 OA
ENDBRANCH  82  83
ENDBRANCH  54  77
BRANCH  66  87
ATOM     87  C   UNL     1      -0.508  -1.246 -23.266  1.00  0.00    -0.014 A 
ATOM     88  C   UNL     1      -1.906  -1.166 -23.136  1.00  0.00     0.010 A 
ATOM     89  C   UNL     1       0.059  -1.320 -24.551  1.00  0.00     0.010 A 
ATOM     90  C   UNL     1      -2.722  -1.190 -24.270  1.00  0.00     0.020 A 
ATOM     91  C   UNL     1      -0.752  -1.316 -25.688  1.00  0.00     0.020 A 
ATOM     92  C   UNL     1      -2.139  -1.265 -25.539  1.00  0.00     0.054 A 
BRANCH  92  93
ATOM     93  S   UNL     1      -3.217  -1.250 -26.997  1.00  0.00     0.124 S 
ATOM     94  O   UNL     1      -3.779  -2.597 -26.974  1.00  0.00    -0.237 OA
ATOM     95  O   UNL     1      -4.156  -0.172 -26.692  1.00  0.00    -0.237 OA
ATOM     96  O   UNL     1      -2.301  -0.975 -28.102  1.00  0.00    -0.744 OA
ENDBRANCH  92  93
ENDBRANCH  66  87
ENDBRANCH  40  41
ENDBRANCH  32  35
ENDBRANCH  30  31
ENDBRANCH   1  30
TORSDOF 18
