REMARK SMILES C=CCN(CC(=O)NCCCNC(=O)c1ccc(-c2c3nc(c(-c4ccc(S(=O)(=O)[O-])cc4)c4ccc([nH]4)c(-c4ccc(S(=O)(=O)[O-])cc4)c4nc(c(-c5ccc(S(=O)(=O)[O-])cc5)c5ccc2[nH]5)C=C4)C=C3)cc1)C(=O)NC(C)(C)CC
REMARK SMILES IDX 9 1 8 2 6 3 7 4 5 6 4 7 3 8 2 9 1 10 75 11 76 12 77 13 78 15
REMARK SMILES IDX 79 16 80 17 81 18 82 19 10 20 11 21 12 22 13 23 14 25 15 26
REMARK SMILES IDX 16 27 74 28 17 29 73 30 18 31 19 32 20 33 67 34 21 35 72 36
REMARK SMILES IDX 66 37 68 38 22 39 71 40 65 41 64 42 23 44 53 45 34 46 52 47
REMARK SMILES IDX 35 48 38 49 51 50 69 51 36 52 37 53 50 55 70 56 39 57 24 58
REMARK SMILES IDX 25 59 33 60 26 61 32 62 27 63 28 64 29 65 30 66 31 67 54 68
REMARK SMILES IDX 55 69 63 70 56 71 62 72 57 73 58 74 59 75 60 76 61 77 40 78
REMARK SMILES IDX 41 79 49 80 42 81 48 82 43 83 44 84 45 85 46 86 47 87
REMARK H PARENT 8 5 77 14 12 24 68 43 38 54
REMARK Flexibility Score: inf
ROOT
ATOM      1  C   UNL     1      -4.668   0.464   0.547  1.00  0.00     0.117 C 
ENDROOT
BRANCH   1   2
ATOM      2  N   UNL     1      -5.041  -0.394   1.650  1.00  0.00    -0.354 N 
ATOM      3  C   UNL     1      -4.309  -0.769   2.735  1.00  0.00     0.239 C 
ATOM      4  O   UNL     1      -4.929  -1.258   3.683  1.00  0.00    -0.273 OA
ATOM      5  H   UNL     1      -5.955  -0.759   1.611  1.00  0.00     0.163 HD
BRANCH   3   6
ATOM      6  C   UNL     1      -2.816  -0.433   2.829  1.00  0.00     0.221 C 
BRANCH   6   7
ATOM      7  N   UNL     1      -1.965  -0.950   1.761  1.00  0.00    -0.312 N 
BRANCH   7   8
ATOM      8  C   UNL     1      -1.278   0.059   0.947  1.00  0.00     0.149 C 
BRANCH   8   9
ATOM      9  C   UNL     1       0.202   0.025   1.204  1.00  0.00    -0.013 C 
ATOM     10  C   UNL     1       1.113   0.007   0.220  1.00  0.00     0.006 C 
ENDBRANCH   8   9
ENDBRANCH   7   8
BRANCH   7  11
ATOM     11  C   UNL     1      -1.706  -2.244   1.435  1.00  0.00     0.318 C 
ATOM     12  O   UNL     1      -1.223  -2.525   0.329  1.00  0.00    -0.249 OA
ATOM     13  N   UNL     1      -1.865  -3.318   2.207  1.00  0.00    -0.333 N 
ATOM     14  H   UNL     1      -1.442  -4.068   1.729  1.00  0.00     0.165 HD
BRANCH  13  15
ATOM     15  C   UNL     1      -2.401  -3.878   3.474  1.00  0.00     0.036 C 
ATOM     16  C   UNL     1      -3.859  -4.304   3.222  1.00  0.00     0.034 C 
ATOM     17  C   UNL     1      -1.598  -5.177   3.762  1.00  0.00     0.034 C 
BRANCH  15  18
ATOM     18  C   UNL     1      -2.283  -3.016   4.746  1.00  0.00     0.024 C 
ATOM     19  C   UNL     1      -0.904  -2.413   4.999  1.00  0.00     0.006 C 
ENDBRANCH  15  18
ENDBRANCH  13  15
ENDBRANCH   7  11
ENDBRANCH   6   7
ENDBRANCH   3   6
ENDBRANCH   1   2
BRANCH   1  20
ATOM     20  C   UNL     1      -4.521  -0.298  -0.760  1.00  0.00     0.042 C 
BRANCH  20  21
ATOM     21  C   UNL     1      -5.789  -1.043  -1.163  1.00  0.00     0.118 C 
BRANCH  21  22
ATOM     22  N   UNL     1      -6.963  -0.172  -1.170  1.00  0.00    -0.352 N 
ATOM     23  C   UNL     1      -7.594   0.444  -2.220  1.00  0.00     0.251 C 
ATOM     24  H   UNL     1      -7.362  -0.003  -0.286  1.00  0.00     0.163 HD
ATOM     25  O   UNL     1      -8.368   1.378  -2.010  1.00  0.00    -0.269 OA
BRANCH  23  26
ATOM     26  C   UNL     1      -7.330  -0.015  -3.594  1.00  0.00     0.039 A 
ATOM     27  C   UNL     1      -7.111   0.920  -4.608  1.00  0.00     0.014 A 
ATOM     28  C   UNL     1      -7.288  -1.383  -3.869  1.00  0.00     0.014 A 
ATOM     29  C   UNL     1      -6.760   0.476  -5.883  1.00  0.00     0.010 A 
ATOM     30  C   UNL     1      -6.848  -1.819  -5.109  1.00  0.00     0.010 A 
ATOM     31  C   UNL     1      -6.578  -0.895  -6.128  1.00  0.00    -0.014 A 
BRANCH  31  32
ATOM     32  C   UNL     1      -6.089  -1.401  -7.433  1.00  0.00     0.031 A 
ATOM     33  C   UNL     1      -6.946  -2.336  -8.240  1.00  0.00     0.074 A 
ATOM     34  C   UNL     1      -4.835  -1.105  -7.830  1.00  0.00     0.049 A 
ATOM     35  N   UNL     1      -6.651  -2.986  -9.335  1.00  0.00    -0.248 NA
ATOM     36  C   UNL     1      -8.303  -2.601  -7.731  1.00  0.00     0.031 C 
ATOM     37  C   UNL     1      -3.896  -0.245  -7.106  1.00  0.00     0.029 A 
ATOM     38  N   UNL     1      -4.128  -1.509  -8.934  1.00  0.00    -0.354 N 
ATOM     39  C   UNL     1      -7.772  -3.752  -9.632  1.00  0.00     0.074 A 
ATOM     40  C   UNL     1      -8.734  -3.526  -8.576  1.00  0.00     0.031 C 
ATOM     41  C   UNL     1      -2.746  -0.170  -7.795  1.00  0.00     0.029 A 
ATOM     42  C   UNL     1      -2.845  -1.015  -8.979  1.00  0.00     0.049 A 
ATOM     43  H   UNL     1      -4.503  -2.098  -9.628  1.00  0.00     0.167 HD
ATOM     44  C   UNL     1      -7.987  -4.556 -10.699  1.00  0.00     0.031 A 
ATOM     45  C   UNL     1      -1.854  -1.234  -9.864  1.00  0.00     0.031 A 
ATOM     46  C   UNL     1      -7.027  -4.765 -11.748  1.00  0.00     0.049 A 
ATOM     47  C   UNL     1      -2.108  -2.151 -11.028  1.00  0.00     0.074 A 
ATOM     48  C   UNL     1      -7.168  -5.506 -12.908  1.00  0.00     0.029 A 
ATOM     49  N   UNL     1      -5.744  -4.237 -11.763  1.00  0.00    -0.354 N 
ATOM     50  N   UNL     1      -3.204  -2.804 -11.337  1.00  0.00    -0.248 NA
ATOM     51  C   UNL     1      -0.996  -2.361 -11.965  1.00  0.00     0.031 C 
ATOM     52  C   UNL     1      -5.951  -5.476 -13.594  1.00  0.00     0.029 A 
ATOM     53  C   UNL     1      -5.071  -4.664 -12.894  1.00  0.00     0.049 A 
ATOM     54  H   UNL     1      -5.368  -3.645 -11.072  1.00  0.00     0.167 HD
ATOM     55  C   UNL     1      -2.918  -3.488 -12.513  1.00  0.00     0.074 A 
ATOM     56  C   UNL     1      -1.555  -3.153 -12.871  1.00  0.00     0.031 C 
ATOM     57  C   UNL     1      -3.712  -4.319 -13.231  1.00  0.00     0.031 A 
BRANCH  44  58
ATOM     58  C   UNL     1      -9.309  -5.274 -10.779  1.00  0.00    -0.014 A 
ATOM     59  C   UNL     1     -10.505  -4.571 -11.010  1.00  0.00     0.010 A 
ATOM     60  C   UNL     1      -9.352  -6.675 -10.661  1.00  0.00     0.010 A 
ATOM     61  C   UNL     1     -11.724  -5.250 -11.081  1.00  0.00     0.020 A 
ATOM     62  C   UNL     1     -10.566  -7.362 -10.761  1.00  0.00     0.020 A 
ATOM     63  C   UNL     1     -11.746  -6.642 -10.954  1.00  0.00     0.054 A 
BRANCH  63  64
ATOM     64  S   UNL     1     -13.341  -7.497 -11.077  1.00  0.00     0.124 S 
ATOM     65  O   UNL     1     -13.981  -7.122  -9.819  1.00  0.00    -0.237 OA
ATOM     66  O   UNL     1     -13.927  -6.910 -12.279  1.00  0.00    -0.237 OA
ATOM     67  O   UNL     1     -12.972  -8.906 -11.191  1.00  0.00    -0.744 OA
ENDBRANCH  63  64
ENDBRANCH  44  58
BRANCH  45  68
ATOM     68  C   UNL     1      -0.533  -0.570  -9.682  1.00  0.00    -0.014 A 
ATOM     69  C   UNL     1      -0.118   0.444 -10.562  1.00  0.00     0.010 A 
ATOM     70  C   UNL     1       0.309  -0.935  -8.615  1.00  0.00     0.010 A 
ATOM     71  C   UNL     1       1.120   1.071 -10.389  1.00  0.00     0.020 A 
ATOM     72  C   UNL     1       1.535  -0.291  -8.422  1.00  0.00     0.020 A 
ATOM     73  C   UNL     1       1.938   0.701  -9.318  1.00  0.00     0.054 A 
BRANCH  73  74
ATOM     74  S   UNL     1       3.516   1.566  -9.085  1.00  0.00     0.124 S 
ATOM     75  O   UNL     1       4.319   1.032 -10.181  1.00  0.00    -0.237 OA
ATOM     76  O   UNL     1       3.127   2.968  -9.209  1.00  0.00    -0.237 OA
ATOM     77  O   UNL     1       3.935   1.159  -7.745  1.00  0.00    -0.744 OA
ENDBRANCH  73  74
ENDBRANCH  45  68
BRANCH  57  78
ATOM     78  C   UNL     1      -3.139  -4.915 -14.489  1.00  0.00    -0.014 A 
ATOM     79  C   UNL     1      -2.177  -5.938 -14.432  1.00  0.00     0.010 A 
ATOM     80  C   UNL     1      -3.638  -4.508 -15.740  1.00  0.00     0.010 A 
ATOM     81  C   UNL     1      -1.713  -6.535 -15.606  1.00  0.00     0.020 A 
ATOM     82  C   UNL     1      -3.198  -5.122 -16.914  1.00  0.00     0.020 A 
ATOM     83  C   UNL     1      -2.232  -6.128 -16.840  1.00  0.00     0.054 A 
BRANCH  83  84
ATOM     84  S   UNL     1      -1.671  -6.975 -18.342  1.00  0.00     0.124 S 
ATOM     85  O   UNL     1      -0.306  -6.475 -18.481  1.00  0.00    -0.237 OA
ATOM     86  O   UNL     1      -1.789  -8.385 -17.976  1.00  0.00    -0.237 OA
ATOM     87  O   UNL     1      -2.607  -6.522 -19.367  1.00  0.00    -0.744 OA
ENDBRANCH  83  84
ENDBRANCH  57  78
ENDBRANCH  31  32
ENDBRANCH  23  26
ENDBRANCH  21  22
ENDBRANCH  20  21
ENDBRANCH   1  20
TORSDOF 19
