REMARK SMILES O=C(NCCCNC(=O)C1CCN(C(=O)COc2ccc(Cl)cc2Cl)CC1)c1ccc(-c2c3nc(c(-c4ccc(S(=O)(=O)[O-])cc4)c4ccc([nH]4)c(-c4ccc(S(=O)(=O)[O-])cc4)c4nc(c(-c5ccc(S(=O)(=O)[O-])cc5)c5ccc2[nH]5)C=C4)C=C3)cc1
REMARK SMILES IDX 5 1 4 2 3 3 1 4 2 5 28 7 29 8 87 9 30 10 86 11 31 12 32 13
REMARK SMILES IDX 33 14 80 15 34 16 85 17 79 18 81 19 35 20 84 21 78 22 77 23
REMARK SMILES IDX 36 25 66 26 47 27 65 28 48 29 51 30 64 31 82 32 49 33 50 34
REMARK SMILES IDX 63 36 83 37 52 38 37 39 38 40 46 41 39 42 45 43 40 44 41 45
REMARK SMILES IDX 42 46 43 47 44 48 67 49 68 50 76 51 69 52 75 53 70 54 71 55
REMARK SMILES IDX 72 56 73 57 74 58 53 59 54 60 62 61 55 62 61 63 56 64 57 65
REMARK SMILES IDX 58 66 59 67 60 68 6 69 7 70 8 71 9 73 10 74 11 75 27 76
REMARK SMILES IDX 12 77 26 78 13 79 14 80 15 81 16 82 17 83 18 84 19 85 24 86
REMARK SMILES IDX 20 87 23 88 25 89 21 90 22 91
REMARK H PARENT 3 6 81 24 51 35 7 72
REMARK Flexibility Score: inf
ROOT
ATOM      1  C   UNL     1       4.566   0.431  -2.103  1.00  0.00     0.042 C 
ENDROOT
BRANCH   1   2
ATOM      2  C   UNL     1       4.135   1.265  -0.913  1.00  0.00     0.118 C 
BRANCH   2   3
ATOM      3  N   UNL     1       2.733   1.054  -0.570  1.00  0.00    -0.352 N 
ATOM      4  O   UNL     1       0.926   0.079   0.334  1.00  0.00    -0.269 OA
ATOM      5  C   UNL     1       2.139   0.255   0.383  1.00  0.00     0.251 C 
ATOM      6  H   UNL     1       2.100   1.573  -1.117  1.00  0.00     0.163 HD
BRANCH   5   7
ATOM      7  C   UNL     1       2.940  -0.402   1.444  1.00  0.00     0.039 A 
ATOM      8  C   UNL     1       4.052   0.227   1.994  1.00  0.00     0.014 A 
ATOM      9  C   UNL     1       2.545  -1.649   1.944  1.00  0.00     0.014 A 
ATOM     10  C   UNL     1       4.878  -0.457   2.873  1.00  0.00     0.010 A 
ATOM     11  C   UNL     1       3.294  -2.274   2.952  1.00  0.00     0.010 A 
ATOM     12  C   UNL     1       4.487  -1.695   3.407  1.00  0.00    -0.014 A 
BRANCH  12  13
ATOM     13  C   UNL     1       5.310  -2.273   4.504  1.00  0.00     0.031 A 
ATOM     14  C   UNL     1       5.977  -3.614   4.373  1.00  0.00     0.074 A 
ATOM     15  C   UNL     1       5.517  -1.518   5.605  1.00  0.00     0.049 A 
ATOM     16  N   UNL     1       6.789  -4.207   5.213  1.00  0.00    -0.248 NA
ATOM     17  C   UNL     1       5.698  -4.397   3.159  1.00  0.00     0.031 C 
ATOM     18  C   UNL     1       4.902  -0.208   5.856  1.00  0.00     0.029 A 
ATOM     19  N   UNL     1       6.334  -1.706   6.689  1.00  0.00    -0.354 N 
ATOM     20  C   UNL     1       7.101  -5.436   4.642  1.00  0.00     0.074 A 
ATOM     21  C   UNL     1       6.373  -5.515   3.394  1.00  0.00     0.031 C 
ATOM     22  C   UNL     1       5.435   0.327   6.962  1.00  0.00     0.029 A 
ATOM     23  C   UNL     1       6.356  -0.634   7.552  1.00  0.00     0.049 A 
ATOM     24  H   UNL     1       6.854  -2.529   6.837  1.00  0.00     0.167 HD
ATOM     25  C   UNL     1       7.923  -6.405   5.115  1.00  0.00     0.031 A 
ATOM     26  C   UNL     1       7.026  -0.442   8.703  1.00  0.00     0.031 A 
ATOM     27  C   UNL     1       8.644  -6.318   6.359  1.00  0.00     0.049 A 
ATOM     28  C   UNL     1       7.929  -1.531   9.198  1.00  0.00     0.074 A 
ATOM     29  C   UNL     1       9.493  -7.252   6.930  1.00  0.00     0.029 A 
ATOM     30  N   UNL     1       8.609  -5.233   7.223  1.00  0.00    -0.354 N 
ATOM     31  N   UNL     1       8.202  -2.686   8.641  1.00  0.00    -0.248 NA
ATOM     32  C   UNL     1       8.608  -1.295  10.478  1.00  0.00     0.031 C 
ATOM     33  C   UNL     1       9.941  -6.746   8.156  1.00  0.00     0.029 A 
ATOM     34  C   UNL     1       9.413  -5.477   8.325  1.00  0.00     0.049 A 
ATOM     35  H   UNL     1       8.088  -4.411   7.075  1.00  0.00     0.167 HD
ATOM     36  C   UNL     1       9.084  -3.320   9.506  1.00  0.00     0.074 A 
ATOM     37  C   UNL     1       9.328  -2.401  10.601  1.00  0.00     0.031 C 
ATOM     38  C   UNL     1       9.631  -4.556   9.411  1.00  0.00     0.031 A 
BRANCH  25  39
ATOM     39  C   UNL     1       8.074  -7.657   4.290  1.00  0.00    -0.014 A 
ATOM     40  C   UNL     1       8.813  -7.654   3.094  1.00  0.00     0.010 A 
ATOM     41  C   UNL     1       7.518  -8.867   4.746  1.00  0.00     0.010 A 
ATOM     42  C   UNL     1       8.968  -8.830   2.353  1.00  0.00     0.020 A 
ATOM     43  C   UNL     1       7.690 -10.050   4.020  1.00  0.00     0.020 A 
ATOM     44  C   UNL     1       8.403 -10.021   2.820  1.00  0.00     0.054 A 
BRANCH  44  45
ATOM     45  S   UNL     1       8.644 -11.538   1.854  1.00  0.00     0.124 S 
ATOM     46  O   UNL     1       7.754 -11.314   0.717  1.00  0.00    -0.237 OA
ATOM     47  O   UNL     1      10.072 -11.501   1.549  1.00  0.00    -0.237 OA
ATOM     48  O   UNL     1       8.233 -12.601   2.767  1.00  0.00    -0.744 OA
ENDBRANCH  44  45
ENDBRANCH  25  39
BRANCH  26  49
ATOM     49  C   UNL     1       6.826   0.814   9.476  1.00  0.00    -0.014 A 
ATOM     50  C   UNL     1       7.859   1.758   9.608  1.00  0.00     0.010 A 
ATOM     51  C   UNL     1       5.577   1.080  10.067  1.00  0.00     0.010 A 
ATOM     52  C   UNL     1       7.650   2.936  10.332  1.00  0.00     0.020 A 
ATOM     53  C   UNL     1       5.354   2.270  10.762  1.00  0.00     0.020 A 
ATOM     54  C   UNL     1       6.399   3.184  10.904  1.00  0.00     0.054 A 
BRANCH  54  55
ATOM     55  S   UNL     1       6.128   4.739  11.799  1.00  0.00     0.124 S 
ATOM     56  O   UNL     1       6.776   4.467  13.078  1.00  0.00    -0.237 OA
ATOM     57  O   UNL     1       6.796   5.718  10.945  1.00  0.00    -0.237 OA
ATOM     58  O   UNL     1       4.672   4.856  11.844  1.00  0.00    -0.744 OA
ENDBRANCH  54  55
ENDBRANCH  26  49
BRANCH  38  59
ATOM     59  C   UNL     1      10.558  -4.970  10.519  1.00  0.00    -0.014 A 
ATOM     60  C   UNL     1      10.062  -5.290  11.796  1.00  0.00     0.010 A 
ATOM     61  C   UNL     1      11.941  -5.047  10.278  1.00  0.00     0.010 A 
ATOM     62  C   UNL     1      10.939  -5.634  12.827  1.00  0.00     0.020 A 
ATOM     63  C   UNL     1      12.819  -5.417  11.300  1.00  0.00     0.020 A 
ATOM     64  C   UNL     1      12.313  -5.688  12.573  1.00  0.00     0.054 A 
BRANCH  64  65
ATOM     65  S   UNL     1      13.433  -6.149  13.922  1.00  0.00     0.124 S 
ATOM     66  O   UNL     1      13.476  -4.922  14.713  1.00  0.00    -0.237 OA
ATOM     67  O   UNL     1      12.742  -7.275  14.546  1.00  0.00    -0.237 OA
ATOM     68  O   UNL     1      14.677  -6.493  13.236  1.00  0.00    -0.744 OA
ENDBRANCH  64  65
ENDBRANCH  38  59
ENDBRANCH  12  13
ENDBRANCH   5   7
ENDBRANCH   2   3
ENDBRANCH   1   2
BRANCH   1  69
ATOM     69  C   UNL     1       4.076   1.010  -3.420  1.00  0.00     0.117 C 
BRANCH  69  70
ATOM     70  N   UNL     1       4.914   2.088  -3.896  1.00  0.00    -0.356 N 
ATOM     71  C   UNL     1       5.735   2.212  -4.963  1.00  0.00     0.223 C 
ATOM     72  H   UNL     1       4.880   2.893  -3.329  1.00  0.00     0.163 HD
ATOM     73  O   UNL     1       6.296   3.309  -5.083  1.00  0.00    -0.275 OA
BRANCH  71  74
ATOM     74  C   UNL     1       6.046   1.107  -5.976  1.00  0.00     0.082 C 
ATOM     75  C   UNL     1       4.877   0.397  -6.648  1.00  0.00     0.035 C 
ATOM     76  C   UNL     1       7.151   0.160  -5.531  1.00  0.00     0.035 C 
ATOM     77  C   UNL     1       4.529  -1.008  -6.161  1.00  0.00     0.120 C 
ATOM     78  C   UNL     1       6.638  -1.040  -4.766  1.00  0.00     0.120 C 
ATOM     79  N   UNL     1       5.560  -1.750  -5.445  1.00  0.00    -0.340 N 
ATOM     80  C   UNL     1       5.253  -3.082  -5.154  1.00  0.00     0.260 C 
ATOM     81  O   UNL     1       4.117  -3.532  -5.330  1.00  0.00    -0.271 OA
BRANCH  80  82
ATOM     82  C   UNL     1       6.386  -4.016  -4.703  1.00  0.00     0.329 C 
BRANCH  82  83
ATOM     83  O   UNL     1       7.667  -3.917  -5.302  1.00  0.00    -0.482 OA
BRANCH  83  84
ATOM     84  C   UNL     1       7.827  -4.141  -6.642  1.00  0.00     0.138 A 
ATOM     85  C   UNL     1       6.849  -3.915  -7.615  1.00  0.00     0.049 A 
ATOM     86  C   UNL     1       9.108  -4.532  -7.065  1.00  0.00     0.084 A 
ATOM     87  C   UNL     1       7.152  -4.029  -8.975  1.00  0.00     0.024 A 
ATOM     88  C   UNL     1       9.406  -4.678  -8.423  1.00  0.00     0.045 A 
ATOM     89  Cl  UNL     1      10.371  -4.850  -5.927  1.00  0.00    -0.080 Cl
ATOM     90  C   UNL     1       8.428  -4.409  -9.373  1.00  0.00     0.042 A 
ATOM     91  Cl  UNL     1       8.794  -4.531 -11.048  1.00  0.00    -0.084 Cl
ENDBRANCH  83  84
ENDBRANCH  82  83
ENDBRANCH  80  82
ENDBRANCH  71  74
ENDBRANCH  69  70
ENDBRANCH   1  69
TORSDOF 16
