REMARK SMILES CN1C(=O)[C@@H]2CC=CC[C@]2(C(=O)NCCCNC(=O)c2ccc(-c3c4nc(c(-c5ccc(S(=O)(=O)[O-])cc5)c5ccc([nH]5)c(-c5ccc(S(=O)(=O)[O-])cc5)c5nc(c(-c6ccc(S(=O)(=O)[O-])cc6)c6ccc3[nH]6)C=C5)C=C4)cc2)[C@H]1c1ccccc1
REMARK SMILES IDX 16 1 15 2 14 3 13 4 11 5 12 6 10 8 1 9 2 10 3 11 80 12 4 13
REMARK SMILES IDX 5 14 6 15 9 16 7 17 8 18 81 19 82 20 86 21 83 22 85 23 84 24
REMARK SMILES IDX 17 25 18 26 19 28 20 29 21 30 79 31 22 32 78 33 23 34 24 35
REMARK SMILES IDX 25 36 72 37 26 38 77 39 71 40 73 41 27 42 76 43 70 44 69 45
REMARK SMILES IDX 28 47 58 48 39 49 57 50 40 51 43 52 56 53 74 54 41 55 42 56
REMARK SMILES IDX 55 58 75 59 44 60 29 61 30 62 38 63 31 64 37 65 32 66 33 67
REMARK SMILES IDX 34 68 35 69 36 70 59 71 60 72 68 73 61 74 67 75 62 76 63 77
REMARK SMILES IDX 64 78 65 79 66 80 45 81 46 82 54 83 47 84 53 85 48 86 49 87
REMARK SMILES IDX 50 88 51 89 52 90
REMARK H PARENT 13 7 17 27 73 46 43 57
REMARK Flexibility Score: inf
ROOT
ATOM      1  C   UNL     1      -4.667   1.561   3.551  1.00  0.00     0.118 C 
ENDROOT
BRANCH   1   2
ATOM      2  C   UNL     1      -3.721   0.625   2.822  1.00  0.00     0.042 C 
BRANCH   2   3
ATOM      3  C   UNL     1      -2.317   0.563   3.382  1.00  0.00     0.117 C 
BRANCH   3   4
ATOM      4  N   UNL     1      -1.919  -0.482   4.316  1.00  0.00    -0.355 N 
ATOM      5  C   UNL     1      -0.854  -1.376   4.224  1.00  0.00     0.229 C 
ATOM      6  O   UNL     1      -0.370  -1.804   5.274  1.00  0.00    -0.274 OA
ATOM      7  H   UNL     1      -2.478  -0.569   5.122  1.00  0.00     0.163 HD
BRANCH   5   8
ATOM      8  C   UNL     1      -0.395  -1.924   2.845  1.00  0.00     0.089 C 
ATOM      9  C   UNL     1       1.327  -0.710  -0.268  1.00  0.00     0.147 C 
ATOM     10  N   UNL     1       1.029  -1.323   1.009  1.00  0.00    -0.337 N 
ATOM     11  C   UNL     1       1.517  -2.530   1.446  1.00  0.00     0.227 C 
ATOM     12  C   UNL     1       0.101  -0.740   1.929  1.00  0.00     0.131 C 
ATOM     13  O   UNL     1       2.339  -3.205   0.855  1.00  0.00    -0.275 OA
ATOM     14  C   UNL     1       0.890  -2.834   2.811  1.00  0.00     0.101 C 
ATOM     15  C   UNL     1       0.788  -4.347   3.003  1.00  0.00     0.041 C 
ATOM     16  C   UNL     1      -1.655  -2.709   2.352  1.00  0.00     0.047 C 
ATOM     17  C   UNL     1      -0.575  -4.920   2.878  1.00  0.00    -0.030 C 
ATOM     18  C   UNL     1      -1.657  -4.196   2.585  1.00  0.00    -0.030 C 
BRANCH  12  19
ATOM     19  C   UNL     1       0.760   0.461   2.651  1.00  0.00    -0.024 A 
ATOM     20  C   UNL     1       1.670   0.301   3.709  1.00  0.00     0.006 A 
ATOM     21  C   UNL     1       0.337   1.774   2.365  1.00  0.00     0.006 A 
ATOM     22  C   UNL     1       1.974   1.355   4.572  1.00  0.00     0.000 A 
ATOM     23  C   UNL     1       0.625   2.828   3.240  1.00  0.00     0.000 A 
ATOM     24  C   UNL     1       1.413   2.608   4.365  1.00  0.00     0.000 A 
ENDBRANCH  12  19
ENDBRANCH   5   8
ENDBRANCH   3   4
ENDBRANCH   2   3
ENDBRANCH   1   2
BRANCH   1  25
ATOM     25  N   UNL     1      -4.084   2.866   3.882  1.00  0.00    -0.352 N 
ATOM     26  C   UNL     1      -4.392   4.148   3.490  1.00  0.00     0.251 C 
ATOM     27  H   UNL     1      -3.325   2.814   4.506  1.00  0.00     0.163 HD
ATOM     28  O   UNL     1      -3.623   5.061   3.781  1.00  0.00    -0.269 OA
BRANCH  26  29
ATOM     29  C   UNL     1      -5.620   4.430   2.720  1.00  0.00     0.039 A 
ATOM     30  C   UNL     1      -5.634   5.465   1.778  1.00  0.00     0.014 A 
ATOM     31  C   UNL     1      -6.768   3.673   2.929  1.00  0.00     0.014 A 
ATOM     32  C   UNL     1      -6.770   5.664   0.988  1.00  0.00     0.010 A 
ATOM     33  C   UNL     1      -7.825   3.764   2.042  1.00  0.00     0.010 A 
ATOM     34  C   UNL     1      -7.853   4.776   1.077  1.00  0.00    -0.014 A 
BRANCH  34  35
ATOM     35  C   UNL     1      -9.049   4.883   0.207  1.00  0.00     0.031 A 
ATOM     36  C   UNL     1     -10.414   5.014   0.834  1.00  0.00     0.074 A 
ATOM     37  C   UNL     1      -8.918   4.750  -1.128  1.00  0.00     0.049 A 
ATOM     38  N   UNL     1     -11.591   4.983   0.265  1.00  0.00    -0.248 NA
ATOM     39  C   UNL     1     -10.467   5.144   2.303  1.00  0.00     0.031 C 
ATOM     40  C   UNL     1      -7.654   4.553  -1.844  1.00  0.00     0.029 A 
ATOM     41  N   UNL     1      -9.862   4.749  -2.122  1.00  0.00    -0.354 N 
ATOM     42  C   UNL     1     -12.513   5.053   1.303  1.00  0.00     0.074 A 
ATOM     43  C   UNL     1     -11.766   5.050   2.539  1.00  0.00     0.031 C 
ATOM     44  C   UNL     1      -7.898   4.495  -3.163  1.00  0.00     0.029 A 
ATOM     45  C   UNL     1      -9.336   4.595  -3.384  1.00  0.00     0.049 A 
ATOM     46  H   UNL     1     -10.826   4.849  -1.950  1.00  0.00     0.167 HD
ATOM     47  C   UNL     1     -13.861   5.147   1.235  1.00  0.00     0.031 A 
ATOM     48  C   UNL     1      -9.945   4.535  -4.583  1.00  0.00     0.031 A 
ATOM     49  C   UNL     1     -14.591   5.186  -0.002  1.00  0.00     0.049 A 
ATOM     50  C   UNL     1     -11.444   4.657  -4.637  1.00  0.00     0.074 A 
ATOM     51  C   UNL     1     -15.950   5.353  -0.195  1.00  0.00     0.029 A 
ATOM     52  N   UNL     1     -14.017   5.062  -1.259  1.00  0.00    -0.354 N 
ATOM     53  N   UNL     1     -12.294   4.797  -3.647  1.00  0.00    -0.248 NA
ATOM     54  C   UNL     1     -12.063   4.626  -5.967  1.00  0.00     0.031 C 
ATOM     55  C   UNL     1     -16.205   5.273  -1.567  1.00  0.00     0.029 A 
ATOM     56  C   UNL     1     -14.997   5.125  -2.232  1.00  0.00     0.049 A 
ATOM     57  H   UNL     1     -13.055   4.946  -1.432  1.00  0.00     0.167 HD
ATOM     58  C   UNL     1     -13.548   4.902  -4.239  1.00  0.00     0.074 A 
ATOM     59  C   UNL     1     -13.340   4.825  -5.671  1.00  0.00     0.031 C 
ATOM     60  C   UNL     1     -14.762   5.048  -3.652  1.00  0.00     0.031 A 
BRANCH  47  61
ATOM     61  C   UNL     1     -14.624   5.220   2.533  1.00  0.00    -0.014 A 
ATOM     62  C   UNL     1     -14.508   6.335   3.386  1.00  0.00     0.010 A 
ATOM     63  C   UNL     1     -15.490   4.173   2.896  1.00  0.00     0.010 A 
ATOM     64  C   UNL     1     -15.204   6.378   4.597  1.00  0.00     0.020 A 
ATOM     65  C   UNL     1     -16.216   4.229   4.090  1.00  0.00     0.020 A 
ATOM     66  C   UNL     1     -16.053   5.323   4.941  1.00  0.00     0.054 A 
BRANCH  66  67
ATOM     67  S   UNL     1     -16.963   5.421   6.507  1.00  0.00     0.124 S 
ATOM     68  O   UNL     1     -15.897   5.222   7.487  1.00  0.00    -0.237 OA
ATOM     69  O   UNL     1     -17.531   6.765   6.463  1.00  0.00    -0.237 OA
ATOM     70  O   UNL     1     -17.933   4.333   6.414  1.00  0.00    -0.744 OA
ENDBRANCH  66  67
ENDBRANCH  47  61
BRANCH  48  71
ATOM     71  C   UNL     1      -9.137   4.380  -5.824  1.00  0.00    -0.014 A 
ATOM     72  C   UNL     1      -9.026   5.442  -6.739  1.00  0.00     0.010 A 
ATOM     73  C   UNL     1      -8.456   3.178  -6.090  1.00  0.00     0.010 A 
ATOM     74  C   UNL     1      -8.268   5.299  -7.905  1.00  0.00     0.020 A 
ATOM     75  C   UNL     1      -7.671   3.042  -7.239  1.00  0.00     0.020 A 
ATOM     76  C   UNL     1      -7.592   4.100  -8.146  1.00  0.00     0.054 A 
BRANCH  76  77
ATOM     77  S   UNL     1      -6.575   3.955  -9.641  1.00  0.00     0.124 S 
ATOM     78  O   UNL     1      -7.586   3.882 -10.690  1.00  0.00    -0.237 OA
ATOM     79  O   UNL     1      -5.787   5.184  -9.604  1.00  0.00    -0.237 OA
ATOM     80  O   UNL     1      -5.812   2.729  -9.418  1.00  0.00    -0.744 OA
ENDBRANCH  76  77
ENDBRANCH  48  71
BRANCH  60  81
ATOM     81  C   UNL     1     -15.956   5.176  -4.559  1.00  0.00    -0.014 A 
ATOM     82  C   UNL     1     -16.440   4.077  -5.290  1.00  0.00     0.010 A 
ATOM     83  C   UNL     1     -16.642   6.403  -4.627  1.00  0.00     0.010 A 
ATOM     84  C   UNL     1     -17.570   4.213  -6.099  1.00  0.00     0.020 A 
ATOM     85  C   UNL     1     -17.790   6.533  -5.409  1.00  0.00     0.020 A 
ATOM     86  C   UNL     1     -18.239   5.440  -6.152  1.00  0.00     0.054 A 
BRANCH  86  87
ATOM     87  S   UNL     1     -19.730   5.574  -7.173  1.00  0.00     0.124 S 
ATOM     88  O   UNL     1     -19.176   5.548  -8.524  1.00  0.00    -0.237 OA
ATOM     89  O   UNL     1     -20.492   4.391  -6.782  1.00  0.00    -0.237 OA
ATOM     90  O   UNL     1     -20.317   6.849  -6.764  1.00  0.00    -0.744 OA
ENDBRANCH  86  87
ENDBRANCH  60  81
ENDBRANCH  34  35
ENDBRANCH  26  29
ENDBRANCH   1  25
TORSDOF 14
