REMARK SMILES O=C(NCCCNC(=O)C1(n2ccnc2)CCN(C(=O)[C@@H]2CC(=O)N(C3CC3)C2)CC1)c1ccc(-c2c3nc(c(-c4ccc(S(=O)(=O)[O-])cc4)c4ccc([nH]4)c(-c4ccc(S(=O)(=O)[O-])cc4)c4nc(c(-c5ccc(S(=O)(=O)[O-])cc5)c5ccc2[nH]5)C=C4)C=C3)cc1
REMARK SMILES IDX 4 1 3 2 1 3 2 4 32 6 33 7 91 8 34 9 90 10 35 11 36 12 37 13
REMARK SMILES IDX 84 14 38 15 89 16 83 17 85 18 39 19 88 20 82 21 81 22 40 24
REMARK SMILES IDX 70 25 51 26 69 27 52 28 55 29 68 30 86 31 53 32 54 33 67 35
REMARK SMILES IDX 87 36 56 37 41 38 42 39 50 40 43 41 49 42 44 43 45 44 46 45
REMARK SMILES IDX 47 46 48 47 71 48 72 49 80 50 73 51 79 52 74 53 75 54 76 55
REMARK SMILES IDX 77 56 78 57 57 58 58 59 66 60 59 61 65 62 60 63 61 64 62 65
REMARK SMILES IDX 63 66 64 67 5 68 6 69 7 70 8 71 9 73 10 74 16 75 31 76 17 77
REMARK SMILES IDX 30 78 18 79 19 80 20 81 11 82 12 83 15 84 13 85 14 86 21 87
REMARK SMILES IDX 22 88 29 89 23 90 25 91 24 92 26 93 27 94 28 95
REMARK H PARENT 3 5 85 23 55 34 7 72
REMARK Flexibility Score: inf
ROOT
ATOM      1  C   UNL     1       4.420  -0.267   0.911  1.00  0.00     0.118 C 
ENDROOT
BRANCH   1   2
ATOM      2  N   UNL     1       3.072  -0.646   0.547  1.00  0.00    -0.352 N 
ATOM      3  O   UNL     1       1.049  -0.772  -0.299  1.00  0.00    -0.269 OA
ATOM      4  C   UNL     1       2.077  -0.093  -0.212  1.00  0.00     0.251 C 
ATOM      5  H   UNL     1       2.807  -1.509   0.940  1.00  0.00     0.163 HD
BRANCH   4   6
ATOM      6  C   UNL     1       2.115   1.238  -0.889  1.00  0.00     0.039 A 
ATOM      7  C   UNL     1       3.245   2.026  -1.110  1.00  0.00     0.014 A 
ATOM      8  C   UNL     1       0.876   1.706  -1.375  1.00  0.00     0.014 A 
ATOM      9  C   UNL     1       3.129   3.260  -1.767  1.00  0.00     0.010 A 
ATOM     10  C   UNL     1       0.757   2.929  -2.035  1.00  0.00     0.010 A 
ATOM     11  C   UNL     1       1.885   3.718  -2.225  1.00  0.00    -0.014 A 
BRANCH  11  12
ATOM     12  C   UNL     1       1.834   4.923  -3.062  1.00  0.00     0.031 A 
ATOM     13  C   UNL     1       2.529   4.803  -4.376  1.00  0.00     0.074 A 
ATOM     14  C   UNL     1       1.099   6.031  -2.826  1.00  0.00     0.049 A 
ATOM     15  N   UNL     1       3.611   5.398  -4.758  1.00  0.00    -0.248 NA
ATOM     16  C   UNL     1       2.003   3.835  -5.350  1.00  0.00     0.031 C 
ATOM     17  C   UNL     1       0.093   6.249  -1.786  1.00  0.00     0.029 A 
ATOM     18  N   UNL     1       1.042   7.188  -3.555  1.00  0.00    -0.354 N 
ATOM     19  C   UNL     1       3.807   5.034  -6.088  1.00  0.00     0.074 A 
ATOM     20  C   UNL     1       2.872   3.967  -6.354  1.00  0.00     0.031 C 
ATOM     21  C   UNL     1      -0.615   7.367  -2.075  1.00  0.00     0.029 A 
ATOM     22  C   UNL     1      -0.025   8.020  -3.234  1.00  0.00     0.049 A 
ATOM     23  H   UNL     1       1.703   7.413  -4.249  1.00  0.00     0.167 HD
ATOM     24  C   UNL     1       4.587   5.765  -6.935  1.00  0.00     0.031 A 
ATOM     25  C   UNL     1      -0.417   9.142  -3.892  1.00  0.00     0.031 A 
ATOM     26  C   UNL     1       5.384   6.735  -6.232  1.00  0.00     0.049 A 
ATOM     27  C   UNL     1       0.738   9.628  -4.682  1.00  0.00     0.074 A 
ATOM     28  C   UNL     1       6.341   6.683  -5.238  1.00  0.00     0.029 A 
ATOM     29  N   UNL     1       4.971   8.045  -6.290  1.00  0.00    -0.354 N 
ATOM     30  N   UNL     1       1.816  10.129  -4.151  1.00  0.00    -0.248 NA
ATOM     31  C   UNL     1       0.864   9.205  -6.067  1.00  0.00     0.031 C 
ATOM     32  C   UNL     1       6.095   7.834  -4.433  1.00  0.00     0.029 A 
ATOM     33  C   UNL     1       5.047   8.547  -5.018  1.00  0.00     0.049 A 
ATOM     34  H   UNL     1       4.677   8.531  -7.095  1.00  0.00     0.167 HD
ATOM     35  C   UNL     1       2.848   9.691  -4.965  1.00  0.00     0.074 A 
ATOM     36  C   UNL     1       2.194   9.222  -6.184  1.00  0.00     0.031 C 
ATOM     37  C   UNL     1       4.106   9.499  -4.468  1.00  0.00     0.031 A 
BRANCH  24  38
ATOM     38  C   UNL     1       4.369   5.864  -8.426  1.00  0.00    -0.014 A 
ATOM     39  C   UNL     1       5.304   6.582  -9.204  1.00  0.00     0.010 A 
ATOM     40  C   UNL     1       3.148   5.528  -9.044  1.00  0.00     0.010 A 
ATOM     41  C   UNL     1       5.000   7.005 -10.505  1.00  0.00     0.020 A 
ATOM     42  C   UNL     1       2.854   5.905 -10.357  1.00  0.00     0.020 A 
ATOM     43  C   UNL     1       3.767   6.675 -11.066  1.00  0.00     0.054 A 
BRANCH  43  44
ATOM     44  S   UNL     1       3.341   7.318 -12.704  1.00  0.00     0.124 S 
ATOM     45  O   UNL     1       3.233   8.750 -12.445  1.00  0.00    -0.237 OA
ATOM     46  O   UNL     1       4.487   6.903 -13.508  1.00  0.00    -0.237 OA
ATOM     47  O   UNL     1       2.086   6.640 -13.021  1.00  0.00    -0.744 OA
ENDBRANCH  43  44
ENDBRANCH  24  38
BRANCH  25  48
ATOM     48  C   UNL     1      -1.783   9.691  -4.090  1.00  0.00    -0.014 A 
ATOM     49  C   UNL     1      -1.976  10.996  -4.589  1.00  0.00     0.010 A 
ATOM     50  C   UNL     1      -2.893   8.825  -4.080  1.00  0.00     0.010 A 
ATOM     51  C   UNL     1      -3.214  11.392  -5.126  1.00  0.00     0.020 A 
ATOM     52  C   UNL     1      -4.131   9.215  -4.606  1.00  0.00     0.020 A 
ATOM     53  C   UNL     1      -4.279  10.488  -5.154  1.00  0.00     0.054 A 
BRANCH  53  54
ATOM     54  S   UNL     1      -5.809  10.931  -6.031  1.00  0.00     0.124 S 
ATOM     55  O   UNL     1      -6.398  11.930  -5.144  1.00  0.00    -0.237 OA
ATOM     56  O   UNL     1      -5.311  11.434  -7.308  1.00  0.00    -0.237 OA
ATOM     57  O   UNL     1      -6.538   9.666  -6.111  1.00  0.00    -0.744 OA
ENDBRANCH  53  54
ENDBRANCH  25  48
BRANCH  37  58
ATOM     58  C   UNL     1       4.466  10.115  -3.137  1.00  0.00    -0.014 A 
ATOM     59  C   UNL     1       3.763   9.885  -1.939  1.00  0.00     0.010 A 
ATOM     60  C   UNL     1       5.649  10.874  -3.082  1.00  0.00     0.010 A 
ATOM     61  C   UNL     1       4.210  10.437  -0.729  1.00  0.00     0.020 A 
ATOM     62  C   UNL     1       6.112  11.408  -1.879  1.00  0.00     0.020 A 
ATOM     63  C   UNL     1       5.382  11.200  -0.709  1.00  0.00     0.054 A 
BRANCH  63  64
ATOM     64  S   UNL     1       5.967  11.899   0.860  1.00  0.00     0.124 S 
ATOM     65  O   UNL     1       4.959  12.915   1.150  1.00  0.00    -0.237 OA
ATOM     66  O   UNL     1       5.969  10.742   1.751  1.00  0.00    -0.237 OA
ATOM     67  O   UNL     1       7.294  12.421   0.535  1.00  0.00    -0.744 OA
ENDBRANCH  63  64
ENDBRANCH  37  58
ENDBRANCH  11  12
ENDBRANCH   4   6
ENDBRANCH   1   2
BRANCH   1  68
ATOM     68  C   UNL     1       4.490   0.822   1.975  1.00  0.00     0.042 C 
BRANCH  68  69
ATOM     69  C   UNL     1       3.875   0.453   3.331  1.00  0.00     0.117 C 
BRANCH  69  70
ATOM     70  N   UNL     1       4.670  -0.479   4.114  1.00  0.00    -0.354 N 
ATOM     71  C   UNL     1       5.405  -0.408   5.250  1.00  0.00     0.246 C 
ATOM     72  H   UNL     1       4.676  -1.382   3.723  1.00  0.00     0.163 HD
ATOM     73  O   UNL     1       5.744  -1.524   5.681  1.00  0.00    -0.272 OA
BRANCH  71  74
ATOM     74  C   UNL     1       5.972   0.872   5.953  1.00  0.00     0.127 C 
ATOM     75  C   UNL     1       5.422   2.279   5.633  1.00  0.00     0.061 C 
ATOM     76  C   UNL     1       7.480   0.859   5.601  1.00  0.00     0.061 C 
ATOM     77  C   UNL     1       5.928   2.977   4.364  1.00  0.00     0.122 C 
ATOM     78  C   UNL     1       7.658   1.247   4.151  1.00  0.00     0.122 C 
ATOM     79  N   UNL     1       7.293   2.636   3.968  1.00  0.00    -0.342 N 
ATOM     80  C   UNL     1       7.999   3.589   3.245  1.00  0.00     0.227 C 
ATOM     81  O   UNL     1       7.422   4.614   2.866  1.00  0.00    -0.274 OA
BRANCH  74  82
ATOM     82  N   UNL     1       5.767   0.674   7.419  1.00  0.00    -0.322 N 
ATOM     83  C   UNL     1       4.543   0.594   8.042  1.00  0.00     0.108 A 
ATOM     84  C   UNL     1       6.712   0.626   8.410  1.00  0.00     0.200 A 
ATOM     85  C   UNL     1       4.820   0.526   9.387  1.00  0.00     0.130 A 
ATOM     86  N   UNL     1       6.170   0.549   9.605  1.00  0.00    -0.245 NA
ENDBRANCH  74  82
BRANCH  80  87
ATOM     87  C   UNL     1       9.483   3.454   2.891  1.00  0.00     0.107 C 
ATOM     88  C   UNL     1       9.801   2.508   1.745  1.00  0.00     0.115 C 
ATOM     89  C   UNL     1      10.396   3.054   4.028  1.00  0.00     0.133 C 
ATOM     90  C   UNL     1      10.546   1.368   2.390  1.00  0.00     0.223 C 
ATOM     91  N   UNL     1      10.816   1.705   3.719  1.00  0.00    -0.339 N 
ATOM     92  O   UNL     1      10.784   0.305   1.824  1.00  0.00    -0.275 OA
BRANCH  91  93
ATOM     93  C   UNL     1      11.185   0.804   4.776  1.00  0.00     0.085 C 
ATOM     94  C   UNL     1      10.773  -0.649   4.763  1.00  0.00     0.027 C 
ATOM     95  C   UNL     1      12.220  -0.271   4.633  1.00  0.00     0.027 C 
ENDBRANCH  91  93
ENDBRANCH  80  87
ENDBRANCH  71  74
ENDBRANCH  69  70
ENDBRANCH  68  69
ENDBRANCH   1  68
TORSDOF 16
