REMARK SMILES O=C(C[NH+]1CCC(C(=O)NCCCNC(=O)c2ccc(-c3c4nc(c(-c5ccc(S(=O)(=O)[O-])cc5)c5ccc([nH]5)c(-c5ccc(S(=O)(=O)[O-])cc5)c5nc(c(-c6ccc(S(=O)(=O)[O-])cc6)c6ccc3[nH]6)C=C5)C=C4)cc2)CC1)Nc1ccccc1Oc1ccccc1
REMARK SMILES IDX 11 1 10 2 8 3 9 4 7 6 4 7 5 8 78 9 6 11 77 12 3 13 2 14 1 15
REMARK SMILES IDX 79 16 80 18 81 19 85 20 82 21 84 22 83 23 86 24 87 25 88 26
REMARK SMILES IDX 92 27 89 28 91 29 90 30 12 31 13 32 14 33 15 34 16 36 17 37
REMARK SMILES IDX 18 38 76 39 19 40 75 41 20 42 21 43 22 44 69 45 23 46 74 47
REMARK SMILES IDX 68 48 70 49 24 50 73 51 67 52 66 53 25 55 55 56 36 57 54 58
REMARK SMILES IDX 37 59 40 60 53 61 71 62 38 63 39 64 52 66 72 67 41 68 26 69
REMARK SMILES IDX 27 70 35 71 28 72 34 73 29 74 30 75 31 76 32 77 33 78 56 79
REMARK SMILES IDX 57 80 65 81 58 82 64 83 59 84 60 85 61 86 62 87 63 88 42 89
REMARK SMILES IDX 43 90 51 91 44 92 50 93 45 94 46 95 47 96 48 97 49 98
REMARK H PARENT 10 5 4 10 79 17 14 35 70 54 40 65
REMARK Flexibility Score: inf
ROOT
ATOM      1  C   UNL     1       7.017  -3.763  -1.919  1.00  0.00     0.117 C 
ENDROOT
BRANCH   1   2
ATOM      2  N   UNL     1       6.500  -4.471  -3.084  1.00  0.00    -0.356 N 
ATOM      3  C   UNL     1       5.235  -4.549  -3.584  1.00  0.00     0.223 C 
ATOM      4  O   UNL     1       5.043  -5.241  -4.585  1.00  0.00    -0.275 OA
ATOM      5  H   UNL     1       7.176  -4.975  -3.592  1.00  0.00     0.163 HD
BRANCH   3   6
ATOM      6  C   UNL     1       4.101  -3.765  -2.952  1.00  0.00     0.089 C 
ATOM      7  N   UNL     1       3.676  -2.000  -0.697  1.00  0.00    -0.327 N 
ATOM      8  C   UNL     1       2.979  -3.290  -0.714  1.00  0.00     0.263 C 
ATOM      9  C   UNL     1       3.684  -1.421  -2.047  1.00  0.00     0.263 C 
ATOM     10  H   UNL     1       4.651  -2.128  -0.424  1.00  0.00     0.348 HD
ATOM     11  C   UNL     1       3.767  -4.287  -1.551  1.00  0.00     0.075 C 
ATOM     12  C   UNL     1       4.412  -2.272  -3.064  1.00  0.00     0.075 C 
BRANCH   7  13
ATOM     13  C   UNL     1       3.065  -1.104   0.321  1.00  0.00     0.363 C 
BRANCH  13  14
ATOM     14  C   UNL     1       2.055  -0.118  -0.273  1.00  0.00     0.279 C 
ATOM     15  O   UNL     1       0.893  -0.424  -0.529  1.00  0.00    -0.268 OA
ATOM     16  N   UNL     1       2.674   1.078  -0.624  1.00  0.00    -0.318 N 
ATOM     17  H   UNL     1       3.631   1.184  -0.417  1.00  0.00     0.170 HD
BRANCH  16  18
ATOM     18  C   UNL     1       2.013   2.139  -1.252  1.00  0.00     0.084 A 
ATOM     19  C   UNL     1       2.543   2.506  -2.502  1.00  0.00     0.030 A 
ATOM     20  C   UNL     1       0.915   2.832  -0.722  1.00  0.00     0.150 A 
ATOM     21  C   UNL     1       1.933   3.490  -3.275  1.00  0.00     0.002 A 
ATOM     22  C   UNL     1       0.318   3.826  -1.515  1.00  0.00     0.049 A 
ATOM     23  C   UNL     1       0.811   4.145  -2.784  1.00  0.00     0.004 A 
BRANCH  20  24
ATOM     24  O   UNL     1       0.317   2.720   0.520  1.00  0.00    -0.455 OA
BRANCH  24  25
ATOM     25  C   UNL     1       0.896   2.005   1.537  1.00  0.00     0.127 A 
ATOM     26  C   UNL     1       0.141   0.956   2.068  1.00  0.00     0.047 A 
ATOM     27  C   UNL     1       2.159   2.289   2.058  1.00  0.00     0.047 A 
ATOM     28  C   UNL     1       0.689   0.120   3.040  1.00  0.00     0.004 A 
ATOM     29  C   UNL     1       2.710   1.446   3.029  1.00  0.00     0.004 A 
ATOM     30  C   UNL     1       1.981   0.355   3.508  1.00  0.00     0.000 A 
ENDBRANCH  24  25
ENDBRANCH  20  24
ENDBRANCH  16  18
ENDBRANCH  13  14
ENDBRANCH   7  13
ENDBRANCH   3   6
ENDBRANCH   1   2
BRANCH   1  31
ATOM     31  C   UNL     1       7.573  -4.713  -0.874  1.00  0.00     0.042 C 
BRANCH  31  32
ATOM     32  C   UNL     1       8.731  -5.551  -1.382  1.00  0.00     0.118 C 
BRANCH  32  33
ATOM     33  N   UNL     1       9.865  -4.741  -1.803  1.00  0.00    -0.352 N 
ATOM     34  C   UNL     1      11.179  -4.822  -1.421  1.00  0.00     0.251 C 
ATOM     35  H   UNL     1       9.659  -4.033  -2.456  1.00  0.00     0.163 HD
ATOM     36  O   UNL     1      11.957  -3.921  -1.734  1.00  0.00    -0.269 OA
BRANCH  34  37
ATOM     37  C   UNL     1      11.645  -5.971  -0.619  1.00  0.00     0.039 A 
ATOM     38  C   UNL     1      12.556  -5.746   0.413  1.00  0.00     0.014 A 
ATOM     39  C   UNL     1      11.181  -7.265  -0.876  1.00  0.00     0.014 A 
ATOM     40  C   UNL     1      12.957  -6.811   1.218  1.00  0.00     0.010 A 
ATOM     41  C   UNL     1      11.495  -8.302  -0.005  1.00  0.00     0.010 A 
ATOM     42  C   UNL     1      12.401  -8.091   1.041  1.00  0.00    -0.014 A 
BRANCH  42  43
ATOM     43  C   UNL     1      12.776  -9.210   1.941  1.00  0.00     0.031 A 
ATOM     44  C   UNL     1      13.461 -10.434   1.390  1.00  0.00     0.074 A 
ATOM     45  C   UNL     1      12.491  -9.121   3.256  1.00  0.00     0.049 A 
ATOM     46  N   UNL     1      13.900 -11.487   2.032  1.00  0.00    -0.248 NA
ATOM     47  C   UNL     1      13.660 -10.500  -0.068  1.00  0.00     0.031 C 
ATOM     48  C   UNL     1      11.777  -8.012   3.897  1.00  0.00     0.029 A 
ATOM     49  N   UNL     1      12.782  -9.968   4.294  1.00  0.00    -0.354 N 
ATOM     50  C   UNL     1      14.430 -12.329   1.061  1.00  0.00     0.074 A 
ATOM     51  C   UNL     1      14.192 -11.704  -0.219  1.00  0.00     0.031 C 
ATOM     52  C   UNL     1      11.736  -8.222   5.222  1.00  0.00     0.029 A 
ATOM     53  C   UNL     1      12.381  -9.494   5.522  1.00  0.00     0.049 A 
ATOM     54  H   UNL     1      13.235 -10.834   4.173  1.00  0.00     0.167 HD
ATOM     55  C   UNL     1      15.088 -13.501   1.222  1.00  0.00     0.031 A 
ATOM     56  C   UNL     1      12.525 -10.023   6.752  1.00  0.00     0.031 A 
ATOM     57  C   UNL     1      15.331 -14.119   2.498  1.00  0.00     0.049 A 
ATOM     58  C   UNL     1      13.251 -11.334   6.896  1.00  0.00     0.074 A 
ATOM     59  C   UNL     1      16.016 -15.290   2.772  1.00  0.00     0.029 A 
ATOM     60  N   UNL     1      14.905 -13.611   3.716  1.00  0.00    -0.354 N 
ATOM     61  N   UNL     1      13.802 -12.081   5.969  1.00  0.00    -0.248 NA
ATOM     62  C   UNL     1      13.392 -11.861   8.260  1.00  0.00     0.031 C 
ATOM     63  C   UNL     1      15.960 -15.517   4.151  1.00  0.00     0.029 A 
ATOM     64  C   UNL     1      15.298 -14.454   4.742  1.00  0.00     0.049 A 
ATOM     65  H   UNL     1      14.397 -12.776   3.834  1.00  0.00     0.167 HD
ATOM     66  C   UNL     1      14.382 -13.150   6.642  1.00  0.00     0.074 A 
ATOM     67  C   UNL     1      14.143 -12.932   8.054  1.00  0.00     0.031 C 
ATOM     68  C   UNL     1      15.047 -14.222   6.141  1.00  0.00     0.031 A 
BRANCH  55  69
ATOM     69  C   UNL     1      15.619 -14.183  -0.013  1.00  0.00    -0.014 A 
ATOM     70  C   UNL     1      16.701 -13.636  -0.728  1.00  0.00     0.010 A 
ATOM     71  C   UNL     1      15.086 -15.419  -0.421  1.00  0.00     0.010 A 
ATOM     72  C   UNL     1      17.229 -14.302  -1.836  1.00  0.00     0.020 A 
ATOM     73  C   UNL     1      15.631 -16.104  -1.512  1.00  0.00     0.020 A 
ATOM     74  C   UNL     1      16.695 -15.537  -2.216  1.00  0.00     0.054 A 
BRANCH  74  75
ATOM     75  S   UNL     1      17.449 -16.410  -3.616  1.00  0.00     0.124 S 
ATOM     76  O   UNL     1      17.049 -15.574  -4.745  1.00  0.00    -0.237 OA
ATOM     77  O   UNL     1      18.871 -16.376  -3.283  1.00  0.00    -0.237 OA
ATOM     78  O   UNL     1      16.833 -17.734  -3.573  1.00  0.00    -0.744 OA
ENDBRANCH  74  75
ENDBRANCH  55  69
BRANCH  56  79
ATOM     79  C   UNL     1      11.983  -9.319   7.949  1.00  0.00    -0.014 A 
ATOM     80  C   UNL     1      12.844  -8.819   8.942  1.00  0.00     0.010 A 
ATOM     81  C   UNL     1      10.593  -9.187   8.123  1.00  0.00     0.010 A 
ATOM     82  C   UNL     1      12.327  -8.252  10.111  1.00  0.00     0.020 A 
ATOM     83  C   UNL     1      10.073  -8.586   9.272  1.00  0.00     0.020 A 
ATOM     84  C   UNL     1      10.943  -8.146  10.271  1.00  0.00     0.054 A 
BRANCH  84  85
ATOM     85  S   UNL     1      10.290  -7.415  11.797  1.00  0.00     0.124 S 
ATOM     86  O   UNL     1      10.530  -8.478  12.768  1.00  0.00    -0.237 OA
ATOM     87  O   UNL     1      11.110  -6.217  11.950  1.00  0.00    -0.237 OA
ATOM     88  O   UNL     1       8.885  -7.163  11.480  1.00  0.00    -0.744 OA
ENDBRANCH  84  85
ENDBRANCH  56  79
BRANCH  68  89
ATOM     89  C   UNL     1      15.596 -15.210   7.137  1.00  0.00    -0.014 A 
ATOM     90  C   UNL     1      14.744 -16.017   7.913  1.00  0.00     0.010 A 
ATOM     91  C   UNL     1      16.988 -15.326   7.303  1.00  0.00     0.010 A 
ATOM     92  C   UNL     1      15.273 -16.868   8.887  1.00  0.00     0.020 A 
ATOM     93  C   UNL     1      17.522 -16.204   8.248  1.00  0.00     0.020 A 
ATOM     94  C   UNL     1      16.658 -16.948   9.055  1.00  0.00     0.054 A 
BRANCH  94  95
ATOM     95  S   UNL     1      17.320 -18.047  10.336  1.00  0.00     0.124 S 
ATOM     96  O   UNL     1      17.008 -17.310  11.557  1.00  0.00    -0.237 OA
ATOM     97  O   UNL     1      16.556 -19.276  10.131  1.00  0.00    -0.237 OA
ATOM     98  O   UNL     1      18.741 -18.142  10.011  1.00  0.00    -0.744 OA
ENDBRANCH  94  95
ENDBRANCH  68  89
ENDBRANCH  42  43
ENDBRANCH  34  37
ENDBRANCH  32  33
ENDBRANCH  31  32
ENDBRANCH   1  31
TORSDOF 18
