REMARK SMILES O=C(NCCCNC(=O)c1ccc(-c2c3nc(c(-c4ccc(S(=O)(=O)[O-])cc4)c4ccc([nH]4)c(-c4ccc(S(=O)(=O)[O-])cc4)c4nc(c(-c5ccc(S(=O)(=O)[O-])cc5)c5ccc2[nH]5)C=C4)C=C3)cc1)C1=Cc2cc(S(F)(F)(F)(F)F)cc(Br)c2O[C@H]1C(F)(F)F
REMARK SMILES IDX 6 1 5 2 4 3 3 4 1 5 2 6 70 8 71 9 86 10 72 11 85 12 73 13
REMARK SMILES IDX 84 14 74 15 82 16 81 17 83 18 87 19 88 20 89 21 90 22 75 23
REMARK SMILES IDX 76 24 77 25 78 26 79 27 80 28 7 29 8 30 9 32 10 33 11 34
REMARK SMILES IDX 69 35 12 36 68 37 13 38 14 39 15 40 62 41 16 42 67 43 61 44
REMARK SMILES IDX 63 45 17 46 66 47 60 48 59 49 18 51 48 52 29 53 47 54 30 55
REMARK SMILES IDX 33 56 46 57 64 58 31 59 32 60 45 62 65 63 34 64 19 65 20 66
REMARK SMILES IDX 28 67 21 68 27 69 22 70 23 71 24 72 25 73 26 74 49 75 50 76
REMARK SMILES IDX 58 77 51 78 57 79 52 80 53 81 54 82 55 83 56 84 35 85 36 86
REMARK SMILES IDX 44 87 37 88 43 89 38 90 39 91 40 92 41 93 42 94
REMARK H PARENT 3 7 7 31 63 50 33 61
REMARK Flexibility Score: inf
ROOT
ATOM      1  C   UNL     1       4.488   3.160   1.599  1.00  0.00     0.118 C 
ENDROOT
BRANCH   1   2
ATOM      2  C   UNL     1       4.995   2.181   0.552  1.00  0.00     0.042 C 
BRANCH   2   3
ATOM      3  C   UNL     1       4.488   0.786   0.877  1.00  0.00     0.118 C 
BRANCH   3   4
ATOM      4  N   UNL     1       3.018   0.786   0.877  1.00  0.00    -0.352 N 
ATOM      5  O   UNL     1       1.012  -0.084  -0.053  1.00  0.00    -0.270 OA
ATOM      6  C   UNL     1       2.283  -0.084  -0.053  1.00  0.00     0.251 C 
ATOM      7  H   UNL     1       2.526   1.368   1.500  1.00  0.00     0.163 HD
BRANCH   6   8
ATOM      8  C   UNL     1       3.043  -0.983  -1.014  1.00  0.00     0.067 C 
ATOM      9  C   UNL     1       4.404  -0.983  -1.014  1.00  0.00     0.025 C 
ATOM     10  C   UNL     1       2.283  -1.883  -1.975  1.00  0.00     0.314 C 
ATOM     11  C   UNL     1       5.164  -0.084  -0.053  1.00  0.00     0.020 A 
ATOM     12  O   UNL     1       3.462  -0.603   1.523  1.00  0.00    -0.474 OA
ATOM     13  C   UNL     1       6.325   0.572  -0.428  1.00  0.00     0.036 A 
ATOM     14  C   UNL     1       4.734  -0.059   1.204  1.00  0.00     0.142 A 
ATOM     15  C   UNL     1       7.124   0.991   0.661  1.00  0.00     0.109 A 
ATOM     16  C   UNL     1       5.509   0.489   2.197  1.00  0.00     0.062 A 
ATOM     17  C   UNL     1       6.696   1.102   1.906  1.00  0.00     0.044 A 
ATOM     18  Br  UNL     1       4.904   0.392   4.059  1.00  0.00    -0.047 Br
BRANCH  10  19
ATOM     19  C   UNL     1       0.789  -1.693  -1.772  1.00  0.00     0.429 C 
ATOM     20  F   UNL     1       0.559  -1.274  -0.531  1.00  0.00    -0.167 F 
ATOM     21  F   UNL     1       0.336  -0.789  -2.636  1.00  0.00    -0.167 F 
ATOM     22  F   UNL     1       0.165  -2.850  -1.973  1.00  0.00    -0.167 F 
ENDBRANCH  10  19
BRANCH  15  23
ATOM     23  S   UNL     1       8.854   1.405   0.326  1.00  0.00     0.310 S 
ATOM     24  F   UNL     1       9.218   1.421   1.870  1.00  0.00    -0.094 F 
ATOM     25  F   UNL     1       8.484   2.930   0.467  1.00  0.00    -0.094 F 
ATOM     26  F   UNL     1      10.339   1.764   0.035  1.00  0.00    -0.094 F 
ATOM     27  F   UNL     1       9.233  -0.129   0.328  1.00  0.00    -0.094 F 
ATOM     28  F   UNL     1       7.374   1.024   0.732  1.00  0.00    -0.094 F 
ENDBRANCH  15  23
ENDBRANCH   6   8
ENDBRANCH   3   4
ENDBRANCH   2   3
ENDBRANCH   1   2
BRANCH   1  29
ATOM     29  N   UNL     1       4.978   2.757   2.925  1.00  0.00    -0.352 N 
ATOM     30  C   UNL     1       5.824   3.672   3.706  1.00  0.00     0.251 C 
ATOM     31  H   UNL     1       4.741   1.875   3.290  1.00  0.00     0.163 HD
ATOM     32  O   UNL     1       6.247   3.324   4.852  1.00  0.00    -0.269 OA
BRANCH  30  33
ATOM     33  C   UNL     1       6.191   5.035   3.142  1.00  0.00     0.039 A 
ATOM     34  C   UNL     1       7.484   5.531   3.126  1.00  0.00     0.014 A 
ATOM     35  C   UNL     1       5.189   5.707   2.587  1.00  0.00     0.014 A 
ATOM     36  C   UNL     1       7.571   6.893   2.751  1.00  0.00     0.010 A 
ATOM     37  C   UNL     1       5.378   6.984   2.117  1.00  0.00     0.010 A 
ATOM     38  C   UNL     1       6.618   7.560   2.125  1.00  0.00    -0.014 A 
BRANCH  38  39
ATOM     39  C   UNL     1       6.886   8.896   1.451  1.00  0.00     0.031 A 
ATOM     40  C   UNL     1       6.141   9.972   1.936  1.00  0.00     0.074 A 
ATOM     41  C   UNL     1       7.724   8.967   0.352  1.00  0.00     0.049 A 
ATOM     42  N   UNL     1       6.124  11.223   1.474  1.00  0.00    -0.248 NA
ATOM     43  C   UNL     1       5.223   9.890   3.082  1.00  0.00     0.031 C 
ATOM     44  C   UNL     1       8.485   7.888  -0.138  1.00  0.00     0.029 A 
ATOM     45  N   UNL     1       7.973  10.058  -0.452  1.00  0.00    -0.354 N 
ATOM     46  C   UNL     1       5.302  11.975   2.209  1.00  0.00     0.074 A 
ATOM     47  C   UNL     1       4.707  11.127   3.251  1.00  0.00     0.031 C 
ATOM     48  C   UNL     1       9.174   8.318  -1.228  1.00  0.00     0.029 A 
ATOM     49  C   UNL     1       8.856   9.674  -1.437  1.00  0.00     0.049 A 
ATOM     50  H   UNL     1       7.587  10.957  -0.341  1.00  0.00     0.167 HD
ATOM     51  C   UNL     1       5.028  13.335   2.054  1.00  0.00     0.031 A 
ATOM     52  C   UNL     1       9.365  10.447  -2.468  1.00  0.00     0.031 A 
ATOM     53  C   UNL     1       5.570  14.118   1.048  1.00  0.00     0.049 A 
ATOM     54  C   UNL     1       9.045  11.793  -2.659  1.00  0.00     0.074 A 
ATOM     55  C   UNL     1       5.310  15.492   0.882  1.00  0.00     0.029 A 
ATOM     56  N   UNL     1       6.434  13.728   0.048  1.00  0.00    -0.354 N 
ATOM     57  N   UNL     1       8.255  12.554  -1.900  1.00  0.00    -0.248 NA
ATOM     58  C   UNL     1       9.553  12.613  -3.767  1.00  0.00     0.031 C 
ATOM     59  C   UNL     1       6.000  15.923  -0.208  1.00  0.00     0.029 A 
ATOM     60  C   UNL     1       6.701  14.824  -0.742  1.00  0.00     0.049 A 
ATOM     61  H   UNL     1       6.797  12.822  -0.080  1.00  0.00     0.167 HD
ATOM     62  C   UNL     1       8.206  13.795  -2.388  1.00  0.00     0.074 A 
ATOM     63  C   UNL     1       9.034  13.849  -3.600  1.00  0.00     0.031 C 
ATOM     64  C   UNL     1       7.506  14.886  -1.868  1.00  0.00     0.031 A 
BRANCH  51  65
ATOM     65  C   UNL     1       4.080  13.993   3.044  1.00  0.00    -0.014 A 
ATOM     66  C   UNL     1       4.388  13.903   4.391  1.00  0.00     0.010 A 
ATOM     67  C   UNL     1       2.955  14.564   2.631  1.00  0.00     0.010 A 
ATOM     68  C   UNL     1       3.299  14.190   5.248  1.00  0.00     0.020 A 
ATOM     69  C   UNL     1       1.991  14.944   3.533  1.00  0.00     0.020 A 
ATOM     70  C   UNL     1       2.204  14.829   4.879  1.00  0.00     0.054 A 
BRANCH  70  71
ATOM     71  S   UNL     1       1.046  15.515   6.089  1.00  0.00     0.124 S 
ATOM     72  O   UNL     1       0.506  14.389   6.974  1.00  0.00    -0.237 OA
ATOM     73  O   UNL     1       1.768  16.545   6.960  1.00  0.00    -0.237 OA
ATOM     74  O   UNL     1      -0.253  16.270   5.272  1.00  0.00    -0.744 OA
ENDBRANCH  70  71
ENDBRANCH  51  65
BRANCH  52  75
ATOM     75  C   UNL     1      10.325   9.792  -3.448  1.00  0.00    -0.014 A 
ATOM     76  C   UNL     1      11.619  10.286  -3.493  1.00  0.00     0.010 A 
ATOM     77  C   UNL     1       9.962   8.745  -4.179  1.00  0.00     0.010 A 
ATOM     78  C   UNL     1      12.388   9.781  -4.568  1.00  0.00     0.020 A 
ATOM     79  C   UNL     1      10.816   8.217  -5.117  1.00  0.00     0.020 A 
ATOM     80  C   UNL     1      12.089   8.695  -5.258  1.00  0.00     0.054 A 
BRANCH  80  81
ATOM     81  S   UNL     1      13.300   7.883  -6.331  1.00  0.00     0.124 S 
ATOM     82  O   UNL     1      13.760   8.863  -7.413  1.00  0.00    -0.237 OA
ATOM     83  O   UNL     1      14.505   7.441  -5.497  1.00  0.00    -0.237 OA
ATOM     84  O   UNL     1      12.584   6.516  -7.066  1.00  0.00    -0.744 OA
ENDBRANCH  80  81
ENDBRANCH  52  75
BRANCH  64  85
ATOM     85  C   UNL     1       7.636  16.222  -2.581  1.00  0.00    -0.014 A 
ATOM     86  C   UNL     1       7.221  16.403  -3.890  1.00  0.00     0.010 A 
ATOM     87  C   UNL     1       8.131  17.228  -1.870  1.00  0.00     0.010 A 
ATOM     88  C   UNL     1       7.640  17.629  -4.459  1.00  0.00     0.020 A 
ATOM     89  C   UNL     1       8.389  18.441  -2.460  1.00  0.00     0.020 A 
ATOM     90  C   UNL     1       8.060  18.672  -3.767  1.00  0.00     0.054 A 
BRANCH  90  91
ATOM     91  S   UNL     1       8.191  20.319  -4.507  1.00  0.00     0.124 S 
ATOM     92  O   UNL     1       9.168  20.272  -5.684  1.00  0.00    -0.237 OA
ATOM     93  O   UNL     1       6.814  20.766  -5.003  1.00  0.00    -0.237 OA
ATOM     94  O   UNL     1       8.763  21.426  -3.336  1.00  0.00    -0.744 OA
ENDBRANCH  90  91
ENDBRANCH  64  85
ENDBRANCH  38  39
ENDBRANCH  30  33
ENDBRANCH   1  29
TORSDOF 15
