REMARK SMILES COc1ccc([C@H]2[NH2+][C@@H](C(=O)NCCCNC(=O)c3ccc(-c4c5nc(c(-c6ccc(S(=O)(=O)[O-])cc6)c6ccc([nH]6)c(-c6ccc(S(=O)(=O)[O-])cc6)c6nc(c(-c7ccc(S(=O)(=O)[O-])cc7)c7ccc4[nH]7)C=C6)C=C5)cc3)CC3=c4ccccc4=N[C@@H]32)cc1Cn1cc([N+](=O)[O-])cn1
REMARK SMILES IDX 13 1 12 2 10 3 11 4 9 6 7 7 8 8 88 9 80 12 87 13 79 14 81 15
REMARK SMILES IDX 86 16 82 17 85 18 83 19 84 20 6 21 3 22 4 23 90 24 5 25
REMARK SMILES IDX 89 26 2 27 1 28 91 29 92 30 93 31 99 32 94 33 98 34 95 35
REMARK SMILES IDX 96 36 97 37 14 38 15 39 16 40 17 41 18 43 19 44 20 45 78 46
REMARK SMILES IDX 21 47 77 48 22 49 23 50 24 51 71 52 25 53 76 54 70 55 72 56
REMARK SMILES IDX 26 57 75 58 69 59 68 60 27 62 57 63 38 64 56 65 39 66 42 67
REMARK SMILES IDX 55 68 73 69 40 70 41 71 54 73 74 74 43 75 28 76 29 77 37 78
REMARK SMILES IDX 30 79 36 80 31 81 32 82 33 83 34 84 35 85 58 86 59 87 67 88
REMARK SMILES IDX 60 89 66 90 61 91 62 92 63 93 64 94 65 95 44 96 45 97 53 98
REMARK SMILES IDX 46 99 52 100 47 101 48 102 49 103 50 104 51 105
REMARK H PARENT 12 5 8 10 8 11 16 42 72 61 42 72
REMARK Flexibility Score: inf
ROOT
ATOM      1  C   UNL     1       3.134  11.044  -1.731  1.00  0.00     0.118 C 
ENDROOT
BRANCH   1   2
ATOM      2  N   UNL     1       3.758   9.803  -2.125  1.00  0.00    -0.351 N 
ATOM      3  C   UNL     1       3.252   8.910  -3.017  1.00  0.00     0.278 C 
ATOM      4  O   UNL     1       4.062   8.430  -3.814  1.00  0.00    -0.268 OA
ATOM      5  H   UNL     1       4.624   9.584  -1.712  1.00  0.00     0.163 HD
BRANCH   3   6
ATOM      6  C   UNL     1       1.746   8.525  -2.960  1.00  0.00     0.277 C 
ATOM      7  C   UNL     1       2.135   6.109  -2.302  1.00  0.00     0.243 C 
ATOM      8  N   UNL     1       1.462   7.414  -2.000  1.00  0.00    -0.327 N 
ATOM      9  C   UNL     1       2.283   5.958  -3.851  1.00  0.00     0.196 C 
ATOM     10  H   UNL     1       1.763   7.715  -1.073  1.00  0.00     0.347 HD
ATOM     11  H   UNL     1       0.460   7.234  -2.070  1.00  0.00     0.347 HD
ATOM     12  C   UNL     1       1.641   6.866  -4.848  1.00  0.00    -0.024 C 
ATOM     13  N   UNL     1       2.399   4.617  -4.489  1.00  0.00    -0.270 NA
ATOM     14  C   UNL     1       1.210   8.210  -4.372  1.00  0.00     0.109 C 
ATOM     15  C   UNL     1       2.075   6.425  -6.027  1.00  0.00     0.002 A 
ATOM     16  C   UNL     1       2.477   5.021  -5.733  1.00  0.00     0.066 A 
ATOM     17  C   UNL     1       2.454   7.072  -7.240  1.00  0.00     0.010 A 
ATOM     18  C   UNL     1       2.997   4.245  -6.875  1.00  0.00     0.028 A 
ATOM     19  C   UNL     1       3.139   6.354  -8.146  1.00  0.00     0.001 A 
ATOM     20  C   UNL     1       3.345   4.920  -7.985  1.00  0.00     0.002 A 
BRANCH   7  21
ATOM     21  C   UNL     1       3.515   6.056  -1.562  1.00  0.00     0.012 A 
ATOM     22  C   UNL     1       6.088   6.670  -0.569  1.00  0.00     0.123 A 
ATOM     23  C   UNL     1       4.962   6.748   0.262  1.00  0.00     0.047 A 
ATOM     24  C   UNL     1       5.974   6.142  -1.851  1.00  0.00     0.016 A 
ATOM     25  C   UNL     1       3.679   6.464  -0.235  1.00  0.00     0.014 A 
ATOM     26  C   UNL     1       4.693   5.748  -2.267  1.00  0.00     0.019 A 
BRANCH  22  27
ATOM     27  O   UNL     1       7.293   7.039  -0.038  1.00  0.00    -0.496 OA
ATOM     28  C   UNL     1       7.713   8.332  -0.475  1.00  0.00     0.278 C 
ENDBRANCH  22  27
BRANCH  24  29
ATOM     29  C   UNL     1       7.093   6.129  -2.869  1.00  0.00     0.183 C 
BRANCH  29  30
ATOM     30  N   UNL     1       7.352   4.812  -3.445  1.00  0.00    -0.261 N 
ATOM     31  C   UNL     1       6.654   4.184  -4.444  1.00  0.00     0.194 A 
ATOM     32  N   UNL     1       8.448   4.120  -3.061  1.00  0.00    -0.174 NA
ATOM     33  C   UNL     1       7.213   2.928  -4.553  1.00  0.00     0.307 A 
ATOM     34  C   UNL     1       8.331   2.956  -3.706  1.00  0.00     0.220 A 
BRANCH  33  35
ATOM     35  N   UNL     1       6.754   1.846  -5.362  1.00  0.00     0.066 N 
ATOM     36  O   UNL     1       7.432   0.811  -5.344  1.00  0.00    -0.258 OA
ATOM     37  O   UNL     1       5.721   2.024  -6.021  1.00  0.00    -0.258 OA
ENDBRANCH  33  35
ENDBRANCH  29  30
ENDBRANCH  24  29
ENDBRANCH   7  21
ENDBRANCH   3   6
ENDBRANCH   1   2
BRANCH   1  38
ATOM     38  C   UNL     1       3.086  11.223  -0.228  1.00  0.00     0.042 C 
BRANCH  38  39
ATOM     39  C   UNL     1       4.452  11.151   0.446  1.00  0.00     0.118 C 
BRANCH  39  40
ATOM     40  N   UNL     1       5.389  12.150  -0.054  1.00  0.00    -0.352 N 
ATOM     41  C   UNL     1       5.895  13.281   0.543  1.00  0.00     0.251 C 
ATOM     42  H   UNL     1       5.713  11.988  -0.970  1.00  0.00     0.163 HD
ATOM     43  O   UNL     1       6.514  14.092  -0.134  1.00  0.00    -0.269 OA
BRANCH  41  44
ATOM     44  C   UNL     1       5.673  13.525   1.984  1.00  0.00     0.039 A 
ATOM     45  C   UNL     1       5.346  14.815   2.413  1.00  0.00     0.014 A 
ATOM     46  C   UNL     1       5.798  12.491   2.913  1.00  0.00     0.014 A 
ATOM     47  C   UNL     1       5.067  15.045   3.762  1.00  0.00     0.010 A 
ATOM     48  C   UNL     1       5.424  12.700   4.236  1.00  0.00     0.010 A 
ATOM     49  C   UNL     1       5.061  13.980   4.678  1.00  0.00    -0.014 A 
BRANCH  49  50
ATOM     50  C   UNL     1       4.677  14.177   6.099  1.00  0.00     0.031 A 
ATOM     51  C   UNL     1       5.664  13.890   7.199  1.00  0.00     0.074 A 
ATOM     52  C   UNL     1       3.416  14.542   6.405  1.00  0.00     0.049 A 
ATOM     53  N   UNL     1       5.498  13.955   8.495  1.00  0.00    -0.248 NA
ATOM     54  C   UNL     1       7.005  13.445   6.788  1.00  0.00     0.031 C 
ATOM     55  C   UNL     1       2.354  14.817   5.434  1.00  0.00     0.029 A 
ATOM     56  N   UNL     1       2.812  14.745   7.620  1.00  0.00    -0.354 N 
ATOM     57  C   UNL     1       6.700  13.535   9.052  1.00  0.00     0.074 A 
ATOM     58  C   UNL     1       7.567  13.166   7.954  1.00  0.00     0.031 C 
ATOM     59  C   UNL     1       1.246  15.197   6.089  1.00  0.00     0.029 A 
ATOM     60  C   UNL     1       1.499  15.143   7.526  1.00  0.00     0.049 A 
ATOM     61  H   UNL     1       3.276  14.617   8.480  1.00  0.00     0.167 HD
ATOM     62  C   UNL     1       7.059  13.477  10.358  1.00  0.00     0.031 A 
ATOM     63  C   UNL     1       0.599  15.432   8.485  1.00  0.00     0.031 A 
ATOM     64  C   UNL     1       6.193  13.846  11.446  1.00  0.00     0.049 A 
ATOM     65  C   UNL     1       1.009  15.335   9.928  1.00  0.00     0.074 A 
ATOM     66  C   UNL     1       6.480  13.886  12.799  1.00  0.00     0.029 A 
ATOM     67  N   UNL     1       4.865  14.226  11.308  1.00  0.00    -0.354 N 
ATOM     68  N   UNL     1       2.174  15.008  10.434  1.00  0.00    -0.248 NA
ATOM     69  C   UNL     1      -0.018  15.653  10.930  1.00  0.00     0.031 C 
ATOM     70  C   UNL     1       5.307  14.223  13.483  1.00  0.00     0.029 A 
ATOM     71  C   UNL     1       4.309  14.466  12.553  1.00  0.00     0.049 A 
ATOM     72  H   UNL     1       4.389  14.312  10.450  1.00  0.00     0.167 HD
ATOM     73  C   UNL     1       2.030  15.113  11.813  1.00  0.00     0.074 A 
ATOM     74  C   UNL     1       0.668  15.542  12.059  1.00  0.00     0.031 C 
ATOM     75  C   UNL     1       2.947  14.882  12.786  1.00  0.00     0.031 A 
BRANCH  62  76
ATOM     76  C   UNL     1       8.443  12.964  10.673  1.00  0.00    -0.014 A 
ATOM     77  C   UNL     1       9.595  13.680  10.299  1.00  0.00     0.010 A 
ATOM     78  C   UNL     1       8.593  11.742  11.354  1.00  0.00     0.010 A 
ATOM     79  C   UNL     1      10.867  13.151  10.534  1.00  0.00     0.020 A 
ATOM     80  C   UNL     1       9.863  11.226  11.624  1.00  0.00     0.020 A 
ATOM     81  C   UNL     1      10.992  11.922  11.188  1.00  0.00     0.054 A 
BRANCH  81  82
ATOM     82  S   UNL     1      12.653  11.248  11.460  1.00  0.00     0.124 S 
ATOM     83  O   UNL     1      13.037  10.841  10.111  1.00  0.00    -0.237 OA
ATOM     84  O   UNL     1      13.380  12.394  12.001  1.00  0.00    -0.237 OA
ATOM     85  O   UNL     1      12.434  10.152  12.402  1.00  0.00    -0.744 OA
ENDBRANCH  81  82
ENDBRANCH  62  76
BRANCH  63  86
ATOM     86  C   UNL     1      -0.766  15.887   8.103  1.00  0.00    -0.014 A 
ATOM     87  C   UNL     1      -1.141  17.228   8.297  1.00  0.00     0.010 A 
ATOM     88  C   UNL     1      -1.680  15.001   7.506  1.00  0.00     0.010 A 
ATOM     89  C   UNL     1      -2.406  17.675   7.903  1.00  0.00     0.020 A 
ATOM     90  C   UNL     1      -2.935  15.450   7.084  1.00  0.00     0.020 A 
ATOM     91  C   UNL     1      -3.291  16.785   7.290  1.00  0.00     0.054 A 
BRANCH  91  92
ATOM     92  S   UNL     1      -4.894  17.410   6.712  1.00  0.00     0.124 S 
ATOM     93  O   UNL     1      -5.597  17.652   7.967  1.00  0.00    -0.237 OA
ATOM     94  O   UNL     1      -4.511  18.602   5.959  1.00  0.00    -0.237 OA
ATOM     95  O   UNL     1      -5.417  16.312   5.901  1.00  0.00    -0.744 OA
ENDBRANCH  91  92
ENDBRANCH  63  86
BRANCH  75  96
ATOM     96  C   UNL     1       2.521  15.120  14.212  1.00  0.00    -0.014 A 
ATOM     97  C   UNL     1       1.610  14.266  14.858  1.00  0.00     0.010 A 
ATOM     98  C   UNL     1       3.088  16.188  14.933  1.00  0.00     0.010 A 
ATOM     99  C   UNL     1       1.249  14.495  16.189  1.00  0.00     0.020 A 
ATOM    100  C   UNL     1       2.755  16.400  16.273  1.00  0.00     0.020 A 
ATOM    101  C   UNL     1       1.826  15.559  16.889  1.00  0.00     0.054 A 
BRANCH 101 102
ATOM    102  S   UNL     1       1.377  15.806  18.628  1.00  0.00     0.124 S 
ATOM    103  O   UNL     1       0.009  16.308  18.521  1.00  0.00    -0.237 OA
ATOM    104  O   UNL     1       1.512  14.463  19.186  1.00  0.00    -0.237 OA
ATOM    105  O   UNL     1       2.360  16.775  19.107  1.00  0.00    -0.744 OA
ENDBRANCH 101 102
ENDBRANCH  75  96
ENDBRANCH  49  50
ENDBRANCH  41  44
ENDBRANCH  39  40
ENDBRANCH  38  39
ENDBRANCH   1  38
TORSDOF 18
