REMARK SMILES CCC[C@H]1CCc2c(sc(NC(=O)[C@H]3[C@@H](C(=O)NCCCNC(=O)c4ccc(-c5c6nc(c(-c7ccc(S(=O)(=O)[O-])cc7)c7ccc([nH]7)c(-c7ccc(S(=O)(=O)[O-])cc7)c7nc(c(-c8ccc(S(=O)(=O)[O-])cc8)c8ccc5[nH]8)C=C7)C=C6)cc4)[C@H]4CC[C@@H]3O4)c2C(N)=O)C1
REMARK SMILES IDX 19 1 18 2 16 3 17 4 15 6 14 7 88 8 85 9 87 10 89 11 86 12
REMARK SMILES IDX 12 13 11 14 13 16 10 17 4 18 5 19 94 20 6 21 8 22 7 23 9 24
REMARK SMILES IDX 90 25 3 26 2 27 1 28 91 29 92 30 93 31 20 34 21 35 22 36
REMARK SMILES IDX 23 37 24 39 25 40 26 41 84 42 27 43 83 44 28 45 29 46 30 47
REMARK SMILES IDX 77 48 31 49 82 50 76 51 78 52 32 53 81 54 75 55 74 56 33 58
REMARK SMILES IDX 63 59 44 60 62 61 45 62 48 63 61 64 79 65 46 66 47 67 60 69
REMARK SMILES IDX 80 70 49 71 34 72 35 73 43 74 36 75 42 76 37 77 38 78 39 79
REMARK SMILES IDX 40 80 41 81 64 82 65 83 73 84 66 85 72 86 67 87 68 88 69 89
REMARK SMILES IDX 70 90 71 91 50 92 51 93 59 94 52 95 58 96 53 97 54 98 55 99
REMARK SMILES IDX 56 100 57 101
REMARK H PARENT 18 5 11 15 92 32 92 33 22 38 78 57 48 68
REMARK Flexibility Score: inf
ROOT
ATOM      1  C   UNL     1      -7.935  -0.574  -0.500  1.00  0.00     0.117 C 
ENDROOT
BRANCH   1   2
ATOM      2  N   UNL     1      -7.302   0.524  -1.171  1.00  0.00    -0.356 N 
ATOM      3  C   UNL     1      -6.042   0.991  -1.145  1.00  0.00     0.226 C 
ATOM      4  O   UNL     1      -5.788   1.781  -2.068  1.00  0.00    -0.275 OA
ATOM      5  H   UNL     1      -7.903   1.031  -1.764  1.00  0.00     0.163 HD
BRANCH   3   6
ATOM      6  C   UNL     1      -4.911   0.592  -0.190  1.00  0.00     0.122 C 
ATOM      7  C   UNL     1      -4.896   0.090   1.264  1.00  0.00     0.123 C 
ATOM      8  C   UNL     1      -4.472   1.332   2.053  1.00  0.00     0.132 C 
ATOM      9  C   UNL     1      -4.057   1.901   0.003  1.00  0.00     0.132 C 
ATOM     10  C   UNL     1      -5.364   2.559   1.856  1.00  0.00     0.035 C 
ATOM     11  O   UNL     1      -3.319   1.672   1.237  1.00  0.00    -0.373 OA
ATOM     12  C   UNL     1      -4.908   3.074   0.492  1.00  0.00     0.035 C 
BRANCH   7  13
ATOM     13  C   UNL     1      -5.870  -0.788   2.003  1.00  0.00     0.231 C 
ATOM     14  N   UNL     1      -6.050  -2.116   1.712  1.00  0.00    -0.317 N 
ATOM     15  H   UNL     1      -6.692  -2.577   2.300  1.00  0.00     0.170 HD
ATOM     16  O   UNL     1      -6.534  -0.325   2.936  1.00  0.00    -0.274 OA
BRANCH  14  17
ATOM     17  C   UNL     1      -5.490  -2.918   0.740  1.00  0.00     0.108 A 
ATOM     18  C   UNL     1      -4.784  -6.160  -2.783  1.00  0.00    -0.006 C 
ATOM     19  C   UNL     1      -3.883  -5.006  -3.289  1.00  0.00     0.009 C 
ATOM     20  C   UNL     1      -6.052  -5.546  -2.133  1.00  0.00     0.050 C 
ATOM     21  C   UNL     1      -3.385  -4.112  -2.143  1.00  0.00     0.038 C 
ATOM     22  C   UNL     1      -5.642  -4.529  -1.106  1.00  0.00     0.011 A 
ATOM     23  C   UNL     1      -4.437  -3.858  -1.101  1.00  0.00    -0.019 A 
ATOM     24  S   UNL     1      -6.602  -4.126   0.232  1.00  0.00    -0.122 S 
ATOM     25  C   UNL     1      -4.283  -3.022   0.071  1.00  0.00     0.077 A 
BRANCH  18  26
ATOM     26  C   UNL     1      -5.106  -7.123  -3.942  1.00  0.00     0.004 C 
BRANCH  26  27
ATOM     27  C   UNL     1      -5.261  -8.591  -3.527  1.00  0.00    -0.003 C 
ATOM     28  C   UNL     1      -6.485  -8.886  -2.680  1.00  0.00     0.004 C 
ENDBRANCH  26  27
ENDBRANCH  18  26
BRANCH  25  29
ATOM     29  C   UNL     1      -3.003  -2.437   0.454  1.00  0.00     0.251 C 
ATOM     30  N   UNL     1      -2.741  -2.433   1.795  1.00  0.00    -0.365 N 
ATOM     31  O   UNL     1      -2.183  -2.018  -0.349  1.00  0.00    -0.269 OA
ATOM     32  H   UNL     1      -3.413  -2.774   2.429  1.00  0.00     0.159 HD
ATOM     33  H   UNL     1      -1.881  -2.089   2.128  1.00  0.00     0.159 HD
ENDBRANCH  25  29
ENDBRANCH  14  17
ENDBRANCH   7  13
ENDBRANCH   3   6
ENDBRANCH   1   2
BRANCH   1  34
ATOM     34  C   UNL     1      -8.646  -0.139   0.769  1.00  0.00     0.042 C 
BRANCH  34  35
ATOM     35  C   UNL     1     -10.130   0.099   0.568  1.00  0.00     0.118 C 
BRANCH  35  36
ATOM     36  N   UNL     1     -10.845  -1.162   0.404  1.00  0.00    -0.352 N 
ATOM     37  C   UNL     1     -11.857  -1.709   1.154  1.00  0.00     0.251 C 
ATOM     38  H   UNL     1     -10.558  -1.706  -0.365  1.00  0.00     0.163 HD
ATOM     39  O   UNL     1     -12.135  -2.896   0.999  1.00  0.00    -0.269 OA
BRANCH  37  40
ATOM     40  C   UNL     1     -12.597  -0.892   2.145  1.00  0.00     0.039 A 
ATOM     41  C   UNL     1     -13.102  -1.510   3.293  1.00  0.00     0.014 A 
ATOM     42  C   UNL     1     -12.830   0.469   1.937  1.00  0.00     0.014 A 
ATOM     43  C   UNL     1     -13.796  -0.755   4.242  1.00  0.00     0.010 A 
ATOM     44  C   UNL     1     -13.410   1.241   2.936  1.00  0.00     0.010 A 
ATOM     45  C   UNL     1     -13.929   0.634   4.086  1.00  0.00    -0.014 A 
BRANCH  45  46
ATOM     46  C   UNL     1     -14.655   1.464   5.080  1.00  0.00     0.031 A 
ATOM     47  C   UNL     1     -15.872   2.249   4.652  1.00  0.00     0.074 A 
ATOM     48  C   UNL     1     -14.198   1.551   6.346  1.00  0.00     0.049 A 
ATOM     49  N   UNL     1     -16.595   3.091   5.344  1.00  0.00    -0.248 NA
ATOM     50  C   UNL     1     -16.315   2.092   3.255  1.00  0.00     0.031 C 
ATOM     51  C   UNL     1     -13.004   0.878   6.867  1.00  0.00     0.029 A 
ATOM     52  N   UNL     1     -14.683   2.244   7.426  1.00  0.00    -0.354 N 
ATOM     53  C   UNL     1     -17.562   3.569   4.466  1.00  0.00     0.074 A 
ATOM     54  C   UNL     1     -17.293   2.982   3.174  1.00  0.00     0.031 C 
ATOM     55  C   UNL     1     -12.872   1.163   8.172  1.00  0.00     0.029 A 
ATOM     56  C   UNL     1     -13.940   2.072   8.572  1.00  0.00     0.049 A 
ATOM     57  H   UNL     1     -15.486   2.811   7.386  1.00  0.00     0.167 HD
ATOM     58  C   UNL     1     -18.606   4.392   4.719  1.00  0.00     0.031 A 
ATOM     59  C   UNL     1     -14.101   2.594   9.803  1.00  0.00     0.031 A 
ATOM     60  C   UNL     1     -18.890   4.949   6.013  1.00  0.00     0.049 A 
ATOM     61  C   UNL     1     -15.268   3.512  10.055  1.00  0.00     0.074 A 
ATOM     62  C   UNL     1     -19.942   5.767   6.386  1.00  0.00     0.029 A 
ATOM     63  N   UNL     1     -18.128   4.729   7.150  1.00  0.00    -0.354 N 
ATOM     64  N   UNL     1     -16.198   3.912   9.220  1.00  0.00    -0.248 NA
ATOM     65  C   UNL     1     -15.416   4.038  11.419  1.00  0.00     0.031 C 
ATOM     66  C   UNL     1     -19.794   6.073   7.742  1.00  0.00     0.029 A 
ATOM     67  C   UNL     1     -18.683   5.401   8.224  1.00  0.00     0.049 A 
ATOM     68  H   UNL     1     -17.313   4.178   7.187  1.00  0.00     0.167 HD
ATOM     69  C   UNL     1     -17.059   4.708   9.967  1.00  0.00     0.074 A 
ATOM     70  C   UNL     1     -16.550   4.717  11.323  1.00  0.00     0.031 C 
ATOM     71  C   UNL     1     -18.169   5.377   9.569  1.00  0.00     0.031 A 
BRANCH  58  72
ATOM     72  C   UNL     1     -19.540   4.713   3.581  1.00  0.00    -0.014 A 
ATOM     73  C   UNL     1     -20.401   3.729   3.061  1.00  0.00     0.010 A 
ATOM     74  C   UNL     1     -19.610   6.022   3.071  1.00  0.00     0.010 A 
ATOM     75  C   UNL     1     -21.297   4.041   2.035  1.00  0.00     0.020 A 
ATOM     76  C   UNL     1     -20.525   6.345   2.064  1.00  0.00     0.020 A 
ATOM     77  C   UNL     1     -21.357   5.349   1.547  1.00  0.00     0.054 A 
BRANCH  77  78
ATOM     78  S   UNL     1     -22.573   5.735   0.258  1.00  0.00     0.124 S 
ATOM     79  O   UNL     1     -22.007   5.053  -0.904  1.00  0.00    -0.237 OA
ATOM     80  O   UNL     1     -23.800   5.151   0.792  1.00  0.00    -0.237 OA
ATOM     81  O   UNL     1     -22.558   7.194   0.191  1.00  0.00    -0.744 OA
ENDBRANCH  77  78
ENDBRANCH  58  72
BRANCH  59  82
ATOM     82  C   UNL     1     -13.141   2.267  10.895  1.00  0.00    -0.014 A 
ATOM     83  C   UNL     1     -13.552   1.516  12.011  1.00  0.00     0.010 A 
ATOM     84  C   UNL     1     -11.816   2.738  10.842  1.00  0.00     0.010 A 
ATOM     85  C   UNL     1     -12.673   1.285  13.074  1.00  0.00     0.020 A 
ATOM     86  C   UNL     1     -10.924   2.480  11.887  1.00  0.00     0.020 A 
ATOM     87  C   UNL     1     -11.366   1.776  13.008  1.00  0.00     0.054 A 
BRANCH  87  88
ATOM     88  S   UNL     1     -10.243   1.471  14.400  1.00  0.00     0.124 S 
ATOM     89  O   UNL     1     -10.748   2.402  15.404  1.00  0.00    -0.237 OA
ATOM     90  O   UNL     1     -10.464   0.055  14.682  1.00  0.00    -0.237 OA
ATOM     91  O   UNL     1      -8.927   1.792  13.853  1.00  0.00    -0.744 OA
ENDBRANCH  87  88
ENDBRANCH  59  82
BRANCH  71  92
ATOM     92  C   UNL     1     -18.938   6.128  10.620  1.00  0.00    -0.014 A 
ATOM     93  C   UNL     1     -18.439   7.317  11.181  1.00  0.00     0.010 A 
ATOM     94  C   UNL     1     -20.209   5.665  11.008  1.00  0.00     0.010 A 
ATOM     95  C   UNL     1     -19.183   8.011  12.137  1.00  0.00     0.020 A 
ATOM     96  C   UNL     1     -20.969   6.373  11.941  1.00  0.00     0.020 A 
ATOM     97  C   UNL     1     -20.445   7.534  12.511  1.00  0.00     0.054 A 
BRANCH  97  98
ATOM     98  S   UNL     1     -21.410   8.479  13.720  1.00  0.00     0.124 S 
ATOM     99  O   UNL     1     -20.702   8.192  14.964  1.00  0.00    -0.237 OA
ATOM    100  O   UNL     1     -21.287   9.849  13.228  1.00  0.00    -0.237 OA
ATOM    101  O   UNL     1     -22.750   7.905  13.619  1.00  0.00    -0.744 OA
ENDBRANCH  97  98
ENDBRANCH  71  92
ENDBRANCH  45  46
ENDBRANCH  37  40
ENDBRANCH  35  36
ENDBRANCH  34  35
ENDBRANCH   1  34
TORSDOF 18
