REMARK SMILES C[C@@H](C(=O)NCCCNC(=O)c1ccc(-c2c3nc(c(-c4ccc(S(=O)(=O)[O-])cc4)c4ccc([nH]4)c(-c4ccc(S(=O)(=O)[O-])cc4)c4nc(c(-c5ccc(S(=O)(=O)[O-])cc5)c5ccc2[nH]5)C=C4)C=C3)cc1)c1ccc(N[C@H]2CCC[C@@H]2O)cc1F
REMARK SMILES IDX 6 1 5 2 3 3 4 4 2 6 1 7 72 8 73 9 84 10 74 11 83 12 85 13
REMARK SMILES IDX 75 14 76 15 77 17 78 18 81 19 79 20 80 21 82 22 7 24 8 25
REMARK SMILES IDX 9 26 10 27 11 29 12 30 13 31 71 32 14 33 70 34 15 35 16 36
REMARK SMILES IDX 17 37 64 38 18 39 69 40 63 41 65 42 19 43 68 44 62 45 61 46
REMARK SMILES IDX 20 48 50 49 31 50 49 51 32 52 35 53 48 54 66 55 33 56 34 57
REMARK SMILES IDX 47 59 67 60 36 61 21 62 22 63 30 64 23 65 29 66 24 67 25 68
REMARK SMILES IDX 26 69 27 70 28 71 51 72 52 73 60 74 53 75 59 76 54 77 55 78
REMARK SMILES IDX 56 79 57 80 58 81 37 82 38 83 46 84 39 85 45 86 40 87 41 88
REMARK SMILES IDX 42 89 43 90 44 91
REMARK H PARENT 5 5 76 16 82 23 9 28 65 47 35 58
REMARK Flexibility Score: inf
ROOT
ATOM      1  C   UNL     1       3.568   0.348  -1.897  1.00  0.00     0.117 C 
ENDROOT
BRANCH   1   2
ATOM      2  N   UNL     1       2.504  -0.334  -2.607  1.00  0.00    -0.356 N 
ATOM      3  C   UNL     1       1.162  -0.392  -2.357  1.00  0.00     0.227 C 
ATOM      4  O   UNL     1       0.476  -0.975  -3.199  1.00  0.00    -0.274 OA
ATOM      5  H   UNL     1       2.797  -0.839  -3.400  1.00  0.00     0.163 HD
BRANCH   3   6
ATOM      6  C   UNL     1       0.577   0.309  -1.120  1.00  0.00     0.108 C 
ATOM      7  C   UNL     1       1.022  -0.332   0.197  1.00  0.00     0.023 C 
BRANCH   6   8
ATOM      8  C   UNL     1      -0.942   0.393  -1.150  1.00  0.00     0.000 A 
ATOM      9  C   UNL     1      -1.581   1.637  -1.146  1.00  0.00     0.009 A 
ATOM     10  C   UNL     1      -1.746  -0.747  -1.132  1.00  0.00     0.129 A 
ATOM     11  C   UNL     1      -2.980   1.720  -1.125  1.00  0.00     0.026 A 
ATOM     12  C   UNL     1      -3.137  -0.658  -1.130  1.00  0.00     0.065 A 
ATOM     13  F   UNL     1      -1.187  -1.966  -1.084  1.00  0.00    -0.207 F 
ATOM     14  C   UNL     1      -3.789   0.581  -1.135  1.00  0.00     0.037 A 
BRANCH  14  15
ATOM     15  N   UNL     1      -5.166   0.596  -1.079  1.00  0.00    -0.380 N 
ATOM     16  H   UNL     1      -5.591  -0.291  -1.105  1.00  0.00     0.160 HD
BRANCH  15  17
ATOM     17  C   UNL     1      -6.094   1.719  -0.986  1.00  0.00     0.107 C 
ATOM     18  C   UNL     1      -5.884   2.606   0.247  1.00  0.00     0.027 C 
ATOM     19  C   UNL     1      -6.087   2.653  -2.209  1.00  0.00     0.136 C 
ATOM     20  C   UNL     1      -5.854   4.044  -0.268  1.00  0.00     0.005 C 
ATOM     21  C   UNL     1      -6.522   3.993  -1.632  1.00  0.00     0.034 C 
BRANCH  19  22
ATOM     22  O   UNL     1      -7.013   2.227  -3.204  1.00  0.00    -0.391 OA
ATOM     23  H   UNL     1      -7.903   2.184  -2.820  1.00  0.00     0.211 HD
ENDBRANCH  19  22
ENDBRANCH  15  17
ENDBRANCH  14  15
ENDBRANCH   6   8
ENDBRANCH   3   6
ENDBRANCH   1   2
BRANCH   1  24
ATOM     24  C   UNL     1       4.462  -0.615  -1.119  1.00  0.00     0.042 C 
BRANCH  24  25
ATOM     25  C   UNL     1       5.183  -1.652  -1.976  1.00  0.00     0.118 C 
BRANCH  25  26
ATOM     26  N   UNL     1       6.088  -1.055  -2.944  1.00  0.00    -0.352 N 
ATOM     27  C   UNL     1       7.431  -1.246  -3.144  1.00  0.00     0.251 C 
ATOM     28  H   UNL     1       5.668  -0.408  -3.556  1.00  0.00     0.163 HD
ATOM     29  O   UNL     1       8.026  -0.493  -3.918  1.00  0.00    -0.269 OA
BRANCH  27  30
ATOM     30  C   UNL     1       8.176  -2.314  -2.440  1.00  0.00     0.039 A 
ATOM     31  C   UNL     1       9.476  -2.039  -2.005  1.00  0.00     0.014 A 
ATOM     32  C   UNL     1       7.639  -3.591  -2.249  1.00  0.00     0.014 A 
ATOM     33  C   UNL     1      10.212  -3.020  -1.335  1.00  0.00     0.010 A 
ATOM     34  C   UNL     1       8.348  -4.548  -1.519  1.00  0.00     0.010 A 
ATOM     35  C   UNL     1       9.643  -4.274  -1.058  1.00  0.00    -0.014 A 
BRANCH  35  36
ATOM     36  C   UNL     1      10.398  -5.287  -0.275  1.00  0.00     0.031 A 
ATOM     37  C   UNL     1      10.833  -6.583  -0.905  1.00  0.00     0.074 A 
ATOM     38  C   UNL     1      10.671  -5.046   1.023  1.00  0.00     0.049 A 
ATOM     39  N   UNL     1      11.521  -7.564  -0.376  1.00  0.00    -0.248 NA
ATOM     40  C   UNL     1      10.430  -6.819  -2.300  1.00  0.00     0.031 C 
ATOM     41  C   UNL     1      10.256  -3.854   1.767  1.00  0.00     0.029 A 
ATOM     42  N   UNL     1      11.364  -5.788   1.946  1.00  0.00    -0.354 N 
ATOM     43  C   UNL     1      11.629  -8.532  -1.368  1.00  0.00     0.074 A 
ATOM     44  C   UNL     1      10.893  -8.042  -2.514  1.00  0.00     0.031 C 
ATOM     45  C   UNL     1      10.732  -3.930   3.020  1.00  0.00     0.029 A 
ATOM     46  C   UNL     1      11.459  -5.186   3.178  1.00  0.00     0.049 A 
ATOM     47  H   UNL     1      11.757  -6.668   1.744  1.00  0.00     0.167 HD
ATOM     48  C   UNL     1      12.297  -9.711  -1.338  1.00  0.00     0.031 A 
ATOM     49  C   UNL     1      12.066  -5.592   4.309  1.00  0.00     0.031 A 
ATOM     50  C   UNL     1      13.031 -10.198  -0.199  1.00  0.00     0.049 A 
ATOM     51  C   UNL     1      12.812  -6.896   4.314  1.00  0.00     0.074 A 
ATOM     52  C   UNL     1      13.779 -11.358  -0.088  1.00  0.00     0.029 A 
ATOM     53  N   UNL     1      13.110  -9.554   1.026  1.00  0.00    -0.354 N 
ATOM     54  N   UNL     1      12.958  -7.765   3.342  1.00  0.00    -0.248 NA
ATOM     55  C   UNL     1      13.491  -7.264   5.563  1.00  0.00     0.031 C 
ATOM     56  C   UNL     1      14.276 -11.435   1.219  1.00  0.00     0.029 A 
ATOM     57  C   UNL     1      13.878 -10.300   1.906  1.00  0.00     0.049 A 
ATOM     58  H   UNL     1      12.683  -8.693   1.240  1.00  0.00     0.167 HD
ATOM     59  C   UNL     1      13.756  -8.778   3.859  1.00  0.00     0.074 A 
ATOM     60  C   UNL     1      14.083  -8.400   5.220  1.00  0.00     0.031 C 
ATOM     61  C   UNL     1      14.178  -9.921   3.263  1.00  0.00     0.031 A 
BRANCH  48  62
ATOM     62  C   UNL     1      12.264 -10.558  -2.584  1.00  0.00    -0.014 A 
ATOM     63  C   UNL     1      12.967 -10.171  -3.739  1.00  0.00     0.010 A 
ATOM     64  C   UNL     1      11.554 -11.772  -2.590  1.00  0.00     0.010 A 
ATOM     65  C   UNL     1      12.927 -10.960  -4.891  1.00  0.00     0.020 A 
ATOM     66  C   UNL     1      11.532 -12.578  -3.733  1.00  0.00     0.020 A 
ATOM     67  C   UNL     1      12.205 -12.158  -4.883  1.00  0.00     0.054 A 
BRANCH  67  68
ATOM     68  S   UNL     1      12.186 -13.174  -6.386  1.00  0.00     0.124 S 
ATOM     69  O   UNL     1      11.280 -12.418  -7.247  1.00  0.00    -0.237 OA
ATOM     70  O   UNL     1      13.588 -13.171  -6.794  1.00  0.00    -0.237 OA
ATOM     71  O   UNL     1      11.677 -14.463  -5.926  1.00  0.00    -0.744 OA
ENDBRANCH  67  68
ENDBRANCH  48  62
BRANCH  49  72
ATOM     72  C   UNL     1      12.010  -4.737   5.525  1.00  0.00    -0.014 A 
ATOM     73  C   UNL     1      13.148  -4.036   5.959  1.00  0.00     0.010 A 
ATOM     74  C   UNL     1      10.807  -4.602   6.242  1.00  0.00     0.010 A 
ATOM     75  C   UNL     1      13.089  -3.225   7.096  1.00  0.00     0.020 A 
ATOM     76  C   UNL     1      10.737  -3.773   7.364  1.00  0.00     0.020 A 
ATOM     77  C   UNL     1      11.883  -3.098   7.791  1.00  0.00     0.054 A 
BRANCH  77  78
ATOM     78  S   UNL     1      11.809  -1.990   9.226  1.00  0.00     0.124 S 
ATOM     79  O   UNL     1      12.469  -2.785  10.257  1.00  0.00    -0.237 OA
ATOM     80  O   UNL     1      12.546  -0.818   8.761  1.00  0.00    -0.237 OA
ATOM     81  O   UNL     1      10.376  -1.778   9.418  1.00  0.00    -0.744 OA
ENDBRANCH  77  78
ENDBRANCH  49  72
BRANCH  61  82
ATOM     82  C   UNL     1      15.048 -10.836   4.082  1.00  0.00    -0.014 A 
ATOM     83  C   UNL     1      14.512 -11.588   5.143  1.00  0.00     0.010 A 
ATOM     84  C   UNL     1      16.416 -10.956   3.779  1.00  0.00     0.010 A 
ATOM     85  C   UNL     1      15.338 -12.407   5.916  1.00  0.00     0.020 A 
ATOM     86  C   UNL     1      17.240 -11.794   4.534  1.00  0.00     0.020 A 
ATOM     87  C   UNL     1      16.700 -12.499   5.612  1.00  0.00     0.054 A 
BRANCH  87  88
ATOM     88  S   UNL     1      17.753 -13.575   6.623  1.00  0.00     0.124 S 
ATOM     89  O   UNL     1      17.939 -12.770   7.827  1.00  0.00    -0.237 OA
ATOM     90  O   UNL     1      16.930 -14.771   6.787  1.00  0.00    -0.237 OA
ATOM     91  O   UNL     1      18.948 -13.757   5.803  1.00  0.00    -0.744 OA
ENDBRANCH  87  88
ENDBRANCH  61  82
ENDBRANCH  35  36
ENDBRANCH  27  30
ENDBRANCH  25  26
ENDBRANCH  24  25
ENDBRANCH   1  24
TORSDOF 17
