REMARK SMILES COc1cc([C@@H]2[NH2+][C@H](C(=O)NCCCNC(=O)c3ccc(-c4c5nc(c(-c6ccc(S(=O)(=O)[O-])cc6)c6ccc([nH]6)c(-c6ccc(S(=O)(=O)[O-])cc6)c6nc(c(-c7ccc(S(=O)(=O)[O-])cc7)c7ccc4[nH]7)C=C6)C=C5)cc3)CS2)ccc1OCc1ccc(Cl)cc1
REMARK SMILES IDX 12 1 11 2 9 3 10 4 8 6 6 7 7 8 79 9 78 12 5 13 3 14 4 15
REMARK SMILES IDX 82 16 81 17 80 18 2 19 1 20 83 21 84 22 85 23 86 24 91 25
REMARK SMILES IDX 87 26 90 27 88 28 89 29 13 30 14 31 15 32 16 33 17 35 18 36
REMARK SMILES IDX 19 37 77 38 20 39 76 40 21 41 22 42 23 43 70 44 24 45 75 46
REMARK SMILES IDX 69 47 71 48 25 49 74 50 68 51 67 52 26 54 56 55 37 56 55 57
REMARK SMILES IDX 38 58 41 59 54 60 72 61 39 62 40 63 53 65 73 66 42 67 27 68
REMARK SMILES IDX 28 69 36 70 29 71 35 72 30 73 31 74 32 75 33 76 34 77 57 78
REMARK SMILES IDX 58 79 66 80 59 81 65 82 60 83 61 84 62 85 63 86 64 87 43 88
REMARK SMILES IDX 44 89 52 90 45 91 51 92 46 93 47 94 48 95 49 96 50 97
REMARK H PARENT 11 5 7 10 7 11 15 34 71 53 41 64
REMARK Flexibility Score: inf
ROOT
ATOM      1  C   UNL     1       3.130   0.905  -5.272  1.00  0.00     0.118 C 
ENDROOT
BRANCH   1   2
ATOM      2  N   UNL     1       3.263   0.552  -6.678  1.00  0.00    -0.351 N 
ATOM      3  C   UNL     1       2.401   0.668  -7.729  1.00  0.00     0.279 C 
ATOM      4  O   UNL     1       2.816   0.270  -8.825  1.00  0.00    -0.268 OA
ATOM      5  H   UNL     1       4.134   0.159  -6.913  1.00  0.00     0.163 HD
BRANCH   3   6
ATOM      6  C   UNL     1       1.005   1.317  -7.645  1.00  0.00     0.283 C 
ATOM      7  C   UNL     1      -0.802   1.735  -6.074  1.00  0.00     0.274 C 
ATOM      8  N   UNL     1       0.177   0.748  -6.567  1.00  0.00    -0.321 N 
ATOM      9  S   UNL     1      -0.599   3.261  -7.033  1.00  0.00    -0.088 SA
ATOM     10  H   UNL     1      -0.322  -0.067  -6.925  1.00  0.00     0.348 HD
ATOM     11  H   UNL     1       0.788   0.482  -5.794  1.00  0.00     0.348 HD
ATOM     12  C   UNL     1       1.085   2.828  -7.525  1.00  0.00     0.151 C 
BRANCH   7  13
ATOM     13  C   UNL     1      -0.565   1.856  -4.571  1.00  0.00     0.024 A 
ATOM     14  C   UNL     1      -0.272   0.516  -2.552  1.00  0.00     0.161 A 
ATOM     15  C   UNL     1      -0.921   0.751  -3.767  1.00  0.00     0.061 A 
ATOM     16  C   UNL     1       0.730   1.394  -2.139  1.00  0.00     0.161 A 
ATOM     17  C   UNL     1       0.933   2.592  -2.827  1.00  0.00     0.051 A 
ATOM     18  C   UNL     1       0.272   2.838  -4.024  1.00  0.00     0.015 A 
BRANCH  14  19
ATOM     19  O   UNL     1      -0.444  -0.719  -1.987  1.00  0.00    -0.493 OA
ATOM     20  C   UNL     1      -1.520  -0.713  -1.046  1.00  0.00     0.278 C 
ENDBRANCH  14  19
BRANCH  16  21
ATOM     21  O   UNL     1       1.740   1.127  -1.262  1.00  0.00    -0.485 OA
BRANCH  21  22
ATOM     22  C   UNL     1       1.430   0.457  -0.054  1.00  0.00     0.265 C 
BRANCH  22  23
ATOM     23  C   UNL     1       0.730   1.347   0.928  1.00  0.00    -0.011 A 
ATOM     24  C   UNL     1       0.953   2.732   0.912  1.00  0.00     0.009 A 
ATOM     25  C   UNL     1      -0.107   0.796   1.900  1.00  0.00     0.009 A 
ATOM     26  C   UNL     1       0.254   3.564   1.776  1.00  0.00     0.021 A 
ATOM     27  C   UNL     1      -0.793   1.626   2.780  1.00  0.00     0.021 A 
ATOM     28  C   UNL     1      -0.633   3.007   2.694  1.00  0.00     0.041 A 
ATOM     29  Cl  UNL     1      -1.546   4.040   3.719  1.00  0.00    -0.084 Cl
ENDBRANCH  22  23
ENDBRANCH  21  22
ENDBRANCH  16  21
ENDBRANCH   7  13
ENDBRANCH   3   6
ENDBRANCH   1   2
BRANCH   1  30
ATOM     30  C   UNL     1       2.929  -0.318  -4.386  1.00  0.00     0.042 C 
BRANCH  30  31
ATOM     31  C   UNL     1       4.029  -0.675  -3.380  1.00  0.00     0.118 C 
BRANCH  31  32
ATOM     32  N   UNL     1       4.559   0.374  -2.515  1.00  0.00    -0.352 N 
ATOM     33  C   UNL     1       4.970   0.374  -1.191  1.00  0.00     0.251 C 
ATOM     34  H   UNL     1       4.641   1.250  -2.956  1.00  0.00     0.163 HD
ATOM     35  O   UNL     1       5.519   1.393  -0.766  1.00  0.00    -0.269 OA
BRANCH  33  36
ATOM     36  C   UNL     1       4.683  -0.742  -0.234  1.00  0.00     0.039 A 
ATOM     37  C   UNL     1       4.502  -0.427   1.128  1.00  0.00     0.014 A 
ATOM     38  C   UNL     1       4.470  -2.057  -0.633  1.00  0.00     0.014 A 
ATOM     39  C   UNL     1       3.945  -1.362   2.018  1.00  0.00     0.010 A 
ATOM     40  C   UNL     1       3.853  -2.970   0.224  1.00  0.00     0.010 A 
ATOM     41  C   UNL     1       3.583  -2.634   1.558  1.00  0.00    -0.014 A 
BRANCH  41  42
ATOM     42  C   UNL     1       3.196  -3.718   2.498  1.00  0.00     0.031 A 
ATOM     43  C   UNL     1       4.269  -4.701   2.871  1.00  0.00     0.074 A 
ATOM     44  C   UNL     1       1.942  -3.888   2.960  1.00  0.00     0.049 A 
ATOM     45  N   UNL     1       4.197  -5.757   3.634  1.00  0.00    -0.248 NA
ATOM     46  C   UNL     1       5.591  -4.487   2.253  1.00  0.00     0.031 C 
ATOM     47  C   UNL     1       0.790  -3.062   2.611  1.00  0.00     0.029 A 
ATOM     48  N   UNL     1       1.424  -4.825   3.824  1.00  0.00    -0.354 N 
ATOM     49  C   UNL     1       5.457  -6.338   3.573  1.00  0.00     0.074 A 
ATOM     50  C   UNL     1       6.244  -5.566   2.641  1.00  0.00     0.031 C 
ATOM     51  C   UNL     1      -0.290  -3.497   3.290  1.00  0.00     0.029 A 
ATOM     52  C   UNL     1       0.084  -4.657   4.099  1.00  0.00     0.049 A 
ATOM     53  H   UNL     1       1.963  -5.552   4.212  1.00  0.00     0.167 HD
ATOM     54  C   UNL     1       5.935  -7.403   4.253  1.00  0.00     0.031 A 
ATOM     55  C   UNL     1      -0.736  -5.360   4.910  1.00  0.00     0.031 A 
ATOM     56  C   UNL     1       5.157  -8.181   5.172  1.00  0.00     0.049 A 
ATOM     57  C   UNL     1      -0.182  -6.551   5.661  1.00  0.00     0.074 A 
ATOM     58  C   UNL     1       5.558  -9.258   5.938  1.00  0.00     0.029 A 
ATOM     59  N   UNL     1       3.815  -7.966   5.444  1.00  0.00    -0.354 N 
ATOM     60  N   UNL     1       1.038  -7.036   5.660  1.00  0.00    -0.248 NA
ATOM     61  C   UNL     1      -1.117  -7.288   6.525  1.00  0.00     0.031 C 
ATOM     62  C   UNL     1       4.442  -9.731   6.636  1.00  0.00     0.029 A 
ATOM     63  C   UNL     1       3.365  -8.905   6.354  1.00  0.00     0.049 A 
ATOM     64  H   UNL     1       3.265  -7.251   5.049  1.00  0.00     0.167 HD
ATOM     65  C   UNL     1       1.021  -8.116   6.540  1.00  0.00     0.074 A 
ATOM     66  C   UNL     1      -0.323  -8.197   7.074  1.00  0.00     0.031 C 
ATOM     67  C   UNL     1       2.023  -8.968   6.875  1.00  0.00     0.031 A 
BRANCH  54  68
ATOM     68  C   UNL     1       7.369  -7.770   4.002  1.00  0.00    -0.014 A 
ATOM     69  C   UNL     1       8.413  -6.920   4.415  1.00  0.00     0.010 A 
ATOM     70  C   UNL     1       7.677  -8.957   3.316  1.00  0.00     0.010 A 
ATOM     71  C   UNL     1       9.737  -7.224   4.098  1.00  0.00     0.020 A 
ATOM     72  C   UNL     1       9.005  -9.282   3.029  1.00  0.00     0.020 A 
ATOM     73  C   UNL     1      10.023  -8.403   3.404  1.00  0.00     0.054 A 
BRANCH  73  74
ATOM     74  S   UNL     1      11.754  -8.776   3.020  1.00  0.00     0.124 S 
ATOM     75  O   UNL     1      12.044  -7.807   1.967  1.00  0.00    -0.237 OA
ATOM     76  O   UNL     1      12.422  -8.541   4.294  1.00  0.00    -0.237 OA
ATOM     77  O   UNL     1      11.717 -10.174   2.586  1.00  0.00    -0.744 OA
ENDBRANCH  73  74
ENDBRANCH  54  68
BRANCH  55  78
ATOM     78  C   UNL     1      -2.170  -4.972   5.085  1.00  0.00    -0.014 A 
ATOM     79  C   UNL     1      -2.635  -4.496   6.326  1.00  0.00     0.010 A 
ATOM     80  C   UNL     1      -3.091  -5.125   4.034  1.00  0.00     0.010 A 
ATOM     81  C   UNL     1      -3.991  -4.209   6.521  1.00  0.00     0.020 A 
ATOM     82  C   UNL     1      -4.444  -4.809   4.215  1.00  0.00     0.020 A 
ATOM     83  C   UNL     1      -4.888  -4.366   5.462  1.00  0.00     0.054 A 
BRANCH  83  84
ATOM     84  S   UNL     1      -6.636  -3.949   5.724  1.00  0.00     0.124 S 
ATOM     85  O   UNL     1      -7.088  -5.046   6.572  1.00  0.00    -0.237 OA
ATOM     86  O   UNL     1      -6.554  -2.641   6.368  1.00  0.00    -0.237 OA
ATOM     87  O   UNL     1      -7.189  -3.934   4.370  1.00  0.00    -0.744 OA
ENDBRANCH  83  84
ENDBRANCH  55  78
BRANCH  67  88
ATOM     88  C   UNL     1       1.722 -10.039   7.892  1.00  0.00    -0.014 A 
ATOM     89  C   UNL     1       0.881 -11.124   7.591  1.00  0.00     0.010 A 
ATOM     90  C   UNL     1       2.342  -9.984   9.155  1.00  0.00     0.010 A 
ATOM     91  C   UNL     1       0.631 -12.112   8.548  1.00  0.00     0.020 A 
ATOM     92  C   UNL     1       2.122 -10.987  10.102  1.00  0.00     0.020 A 
ATOM     93  C   UNL     1       1.252 -12.035   9.799  1.00  0.00     0.054 A 
BRANCH  93  94
ATOM     94  S   UNL     1       0.932 -13.342  11.015  1.00  0.00     0.124 S 
ATOM     95  O   UNL     1      -0.434 -13.040  11.432  1.00  0.00    -0.237 OA
ATOM     96  O   UNL     1       1.095 -14.560  10.226  1.00  0.00    -0.237 OA
ATOM     97  O   UNL     1       1.957 -13.126  12.034  1.00  0.00    -0.744 OA
ENDBRANCH  93  94
ENDBRANCH  67  88
ENDBRANCH  41  42
ENDBRANCH  33  36
ENDBRANCH  31  32
ENDBRANCH  30  31
ENDBRANCH   1  30
TORSDOF 18
