REMARK SMILES [NH3+][C@H]1CCC[C@H]1C(=O)NCc1ccc(C(=O)NCCCNC(=O)c2ccc(-c3c4nc(c(-c5ccc(S(=O)(=O)[O-])cc5)c5ccc([nH]5)c(-c5ccc(S(=O)(=O)[O-])cc5)c5nc(c(-c6ccc(S(=O)(=O)[O-])cc6)c6ccc3[nH]6)C=C5)C=C4)cc2)o1
REMARK SMILES IDX 18 1 17 2 15 3 16 4 14 6 11 7 12 8 84 9 13 10 10 11 9 12
REMARK SMILES IDX 7 13 8 14 6 16 2 17 3 18 4 19 5 20 1 21 19 25 20 26 21 27
REMARK SMILES IDX 22 28 23 30 24 31 25 32 83 33 26 34 82 35 27 36 28 37 29 38
REMARK SMILES IDX 76 39 30 40 81 41 75 42 77 43 31 44 80 45 74 46 73 47 32 49
REMARK SMILES IDX 62 50 43 51 61 52 44 53 47 54 60 55 78 56 45 57 46 58 59 60
REMARK SMILES IDX 79 61 48 62 33 63 34 64 42 65 35 66 41 67 36 68 37 69 38 70
REMARK SMILES IDX 39 71 40 72 63 73 64 74 72 75 65 76 71 77 66 78 67 79 68 80
REMARK SMILES IDX 69 81 70 82 49 83 50 84 58 85 51 86 57 87 52 88 53 89 54 90
REMARK SMILES IDX 55 91 56 92
REMARK H PARENT 17 5 9 15 1 22 1 23 1 24 21 29 77 48 47 59
REMARK Flexibility Score: inf
ROOT
ATOM      1  C   UNL     1       2.083   3.471  -6.376  1.00  0.00     0.118 C 
ENDROOT
BRANCH   1   2
ATOM      2  N   UNL     1       2.689   2.455  -7.220  1.00  0.00    -0.349 N 
ATOM      3  C   UNL     1       2.941   1.131  -6.938  1.00  0.00     0.286 C 
ATOM      4  O   UNL     1       3.163   0.391  -7.905  1.00  0.00    -0.266 OA
ATOM      5  H   UNL     1       2.956   2.756  -8.118  1.00  0.00     0.163 HD
BRANCH   3   6
ATOM      6  C   UNL     1       2.934   0.662  -5.570  1.00  0.00     0.191 A 
ATOM      7  C   UNL     1       2.550  -0.830  -3.982  1.00  0.00     0.124 A 
ATOM      8  C   UNL     1       3.155   0.247  -3.369  1.00  0.00     0.048 A 
ATOM      9  O   UNL     1       2.430  -0.591  -5.319  1.00  0.00    -0.454 OA
ATOM     10  C   UNL     1       3.398   1.200  -4.383  1.00  0.00     0.056 A 
BRANCH   7  11
ATOM     11  C   UNL     1       2.028  -2.135  -3.491  1.00  0.00     0.191 C 
BRANCH  11  12
ATOM     12  N   UNL     1       2.692  -2.461  -2.246  1.00  0.00    -0.348 N 
ATOM     13  C   UNL     1       2.251  -2.555  -0.972  1.00  0.00     0.229 C 
ATOM     14  O   UNL     1       3.122  -2.691  -0.103  1.00  0.00    -0.275 OA
ATOM     15  H   UNL     1       3.653  -2.651  -2.347  1.00  0.00     0.163 HD
BRANCH  13  16
ATOM     16  C   UNL     1       0.791  -2.517  -0.551  1.00  0.00     0.136 C 
ATOM     17  C   UNL     1       0.065  -1.166  -0.496  1.00  0.00     0.193 C 
ATOM     18  C   UNL     1      -1.359  -1.631  -0.162  1.00  0.00     0.066 C 
ATOM     19  C   UNL     1      -1.567  -2.899  -0.994  1.00  0.00     0.007 C 
ATOM     20  C   UNL     1      -0.172  -3.487  -1.234  1.00  0.00     0.020 C 
BRANCH  17  21
ATOM     21  N   UNL     1       0.022  -0.402  -1.740  1.00  0.00    -0.354 N 
ATOM     22  H   UNL     1      -0.482   0.471  -1.585  1.00  0.00     0.344 HD
ATOM     23  H   UNL     1      -0.456  -0.948  -2.458  1.00  0.00     0.344 HD
ATOM     24  H   UNL     1       0.973  -0.196  -2.046  1.00  0.00     0.344 HD
ENDBRANCH  17  21
ENDBRANCH  13  16
ENDBRANCH  11  12
ENDBRANCH   7  11
ENDBRANCH   3   6
ENDBRANCH   1   2
BRANCH   1  25
ATOM     25  C   UNL     1       3.080   4.496  -5.845  1.00  0.00     0.042 C 
BRANCH  25  26
ATOM     26  C   UNL     1       3.732   5.372  -6.910  1.00  0.00     0.118 C 
BRANCH  26  27
ATOM     27  N   UNL     1       2.803   6.313  -7.513  1.00  0.00    -0.352 N 
ATOM     28  C   UNL     1       2.818   7.686  -7.552  1.00  0.00     0.251 C 
ATOM     29  H   UNL     1       2.035   5.897  -7.969  1.00  0.00     0.163 HD
ATOM     30  O   UNL     1       1.825   8.274  -7.976  1.00  0.00    -0.269 OA
BRANCH  28  31
ATOM     31  C   UNL     1       3.989   8.469  -7.081  1.00  0.00     0.039 A 
ATOM     32  C   UNL     1       3.756   9.673  -6.406  1.00  0.00     0.014 A 
ATOM     33  C   UNL     1       5.303   8.077  -7.351  1.00  0.00     0.014 A 
ATOM     34  C   UNL     1       4.830  10.452  -5.961  1.00  0.00     0.010 A 
ATOM     35  C   UNL     1       6.374   8.821  -6.852  1.00  0.00     0.010 A 
ATOM     36  C   UNL     1       6.150  10.021  -6.160  1.00  0.00    -0.014 A 
BRANCH  36  37
ATOM     37  C   UNL     1       7.306  10.820  -5.675  1.00  0.00     0.031 A 
ATOM     38  C   UNL     1       8.262  11.443  -6.658  1.00  0.00     0.074 A 
ATOM     39  C   UNL     1       7.534  10.941  -4.352  1.00  0.00     0.049 A 
ATOM     40  N   UNL     1       9.374  12.094  -6.428  1.00  0.00    -0.248 NA
ATOM     41  C   UNL     1       7.937  11.294  -8.085  1.00  0.00     0.031 C 
ATOM     42  C   UNL     1       6.705  10.365  -3.291  1.00  0.00     0.029 A 
ATOM     43  N   UNL     1       8.541  11.583  -3.674  1.00  0.00    -0.354 N 
ATOM     44  C   UNL     1       9.897  12.405  -7.678  1.00  0.00     0.074 A 
ATOM     45  C   UNL     1       8.993  11.850  -8.663  1.00  0.00     0.031 C 
ATOM     46  C   UNL     1       7.229  10.691  -2.097  1.00  0.00     0.029 A 
ATOM     47  C   UNL     1       8.445  11.470  -2.307  1.00  0.00     0.049 A 
ATOM     48  H   UNL     1       9.263  12.077  -4.124  1.00  0.00     0.167 HD
ATOM     49  C   UNL     1      11.021  13.098  -7.982  1.00  0.00     0.031 A 
ATOM     50  C   UNL     1       9.248  11.935  -1.330  1.00  0.00     0.031 A 
ATOM     51  C   UNL     1      11.906  13.679  -7.009  1.00  0.00     0.049 A 
ATOM     52  C   UNL     1      10.471  12.732  -1.691  1.00  0.00     0.074 A 
ATOM     53  C   UNL     1      13.044  14.438  -7.224  1.00  0.00     0.029 A 
ATOM     54  N   UNL     1      11.747  13.577  -5.636  1.00  0.00    -0.354 N 
ATOM     55  N   UNL     1      10.928  13.041  -2.880  1.00  0.00    -0.248 NA
ATOM     56  C   UNL     1      11.278  13.250  -0.578  1.00  0.00     0.031 C 
ATOM     57  C   UNL     1      13.587  14.776  -5.979  1.00  0.00     0.029 A 
ATOM     58  C   UNL     1      12.767  14.255  -4.991  1.00  0.00     0.049 A 
ATOM     59  H   UNL     1      11.017  13.094  -5.186  1.00  0.00     0.167 HD
ATOM     60  C   UNL     1      12.065  13.809  -2.658  1.00  0.00     0.074 A 
ATOM     61  C   UNL     1      12.221  13.925  -1.222  1.00  0.00     0.031 C 
ATOM     62  C   UNL     1      12.904  14.369  -3.563  1.00  0.00     0.031 A 
BRANCH  49  63
ATOM     63  C   UNL     1      11.359  13.261  -9.439  1.00  0.00    -0.014 A 
ATOM     64  C   UNL     1      10.640  14.155 -10.252  1.00  0.00     0.010 A 
ATOM     65  C   UNL     1      12.427  12.534  -9.994  1.00  0.00     0.010 A 
ATOM     66  C   UNL     1      10.958  14.289 -11.606  1.00  0.00     0.020 A 
ATOM     67  C   UNL     1      12.761  12.680 -11.343  1.00  0.00     0.020 A 
ATOM     68  C   UNL     1      12.011  13.543 -12.145  1.00  0.00     0.054 A 
BRANCH  68  69
ATOM     69  S   UNL     1      12.414  13.741 -13.903  1.00  0.00     0.124 S 
ATOM     70  O   UNL     1      11.384  12.923 -14.539  1.00  0.00    -0.237 OA
ATOM     71  O   UNL     1      12.285  15.182 -14.107  1.00  0.00    -0.237 OA
ATOM     72  O   UNL     1      13.775  13.221 -14.005  1.00  0.00    -0.744 OA
ENDBRANCH  68  69
ENDBRANCH  49  63
BRANCH  50  73
ATOM     73  C   UNL     1       8.910  11.672   0.093  1.00  0.00    -0.014 A 
ATOM     74  C   UNL     1       8.375  12.694   0.895  1.00  0.00     0.010 A 
ATOM     75  C   UNL     1       9.108  10.395   0.647  1.00  0.00     0.010 A 
ATOM     76  C   UNL     1       8.055  12.448   2.233  1.00  0.00     0.020 A 
ATOM     77  C   UNL     1       8.770  10.140   1.979  1.00  0.00     0.020 A 
ATOM     78  C   UNL     1       8.256  11.171   2.767  1.00  0.00     0.054 A 
BRANCH  78  79
ATOM     79  S   UNL     1       7.777  10.850   4.488  1.00  0.00     0.124 S 
ATOM     80  O   UNL     1       8.921  11.379   5.223  1.00  0.00    -0.237 OA
ATOM     81  O   UNL     1       6.533  11.604   4.622  1.00  0.00    -0.237 OA
ATOM     82  O   UNL     1       7.621   9.398   4.528  1.00  0.00    -0.744 OA
ENDBRANCH  78  79
ENDBRANCH  50  73
BRANCH  62  83
ATOM     83  C   UNL     1      14.047  15.187  -3.030  1.00  0.00    -0.014 A 
ATOM     84  C   UNL     1      15.191  14.571  -2.496  1.00  0.00     0.010 A 
ATOM     85  C   UNL     1      13.993  16.590  -3.112  1.00  0.00     0.010 A 
ATOM     86  C   UNL     1      16.255  15.347  -2.028  1.00  0.00     0.020 A 
ATOM     87  C   UNL     1      15.062  17.368  -2.662  1.00  0.00     0.020 A 
ATOM     88  C   UNL     1      16.181  16.741  -2.110  1.00  0.00     0.054 A 
BRANCH  88  89
ATOM     89  S   UNL     1      17.590  17.732  -1.540  1.00  0.00     0.124 S 
ATOM     90  O   UNL     1      17.387  17.744  -0.094  1.00  0.00    -0.237 OA
ATOM     91  O   UNL     1      18.741  16.962  -2.006  1.00  0.00    -0.237 OA
ATOM     92  O   UNL     1      17.399  19.018  -2.208  1.00  0.00    -0.744 OA
ENDBRANCH  88  89
ENDBRANCH  62  83
ENDBRANCH  36  37
ENDBRANCH  28  31
ENDBRANCH  26  27
ENDBRANCH  25  26
ENDBRANCH   1  25
TORSDOF 17
