REMARK SMILES COc1cccc(CC(=O)N[C@@](C)(C(=O)NCCCNC(=O)c2ccc(-c3c4nc(c(-c5ccc(S(=O)(=O)[O-])cc5)c5ccc([nH]5)c(-c5ccc(S(=O)(=O)[O-])cc5)c5nc(c(-c6ccc(S(=O)(=O)[O-])cc6)c6ccc3[nH]6)C=C5)C=C4)cc2)C(F)(F)F)c1
REMARK SMILES IDX 17 1 16 2 14 3 15 4 12 6 13 7 11 8 9 9 10 10 8 12 7 13 3 14
REMARK SMILES IDX 4 15 87 16 5 17 6 18 2 19 1 20 83 21 84 22 85 23 86 24 18 25
REMARK SMILES IDX 19 26 20 27 21 28 22 30 23 31 24 32 82 33 25 34 81 35 26 36
REMARK SMILES IDX 27 37 28 38 75 39 29 40 80 41 74 42 76 43 30 44 79 45 73 46
REMARK SMILES IDX 72 47 31 49 61 50 42 51 60 52 43 53 46 54 59 55 77 56 44 57
REMARK SMILES IDX 45 58 58 60 78 61 47 62 32 63 33 64 41 65 34 66 40 67 35 68
REMARK SMILES IDX 36 69 37 70 38 71 39 72 62 73 63 74 71 75 64 76 70 77 65 78
REMARK SMILES IDX 66 79 67 80 68 81 69 82 48 83 49 84 57 85 50 86 56 87 51 88
REMARK SMILES IDX 52 89 53 90 54 91 55 92
REMARK H PARENT 16 5 11 11 20 29 76 48 46 59
REMARK Flexibility Score: inf
ROOT
ATOM      1  C   UNL     1       5.140   2.579  -6.487  1.00  0.00     0.117 C 
ENDROOT
BRANCH   1   2
ATOM      2  N   UNL     1       5.454   1.562  -5.500  1.00  0.00    -0.354 N 
ATOM      3  C   UNL     1       5.056   1.361  -4.219  1.00  0.00     0.254 C 
ATOM      4  O   UNL     1       5.819   0.653  -3.553  1.00  0.00    -0.272 OA
ATOM      5  H   UNL     1       6.085   0.880  -5.827  1.00  0.00     0.163 HD
BRANCH   3   6
ATOM      6  C   UNL     1       3.835   2.064  -3.598  1.00  0.00     0.212 C 
ATOM      7  C   UNL     1       2.601   2.067  -4.522  1.00  0.00     0.056 C 
BRANCH   6   8
ATOM      8  N   UNL     1       4.312   3.467  -3.352  1.00  0.00    -0.334 N 
ATOM      9  C   UNL     1       4.201   4.426  -2.405  1.00  0.00     0.225 C 
ATOM     10  O   UNL     1       4.661   5.531  -2.717  1.00  0.00    -0.275 OA
ATOM     11  H   UNL     1       4.869   3.780  -4.101  1.00  0.00     0.164 HD
BRANCH   9  12
ATOM     12  C   UNL     1       3.622   4.222  -1.022  1.00  0.00     0.135 C 
BRANCH  12  13
ATOM     13  C   UNL     1       2.134   4.000  -0.991  1.00  0.00    -0.035 A 
ATOM     14  C   UNL     1       0.275   2.570  -0.367  1.00  0.00     0.119 A 
ATOM     15  C   UNL     1      -0.576   3.356  -1.145  1.00  0.00     0.046 A 
ATOM     16  C   UNL     1       1.609   2.947  -0.224  1.00  0.00     0.050 A 
ATOM     17  C   UNL     1      -0.090   4.487  -1.805  1.00  0.00     0.004 A 
ATOM     18  C   UNL     1       1.264   4.805  -1.735  1.00  0.00     0.004 A 
BRANCH  14  19
ATOM     19  O   UNL     1      -0.285   1.439   0.162  1.00  0.00    -0.497 OA
ATOM     20  C   UNL     1       0.611   0.380   0.495  1.00  0.00     0.278 C 
ENDBRANCH  14  19
ENDBRANCH  12  13
ENDBRANCH   9  12
ENDBRANCH   6   8
BRANCH   6  21
ATOM     21  C   UNL     1       3.475   1.124  -2.427  1.00  0.00     0.420 C 
ATOM     22  F   UNL     1       4.228   1.302  -1.324  1.00  0.00    -0.168 F 
ATOM     23  F   UNL     1       2.183   1.298  -2.075  1.00  0.00    -0.168 F 
ATOM     24  F   UNL     1       3.539  -0.189  -2.769  1.00  0.00    -0.168 F 
ENDBRANCH   6  21
ENDBRANCH   3   6
ENDBRANCH   1   2
BRANCH   1  25
ATOM     25  C   UNL     1       6.375   3.381  -6.863  1.00  0.00     0.042 C 
BRANCH  25  26
ATOM     26  C   UNL     1       7.543   2.537  -7.350  1.00  0.00     0.118 C 
BRANCH  26  27
ATOM     27  N   UNL     1       7.206   1.722  -8.508  1.00  0.00    -0.352 N 
ATOM     28  C   UNL     1       7.741   1.747  -9.777  1.00  0.00     0.251 C 
ATOM     29  H   UNL     1       6.494   1.058  -8.364  1.00  0.00     0.163 HD
ATOM     30  O   UNL     1       7.208   1.120 -10.678  1.00  0.00    -0.269 OA
BRANCH  28  31
ATOM     31  C   UNL     1       8.945   2.565 -10.032  1.00  0.00     0.039 A 
ATOM     32  C   UNL     1       8.980   3.389 -11.158  1.00  0.00     0.014 A 
ATOM     33  C   UNL     1      10.018   2.542  -9.139  1.00  0.00     0.014 A 
ATOM     34  C   UNL     1      10.064   4.250 -11.344  1.00  0.00     0.010 A 
ATOM     35  C   UNL     1      11.043   3.470  -9.270  1.00  0.00     0.010 A 
ATOM     36  C   UNL     1      11.082   4.327 -10.379  1.00  0.00    -0.014 A 
BRANCH  36  37
ATOM     37  C   UNL     1      12.207   5.287 -10.512  1.00  0.00     0.031 A 
ATOM     38  C   UNL     1      13.620   4.777 -10.608  1.00  0.00     0.074 A 
ATOM     39  C   UNL     1      11.964   6.613 -10.471  1.00  0.00     0.049 A 
ATOM     40  N   UNL     1      14.738   5.453 -10.656  1.00  0.00    -0.248 NA
ATOM     41  C   UNL     1      13.802   3.315 -10.620  1.00  0.00     0.031 C 
ATOM     42  C   UNL     1      10.643   7.232 -10.328  1.00  0.00     0.029 A 
ATOM     43  N   UNL     1      12.822   7.681 -10.539  1.00  0.00    -0.354 N 
ATOM     44  C   UNL     1      15.752   4.503 -10.679  1.00  0.00     0.074 A 
ATOM     45  C   UNL     1      15.121   3.206 -10.584  1.00  0.00     0.031 C 
ATOM     46  C   UNL     1      10.777   8.567 -10.351  1.00  0.00     0.029 A 
ATOM     47  C   UNL     1      12.193   8.902 -10.465  1.00  0.00     0.049 A 
ATOM     48  H   UNL     1      13.798   7.583 -10.632  1.00  0.00     0.167 HD
ATOM     49  C   UNL     1      17.088   4.690 -10.794  1.00  0.00     0.031 A 
ATOM     50  C   UNL     1      12.699  10.151 -10.482  1.00  0.00     0.031 A 
ATOM     51  C   UNL     1      17.710   5.981 -10.911  1.00  0.00     0.049 A 
ATOM     52  C   UNL     1      14.186  10.334 -10.615  1.00  0.00     0.074 A 
ATOM     53  C   UNL     1      19.048   6.277 -11.097  1.00  0.00     0.029 A 
ATOM     54  N   UNL     1      17.035   7.191 -10.853  1.00  0.00    -0.354 N 
ATOM     55  N   UNL     1      15.123   9.421 -10.708  1.00  0.00    -0.248 NA
ATOM     56  C   UNL     1      14.682  11.716 -10.659  1.00  0.00     0.031 C 
ATOM     57  C   UNL     1      19.190   7.669 -11.100  1.00  0.00     0.029 A 
ATOM     58  C   UNL     1      17.932   8.238 -10.977  1.00  0.00     0.049 A 
ATOM     59  H   UNL     1      16.062   7.291 -10.741  1.00  0.00     0.167 HD
ATOM     60  C   UNL     1      16.318  10.118 -10.848  1.00  0.00     0.074 A 
ATOM     61  C   UNL     1      15.982  11.527 -10.844  1.00  0.00     0.031 C 
ATOM     62  C   UNL     1      17.579   9.636 -10.971  1.00  0.00     0.031 A 
BRANCH  49  63
ATOM     63  C   UNL     1      17.965   3.465 -10.799  1.00  0.00    -0.014 A 
ATOM     64  C   UNL     1      17.953   2.565 -11.880  1.00  0.00     0.010 A 
ATOM     65  C   UNL     1      18.839   3.227  -9.723  1.00  0.00     0.010 A 
ATOM     66  C   UNL     1      18.763   1.427 -11.865  1.00  0.00     0.020 A 
ATOM     67  C   UNL     1      19.675   2.106  -9.717  1.00  0.00     0.020 A 
ATOM     68  C   UNL     1      19.618   1.204 -10.782  1.00  0.00     0.054 A 
BRANCH  68  69
ATOM     69  S   UNL     1      20.676  -0.269 -10.800  1.00  0.00     0.124 S 
ATOM     70  O   UNL     1      19.710  -1.336 -10.549  1.00  0.00    -0.237 OA
ATOM     71  O   UNL     1      21.242  -0.239 -12.146  1.00  0.00    -0.237 OA
ATOM     72  O   UNL     1      21.629  -0.026  -9.720  1.00  0.00    -0.744 OA
ENDBRANCH  68  69
ENDBRANCH  49  63
BRANCH  50  73
ATOM     73  C   UNL     1      11.787  11.324 -10.389  1.00  0.00    -0.014 A 
ATOM     74  C   UNL     1      11.575  12.153 -11.505  1.00  0.00     0.010 A 
ATOM     75  C   UNL     1      11.112  11.610  -9.188  1.00  0.00     0.010 A 
ATOM     76  C   UNL     1      10.720  13.256 -11.417  1.00  0.00     0.020 A 
ATOM     77  C   UNL     1      10.234  12.695  -9.105  1.00  0.00     0.020 A 
ATOM     78  C   UNL     1      10.053  13.518 -10.217  1.00  0.00     0.054 A 
BRANCH  78  79
ATOM     79  S   UNL     1       8.908  14.924 -10.143  1.00  0.00     0.124 S 
ATOM     80  O   UNL     1       9.823  16.060 -10.123  1.00  0.00    -0.237 OA
ATOM     81  O   UNL     1       8.128  14.760 -11.367  1.00  0.00    -0.237 OA
ATOM     82  O   UNL     1       8.165  14.694  -8.906  1.00  0.00    -0.744 OA
ENDBRANCH  78  79
ENDBRANCH  50  73
BRANCH  62  83
ATOM     83  C   UNL     1      18.690  10.636 -11.146  1.00  0.00    -0.014 A 
ATOM     84  C   UNL     1      19.119  11.445 -10.080  1.00  0.00     0.010 A 
ATOM     85  C   UNL     1      19.353  10.723 -12.385  1.00  0.00     0.010 A 
ATOM     86  C   UNL     1      20.172  12.346 -10.259  1.00  0.00     0.020 A 
ATOM     87  C   UNL     1      20.424  11.601 -12.558  1.00  0.00     0.020 A 
ATOM     88  C   UNL     1      20.819  12.418 -11.497  1.00  0.00     0.054 A 
BRANCH  88  89
ATOM     89  S   UNL     1      22.212  13.562 -11.689  1.00  0.00     0.124 S 
ATOM     90  O   UNL     1      21.538  14.856 -11.737  1.00  0.00    -0.237 OA
ATOM     91  O   UNL     1      23.003  13.309 -10.487  1.00  0.00    -0.237 OA
ATOM     92  O   UNL     1      22.838  13.139 -12.940  1.00  0.00    -0.744 OA
ENDBRANCH  88  89
ENDBRANCH  62  83
ENDBRANCH  36  37
ENDBRANCH  28  31
ENDBRANCH  26  27
ENDBRANCH  25  26
ENDBRANCH   1  25
TORSDOF 18
