REMARK SMILES CCC[C@@]1(C(=O)NCCCNC(=O)c2ccc(-c3c4nc(c(-c5ccc(S(=O)(=O)[O-])cc5)c5ccc([nH]5)c(-c5ccc(S(=O)(=O)[O-])cc5)c5nc(c(-c6ccc(S(=O)(=O)[O-])cc6)c6ccc3[nH]6)C=C5)C=C4)cc2)CCCN(C(=O)CCn2cncn2)C1
REMARK SMILES IDX 8 1 7 2 5 3 6 4 4 6 74 7 87 8 75 9 77 10 76 11 3 12 2 13
REMARK SMILES IDX 1 14 78 15 79 16 80 17 81 18 82 19 83 20 86 21 84 22 85 23
REMARK SMILES IDX 9 24 10 25 11 26 12 27 13 29 14 30 15 31 73 32 16 33 72 34
REMARK SMILES IDX 17 35 18 36 19 37 66 38 20 39 71 40 65 41 67 42 21 43 70 44
REMARK SMILES IDX 64 45 63 46 22 48 52 49 33 50 51 51 34 52 37 53 50 54 68 55
REMARK SMILES IDX 35 56 36 57 49 59 69 60 38 61 23 62 24 63 32 64 25 65 31 66
REMARK SMILES IDX 26 67 27 68 28 69 29 70 30 71 53 72 54 73 62 74 55 75 61 76
REMARK SMILES IDX 56 77 57 78 58 79 59 80 60 81 39 82 40 83 48 84 41 85 47 86
REMARK SMILES IDX 42 87 43 88 44 89 45 90 46 91
REMARK H PARENT 7 5 11 28 67 47 37 58
REMARK Flexibility Score: inf
ROOT
ATOM      1  C   UNL     1      -0.075   2.467  -2.230  1.00  0.00     0.117 C 
ENDROOT
BRANCH   1   2
ATOM      2  N   UNL     1       1.155   1.716  -2.061  1.00  0.00    -0.355 N 
ATOM      3  C   UNL     1       1.490   0.403  -2.133  1.00  0.00     0.228 C 
ATOM      4  O   UNL     1       2.617   0.139  -1.701  1.00  0.00    -0.274 OA
ATOM      5  H   UNL     1       1.924   2.292  -1.845  1.00  0.00     0.163 HD
BRANCH   3   6
ATOM      6  C   UNL     1       0.608  -0.679  -2.797  1.00  0.00     0.067 C 
ATOM      7  C   UNL     1      -0.793  -0.831  -2.142  1.00  0.00     0.020 C 
ATOM      8  C   UNL     1       1.287  -2.076  -2.646  1.00  0.00     0.136 C 
ATOM      9  C   UNL     1      -0.699  -1.298  -0.690  1.00  0.00     0.023 C 
ATOM     10  N   UNL     1       1.337  -2.556  -1.263  1.00  0.00    -0.342 N 
ATOM     11  C   UNL     1       0.047  -2.622  -0.586  1.00  0.00     0.119 C 
BRANCH   6  12
ATOM     12  C   UNL     1       0.453  -0.370  -4.317  1.00  0.00     0.018 C 
BRANCH  12  13
ATOM     13  C   UNL     1       1.664   0.179  -5.100  1.00  0.00    -0.002 C 
ATOM     14  C   UNL     1       2.983  -0.569  -4.989  1.00  0.00     0.004 C 
ENDBRANCH  12  13
ENDBRANCH   6  12
BRANCH  10  15
ATOM     15  C   UNL     1       2.558  -2.990  -0.773  1.00  0.00     0.224 C 
ATOM     16  O   UNL     1       3.547  -3.137  -1.498  1.00  0.00    -0.275 OA
BRANCH  15  17
ATOM     17  C   UNL     1       2.708  -3.300   0.698  1.00  0.00     0.124 C 
BRANCH  17  18
ATOM     18  C   UNL     1       2.974  -2.036   1.509  1.00  0.00     0.156 C 
BRANCH  18  19
ATOM     19  N   UNL     1       1.790  -1.448   2.100  1.00  0.00    -0.252 N 
ATOM     20  C   UNL     1       0.867  -2.056   2.896  1.00  0.00     0.219 A 
ATOM     21  N   UNL     1       1.502  -0.143   1.947  1.00  0.00    -0.160 NA
ATOM     22  N   UNL     1      -0.074  -1.199   3.212  1.00  0.00    -0.224 NA
ATOM     23  C   UNL     1       0.367  -0.039   2.644  1.00  0.00     0.246 A 
ENDBRANCH  18  19
ENDBRANCH  17  18
ENDBRANCH  15  17
ENDBRANCH  10  15
ENDBRANCH   3   6
ENDBRANCH   1   2
BRANCH   1  24
ATOM     24  C   UNL     1      -0.586   2.979  -0.880  1.00  0.00     0.042 C 
BRANCH  24  25
ATOM     25  C   UNL     1       0.296   4.061  -0.245  1.00  0.00     0.118 C 
BRANCH  25  26
ATOM     26  N   UNL     1       0.273   5.312  -0.989  1.00  0.00    -0.352 N 
ATOM     27  C   UNL     1       0.126   6.607  -0.551  1.00  0.00     0.251 C 
ATOM     28  H   UNL     1       0.379   5.216  -1.963  1.00  0.00     0.163 HD
ATOM     29  O   UNL     1      -0.017   7.501  -1.381  1.00  0.00    -0.269 OA
BRANCH  27  30
ATOM     30  C   UNL     1       0.113   6.937   0.895  1.00  0.00     0.039 A 
ATOM     31  C   UNL     1      -0.790   7.906   1.347  1.00  0.00     0.014 A 
ATOM     32  C   UNL     1       1.002   6.348   1.798  1.00  0.00     0.014 A 
ATOM     33  C   UNL     1      -0.844   8.238   2.705  1.00  0.00     0.010 A 
ATOM     34  C   UNL     1       0.907   6.637   3.163  1.00  0.00     0.010 A 
ATOM     35  C   UNL     1      -0.020   7.581   3.633  1.00  0.00    -0.014 A 
BRANCH  35  36
ATOM     36  C   UNL     1      -0.141   7.848   5.093  1.00  0.00     0.031 A 
ATOM     37  C   UNL     1       1.002   8.455   5.864  1.00  0.00     0.074 A 
ATOM     38  C   UNL     1      -1.268   7.492   5.742  1.00  0.00     0.049 A 
ATOM     39  N   UNL     1       1.090   8.707   7.146  1.00  0.00    -0.248 NA
ATOM     40  C   UNL     1       2.209   8.809   5.100  1.00  0.00     0.031 C 
ATOM     41  C   UNL     1      -2.441   6.870   5.122  1.00  0.00     0.029 A 
ATOM     42  N   UNL     1      -1.612   7.592   7.068  1.00  0.00    -0.354 N 
ATOM     43  C   UNL     1       2.361   9.235   7.345  1.00  0.00     0.074 A 
ATOM     44  C   UNL     1       3.024   9.227   6.058  1.00  0.00     0.031 C 
ATOM     45  C   UNL     1      -3.380   6.667   6.059  1.00  0.00     0.029 A 
ATOM     46  C   UNL     1      -2.863   7.096   7.355  1.00  0.00     0.049 A 
ATOM     47  H   UNL     1      -1.018   7.982   7.750  1.00  0.00     0.167 HD
ATOM     48  C   UNL     1       2.921   9.697   8.490  1.00  0.00     0.031 A 
ATOM     49  C   UNL     1      -3.520   6.984   8.527  1.00  0.00     0.031 A 
ATOM     50  C   UNL     1       2.262   9.703   9.771  1.00  0.00     0.049 A 
ATOM     51  C   UNL     1      -2.864   7.474   9.789  1.00  0.00     0.074 A 
ATOM     52  C   UNL     1       2.732  10.196  10.977  1.00  0.00     0.029 A 
ATOM     53  N   UNL     1       0.998   9.188  10.018  1.00  0.00    -0.354 N 
ATOM     54  N   UNL     1      -1.685   8.028   9.944  1.00  0.00    -0.248 NA
ATOM     55  C   UNL     1      -3.632   7.335  11.034  1.00  0.00     0.031 C 
ATOM     56  C   UNL     1       1.779   9.923  11.964  1.00  0.00     0.029 A 
ATOM     57  C   UNL     1       0.685   9.324  11.361  1.00  0.00     0.049 A 
ATOM     58  H   UNL     1       0.410   8.785   9.338  1.00  0.00     0.167 HD
ATOM     59  C   UNL     1      -1.583   8.330  11.298  1.00  0.00     0.074 A 
ATOM     60  C   UNL     1      -2.826   7.912  11.914  1.00  0.00     0.031 C 
ATOM     61  C   UNL     1      -0.554   8.904  11.968  1.00  0.00     0.031 A 
BRANCH  48  62
ATOM     62  C   UNL     1       4.332  10.227   8.415  1.00  0.00    -0.014 A 
ATOM     63  C   UNL     1       4.625  11.428   7.745  1.00  0.00     0.010 A 
ATOM     64  C   UNL     1       5.372   9.541   9.071  1.00  0.00     0.010 A 
ATOM     65  C   UNL     1       5.936  11.912   7.696  1.00  0.00     0.020 A 
ATOM     66  C   UNL     1       6.679  10.038   9.050  1.00  0.00     0.020 A 
ATOM     67  C   UNL     1       6.955  11.212   8.348  1.00  0.00     0.054 A 
BRANCH  67  68
ATOM     68  S   UNL     1       8.642  11.876   8.286  1.00  0.00     0.124 S 
ATOM     69  O   UNL     1       9.011  11.630   6.894  1.00  0.00    -0.237 OA
ATOM     70  O   UNL     1       8.447  13.279   8.644  1.00  0.00    -0.237 OA
ATOM     71  O   UNL     1       9.367  11.079   9.272  1.00  0.00    -0.744 OA
ENDBRANCH  67  68
ENDBRANCH  48  62
BRANCH  49  72
ATOM     72  C   UNL     1      -4.883   6.383   8.560  1.00  0.00    -0.014 A 
ATOM     73  C   UNL     1      -6.008   7.176   8.848  1.00  0.00     0.010 A 
ATOM     74  C   UNL     1      -5.063   5.013   8.296  1.00  0.00     0.010 A 
ATOM     75  C   UNL     1      -7.284   6.607   8.890  1.00  0.00     0.020 A 
ATOM     76  C   UNL     1      -6.341   4.447   8.306  1.00  0.00     0.020 A 
ATOM     77  C   UNL     1      -7.443   5.246   8.615  1.00  0.00     0.054 A 
BRANCH  77  78
ATOM     78  S   UNL     1      -9.114   4.540   8.624  1.00  0.00     0.124 S 
ATOM     79  O   UNL     1      -9.430   4.526  10.049  1.00  0.00    -0.237 OA
ATOM     80  O   UNL     1      -9.865   5.500   7.818  1.00  0.00    -0.237 OA
ATOM     81  O   UNL     1      -8.935   3.227   8.009  1.00  0.00    -0.744 OA
ENDBRANCH  77  78
ENDBRANCH  49  72
BRANCH  61  82
ATOM     82  C   UNL     1      -0.736   9.155  13.443  1.00  0.00    -0.014 A 
ATOM     83  C   UNL     1      -0.755   8.097  14.371  1.00  0.00     0.010 A 
ATOM     84  C   UNL     1      -0.836  10.477  13.914  1.00  0.00     0.010 A 
ATOM     85  C   UNL     1      -0.904   8.357  15.736  1.00  0.00     0.020 A 
ATOM     86  C   UNL     1      -0.953  10.743  15.280  1.00  0.00     0.020 A 
ATOM     87  C   UNL     1      -1.001   9.679  16.183  1.00  0.00     0.054 A 
BRANCH  87  88
ATOM     88  S   UNL     1      -1.149   9.990  17.964  1.00  0.00     0.124 S 
ATOM     89  O   UNL     1      -2.515   9.553  18.237  1.00  0.00    -0.237 OA
ATOM     90  O   UNL     1      -0.095   9.148  18.524  1.00  0.00    -0.237 OA
ATOM     91  O   UNL     1      -0.919  11.428  18.085  1.00  0.00    -0.744 OA
ENDBRANCH  87  88
ENDBRANCH  61  82
ENDBRANCH  35  36
ENDBRANCH  27  30
ENDBRANCH  25  26
ENDBRANCH  24  25
ENDBRANCH   1  24
TORSDOF 19
