REMARK SMILES O=C(NCCCNC(=O)[C@@H]1CC[C@H](CNc2c(F)c(F)c(F)c(F)c2F)O1)c1ccc(-c2c3nc(c(-c4ccc(S(=O)(=O)[O-])cc4)c4ccc([nH]4)c(-c4ccc(S(=O)(=O)[O-])cc4)c4nc(c(-c5ccc(S(=O)(=O)[O-])cc5)c5ccc2[nH]5)C=C4)C=C3)cc1
REMARK SMILES IDX 5 1 4 2 3 3 1 4 2 5 28 7 29 8 87 9 30 10 86 11 31 12 32 13
REMARK SMILES IDX 33 14 80 15 34 16 85 17 79 18 81 19 35 20 84 21 78 22 77 23
REMARK SMILES IDX 36 25 66 26 47 27 65 28 48 29 51 30 64 31 82 32 49 33 50 34
REMARK SMILES IDX 63 36 83 37 52 38 37 39 38 40 46 41 39 42 45 43 40 44 41 45
REMARK SMILES IDX 42 46 43 47 44 48 67 49 68 50 76 51 69 52 75 53 70 54 71 55
REMARK SMILES IDX 72 56 73 57 74 58 53 59 54 60 62 61 55 62 61 63 56 64 57 65
REMARK SMILES IDX 58 66 59 67 60 68 6 69 7 70 8 71 9 73 10 74 11 75 27 76
REMARK SMILES IDX 12 77 13 78 14 79 15 80 16 82 17 83 25 84 18 85 19 86 23 87
REMARK SMILES IDX 26 88 20 89 21 90 24 91 22 92
REMARK H PARENT 3 6 81 24 51 35 7 72 15 81
REMARK Flexibility Score: inf
ROOT
ATOM      1  C   UNL     1       4.809   2.181   1.192  1.00  0.00     0.042 C 
ENDROOT
BRANCH   1   2
ATOM      2  C   UNL     1       4.483   0.692   1.194  1.00  0.00     0.118 C 
BRANCH   2   3
ATOM      3  N   UNL     1       3.054   0.439   1.057  1.00  0.00    -0.352 N 
ATOM      4  O   UNL     1       1.129  -0.038  -0.004  1.00  0.00    -0.269 OA
ATOM      5  C   UNL     1       2.357  -0.127   0.022  1.00  0.00     0.251 C 
ATOM      6  H   UNL     1       2.505   0.718   1.826  1.00  0.00     0.163 HD
BRANCH   5   7
ATOM      7  C   UNL     1       3.073  -0.840  -1.055  1.00  0.00     0.039 A 
ATOM      8  C   UNL     1       4.136  -1.694  -0.751  1.00  0.00     0.014 A 
ATOM      9  C   UNL     1       2.643  -0.698  -2.377  1.00  0.00     0.014 A 
ATOM     10  C   UNL     1       4.846  -2.309  -1.774  1.00  0.00     0.010 A 
ATOM     11  C   UNL     1       3.300  -1.391  -3.397  1.00  0.00     0.010 A 
ATOM     12  C   UNL     1       4.411  -2.196  -3.103  1.00  0.00    -0.014 A 
BRANCH  12  13
ATOM     13  C   UNL     1       5.048  -3.036  -4.146  1.00  0.00     0.031 A 
ATOM     14  C   UNL     1       5.805  -2.427  -5.289  1.00  0.00     0.074 A 
ATOM     15  C   UNL     1       4.915  -4.375  -4.045  1.00  0.00     0.049 A 
ATOM     16  N   UNL     1       6.391  -3.028  -6.292  1.00  0.00    -0.248 NA
ATOM     17  C   UNL     1       5.917  -0.959  -5.321  1.00  0.00     0.031 C 
ATOM     18  C   UNL     1       4.186  -5.072  -2.978  1.00  0.00     0.029 A 
ATOM     19  N   UNL     1       5.381  -5.389  -4.840  1.00  0.00    -0.354 N 
ATOM     20  C   UNL     1       6.917  -2.019  -7.089  1.00  0.00     0.074 A 
ATOM     21  C   UNL     1       6.576  -0.762  -6.457  1.00  0.00     0.031 C 
ATOM     22  C   UNL     1       4.276  -6.394  -3.172  1.00  0.00     0.029 A 
ATOM     23  C   UNL     1       5.000  -6.640  -4.412  1.00  0.00     0.049 A 
ATOM     24  H   UNL     1       5.935  -5.238  -5.639  1.00  0.00     0.167 HD
ATOM     25  C   UNL     1       7.614  -2.138  -8.244  1.00  0.00     0.031 A 
ATOM     26  C   UNL     1       5.172  -7.851  -4.973  1.00  0.00     0.031 A 
ATOM     27  C   UNL     1       7.951  -3.399  -8.854  1.00  0.00     0.049 A 
ATOM     28  C   UNL     1       5.912  -7.942  -6.276  1.00  0.00     0.074 A 
ATOM     29  C   UNL     1       8.717  -3.625  -9.985  1.00  0.00     0.029 A 
ATOM     30  N   UNL     1       7.528  -4.641  -8.404  1.00  0.00    -0.354 N 
ATOM     31  N   UNL     1       6.477  -6.982  -6.968  1.00  0.00    -0.248 NA
ATOM     32  C   UNL     1       6.032  -9.276  -6.880  1.00  0.00     0.031 C 
ATOM     33  C   UNL     1       8.695  -4.995 -10.260  1.00  0.00     0.029 A 
ATOM     34  C   UNL     1       7.971  -5.631  -9.264  1.00  0.00     0.049 A 
ATOM     35  H   UNL     1       6.991  -4.795  -7.593  1.00  0.00     0.167 HD
ATOM     36  C   UNL     1       7.027  -7.597  -8.085  1.00  0.00     0.074 A 
ATOM     37  C   UNL     1       6.754  -9.014  -7.960  1.00  0.00     0.031 C 
ATOM     38  C   UNL     1       7.689  -7.037  -9.126  1.00  0.00     0.031 A 
BRANCH  25  39
ATOM     39  C   UNL     1       8.040  -0.883  -8.959  1.00  0.00    -0.014 A 
ATOM     40  C   UNL     1       9.095  -0.087  -8.480  1.00  0.00     0.010 A 
ATOM     41  C   UNL     1       7.447  -0.560 -10.194  1.00  0.00     0.010 A 
ATOM     42  C   UNL     1       9.540   1.014  -9.218  1.00  0.00     0.020 A 
ATOM     43  C   UNL     1       7.903   0.526 -10.946  1.00  0.00     0.020 A 
ATOM     44  C   UNL     1       8.945   1.311 -10.449  1.00  0.00     0.054 A 
BRANCH  44  45
ATOM     45  S   UNL     1       9.589   2.706 -11.414  1.00  0.00     0.124 S 
ATOM     46  O   UNL     1       9.143   3.851 -10.623  1.00  0.00    -0.237 OA
ATOM     47  O   UNL     1      11.029   2.462 -11.406  1.00  0.00    -0.237 OA
ATOM     48  O   UNL     1       8.941   2.559 -12.715  1.00  0.00    -0.744 OA
ENDBRANCH  44  45
ENDBRANCH  25  39
BRANCH  26  49
ATOM     49  C   UNL     1       4.574  -9.057  -4.340  1.00  0.00    -0.014 A 
ATOM     50  C   UNL     1       5.385 -10.074  -3.811  1.00  0.00     0.010 A 
ATOM     51  C   UNL     1       3.174  -9.193  -4.271  1.00  0.00     0.010 A 
ATOM     52  C   UNL     1       4.807 -11.219  -3.254  1.00  0.00     0.020 A 
ATOM     53  C   UNL     1       2.593 -10.318  -3.683  1.00  0.00     0.020 A 
ATOM     54  C   UNL     1       3.415 -11.334  -3.196  1.00  0.00     0.054 A 
BRANCH  54  55
ATOM     55  S   UNL     1       2.687 -12.822  -2.457  1.00  0.00     0.124 S 
ATOM     56  O   UNL     1       2.931 -13.822  -3.491  1.00  0.00    -0.237 OA
ATOM     57  O   UNL     1       3.464 -12.977  -1.230  1.00  0.00    -0.237 OA
ATOM     58  O   UNL     1       1.287 -12.454  -2.257  1.00  0.00    -0.744 OA
ENDBRANCH  54  55
ENDBRANCH  26  49
BRANCH  38  59
ATOM     59  C   UNL     1       8.175  -7.959 -10.210  1.00  0.00    -0.014 A 
ATOM     60  C   UNL     1       7.274  -8.541 -11.119  1.00  0.00     0.010 A 
ATOM     61  C   UNL     1       9.554  -8.188 -10.365  1.00  0.00     0.010 A 
ATOM     62  C   UNL     1       7.743  -9.351 -12.156  1.00  0.00     0.020 A 
ATOM     63  C   UNL     1      10.029  -8.972 -11.418  1.00  0.00     0.020 A 
ATOM     64  C   UNL     1       9.119  -9.555 -12.303  1.00  0.00     0.054 A 
BRANCH  64  65
ATOM     65  S   UNL     1       9.705 -10.551 -13.700  1.00  0.00     0.124 S 
ATOM     66  O   UNL     1       9.305 -11.898 -13.304  1.00  0.00    -0.237 OA
ATOM     67  O   UNL     1       8.970  -9.982 -14.828  1.00  0.00    -0.237 OA
ATOM     68  O   UNL     1      11.146 -10.309 -13.718  1.00  0.00    -0.744 OA
ENDBRANCH  64  65
ENDBRANCH  38  59
ENDBRANCH  12  13
ENDBRANCH   5   7
ENDBRANCH   2   3
ENDBRANCH   1   2
BRANCH   1  69
ATOM     69  C   UNL     1       4.198   2.928   2.369  1.00  0.00     0.117 C 
BRANCH  69  70
ATOM     70  N   UNL     1       4.759   2.495   3.636  1.00  0.00    -0.354 N 
ATOM     71  C   UNL     1       5.644   3.088   4.480  1.00  0.00     0.249 C 
ATOM     72  H   UNL     1       4.441   1.614   3.939  1.00  0.00     0.163 HD
ATOM     73  O   UNL     1       5.954   2.460   5.498  1.00  0.00    -0.272 OA
BRANCH  71  74
ATOM     74  C   UNL     1       6.272   4.467   4.187  1.00  0.00     0.207 C 
ATOM     75  C   UNL     1       6.307   5.276   5.480  1.00  0.00     0.045 C 
ATOM     76  O   UNL     1       5.678   5.314   3.209  1.00  0.00    -0.363 OA
ATOM     77  C   UNL     1       6.362   6.699   4.992  1.00  0.00     0.037 C 
ATOM     78  C   UNL     1       5.537   6.647   3.719  1.00  0.00     0.138 C 
BRANCH  78  79
ATOM     79  C   UNL     1       4.039   6.971   3.914  1.00  0.00     0.145 C 
BRANCH  79  80
ATOM     80  N   UNL     1       3.866   8.389   4.208  1.00  0.00    -0.378 N 
ATOM     81  H   UNL     1       4.433   8.788   4.907  1.00  0.00     0.160 HD
BRANCH  80  82
ATOM     82  C   UNL     1       2.951   9.210   3.562  1.00  0.00     0.113 A 
ATOM     83  C   UNL     1       1.731   8.780   3.018  1.00  0.00     0.188 A 
ATOM     84  C   UNL     1       3.276  10.569   3.396  1.00  0.00     0.188 A 
ATOM     85  F   UNL     1       1.334   7.506   3.170  1.00  0.00    -0.201 F 
ATOM     86  C   UNL     1       0.887   9.663   2.343  1.00  0.00     0.199 A 
ATOM     87  C   UNL     1       2.443  11.448   2.712  1.00  0.00     0.199 A 
ATOM     88  F   UNL     1       4.438  11.024   3.896  1.00  0.00    -0.201 F 
ATOM     89  F   UNL     1      -0.281   9.227   1.850  1.00  0.00    -0.200 F 
ATOM     90  C   UNL     1       1.247  10.993   2.185  1.00  0.00     0.200 A 
ATOM     91  F   UNL     1       2.802  12.731   2.563  1.00  0.00    -0.200 F 
ATOM     92  F   UNL     1       0.438  11.838   1.532  1.00  0.00    -0.200 F 
ENDBRANCH  80  82
ENDBRANCH  79  80
ENDBRANCH  78  79
ENDBRANCH  71  74
ENDBRANCH  69  70
ENDBRANCH   1  69
TORSDOF 16
