REMARK SMILES O=C1O[C@@H](c2ccc(O)c(O)c2)[C@H](C(=O)NCCCNC(=O)c2ccc(-c3c4nc(c(-c5ccc(S(=O)(=O)[O-])cc5)c5ccc([nH]5)c(-c5ccc(S(=O)(=O)[O-])cc5)c5nc(c(-c6ccc(S(=O)(=O)[O-])cc6)c6ccc3[nH]6)C=C5)C=C4)cc2)/C1=C\c1ccc(O)c(O)c1
REMARK SMILES IDX 18 1 17 2 16 3 14 4 15 5 13 7 1 8 2 9 3 10 83 11 4 12 84 13
REMARK SMILES IDX 5 14 6 15 12 16 7 17 10 18 8 19 11 20 9 22 85 24 86 25 92 26
REMARK SMILES IDX 87 27 90 28 88 29 91 30 89 32 19 34 20 35 21 36 22 38 23 39
REMARK SMILES IDX 24 40 82 41 25 42 81 43 26 44 27 45 28 46 75 47 29 48 80 49
REMARK SMILES IDX 74 50 76 51 30 52 79 53 73 54 72 55 31 57 61 58 42 59 60 60
REMARK SMILES IDX 43 61 46 62 59 63 77 64 44 65 45 66 58 68 78 69 47 70 32 71
REMARK SMILES IDX 33 72 41 73 34 74 40 75 35 76 36 77 37 78 38 79 39 80 62 81
REMARK SMILES IDX 63 82 71 83 64 84 70 85 65 86 66 87 67 88 68 89 69 90 48 91
REMARK SMILES IDX 49 92 57 93 50 94 56 95 51 96 52 97 53 98 54 99 55 100
REMARK H PARENT 16 6 11 21 9 23 91 31 89 33 20 37 76 56 46 67
REMARK Flexibility Score: inf
ROOT
ATOM      1  C   UNL     1       5.189   1.426   1.496  1.00  0.00     0.042 C 
ENDROOT
BRANCH   1   2
ATOM      2  C   UNL     1       4.038   0.439   1.554  1.00  0.00     0.117 C 
BRANCH   2   3
ATOM      3  N   UNL     1       2.831   0.975   2.158  1.00  0.00    -0.355 N 
ATOM      4  C   UNL     1       1.554   1.096   1.688  1.00  0.00     0.231 C 
ATOM      5  O   UNL     1       0.704   1.441   2.512  1.00  0.00    -0.274 OA
ATOM      6  H   UNL     1       2.956   1.313   3.074  1.00  0.00     0.163 HD
BRANCH   4   7
ATOM      7  C   UNL     1       1.232   0.920   0.200  1.00  0.00     0.161 C 
ATOM      8  O   UNL     1      -1.892  -0.796  -0.103  1.00  0.00    -0.247 OA
ATOM      9  C   UNL     1      -0.731  -0.426  -0.131  1.00  0.00     0.335 C 
ATOM     10  O   UNL     1       0.342  -1.236  -0.279  1.00  0.00    -0.453 OA
ATOM     11  C   UNL     1      -0.242   0.960  -0.039  1.00  0.00     0.054 C 
ATOM     12  C   UNL     1       1.560  -0.472  -0.332  1.00  0.00     0.224 C 
ATOM     13  C   UNL     1      -1.105   1.974  -0.205  1.00  0.00     0.020 C 
BRANCH  12  14
ATOM     14  C   UNL     1       2.181  -0.481  -1.732  1.00  0.00    -0.002 A 
ATOM     15  C   UNL     1       3.253   0.382  -2.063  1.00  0.00     0.012 A 
ATOM     16  C   UNL     1       1.764  -1.407  -2.700  1.00  0.00     0.057 A 
ATOM     17  C   UNL     1       3.890   0.323  -3.307  1.00  0.00     0.050 A 
ATOM     18  C   UNL     1       2.392  -1.448  -3.940  1.00  0.00     0.157 A 
ATOM     19  C   UNL     1       3.451  -0.598  -4.242  1.00  0.00     0.157 A 
BRANCH  18  20
ATOM     20  O   UNL     1       1.965  -2.351  -4.871  1.00  0.00    -0.504 OA
ATOM     21  H   UNL     1       2.380  -2.390  -5.711  1.00  0.00     0.293 HD
ENDBRANCH  18  20
BRANCH  19  22
ATOM     22  O   UNL     1       4.034  -0.714  -5.472  1.00  0.00    -0.504 OA
ATOM     23  H   UNL     1       4.749  -0.156  -5.706  1.00  0.00     0.293 HD
ENDBRANCH  19  22
ENDBRANCH  12  14
BRANCH  13  24
ATOM     24  C   UNL     1      -0.747   3.390  -0.164  1.00  0.00    -0.021 A 
ATOM     25  C   UNL     1       0.124   3.947  -1.113  1.00  0.00     0.012 A 
ATOM     26  C   UNL     1      -1.326   4.209   0.811  1.00  0.00     0.058 A 
ATOM     27  C   UNL     1       0.442   5.308  -1.073  1.00  0.00     0.051 A 
ATOM     28  C   UNL     1      -1.012   5.560   0.837  1.00  0.00     0.157 A 
ATOM     29  C   UNL     1      -0.130   6.107  -0.091  1.00  0.00     0.157 A 
BRANCH  28  30
ATOM     30  O   UNL     1      -1.581   6.359   1.788  1.00  0.00    -0.504 OA
ATOM     31  H   UNL     1      -1.377   7.273   1.815  1.00  0.00     0.293 HD
ENDBRANCH  28  30
BRANCH  29  32
ATOM     32  O   UNL     1       0.141   7.444   0.001  1.00  0.00    -0.504 OA
ATOM     33  H   UNL     1       0.730   7.845  -0.606  1.00  0.00     0.293 HD
ENDBRANCH  29  32
ENDBRANCH  13  24
ENDBRANCH   4   7
ENDBRANCH   2   3
ENDBRANCH   1   2
BRANCH   1  34
ATOM     34  C   UNL     1       5.743   1.806   2.861  1.00  0.00     0.118 C 
BRANCH  34  35
ATOM     35  N   UNL     1       6.245   0.655   3.602  1.00  0.00    -0.352 N 
ATOM     36  C   UNL     1       7.522   0.329   3.989  1.00  0.00     0.251 C 
ATOM     37  H   UNL     1       5.556   0.005   3.869  1.00  0.00     0.163 HD
ATOM     38  O   UNL     1       7.750  -0.796   4.424  1.00  0.00    -0.269 OA
BRANCH  36  39
ATOM     39  C   UNL     1       8.619   1.313   3.862  1.00  0.00     0.039 A 
ATOM     40  C   UNL     1       9.877   0.876   3.439  1.00  0.00     0.014 A 
ATOM     41  C   UNL     1       8.414   2.660   4.166  1.00  0.00     0.014 A 
ATOM     42  C   UNL     1      10.902   1.805   3.245  1.00  0.00     0.010 A 
ATOM     43  C   UNL     1       9.401   3.595   3.873  1.00  0.00     0.010 A 
ATOM     44  C   UNL     1      10.658   3.178   3.413  1.00  0.00    -0.014 A 
BRANCH  44  45
ATOM     45  C   UNL     1      11.697   4.193   3.103  1.00  0.00     0.031 A 
ATOM     46  C   UNL     1      12.197   5.121   4.178  1.00  0.00     0.074 A 
ATOM     47  C   UNL     1      12.133   4.329   1.833  1.00  0.00     0.049 A 
ATOM     48  N   UNL     1      13.049   6.109   4.080  1.00  0.00    -0.248 NA
ATOM     49  C   UNL     1      11.652   4.935   5.534  1.00  0.00     0.031 C 
ATOM     50  C   UNL     1      11.684   3.526   0.692  1.00  0.00     0.029 A 
ATOM     51  N   UNL     1      13.042   5.199   1.285  1.00  0.00    -0.354 N 
ATOM     52  C   UNL     1      13.121   6.676   5.347  1.00  0.00     0.074 A 
ATOM     53  C   UNL     1      12.195   5.951   6.189  1.00  0.00     0.031 C 
ATOM     54  C   UNL     1      12.336   3.924  -0.412  1.00  0.00     0.029 A 
ATOM     55  C   UNL     1      13.210   5.042  -0.072  1.00  0.00     0.049 A 
ATOM     56  H   UNL     1      13.529   5.872   1.813  1.00  0.00     0.167 HD
ATOM     57  C   UNL     1      13.899   7.698   5.775  1.00  0.00     0.031 A 
ATOM     58  C   UNL     1      13.968   5.729  -0.949  1.00  0.00     0.031 A 
ATOM     59  C   UNL     1      14.833   8.401   4.937  1.00  0.00     0.049 A 
ATOM     60  C   UNL     1      14.824   6.858  -0.446  1.00  0.00     0.074 A 
ATOM     61  C   UNL     1      15.727   9.394   5.298  1.00  0.00     0.029 A 
ATOM     62  N   UNL     1      14.990   8.196   3.575  1.00  0.00    -0.354 N 
ATOM     63  N   UNL     1      14.947   7.315   0.778  1.00  0.00    -0.248 NA
ATOM     64  C   UNL     1      15.652   7.558  -1.438  1.00  0.00     0.031 C 
ATOM     65  C   UNL     1      16.371   9.841   4.141  1.00  0.00     0.029 A 
ATOM     66  C   UNL     1      15.936   9.073   3.073  1.00  0.00     0.049 A 
ATOM     67  H   UNL     1      14.502   7.526   3.044  1.00  0.00     0.167 HD
ATOM     68  C   UNL     1      15.887   8.338   0.706  1.00  0.00     0.074 A 
ATOM     69  C   UNL     1      16.314   8.418  -0.675  1.00  0.00     0.031 C 
ATOM     70  C   UNL     1      16.352   9.141   1.695  1.00  0.00     0.031 A 
BRANCH  57  71
ATOM     71  C   UNL     1      13.770   8.134   7.211  1.00  0.00    -0.014 A 
ATOM     72  C   UNL     1      14.226   7.325   8.268  1.00  0.00     0.010 A 
ATOM     73  C   UNL     1      13.259   9.413   7.502  1.00  0.00     0.010 A 
ATOM     74  C   UNL     1      14.149   7.776   9.588  1.00  0.00     0.020 A 
ATOM     75  C   UNL     1      13.209   9.880   8.818  1.00  0.00     0.020 A 
ATOM     76  C   UNL     1      13.646   9.053   9.854  1.00  0.00     0.054 A 
BRANCH  76  77
ATOM     77  S   UNL     1      13.614   9.633  11.572  1.00  0.00     0.124 S 
ATOM     78  O   UNL     1      12.565   8.799  12.152  1.00  0.00    -0.237 OA
ATOM     79  O   UNL     1      14.970   9.346  12.030  1.00  0.00    -0.237 OA
ATOM     80  O   UNL     1      13.286  11.052  11.454  1.00  0.00    -0.744 OA
ENDBRANCH  76  77
ENDBRANCH  57  71
BRANCH  58  81
ATOM     81  C   UNL     1      13.936   5.380  -2.398  1.00  0.00    -0.014 A 
ATOM     82  C   UNL     1      15.063   4.835  -3.037  1.00  0.00     0.010 A 
ATOM     83  C   UNL     1      12.767   5.603  -3.150  1.00  0.00     0.010 A 
ATOM     84  C   UNL     1      15.033   4.548  -4.406  1.00  0.00     0.020 A 
ATOM     85  C   UNL     1      12.721   5.284  -4.510  1.00  0.00     0.020 A 
ATOM     86  C   UNL     1      13.861   4.774  -5.133  1.00  0.00     0.054 A 
BRANCH  86  87
ATOM     87  S   UNL     1      13.829   4.362  -6.899  1.00  0.00     0.124 S 
ATOM     88  O   UNL     1      14.661   5.415  -7.471  1.00  0.00    -0.237 OA
ATOM     89  O   UNL     1      14.402   3.018  -6.918  1.00  0.00    -0.237 OA
ATOM     90  O   UNL     1      12.409   4.429  -7.239  1.00  0.00    -0.744 OA
ENDBRANCH  86  87
ENDBRANCH  58  81
BRANCH  70  91
ATOM     91  C   UNL     1      17.404  10.155   1.331  1.00  0.00    -0.014 A 
ATOM     92  C   UNL     1      17.097  11.279   0.544  1.00  0.00     0.010 A 
ATOM     93  C   UNL     1      18.709  10.009   1.837  1.00  0.00     0.010 A 
ATOM     94  C   UNL     1      18.084  12.220   0.242  1.00  0.00     0.020 A 
ATOM     95  C   UNL     1      19.690  10.966   1.566  1.00  0.00     0.020 A 
ATOM     96  C   UNL     1      19.374  12.059   0.758  1.00  0.00     0.054 A 
BRANCH  96  97
ATOM     97  S   UNL     1      20.624  13.319   0.388  1.00  0.00     0.124 S 
ATOM     98  O   UNL     1      20.888  13.079  -1.028  1.00  0.00    -0.237 OA
ATOM     99  O   UNL     1      19.922  14.563   0.695  1.00  0.00    -0.237 OA
ATOM    100  O   UNL     1      21.725  12.992   1.291  1.00  0.00    -0.744 OA
ENDBRANCH  96  97
ENDBRANCH  70  91
ENDBRANCH  44  45
ENDBRANCH  36  39
ENDBRANCH  34  35
ENDBRANCH   1  34
TORSDOF 19
