REMARK SMILES COc1ccc(-c2c(C(=O)NCCCNC(=O)c3ccc(-c4c5nc(c(-c6ccc(S(=O)(=O)[O-])cc6)c6ccc([nH]6)c(-c6ccc(S(=O)(=O)[O-])cc6)c6nc(c(-c7ccc(S(=O)(=O)[O-])cc7)c7ccc4[nH]7)C=C6)C=C5)cc3)sc3c2N=C(O)C[C@H]3c2ccc(OC)c(OC)c2)cc1
REMARK SMILES IDX 13 1 12 2 11 3 9 4 10 5 8 7 7 8 80 9 78 10 79 11 81 12 85 13
REMARK SMILES IDX 82 14 84 15 6 16 3 17 4 18 97 19 5 20 96 21 2 22 1 23 86 24
REMARK SMILES IDX 87 25 95 26 88 27 92 28 89 29 93 30 94 31 90 32 91 33 83 34
REMARK SMILES IDX 14 36 15 37 16 38 17 40 18 41 19 42 77 43 20 44 76 45 21 46
REMARK SMILES IDX 22 47 23 48 70 49 24 50 75 51 69 52 71 53 25 54 74 55 68 56
REMARK SMILES IDX 67 57 26 59 56 60 37 61 55 62 38 63 41 64 54 65 72 66 39 67
REMARK SMILES IDX 40 68 53 70 73 71 42 72 27 73 28 74 36 75 29 76 35 77 30 78
REMARK SMILES IDX 31 79 32 80 33 81 34 82 57 83 58 84 66 85 59 86 65 87 60 88
REMARK SMILES IDX 61 89 62 90 63 91 64 92 43 93 44 94 52 95 45 96 51 97 46 98
REMARK SMILES IDX 47 99 48 100 49 101 50 102
REMARK H PARENT 11 6 83 35 15 39 71 58 41 69
REMARK Flexibility Score: inf
ROOT
ATOM      1  C   UNL     1       1.124  -4.305   0.517  1.00  0.00     0.042 C 
ENDROOT
BRANCH   1   2
ATOM      2  C   UNL     1       0.808  -4.355   1.991  1.00  0.00     0.118 C 
BRANCH   2   3
ATOM      3  N   UNL     1       0.149  -5.470   2.599  1.00  0.00    -0.351 N 
ATOM      4  C   UNL     1       0.266  -5.815   3.939  1.00  0.00     0.262 C 
ATOM      5  O   UNL     1      -0.538  -6.665   4.338  1.00  0.00    -0.268 OA
ATOM      6  H   UNL     1      -0.426  -6.029   2.029  1.00  0.00     0.163 HD
BRANCH   4   7
ATOM      7  C   UNL     1       1.346  -5.282   4.793  1.00  0.00     0.102 A 
ATOM      8  C   UNL     1       1.982  -4.043   4.996  1.00  0.00     0.031 A 
ATOM      9  C   UNL     1       3.114  -4.187   5.857  1.00  0.00     0.090 A 
ATOM     10  S   UNL     1       2.069  -6.496   5.819  1.00  0.00    -0.131 S 
ATOM     11  C   UNL     1       3.249  -5.431   6.394  1.00  0.00     0.040 A 
ATOM     12  N   UNL     1       3.993  -3.130   6.127  1.00  0.00    -0.216 NA
ATOM     13  C   UNL     1       4.282  -5.810   7.394  1.00  0.00     0.071 C 
ATOM     14  C   UNL     1       5.027  -3.435   6.832  1.00  0.00     0.186 C 
ATOM     15  C   UNL     1       5.412  -4.770   7.417  1.00  0.00     0.111 C 
BRANCH   8  16
ATOM     16  C   UNL     1       1.677  -2.784   4.305  1.00  0.00    -0.014 A 
ATOM     17  C   UNL     1       1.052  -0.674   2.561  1.00  0.00     0.118 A 
ATOM     18  C   UNL     1       0.129  -1.103   3.526  1.00  0.00     0.047 A 
ATOM     19  C   UNL     1       2.330  -1.220   2.545  1.00  0.00     0.047 A 
ATOM     20  C   UNL     1       0.432  -2.161   4.397  1.00  0.00     0.012 A 
ATOM     21  C   UNL     1       2.647  -2.252   3.429  1.00  0.00     0.012 A 
BRANCH  17  22
ATOM     22  O   UNL     1       0.592   0.255   1.670  1.00  0.00    -0.497 OA
ATOM     23  C   UNL     1       1.250   0.302   0.402  1.00  0.00     0.278 C 
ENDBRANCH  17  22
ENDBRANCH   8  16
BRANCH  13  24
ATOM     24  C   UNL     1       3.680  -6.000   8.779  1.00  0.00    -0.035 A 
ATOM     25  C   UNL     1       2.934  -4.995   9.402  1.00  0.00     0.008 A 
ATOM     26  C   UNL     1       3.865  -7.220   9.450  1.00  0.00     0.054 A 
ATOM     27  C   UNL     1       2.396  -5.212  10.667  1.00  0.00     0.051 A 
ATOM     28  C   UNL     1       3.339  -7.446  10.731  1.00  0.00     0.161 A 
ATOM     29  C   UNL     1       2.591  -6.424  11.344  1.00  0.00     0.160 A 
BRANCH  28  30
ATOM     30  O   UNL     1       3.545  -8.614  11.418  1.00  0.00    -0.493 OA
ATOM     31  C   UNL     1       4.260  -9.658  10.769  1.00  0.00     0.278 C 
ENDBRANCH  28  30
BRANCH  29  32
ATOM     32  O   UNL     1       2.001  -6.418  12.581  1.00  0.00    -0.493 OA
ATOM     33  C   UNL     1       1.910  -7.641  13.294  1.00  0.00     0.278 C 
ENDBRANCH  29  32
ENDBRANCH  13  24
BRANCH  14  34
ATOM     34  O   UNL     1       5.941  -2.465   7.051  1.00  0.00    -0.496 OA
ATOM     35  H   UNL     1       5.792  -1.599   6.726  1.00  0.00     0.294 HD
ENDBRANCH  14  34
ENDBRANCH   4   7
ENDBRANCH   2   3
ENDBRANCH   1   2
BRANCH   1  36
ATOM     36  C   UNL     1      -0.057  -3.902  -0.328  1.00  0.00     0.118 C 
BRANCH  36  37
ATOM     37  N   UNL     1      -0.571  -2.533  -0.145  1.00  0.00    -0.352 N 
ATOM     38  C   UNL     1      -1.459  -1.867  -0.990  1.00  0.00     0.251 C 
ATOM     39  H   UNL     1      -0.258  -2.042   0.649  1.00  0.00     0.163 HD
ATOM     40  O   UNL     1      -1.659  -0.661  -0.921  1.00  0.00    -0.269 OA
BRANCH  38  41
ATOM     41  C   UNL     1      -2.161  -2.703  -1.980  1.00  0.00     0.039 A 
ATOM     42  C   UNL     1      -2.044  -2.488  -3.352  1.00  0.00     0.014 A 
ATOM     43  C   UNL     1      -2.640  -3.900  -1.472  1.00  0.00     0.014 A 
ATOM     44  C   UNL     1      -2.252  -3.575  -4.202  1.00  0.00     0.010 A 
ATOM     45  C   UNL     1      -2.536  -5.001  -2.275  1.00  0.00     0.010 A 
ATOM     46  C   UNL     1      -2.417  -4.858  -3.649  1.00  0.00    -0.014 A 
BRANCH  46  47
ATOM     47  C   UNL     1      -2.348  -6.077  -4.456  1.00  0.00     0.031 A 
ATOM     48  C   UNL     1      -1.287  -6.078  -5.496  1.00  0.00     0.074 A 
ATOM     49  C   UNL     1      -3.078  -7.191  -4.210  1.00  0.00     0.049 A 
ATOM     50  N   UNL     1      -1.423  -5.684  -6.718  1.00  0.00    -0.248 NA
ATOM     51  C   UNL     1       0.108  -6.361  -5.123  1.00  0.00     0.031 C 
ATOM     52  C   UNL     1      -3.966  -7.481  -3.071  1.00  0.00     0.029 A 
ATOM     53  N   UNL     1      -3.129  -8.356  -4.915  1.00  0.00    -0.354 N 
ATOM     54  C   UNL     1      -0.215  -5.962  -7.341  1.00  0.00     0.074 A 
ATOM     55  C   UNL     1       0.743  -6.141  -6.280  1.00  0.00     0.031 C 
ATOM     56  C   UNL     1      -4.271  -8.796  -3.037  1.00  0.00     0.029 A 
ATOM     57  C   UNL     1      -3.809  -9.386  -4.274  1.00  0.00     0.049 A 
ATOM     58  H   UNL     1      -2.719  -8.459  -5.804  1.00  0.00     0.167 HD
ATOM     59  C   UNL     1      -0.188  -6.345  -8.649  1.00  0.00     0.031 A 
ATOM     60  C   UNL     1      -4.088 -10.618  -4.760  1.00  0.00     0.031 A 
ATOM     61  C   UNL     1      -1.506  -6.253  -9.232  1.00  0.00     0.049 A 
ATOM     62  C   UNL     1      -4.104 -10.491  -6.232  1.00  0.00     0.074 A 
ATOM     63  C   UNL     1      -2.358  -5.253  -9.641  1.00  0.00     0.029 A 
ATOM     64  N   UNL     1      -2.259  -7.388  -9.047  1.00  0.00    -0.354 N 
ATOM     65  N   UNL     1      -4.981  -9.764  -6.868  1.00  0.00    -0.248 NA
ATOM     66  C   UNL     1      -2.918 -10.852  -6.994  1.00  0.00     0.031 C 
ATOM     67  C   UNL     1      -3.677  -5.771  -9.469  1.00  0.00     0.029 A 
ATOM     68  C   UNL     1      -3.595  -7.090  -9.021  1.00  0.00     0.049 A 
ATOM     69  H   UNL     1      -1.887  -8.294  -8.947  1.00  0.00     0.167 HD
ATOM     70  C   UNL     1      -4.274  -9.220  -7.923  1.00  0.00     0.074 A 
ATOM     71  C   UNL     1      -3.080 -10.048  -8.049  1.00  0.00     0.031 C 
ATOM     72  C   UNL     1      -4.564  -7.974  -8.400  1.00  0.00     0.031 A 
BRANCH  59  73
ATOM     73  C   UNL     1       0.837  -7.269  -9.268  1.00  0.00    -0.014 A 
ATOM     74  C   UNL     1       0.757  -7.526 -10.654  1.00  0.00     0.010 A 
ATOM     75  C   UNL     1       1.683  -8.104  -8.512  1.00  0.00     0.010 A 
ATOM     76  C   UNL     1       1.448  -8.593 -11.242  1.00  0.00     0.020 A 
ATOM     77  C   UNL     1       2.404  -9.150  -9.095  1.00  0.00     0.020 A 
ATOM     78  C   UNL     1       2.263  -9.404 -10.454  1.00  0.00     0.054 A 
BRANCH  78  79
ATOM     79  S   UNL     1       3.101 -10.819 -11.210  1.00  0.00     0.124 S 
ATOM     80  O   UNL     1       1.977 -11.669 -11.591  1.00  0.00    -0.237 OA
ATOM     81  O   UNL     1       3.826 -10.193 -12.312  1.00  0.00    -0.237 OA
ATOM     82  O   UNL     1       3.941 -11.334 -10.131  1.00  0.00    -0.744 OA
ENDBRANCH  78  79
ENDBRANCH  59  73
BRANCH  60  83
ATOM     83  C   UNL     1      -4.097 -11.917  -4.053  1.00  0.00    -0.014 A 
ATOM     84  C   UNL     1      -4.692 -13.050  -4.635  1.00  0.00     0.010 A 
ATOM     85  C   UNL     1      -3.238 -12.112  -2.952  1.00  0.00     0.010 A 
ATOM     86  C   UNL     1      -4.370 -14.343  -4.190  1.00  0.00     0.020 A 
ATOM     87  C   UNL     1      -2.913 -13.399  -2.503  1.00  0.00     0.020 A 
ATOM     88  C   UNL     1      -3.459 -14.510  -3.144  1.00  0.00     0.054 A 
BRANCH  88  89
ATOM     89  S   UNL     1      -2.892 -16.184  -2.717  1.00  0.00     0.124 S 
ATOM     90  O   UNL     1      -4.082 -16.769  -2.107  1.00  0.00    -0.237 OA
ATOM     91  O   UNL     1      -2.514 -16.733  -4.017  1.00  0.00    -0.237 OA
ATOM     92  O   UNL     1      -1.778 -15.948  -1.801  1.00  0.00    -0.744 OA
ENDBRANCH  88  89
ENDBRANCH  60  83
BRANCH  72  93
ATOM     93  C   UNL     1      -5.949  -7.432  -8.162  1.00  0.00    -0.014 A 
ATOM     94  C   UNL     1      -6.484  -7.106  -6.902  1.00  0.00     0.010 A 
ATOM     95  C   UNL     1      -6.717  -7.164  -9.309  1.00  0.00     0.010 A 
ATOM     96  C   UNL     1      -7.767  -6.542  -6.799  1.00  0.00     0.020 A 
ATOM     97  C   UNL     1      -7.982  -6.588  -9.215  1.00  0.00     0.020 A 
ATOM     98  C   UNL     1      -8.508  -6.288  -7.960  1.00  0.00     0.054 A 
BRANCH  98  99
ATOM     99  S   UNL     1     -10.154  -5.535  -7.832  1.00  0.00     0.124 S 
ATOM    100  O   UNL     1     -10.939  -6.593  -7.201  1.00  0.00    -0.237 OA
ATOM    101  O   UNL     1      -9.908  -4.355  -7.007  1.00  0.00    -0.237 OA
ATOM    102  O   UNL     1     -10.513  -5.245  -9.220  1.00  0.00    -0.744 OA
ENDBRANCH  98  99
ENDBRANCH  72  93
ENDBRANCH  46  47
ENDBRANCH  38  41
ENDBRANCH  36  37
ENDBRANCH   1  36
TORSDOF 19
