REMARK SMILES C#CC[C@@H](C(=O)NCCCNC(=O)c1ccc(-c2c3nc(c(-c4ccc(S(=O)(=O)[O-])cc4)c4ccc([nH]4)c(-c4ccc(S(=O)(=O)[O-])cc4)c4nc(c(-c5ccc(S(=O)(=O)[O-])cc5)c5ccc2[nH]5)C=C4)C=C3)cc1)[C@H]1CCS(=O)(=O)C1
REMARK SMILES IDX 9 1 8 2 7 3 5 4 6 5 4 7 3 8 2 9 1 10 74 11 75 12 80 13 76 14
REMARK SMILES IDX 77 15 78 16 79 17 10 18 11 19 12 20 13 22 14 23 15 24 73 25
REMARK SMILES IDX 16 26 72 27 17 28 18 29 19 30 66 31 20 32 71 33 65 34 67 35
REMARK SMILES IDX 21 36 70 37 64 38 63 39 22 41 52 42 33 43 51 44 34 45 37 46
REMARK SMILES IDX 50 47 68 48 35 49 36 50 49 52 69 53 38 54 23 55 24 56 32 57
REMARK SMILES IDX 25 58 31 59 26 60 27 61 28 62 29 63 30 64 53 65 54 66 62 67
REMARK SMILES IDX 55 68 61 69 56 70 57 71 58 72 59 73 60 74 39 75 40 76 48 77
REMARK SMILES IDX 41 78 47 79 42 80 43 81 44 82 45 83 46 84
REMARK H PARENT 7 6 11 21 67 40 37 51
REMARK Flexibility Score: inf
ROOT
ATOM      1  C   UNL     1      -5.570  -2.307   2.932  1.00  0.00     0.042 C 
ENDROOT
BRANCH   1   2
ATOM      2  C   UNL     1      -5.569  -2.530   1.421  1.00  0.00     0.117 C 
BRANCH   2   3
ATOM      3  N   UNL     1      -6.165  -1.407   0.728  1.00  0.00    -0.356 N 
ATOM      4  C   UNL     1      -5.609  -0.378   0.044  1.00  0.00     0.224 C 
ATOM      5  O   UNL     1      -6.402   0.456  -0.398  1.00  0.00    -0.275 OA
ATOM      6  H   UNL     1      -7.149  -1.388   0.760  1.00  0.00     0.163 HD
BRANCH   4   7
ATOM      7  C   UNL     1      -4.095  -0.278  -0.208  1.00  0.00     0.094 C 
BRANCH   7   8
ATOM      8  C   UNL     1      -3.318   0.160   1.053  1.00  0.00     0.103 C 
BRANCH   8   9
ATOM      9  C   UNL     1      -2.760  -0.945   1.853  1.00  0.00    -0.106 C 
ATOM     10  C   UNL     1      -2.310  -1.801   2.562  1.00  0.00     0.004 C 
ENDBRANCH   8   9
ENDBRANCH   7   8
BRANCH   7  11
ATOM     11  C   UNL     1      -3.771   0.739  -1.350  1.00  0.00     0.018 C 
ATOM     12  C   UNL     1      -4.399   0.428  -2.721  1.00  0.00     0.021 C 
ATOM     13  C   UNL     1      -4.139   2.205  -1.050  1.00  0.00     0.141 C 
ATOM     14  C   UNL     1      -4.058   1.600  -3.644  1.00  0.00     0.137 C 
ATOM     15  S   UNL     1      -3.940   3.050  -2.607  1.00  0.00     0.150 S 
ATOM     16  O   UNL     1      -2.581   3.550  -2.679  1.00  0.00    -0.229 OA
ATOM     17  O   UNL     1      -5.085   3.903  -2.844  1.00  0.00    -0.229 OA
ENDBRANCH   7  11
ENDBRANCH   4   7
ENDBRANCH   2   3
ENDBRANCH   1   2
BRANCH   1  18
ATOM     18  C   UNL     1      -6.955  -2.366   3.566  1.00  0.00     0.118 C 
BRANCH  18  19
ATOM     19  N   UNL     1      -7.530  -3.699   3.489  1.00  0.00    -0.352 N 
ATOM     20  C   UNL     1      -7.766  -4.631   4.467  1.00  0.00     0.251 C 
ATOM     21  H   UNL     1      -7.795  -3.980   2.583  1.00  0.00     0.163 HD
ATOM     22  O   UNL     1      -7.981  -5.793   4.128  1.00  0.00    -0.269 OA
BRANCH  20  23
ATOM     23  C   UNL     1      -7.762  -4.270   5.904  1.00  0.00     0.039 A 
ATOM     24  C   UNL     1      -7.344  -5.232   6.829  1.00  0.00     0.014 A 
ATOM     25  C   UNL     1      -8.226  -3.034   6.363  1.00  0.00     0.014 A 
ATOM     26  C   UNL     1      -7.354  -4.939   8.194  1.00  0.00     0.010 A 
ATOM     27  C   UNL     1      -8.139  -2.706   7.716  1.00  0.00     0.010 A 
ATOM     28  C   UNL     1      -7.716  -3.660   8.650  1.00  0.00    -0.014 A 
BRANCH  28  29
ATOM     29  C   UNL     1      -7.636  -3.324  10.097  1.00  0.00     0.031 A 
ATOM     30  C   UNL     1      -8.866  -2.926  10.871  1.00  0.00     0.074 A 
ATOM     31  C   UNL     1      -6.437  -3.365  10.713  1.00  0.00     0.049 A 
ATOM     32  N   UNL     1      -8.977  -2.631  12.142  1.00  0.00    -0.248 NA
ATOM     33  C   UNL     1     -10.130  -2.827  10.124  1.00  0.00     0.031 C 
ATOM     34  C   UNL     1      -5.163  -3.685  10.061  1.00  0.00     0.029 A 
ATOM     35  N   UNL     1      -6.090  -3.150  12.023  1.00  0.00    -0.354 N 
ATOM     36  C   UNL     1     -10.316  -2.315  12.346  1.00  0.00     0.074 A 
ATOM     37  C   UNL     1     -10.965  -2.390  11.056  1.00  0.00     0.031 C 
ATOM     38  C   UNL     1      -4.187  -3.692  10.980  1.00  0.00     0.029 A 
ATOM     39  C   UNL     1      -4.750  -3.325  12.275  1.00  0.00     0.049 A 
ATOM     40  H   UNL     1      -6.740  -2.895  12.718  1.00  0.00     0.167 HD
ATOM     41  C   UNL     1     -10.953  -2.016  13.504  1.00  0.00     0.031 A 
ATOM     42  C   UNL     1      -4.045  -3.199  13.416  1.00  0.00     0.031 A 
ATOM     43  C   UNL     1     -10.300  -1.933  14.785  1.00  0.00     0.049 A 
ATOM     44  C   UNL     1      -4.772  -2.838  14.682  1.00  0.00     0.074 A 
ATOM     45  C   UNL     1     -10.863  -1.673  16.023  1.00  0.00     0.029 A 
ATOM     46  N   UNL     1      -8.939  -2.101  14.995  1.00  0.00    -0.354 N 
ATOM     47  N   UNL     1      -6.052  -2.615  14.864  1.00  0.00    -0.248 NA
ATOM     48  C   UNL     1      -3.960  -2.728  15.900  1.00  0.00     0.031 C 
ATOM     49  C   UNL     1      -9.834  -1.616  16.969  1.00  0.00     0.029 A 
ATOM     50  C   UNL     1      -8.639  -1.919  16.336  1.00  0.00     0.049 A 
ATOM     51  H   UNL     1      -8.282  -2.318  14.295  1.00  0.00     0.167 HD
ATOM     52  C   UNL     1      -6.201  -2.357  16.222  1.00  0.00     0.074 A 
ATOM     53  C   UNL     1      -4.886  -2.489  16.817  1.00  0.00     0.031 C 
ATOM     54  C   UNL     1      -7.323  -2.034  16.913  1.00  0.00     0.031 A 
BRANCH  41  55
ATOM     55  C   UNL     1     -12.439  -1.754  13.440  1.00  0.00    -0.014 A 
ATOM     56  C   UNL     1     -13.347  -2.785  13.134  1.00  0.00     0.010 A 
ATOM     57  C   UNL     1     -12.941  -0.476  13.750  1.00  0.00     0.010 A 
ATOM     58  C   UNL     1     -14.721  -2.536  13.104  1.00  0.00     0.020 A 
ATOM     59  C   UNL     1     -14.318  -0.231  13.754  1.00  0.00     0.020 A 
ATOM     60  C   UNL     1     -15.199  -1.260  13.418  1.00  0.00     0.054 A 
BRANCH  60  61
ATOM     61  S   UNL     1     -16.991  -0.980  13.409  1.00  0.00     0.124 S 
ATOM     62  O   UNL     1     -17.306  -1.081  11.986  1.00  0.00    -0.237 OA
ATOM     63  O   UNL     1     -17.487  -2.074  14.240  1.00  0.00    -0.237 OA
ATOM     64  O   UNL     1     -17.138   0.354  13.985  1.00  0.00    -0.744 OA
ENDBRANCH  60  61
ENDBRANCH  41  55
BRANCH  42  65
ATOM     65  C   UNL     1      -2.570  -3.406  13.407  1.00  0.00    -0.014 A 
ATOM     66  C   UNL     1      -1.984  -4.486  14.091  1.00  0.00     0.010 A 
ATOM     67  C   UNL     1      -1.739  -2.515  12.703  1.00  0.00     0.010 A 
ATOM     68  C   UNL     1      -0.596  -4.655  14.092  1.00  0.00     0.020 A 
ATOM     69  C   UNL     1      -0.355  -2.702  12.668  1.00  0.00     0.020 A 
ATOM     70  C   UNL     1       0.209  -3.764  13.376  1.00  0.00     0.054 A 
BRANCH  70  71
ATOM     71  S   UNL     1       2.003  -4.029  13.353  1.00  0.00     0.124 S 
ATOM     72  O   UNL     1       2.378  -3.689  14.722  1.00  0.00    -0.237 OA
ATOM     73  O   UNL     1       2.107  -5.442  12.998  1.00  0.00    -0.237 OA
ATOM     74  O   UNL     1       2.473  -3.101  12.326  1.00  0.00    -0.744 OA
ENDBRANCH  70  71
ENDBRANCH  42  65
BRANCH  54  75
ATOM     75  C   UNL     1      -7.175  -1.823  18.399  1.00  0.00    -0.014 A 
ATOM     76  C   UNL     1      -6.451  -0.733  18.916  1.00  0.00     0.010 A 
ATOM     77  C   UNL     1      -7.781  -2.724  19.294  1.00  0.00     0.010 A 
ATOM     78  C   UNL     1      -6.286  -0.582  20.295  1.00  0.00     0.020 A 
ATOM     79  C   UNL     1      -7.653  -2.554  20.675  1.00  0.00     0.020 A 
ATOM     80  C   UNL     1      -6.886  -1.496  21.166  1.00  0.00     0.054 A 
BRANCH  80  81
ATOM     81  S   UNL     1      -6.663  -1.273  22.951  1.00  0.00     0.124 S 
ATOM     82  O   UNL     1      -5.255  -1.620  23.127  1.00  0.00    -0.237 OA
ATOM     83  O   UNL     1      -6.991   0.138  23.139  1.00  0.00    -0.237 OA
ATOM     84  O   UNL     1      -7.614  -2.212  23.541  1.00  0.00    -0.744 OA
ENDBRANCH  80  81
ENDBRANCH  54  75
ENDBRANCH  28  29
ENDBRANCH  20  23
ENDBRANCH  18  19
ENDBRANCH   1  18
TORSDOF 16
