REMARK SMILES CC[N@@H+](C[C@@H]1CCCO1)[C@@H](C)c1ccc(C(=O)NCCCNC(=O)c2ccc(-c3c4nc(c(-c5ccc(S(=O)(=O)[O-])cc5)c5ccc([nH]5)c(-c5ccc(S(=O)(=O)[O-])cc5)c5nc(c(-c6ccc(S(=O)(=O)[O-])cc6)c6ccc3[nH]6)C=C5)C=C4)cc2)o1
REMARK SMILES IDX 19 1 18 2 16 3 17 4 15 6 12 7 13 8 85 9 14 10 10 11 11 12
REMARK SMILES IDX 3 13 2 15 1 16 4 17 5 18 6 19 9 20 7 21 8 22 20 23 21 24
REMARK SMILES IDX 22 25 23 26 24 28 25 29 26 30 84 31 27 32 83 33 28 34 29 35
REMARK SMILES IDX 30 36 77 37 31 38 82 39 76 40 78 41 32 42 81 43 75 44 74 45
REMARK SMILES IDX 33 47 63 48 44 49 62 50 45 51 48 52 61 53 79 54 46 55 47 56
REMARK SMILES IDX 60 58 80 59 49 60 34 61 35 62 43 63 36 64 42 65 37 66 38 67
REMARK SMILES IDX 39 68 40 69 41 70 64 71 65 72 73 73 66 74 72 75 67 76 68 77
REMARK SMILES IDX 69 78 70 79 71 80 50 81 51 82 59 83 52 84 58 85 53 86 54 87
REMARK SMILES IDX 55 88 56 89 57 90
REMARK H PARENT 18 5 3 14 22 27 78 46 48 57
REMARK Flexibility Score: inf
ROOT
ATOM      1  C   UNL     1       3.408   4.230  -0.957  1.00  0.00     0.118 C 
ENDROOT
BRANCH   1   2
ATOM      2  N   UNL     1       4.268   3.165  -1.427  1.00  0.00    -0.349 N 
ATOM      3  C   UNL     1       4.494   1.914  -0.902  1.00  0.00     0.287 C 
ATOM      4  O   UNL     1       5.209   1.169  -1.571  1.00  0.00    -0.266 OA
ATOM      5  H   UNL     1       4.768   3.368  -2.250  1.00  0.00     0.163 HD
BRANCH   3   6
ATOM      6  C   UNL     1       3.864   1.510   0.338  1.00  0.00     0.191 A 
ATOM      7  C   UNL     1       2.945  -0.029   1.635  1.00  0.00     0.161 A 
ATOM      8  C   UNL     1       2.808   1.166   2.303  1.00  0.00     0.053 A 
ATOM      9  O   UNL     1       3.618   0.171   0.469  1.00  0.00    -0.450 OA
ATOM     10  C   UNL     1       3.414   2.149   1.480  1.00  0.00     0.057 A 
BRANCH   7  11
ATOM     11  C   UNL     1       2.526  -1.438   1.937  1.00  0.00     0.248 C 
ATOM     12  C   UNL     1       3.462  -2.442   1.248  1.00  0.00     0.084 C 
BRANCH  11  13
ATOM     13  N   UNL     1       1.064  -1.639   1.755  1.00  0.00    -0.324 N 
ATOM     14  H   UNL     1       0.682  -0.788   2.168  1.00  0.00     0.348 HD
BRANCH  13  15
ATOM     15  C   UNL     1       0.524  -1.585   0.390  1.00  0.00     0.259 C 
ATOM     16  C   UNL     1       0.551  -0.229  -0.305  1.00  0.00     0.071 C 
ENDBRANCH  13  15
BRANCH  13  17
ATOM     17  C   UNL     1       0.567  -2.819   2.500  1.00  0.00     0.295 C 
BRANCH  17  18
ATOM     18  C   UNL     1       0.724  -4.211   1.852  1.00  0.00     0.173 C 
ATOM     19  C   UNL     1      -0.447  -4.704   1.020  1.00  0.00     0.040 C 
ATOM     20  O   UNL     1       0.899  -5.221   2.866  1.00  0.00    -0.372 OA
ATOM     21  C   UNL     1      -0.131  -6.180   0.949  1.00  0.00     0.031 C 
ATOM     22  C   UNL     1       0.422  -6.466   2.332  1.00  0.00     0.161 C 
ENDBRANCH  17  18
ENDBRANCH  13  17
ENDBRANCH  11  13
ENDBRANCH   7  11
ENDBRANCH   3   6
ENDBRANCH   1   2
BRANCH   1  23
ATOM     23  C   UNL     1       4.192   5.258  -0.149  1.00  0.00     0.042 C 
BRANCH  23  24
ATOM     24  C   UNL     1       5.117   6.113  -1.010  1.00  0.00     0.118 C 
BRANCH  24  25
ATOM     25  N   UNL     1       4.370   7.000  -1.889  1.00  0.00    -0.352 N 
ATOM     26  C   UNL     1       4.385   8.369  -1.975  1.00  0.00     0.251 C 
ATOM     27  H   UNL     1       3.761   6.550  -2.518  1.00  0.00     0.163 HD
ATOM     28  O   UNL     1       3.504   8.939  -2.613  1.00  0.00    -0.269 OA
BRANCH  26  29
ATOM     29  C   UNL     1       5.444   9.156  -1.306  1.00  0.00     0.039 A 
ATOM     30  C   UNL     1       5.103  10.373  -0.708  1.00  0.00     0.014 A 
ATOM     31  C   UNL     1       6.777   8.732  -1.315  1.00  0.00     0.014 A 
ATOM     32  C   UNL     1       6.090  11.144  -0.089  1.00  0.00     0.010 A 
ATOM     33  C   UNL     1       7.745   9.464  -0.633  1.00  0.00     0.010 A 
ATOM     34  C   UNL     1       7.416  10.687  -0.030  1.00  0.00    -0.014 A 
BRANCH  34  35
ATOM     35  C   UNL     1       8.479  11.488   0.626  1.00  0.00     0.031 A 
ATOM     36  C   UNL     1       9.622  12.033  -0.191  1.00  0.00     0.074 A 
ATOM     37  C   UNL     1       8.448  11.677   1.959  1.00  0.00     0.049 A 
ATOM     38  N   UNL     1      10.678  12.695   0.207  1.00  0.00    -0.248 NA
ATOM     39  C   UNL     1       9.585  11.779  -1.641  1.00  0.00     0.031 C 
ATOM     40  C   UNL     1       7.415  11.168   2.864  1.00  0.00     0.029 A 
ATOM     41  N   UNL     1       9.316  12.343   2.788  1.00  0.00    -0.354 N 
ATOM     42  C   UNL     1      11.440  12.913  -0.935  1.00  0.00     0.074 A 
ATOM     43  C   UNL     1      10.748  12.276  -2.034  1.00  0.00     0.031 C 
ATOM     44  C   UNL     1       7.696  11.561   4.118  1.00  0.00     0.029 A 
ATOM     45  C   UNL     1       8.946  12.315   4.112  1.00  0.00     0.049 A 
ATOM     46  H   UNL     1      10.127  12.798   2.465  1.00  0.00     0.167 HD
ATOM     47  C   UNL     1      12.602  13.599  -1.063  1.00  0.00     0.031 A 
ATOM     48  C   UNL     1       9.547  12.833   5.200  1.00  0.00     0.031 A 
ATOM     49  C   UNL     1      13.275  14.250   0.029  1.00  0.00     0.049 A 
ATOM     50  C   UNL     1      10.829  13.602   5.031  1.00  0.00     0.074 A 
ATOM     51  C   UNL     1      14.430  15.013  -0.004  1.00  0.00     0.029 A 
ATOM     52  N   UNL     1      12.852  14.221   1.349  1.00  0.00    -0.354 N 
ATOM     53  N   UNL     1      11.508  13.841   3.934  1.00  0.00    -0.248 NA
ATOM     54  C   UNL     1      11.417  14.185   6.245  1.00  0.00     0.031 C 
ATOM     55  C   UNL     1      14.726  15.412   1.303  1.00  0.00     0.029 A 
ATOM     56  C   UNL     1      13.728  14.942   2.142  1.00  0.00     0.049 A 
ATOM     57  H   UNL     1      12.048  13.756   1.674  1.00  0.00     0.167 HD
ATOM     58  C   UNL     1      12.585  14.630   4.321  1.00  0.00     0.074 A 
ATOM     59  C   UNL     1      12.462  14.835   5.750  1.00  0.00     0.031 C 
ATOM     60  C   UNL     1      13.585  15.141   3.562  1.00  0.00     0.031 A 
BRANCH  47  61
ATOM     61  C   UNL     1      13.218  13.675  -2.435  1.00  0.00    -0.014 A 
ATOM     62  C   UNL     1      12.625  14.441  -3.456  1.00  0.00     0.010 A 
ATOM     63  C   UNL     1      14.423  13.000  -2.700  1.00  0.00     0.010 A 
ATOM     64  C   UNL     1      13.202  14.494  -4.728  1.00  0.00     0.020 A 
ATOM     65  C   UNL     1      15.019  13.074  -3.963  1.00  0.00     0.020 A 
ATOM     66  C   UNL     1      14.394  13.806  -4.974  1.00  0.00     0.054 A 
BRANCH  66  67
ATOM     67  S   UNL     1      15.131  13.909  -6.628  1.00  0.00     0.124 S 
ATOM     68  O   UNL     1      14.245  13.046  -7.406  1.00  0.00    -0.237 OA
ATOM     69  O   UNL     1      15.043  15.335  -6.932  1.00  0.00    -0.237 OA
ATOM     70  O   UNL     1      16.486  13.398  -6.436  1.00  0.00    -0.744 OA
ENDBRANCH  66  67
ENDBRANCH  47  61
BRANCH  48  71
ATOM     71  C   UNL     1       8.929  12.662   6.542  1.00  0.00    -0.014 A 
ATOM     72  C   UNL     1       8.333  13.755   7.196  1.00  0.00     0.010 A 
ATOM     73  C   UNL     1       8.919  11.403   7.168  1.00  0.00     0.010 A 
ATOM     74  C   UNL     1       7.756  13.597   8.459  1.00  0.00     0.020 A 
ATOM     75  C   UNL     1       8.320  11.234   8.420  1.00  0.00     0.020 A 
ATOM     76  C   UNL     1       7.753  12.336   9.063  1.00  0.00     0.054 A 
BRANCH  76  77
ATOM     77  S   UNL     1       6.954  12.142  10.681  1.00  0.00     0.124 S 
ATOM     78  O   UNL     1       7.930  12.756  11.576  1.00  0.00    -0.237 OA
ATOM     79  O   UNL     1       5.704  12.877  10.507  1.00  0.00    -0.237 OA
ATOM     80  O   UNL     1       6.803  10.695  10.814  1.00  0.00    -0.744 OA
ENDBRANCH  76  77
ENDBRANCH  48  71
BRANCH  60  81
ATOM     81  C   UNL     1      14.601  16.012   4.251  1.00  0.00    -0.014 A 
ATOM     82  C   UNL     1      15.573  15.465   5.106  1.00  0.00     0.010 A 
ATOM     83  C   UNL     1      14.611  17.395   3.994  1.00  0.00     0.010 A 
ATOM     84  C   UNL     1      16.518  16.292   5.719  1.00  0.00     0.020 A 
ATOM     85  C   UNL     1      15.570  18.221   4.584  1.00  0.00     0.020 A 
ATOM     86  C   UNL     1      16.509  17.666   5.456  1.00  0.00     0.054 A 
BRANCH  86  87
ATOM     87  S   UNL     1      17.769  18.714   6.232  1.00  0.00     0.124 S 
ATOM     88  O   UNL     1      17.282  18.808   7.605  1.00  0.00    -0.237 OA
ATOM     89  O   UNL     1      18.992  17.936   6.050  1.00  0.00    -0.237 OA
ATOM     90  O   UNL     1      17.708  19.955   5.463  1.00  0.00    -0.744 OA
ENDBRANCH  86  87
ENDBRANCH  60  81
ENDBRANCH  34  35
ENDBRANCH  26  29
ENDBRANCH  24  25
ENDBRANCH  23  24
ENDBRANCH   1  23
TORSDOF 18
