REMARK SMILES COc1cccc([C@@H]2[NH2+][C@@](C)(C(=O)NCCCNC(=O)c3ccc(-c4c5nc(c(-c6ccc(S(=O)(=O)[O-])cc6)c6ccc([nH]6)c(-c6ccc(S(=O)(=O)[O-])cc6)c6nc(c(-c7ccc(S(=O)(=O)[O-])cc7)c7ccc4[nH]7)C=C6)C=C5)cc3)[C@@H]3C(=O)N(C)C(=O)[C@@H]32)c1O
REMARK SMILES IDX 16 1 15 2 14 3 12 4 13 5 10 7 8 8 9 9 88 10 81 13 86 14
REMARK SMILES IDX 11 15 82 16 84 17 87 18 83 19 85 20 7 21 3 22 4 23 89 24
REMARK SMILES IDX 5 25 6 26 2 27 1 28 90 29 17 31 18 32 19 33 20 35 21 36
REMARK SMILES IDX 22 37 80 38 23 39 79 40 24 41 25 42 26 43 73 44 27 45 78 46
REMARK SMILES IDX 72 47 74 48 28 49 77 50 71 51 70 52 29 54 59 55 40 56 58 57
REMARK SMILES IDX 41 58 44 59 57 60 75 61 42 62 43 63 56 65 76 66 45 67 30 68
REMARK SMILES IDX 31 69 39 70 32 71 38 72 33 73 34 74 35 75 36 76 37 77 60 78
REMARK SMILES IDX 61 79 69 80 62 81 68 82 63 83 64 84 65 85 66 86 67 87 46 88
REMARK SMILES IDX 47 89 55 90 48 91 54 92 49 93 50 94 51 95 52 96 53 97
REMARK H PARENT 14 6 9 11 9 12 90 30 18 34 74 53 44 64
REMARK Flexibility Score: inf
ROOT
ATOM      1  C   UNL     1       8.235  -3.656  -2.241  1.00  0.00     0.042 C 
ENDROOT
BRANCH   1   2
ATOM      2  C   UNL     1       7.648  -2.340  -2.723  1.00  0.00     0.118 C 
BRANCH   2   3
ATOM      3  N   UNL     1       6.989  -2.462  -4.014  1.00  0.00    -0.351 N 
ATOM      4  C   UNL     1       5.689  -2.235  -4.367  1.00  0.00     0.281 C 
ATOM      5  O   UNL     1       5.379  -2.478  -5.537  1.00  0.00    -0.268 OA
ATOM      6  H   UNL     1       7.573  -2.755  -4.751  1.00  0.00     0.163 HD
BRANCH   4   7
ATOM      7  C   UNL     1       4.660  -1.659  -3.342  1.00  0.00     0.185 C 
ATOM      8  C   UNL     1       3.363  -3.423  -2.315  1.00  0.00     0.232 C 
ATOM      9  N   UNL     1       4.586  -2.599  -2.192  1.00  0.00    -0.326 N 
ATOM     10  C   UNL     1       2.666  -3.014  -3.620  1.00  0.00     0.161 C 
ATOM     11  H   UNL     1       5.407  -3.204  -2.194  1.00  0.00     0.347 HD
ATOM     12  H   UNL     1       4.558  -2.071  -1.320  1.00  0.00     0.347 HD
ATOM     13  C   UNL     1       3.266  -1.663  -3.982  1.00  0.00     0.169 C 
ATOM     14  C   UNL     1       1.195  -2.718  -3.515  1.00  0.00     0.239 C 
ATOM     15  C   UNL     1       5.131  -0.249  -2.947  1.00  0.00     0.091 C 
ATOM     16  C   UNL     1       2.223  -0.693  -3.485  1.00  0.00     0.240 C 
ATOM     17  N   UNL     1       1.043  -1.368  -3.356  1.00  0.00    -0.285 N 
ATOM     18  O   UNL     1       0.305  -3.550  -3.529  1.00  0.00    -0.274 OA
ATOM     19  O   UNL     1       2.379   0.499  -3.263  1.00  0.00    -0.274 OA
ATOM     20  C   UNL     1      -0.218  -0.750  -3.022  1.00  0.00     0.156 C 
BRANCH   8  21
ATOM     21  C   UNL     1       2.497  -3.400  -1.056  1.00  0.00     0.056 A 
ATOM     22  C   UNL     1       1.244  -2.220   0.699  1.00  0.00     0.161 A 
ATOM     23  C   UNL     1       0.694  -3.444   1.094  1.00  0.00     0.050 A 
ATOM     24  C   UNL     1       2.176  -2.218  -0.347  1.00  0.00     0.166 A 
ATOM     25  C   UNL     1       1.036  -4.631   0.449  1.00  0.00     0.005 A 
ATOM     26  C   UNL     1       1.918  -4.606  -0.629  1.00  0.00     0.014 A 
BRANCH  22  27
ATOM     27  O   UNL     1       0.805  -1.173   1.460  1.00  0.00    -0.493 OA
ATOM     28  C   UNL     1       0.902   0.145   0.948  1.00  0.00     0.278 C 
ENDBRANCH  22  27
BRANCH  24  29
ATOM     29  O   UNL     1       2.883  -1.099  -0.686  1.00  0.00    -0.504 OA
ATOM     30  H   UNL     1       2.714  -0.287  -0.249  1.00  0.00     0.293 HD
ENDBRANCH  24  29
ENDBRANCH   8  21
ENDBRANCH   4   7
ENDBRANCH   2   3
ENDBRANCH   1   2
BRANCH   1  31
ATOM     31  C   UNL     1       9.312  -4.232  -3.150  1.00  0.00     0.118 C 
BRANCH  31  32
ATOM     32  N   UNL     1      10.448  -3.338  -3.327  1.00  0.00    -0.352 N 
ATOM     33  C   UNL     1      11.781  -3.528  -3.056  1.00  0.00     0.251 C 
ATOM     34  H   UNL     1      10.225  -2.455  -3.701  1.00  0.00     0.163 HD
ATOM     35  O   UNL     1      12.549  -2.572  -3.124  1.00  0.00    -0.269 OA
BRANCH  33  36
ATOM     36  C   UNL     1      12.288  -4.861  -2.660  1.00  0.00     0.039 A 
ATOM     37  C   UNL     1      13.261  -4.939  -1.661  1.00  0.00     0.014 A 
ATOM     38  C   UNL     1      11.823  -6.029  -3.270  1.00  0.00     0.014 A 
ATOM     39  C   UNL     1      13.709  -6.188  -1.226  1.00  0.00     0.010 A 
ATOM     40  C   UNL     1      12.197  -7.273  -2.769  1.00  0.00     0.010 A 
ATOM     41  C   UNL     1      13.148  -7.368  -1.744  1.00  0.00    -0.014 A 
BRANCH  41  42
ATOM     42  C   UNL     1      13.538  -8.698  -1.207  1.00  0.00     0.031 A 
ATOM     43  C   UNL     1      14.190  -9.724  -2.097  1.00  0.00     0.074 A 
ATOM     44  C   UNL     1      13.268  -8.994   0.081  1.00  0.00     0.049 A 
ATOM     45  N   UNL     1      14.597 -10.931  -1.798  1.00  0.00    -0.248 NA
ATOM     46  C   UNL     1      14.392  -9.358  -3.509  1.00  0.00     0.031 C 
ATOM     47  C   UNL     1      12.590  -8.107   1.031  1.00  0.00     0.029 A 
ATOM     48  N   UNL     1      13.536 -10.121   0.818  1.00  0.00    -0.354 N 
ATOM     49  C   UNL     1      15.096 -11.469  -2.979  1.00  0.00     0.074 A 
ATOM     50  C   UNL     1      14.886 -10.480  -4.014  1.00  0.00     0.031 C 
ATOM     51  C   UNL     1      12.537  -8.705   2.232  1.00  0.00     0.029 A 
ATOM     52  C   UNL     1      13.133 -10.032   2.130  1.00  0.00     0.049 A 
ATOM     53  H   UNL     1      13.975 -10.918   0.442  1.00  0.00     0.167 HD
ATOM     54  C   UNL     1      15.697 -12.665  -3.182  1.00  0.00     0.031 A 
ATOM     55  C   UNL     1      13.230 -10.919   3.139  1.00  0.00     0.031 A 
ATOM     56  C   UNL     1      15.910 -13.646  -2.149  1.00  0.00     0.049 A 
ATOM     57  C   UNL     1      13.893 -12.245   2.883  1.00  0.00     0.074 A 
ATOM     58  C   UNL     1      16.553 -14.868  -2.243  1.00  0.00     0.029 A 
ATOM     59  N   UNL     1      15.486 -13.519  -0.835  1.00  0.00    -0.354 N 
ATOM     60  N   UNL     1      14.423 -12.702   1.774  1.00  0.00    -0.248 NA
ATOM     61  C   UNL     1      13.985 -13.168   4.022  1.00  0.00     0.031 C 
ATOM     62  C   UNL     1      16.468 -15.505  -1.001  1.00  0.00     0.029 A 
ATOM     63  C   UNL     1      15.832 -14.651  -0.115  1.00  0.00     0.049 A 
ATOM     64  H   UNL     1      15.010 -12.739  -0.468  1.00  0.00     0.167 HD
ATOM     65  C   UNL     1      14.935 -13.956   2.089  1.00  0.00     0.074 A 
ATOM     66  C   UNL     1      14.677 -14.170   3.499  1.00  0.00     0.031 C 
ATOM     67  C   UNL     1      15.560 -14.853   1.286  1.00  0.00     0.031 A 
BRANCH  54  68
ATOM     68  C   UNL     1      16.178 -12.983  -4.575  1.00  0.00    -0.014 A 
ATOM     69  C   UNL     1      17.273 -12.299  -5.137  1.00  0.00     0.010 A 
ATOM     70  C   UNL     1      15.575 -14.023  -5.306  1.00  0.00     0.010 A 
ATOM     71  C   UNL     1      17.736 -12.630  -6.413  1.00  0.00     0.020 A 
ATOM     72  C   UNL     1      16.055 -14.377  -6.571  1.00  0.00     0.020 A 
ATOM     73  C   UNL     1      17.126 -13.670  -7.121  1.00  0.00     0.054 A 
BRANCH  73  74
ATOM     74  S   UNL     1      17.784 -14.110  -8.753  1.00  0.00     0.124 S 
ATOM     75  O   UNL     1      17.377 -12.963  -9.561  1.00  0.00    -0.237 OA
ATOM     76  O   UNL     1      19.218 -14.222  -8.499  1.00  0.00    -0.237 OA
ATOM     77  O   UNL     1      17.110 -15.366  -9.073  1.00  0.00    -0.744 OA
ENDBRANCH  73  74
ENDBRANCH  54  68
BRANCH  55  78
ATOM     78  C   UNL     1      12.695 -10.583   4.489  1.00  0.00    -0.014 A 
ATOM     79  C   UNL     1      13.563 -10.411   5.583  1.00  0.00     0.010 A 
ATOM     80  C   UNL     1      11.309 -10.453   4.692  1.00  0.00     0.010 A 
ATOM     81  C   UNL     1      13.053 -10.153   6.859  1.00  0.00     0.020 A 
ATOM     82  C   UNL     1      10.798 -10.159   5.959  1.00  0.00     0.020 A 
ATOM     83  C   UNL     1      11.672 -10.030   7.039  1.00  0.00     0.054 A 
BRANCH  83  84
ATOM     84  S   UNL     1      11.034  -9.675   8.699  1.00  0.00     0.124 S 
ATOM     85  O   UNL     1      11.232 -10.950   9.380  1.00  0.00    -0.237 OA
ATOM     86  O   UNL     1      11.893  -8.579   9.140  1.00  0.00    -0.237 OA
ATOM     87  O   UNL     1       9.641  -9.304   8.457  1.00  0.00    -0.744 OA
ENDBRANCH  83  84
ENDBRANCH  55  78
BRANCH  67  88
ATOM     88  C   UNL     1      16.036 -16.132   1.925  1.00  0.00    -0.014 A 
ATOM     89  C   UNL     1      15.127 -17.104   2.383  1.00  0.00     0.010 A 
ATOM     90  C   UNL     1      17.416 -16.370   2.057  1.00  0.00     0.010 A 
ATOM     91  C   UNL     1      15.589 -18.262   3.014  1.00  0.00     0.020 A 
ATOM     92  C   UNL     1      17.883 -17.544   2.655  1.00  0.00     0.020 A 
ATOM     93  C   UNL     1      16.965 -18.471   3.151  1.00  0.00     0.054 A 
BRANCH  93  94
ATOM     94  S   UNL     1      17.539 -19.984   3.969  1.00  0.00     0.124 S 
ATOM     95  O   UNL     1      17.222 -19.711   5.368  1.00  0.00    -0.237 OA
ATOM     96  O   UNL     1      16.731 -21.020   3.331  1.00  0.00    -0.237 OA
ATOM     97  O   UNL     1      18.965 -20.030   3.651  1.00  0.00    -0.744 OA
ENDBRANCH  93  94
ENDBRANCH  67  88
ENDBRANCH  41  42
ENDBRANCH  33  36
ENDBRANCH  31  32
ENDBRANCH   1  31
TORSDOF 16
