REMARK SMILES C[N@@H+]1CC2(CC[NH+](Cc3cccc(O)c3)CC2)C[C@H]1C(=O)NCCCNC(=O)c1ccc(-c2c3nc(c(-c4ccc(S(=O)(=O)[O-])cc4)c4ccc([nH]4)c(-c4ccc(S(=O)(=O)[O-])cc4)c4nc(c(-c5ccc(S(=O)(=O)[O-])cc5)c5ccc2[nH]5)C=C4)C=C3)cc1
REMARK SMILES IDX 24 1 23 2 22 3 20 4 21 5 19 7 1 8 2 9 3 10 4 12 18 13 5 14
REMARK SMILES IDX 17 15 6 16 16 17 7 18 8 20 9 21 10 22 15 23 11 24 13 25
REMARK SMILES IDX 12 26 14 27 25 29 26 30 27 31 28 33 29 34 30 35 88 36 31 37
REMARK SMILES IDX 87 38 32 39 33 40 34 41 81 42 35 43 86 44 80 45 82 46 36 47
REMARK SMILES IDX 85 48 79 49 78 50 37 52 67 53 48 54 66 55 49 56 52 57 65 58
REMARK SMILES IDX 83 59 50 60 51 61 64 63 84 64 53 65 38 66 39 67 47 68 40 69
REMARK SMILES IDX 46 70 41 71 42 72 43 73 44 74 45 75 68 76 69 77 77 78 70 79
REMARK SMILES IDX 76 80 71 81 72 82 73 83 74 84 75 85 54 86 55 87 63 88 56 89
REMARK SMILES IDX 62 90 57 91 58 92 59 93 60 94 61 95
REMARK H PARENT 22 6 2 11 7 19 14 28 26 32 82 51 52 62
REMARK Flexibility Score: inf
ROOT
ATOM      1  C   UNL     1      -0.927  -3.410  -3.319  1.00  0.00     0.042 C 
ENDROOT
BRANCH   1   2
ATOM      2  C   UNL     1      -0.770  -4.168  -2.008  1.00  0.00     0.118 C 
BRANCH   2   3
ATOM      3  N   UNL     1       0.583  -4.163  -1.502  1.00  0.00    -0.351 N 
ATOM      4  C   UNL     1       1.210  -3.362  -0.600  1.00  0.00     0.278 C 
ATOM      5  O   UNL     1       2.351  -3.721  -0.273  1.00  0.00    -0.268 OA
ATOM      6  H   UNL     1       1.156  -4.869  -1.880  1.00  0.00     0.163 HD
BRANCH   4   7
ATOM      7  C   UNL     1       0.613  -2.071   0.017  1.00  0.00     0.274 C 
ATOM      8  C   UNL     1       1.373   0.162  -0.492  1.00  0.00     0.333 C 
ATOM      9  N   UNL     1       0.573  -0.969  -0.967  1.00  0.00    -0.327 N 
ATOM     10  C   UNL     1      -0.832  -0.600  -1.192  1.00  0.00     0.270 C 
ATOM     11  H   UNL     1       0.979  -1.262  -1.856  1.00  0.00     0.348 HD
ATOM     12  C   UNL     1      -1.669  -1.097   0.000  1.00  0.00     0.036 C 
ATOM     13  C   UNL     1      -0.745  -2.136   0.694  1.00  0.00     0.089 C 
ATOM     14  C   UNL     1      -2.976  -1.795  -0.451  1.00  0.00     0.075 C 
ATOM     15  C   UNL     1      -1.962   0.091   0.953  1.00  0.00     0.075 C 
ATOM     16  C   UNL     1      -4.185  -0.901  -0.680  1.00  0.00     0.263 C 
ATOM     17  C   UNL     1      -3.249   0.867   0.649  1.00  0.00     0.263 C 
ATOM     18  N   UNL     1      -4.425   0.050   0.389  1.00  0.00    -0.331 N 
ATOM     19  H   UNL     1      -5.119   0.710   0.038  1.00  0.00     0.348 HD
BRANCH  18  20
ATOM     20  C   UNL     1      -5.207  -0.429   1.536  1.00  0.00     0.299 C 
BRANCH  20  21
ATOM     21  C   UNL     1      -4.536  -1.375   2.508  1.00  0.00     0.010 A 
ATOM     22  C   UNL     1      -3.757  -0.878   3.563  1.00  0.00     0.010 A 
ATOM     23  C   UNL     1      -4.631  -2.765   2.347  1.00  0.00     0.055 A 
ATOM     24  C   UNL     1      -2.986  -1.737   4.350  1.00  0.00     0.004 A 
ATOM     25  C   UNL     1      -3.859  -3.615   3.134  1.00  0.00     0.116 A 
ATOM     26  C   UNL     1      -3.021  -3.111   4.122  1.00  0.00     0.046 A 
BRANCH  25  27
ATOM     27  O   UNL     1      -3.921  -4.953   2.874  1.00  0.00    -0.508 OA
ATOM     28  H   UNL     1      -3.415  -5.554   3.385  1.00  0.00     0.293 HD
ENDBRANCH  25  27
ENDBRANCH  20  21
ENDBRANCH  18  20
ENDBRANCH   4   7
ENDBRANCH   2   3
ENDBRANCH   1   2
BRANCH   1  29
ATOM     29  C   UNL     1      -1.231  -4.319  -4.497  1.00  0.00     0.118 C 
BRANCH  29  30
ATOM     30  N   UNL     1      -2.583  -4.873  -4.437  1.00  0.00    -0.352 N 
ATOM     31  C   UNL     1      -3.576  -4.866  -5.391  1.00  0.00     0.251 C 
ATOM     32  H   UNL     1      -2.818  -5.317  -3.590  1.00  0.00     0.163 HD
ATOM     33  O   UNL     1      -4.707  -5.247  -5.097  1.00  0.00    -0.269 OA
BRANCH  31  34
ATOM     34  C   UNL     1      -3.288  -4.367  -6.753  1.00  0.00     0.039 A 
ATOM     35  C   UNL     1      -4.218  -3.546  -7.398  1.00  0.00     0.014 A 
ATOM     36  C   UNL     1      -2.082  -4.681  -7.380  1.00  0.00     0.014 A 
ATOM     37  C   UNL     1      -3.894  -2.964  -8.629  1.00  0.00     0.010 A 
ATOM     38  C   UNL     1      -1.720  -4.021  -8.546  1.00  0.00     0.010 A 
ATOM     39  C   UNL     1      -2.621  -3.156  -9.187  1.00  0.00    -0.014 A 
BRANCH  39  40
ATOM     40  C   UNL     1      -2.187  -2.498 -10.446  1.00  0.00     0.031 A 
ATOM     41  C   UNL     1      -1.738  -3.354 -11.602  1.00  0.00     0.074 A 
ATOM     42  C   UNL     1      -2.073  -1.157 -10.512  1.00  0.00     0.049 A 
ATOM     43  N   UNL     1      -1.100  -3.009 -12.689  1.00  0.00    -0.248 NA
ATOM     44  C   UNL     1      -2.002  -4.800 -11.493  1.00  0.00     0.031 C 
ATOM     45  C   UNL     1      -2.440  -0.215  -9.451  1.00  0.00     0.029 A 
ATOM     46  N   UNL     1      -1.586  -0.351 -11.512  1.00  0.00    -0.354 N 
ATOM     47  C   UNL     1      -0.851  -4.195 -13.370  1.00  0.00     0.074 A 
ATOM     48  C   UNL     1      -1.362  -5.272 -12.552  1.00  0.00     0.031 C 
ATOM     49  C   UNL     1      -2.175   1.037  -9.860  1.00  0.00     0.029 A 
ATOM     50  C   UNL     1      -1.572   0.986 -11.187  1.00  0.00     0.049 A 
ATOM     51  H   UNL     1      -1.277  -0.698 -12.380  1.00  0.00     0.167 HD
ATOM     52  C   UNL     1      -0.268  -4.372 -14.579  1.00  0.00     0.031 A 
ATOM     53  C   UNL     1      -1.102   2.049 -11.870  1.00  0.00     0.031 A 
ATOM     54  C   UNL     1       0.202  -3.296 -15.407  1.00  0.00     0.049 A 
ATOM     55  C   UNL     1      -0.475   1.831 -13.221  1.00  0.00     0.074 A 
ATOM     56  C   UNL     1       0.771  -3.362 -16.666  1.00  0.00     0.029 A 
ATOM     57  N   UNL     1       0.137  -1.954 -15.064  1.00  0.00    -0.354 N 
ATOM     58  N   UNL     1      -0.269   0.703 -13.860  1.00  0.00    -0.248 NA
ATOM     59  C   UNL     1      -0.023   3.026 -13.947  1.00  0.00     0.031 C 
ATOM     60  C   UNL     1       1.073  -2.060 -17.076  1.00  0.00     0.029 A 
ATOM     61  C   UNL     1       0.651  -1.181 -16.089  1.00  0.00     0.049 A 
ATOM     62  H   UNL     1      -0.222  -1.603 -14.217  1.00  0.00     0.167 HD
ATOM     63  C   UNL     1       0.309   1.057 -15.074  1.00  0.00     0.074 A 
ATOM     64  C   UNL     1       0.412   2.501 -15.086  1.00  0.00     0.031 C 
ATOM     65  C   UNL     1       0.718   0.257 -16.089  1.00  0.00     0.031 A 
BRANCH  52  66
ATOM     66  C   UNL     1      -0.124  -5.784 -15.080  1.00  0.00    -0.014 A 
ATOM     67  C   UNL     1      -1.252  -6.527 -15.476  1.00  0.00     0.010 A 
ATOM     68  C   UNL     1       1.151  -6.369 -15.183  1.00  0.00     0.010 A 
ATOM     69  C   UNL     1      -1.113  -7.844 -15.918  1.00  0.00     0.020 A 
ATOM     70  C   UNL     1       1.297  -7.678 -15.654  1.00  0.00     0.020 A 
ATOM     71  C   UNL     1       0.161  -8.413 -16.001  1.00  0.00     0.054 A 
BRANCH  71  72
ATOM     72  S   UNL     1       0.313 -10.119 -16.596  1.00  0.00     0.124 S 
ATOM     73  O   UNL     1      -0.152 -10.882 -15.441  1.00  0.00    -0.237 OA
ATOM     74  O   UNL     1      -0.574 -10.134 -17.757  1.00  0.00    -0.237 OA
ATOM     75  O   UNL     1       1.735 -10.254 -16.901  1.00  0.00    -0.744 OA
ENDBRANCH  71  72
ENDBRANCH  52  66
BRANCH  53  76
ATOM     76  C   UNL     1      -1.203   3.416 -11.291  1.00  0.00    -0.014 A 
ATOM     77  C   UNL     1      -2.104   4.353 -11.828  1.00  0.00     0.010 A 
ATOM     78  C   UNL     1      -0.399   3.792 -10.200  1.00  0.00     0.010 A 
ATOM     79  C   UNL     1      -2.179   5.647 -11.306  1.00  0.00     0.020 A 
ATOM     80  C   UNL     1      -0.489   5.078  -9.657  1.00  0.00     0.020 A 
ATOM     81  C   UNL     1      -1.368   6.003 -10.224  1.00  0.00     0.054 A 
BRANCH  81  82
ATOM     82  S   UNL     1      -1.504   7.678  -9.539  1.00  0.00     0.124 S 
ATOM     83  O   UNL     1      -0.779   8.469 -10.528  1.00  0.00    -0.237 OA
ATOM     84  O   UNL     1      -2.949   7.888  -9.495  1.00  0.00    -0.237 OA
ATOM     85  O   UNL     1      -0.860   7.564  -8.232  1.00  0.00    -0.744 OA
ENDBRANCH  81  82
ENDBRANCH  53  76
BRANCH  65  86
ATOM     86  C   UNL     1       1.264   0.919 -17.323  1.00  0.00    -0.014 A 
ATOM     87  C   UNL     1       2.563   1.453 -17.349  1.00  0.00     0.010 A 
ATOM     88  C   UNL     1       0.496   0.913 -18.503  1.00  0.00     0.010 A 
ATOM     89  C   UNL     1       3.083   1.978 -18.534  1.00  0.00     0.020 A 
ATOM     90  C   UNL     1       1.022   1.417 -19.694  1.00  0.00     0.020 A 
ATOM     91  C   UNL     1       2.312   1.952 -19.700  1.00  0.00     0.054 A 
BRANCH  91  92
ATOM     92  S   UNL     1       3.042   2.561 -21.245  1.00  0.00     0.124 S 
ATOM     93  O   UNL     1       3.002   4.008 -21.050  1.00  0.00    -0.237 OA
ATOM     94  O   UNL     1       4.374   1.961 -21.230  1.00  0.00    -0.237 OA
ATOM     95  O   UNL     1       2.146   2.046 -22.278  1.00  0.00    -0.744 OA
ENDBRANCH  91  92
ENDBRANCH  65  86
ENDBRANCH  39  40
ENDBRANCH  31  34
ENDBRANCH  29  30
ENDBRANCH   1  29
TORSDOF 16
