REMARK SMILES COc1ccc([C@@H]2[NH2+][C@H](C(=O)NCCCNC(=O)c3ccc(-c4c5nc(c(-c6ccc(S(=O)(=O)[O-])cc6)c6ccc([nH]6)c(-c6ccc(S(=O)(=O)[O-])cc6)c6nc(c(-c7ccc(S(=O)(=O)[O-])cc7)c7ccc4[nH]7)C=C6)C=C5)cc3)Cc3c2[nH]c2ccccc32)cc1COc1ccccc1C
REMARK SMILES IDX 13 1 12 2 10 3 11 4 9 6 7 7 8 8 81 9 80 12 82 13 79 14 88 15
REMARK SMILES IDX 83 16 87 18 84 19 86 20 85 21 6 22 3 23 4 24 90 25 5 26
REMARK SMILES IDX 89 27 2 28 1 29 91 30 92 31 93 32 94 33 98 34 95 35 97 36
REMARK SMILES IDX 99 37 96 38 14 39 15 40 16 41 17 42 18 44 19 45 20 46 78 47
REMARK SMILES IDX 21 48 77 49 22 50 23 51 24 52 71 53 25 54 76 55 70 56 72 57
REMARK SMILES IDX 26 58 75 59 69 60 68 61 27 63 57 64 38 65 56 66 39 67 42 68
REMARK SMILES IDX 55 69 73 70 40 71 41 72 54 74 74 75 43 76 28 77 29 78 37 79
REMARK SMILES IDX 30 80 36 81 31 82 32 83 33 84 34 85 35 86 58 87 59 88 67 89
REMARK SMILES IDX 60 90 66 91 61 92 62 93 63 94 64 95 65 96 44 97 45 98 53 99
REMARK SMILES IDX 46 100 52 101 47 102 48 103 49 104 50 105 51 106
REMARK H PARENT 12 5 8 10 8 11 82 17 16 43 72 62 42 73
REMARK Flexibility Score: inf
ROOT
ATOM      1  C   UNL     1       2.497   6.301  -5.980  1.00  0.00     0.118 C 
ENDROOT
BRANCH   1   2
ATOM      2  N   UNL     1       2.681   5.421  -4.839  1.00  0.00    -0.351 N 
ATOM      3  C   UNL     1       2.797   4.056  -4.805  1.00  0.00     0.278 C 
ATOM      4  O   UNL     1       3.045   3.539  -3.713  1.00  0.00    -0.268 OA
ATOM      5  H   UNL     1       2.729   5.870  -3.964  1.00  0.00     0.163 HD
BRANCH   3   6
ATOM      6  C   UNL     1       2.759   3.252  -6.123  1.00  0.00     0.277 C 
ATOM      7  C   UNL     1       2.431   0.748  -5.761  1.00  0.00     0.262 C 
ATOM      8  N   UNL     1       3.368   1.883  -5.932  1.00  0.00    -0.325 N 
ATOM      9  C   UNL     1       1.255   1.000  -6.610  1.00  0.00     0.083 A 
ATOM     10  H   UNL     1       3.945   1.685  -6.749  1.00  0.00     0.347 HD
ATOM     11  H   UNL     1       3.878   1.940  -5.050  1.00  0.00     0.347 HD
ATOM     12  C   UNL     1       0.550   2.171  -6.562  1.00  0.00    -0.006 A 
ATOM     13  N   UNL     1       0.751   0.409  -7.743  1.00  0.00    -0.353 N 
ATOM     14  C   UNL     1       1.390   3.344  -6.858  1.00  0.00     0.114 C 
ATOM     15  C   UNL     1      -0.765   1.721  -6.785  1.00  0.00     0.003 A 
ATOM     16  C   UNL     1      -0.607   0.707  -7.737  1.00  0.00     0.046 A 
ATOM     17  H   UNL     1       1.246  -0.114  -8.415  1.00  0.00     0.166 HD
ATOM     18  C   UNL     1      -1.943   1.677  -6.005  1.00  0.00     0.010 A 
ATOM     19  C   UNL     1      -1.679   0.036  -8.314  1.00  0.00     0.026 A 
ATOM     20  C   UNL     1      -2.954   0.778  -6.374  1.00  0.00     0.001 A 
ATOM     21  C   UNL     1      -2.857   0.048  -7.561  1.00  0.00     0.002 A 
BRANCH   7  22
ATOM     22  C   UNL     1       1.980   0.489  -4.298  1.00  0.00     0.016 A 
ATOM     23  C   UNL     1       1.183  -0.274  -1.672  1.00  0.00     0.125 A 
ATOM     24  C   UNL     1       0.232  -0.144  -2.667  1.00  0.00     0.047 A 
ATOM     25  C   UNL     1       2.535  -0.150  -2.000  1.00  0.00     0.032 A 
ATOM     26  C   UNL     1       0.642   0.161  -3.967  1.00  0.00     0.014 A 
ATOM     27  C   UNL     1       2.915   0.358  -3.266  1.00  0.00     0.021 A 
BRANCH  23  28
ATOM     28  O   UNL     1       0.766  -0.727  -0.450  1.00  0.00    -0.496 OA
ATOM     29  C   UNL     1       0.709   0.361   0.475  1.00  0.00     0.278 C 
ENDBRANCH  23  28
BRANCH  25  30
ATOM     30  C   UNL     1       3.599  -0.802  -1.155  1.00  0.00     0.269 C 
BRANCH  30  31
ATOM     31  O   UNL     1       4.387  -1.644  -2.025  1.00  0.00    -0.488 OA
BRANCH  31  32
ATOM     32  C   UNL     1       4.115  -2.984  -1.923  1.00  0.00     0.122 A 
ATOM     33  C   UNL     1       5.012  -3.724  -1.150  1.00  0.00     0.047 A 
ATOM     34  C   UNL     1       3.145  -3.647  -2.695  1.00  0.00    -0.009 A 
ATOM     35  C   UNL     1       4.928  -5.115  -1.110  1.00  0.00     0.004 A 
ATOM     36  C   UNL     1       3.041  -5.044  -2.601  1.00  0.00     0.007 A 
ATOM     37  C   UNL     1       2.194  -2.972  -3.634  1.00  0.00     0.048 C 
ATOM     38  C   UNL     1       3.936  -5.775  -1.828  1.00  0.00     0.001 A 
ENDBRANCH  31  32
ENDBRANCH  30  31
ENDBRANCH  25  30
ENDBRANCH   7  22
ENDBRANCH   3   6
ENDBRANCH   1   2
BRANCH   1  39
ATOM     39  C   UNL     1       1.036   6.684  -6.169  1.00  0.00     0.042 C 
BRANCH  39  40
ATOM     40  C   UNL     1       0.544   7.701  -5.166  1.00  0.00     0.118 C 
BRANCH  40  41
ATOM     41  N   UNL     1       1.004   9.038  -5.486  1.00  0.00    -0.352 N 
ATOM     42  C   UNL     1       0.347  10.050  -6.152  1.00  0.00     0.251 C 
ATOM     43  H   UNL     1       1.915   9.254  -5.184  1.00  0.00     0.163 HD
ATOM     44  O   UNL     1       0.980  11.007  -6.569  1.00  0.00    -0.269 OA
BRANCH  42  45
ATOM     45  C   UNL     1      -1.115   9.954  -6.385  1.00  0.00     0.039 A 
ATOM     46  C   UNL     1      -1.641  10.371  -7.609  1.00  0.00     0.014 A 
ATOM     47  C   UNL     1      -1.966   9.455  -5.397  1.00  0.00     0.014 A 
ATOM     48  C   UNL     1      -3.008  10.220  -7.863  1.00  0.00     0.010 A 
ATOM     49  C   UNL     1      -3.295   9.187  -5.696  1.00  0.00     0.010 A 
ATOM     50  C   UNL     1      -3.839   9.588  -6.924  1.00  0.00    -0.014 A 
BRANCH  50  51
ATOM     51  C   UNL     1      -5.286   9.362  -7.169  1.00  0.00     0.031 A 
ATOM     52  C   UNL     1      -6.300   9.965  -6.231  1.00  0.00     0.074 A 
ATOM     53  C   UNL     1      -5.684   8.552  -8.170  1.00  0.00     0.049 A 
ATOM     54  N   UNL     1      -7.595   9.785  -6.187  1.00  0.00    -0.248 NA
ATOM     55  C   UNL     1      -5.786  10.861  -5.179  1.00  0.00     0.031 C 
ATOM     56  C   UNL     1      -4.797   7.881  -9.124  1.00  0.00     0.029 A 
ATOM     57  N   UNL     1      -6.940   8.140  -8.542  1.00  0.00    -0.354 N 
ATOM     58  C   UNL     1      -8.041  10.518  -5.093  1.00  0.00     0.074 A 
ATOM     59  C   UNL     1      -6.875  11.098  -4.466  1.00  0.00     0.031 C 
ATOM     60  C   UNL     1      -5.538   7.165  -9.985  1.00  0.00     0.029 A 
ATOM     61  C   UNL     1      -6.944   7.277  -9.613  1.00  0.00     0.049 A 
ATOM     62  H   UNL     1      -7.760   8.435  -8.085  1.00  0.00     0.167 HD
ATOM     63  C   UNL     1      -9.309  10.709  -4.660  1.00  0.00     0.031 A 
ATOM     64  C   UNL     1      -7.963   6.633 -10.216  1.00  0.00     0.031 A 
ATOM     65  C   UNL     1     -10.465  10.143  -5.301  1.00  0.00     0.049 A 
ATOM     66  C   UNL     1      -9.363   6.845  -9.707  1.00  0.00     0.074 A 
ATOM     67  C   UNL     1     -11.798  10.319  -4.978  1.00  0.00     0.029 A 
ATOM     68  N   UNL     1     -10.425   9.291  -6.394  1.00  0.00    -0.354 N 
ATOM     69  N   UNL     1      -9.771   7.589  -8.706  1.00  0.00    -0.248 NA
ATOM     70  C   UNL     1     -10.442   6.140 -10.412  1.00  0.00     0.031 C 
ATOM     71  C   UNL     1     -12.562   9.526  -5.838  1.00  0.00     0.029 A 
ATOM     72  C   UNL     1     -11.709   8.914  -6.744  1.00  0.00     0.049 A 
ATOM     73  H   UNL     1      -9.604   8.998  -6.853  1.00  0.00     0.167 HD
ATOM     74  C   UNL     1     -11.157   7.471  -8.686  1.00  0.00     0.074 A 
ATOM     75  C   UNL     1     -11.517   6.589  -9.777  1.00  0.00     0.031 C 
ATOM     76  C   UNL     1     -12.050   8.047  -7.844  1.00  0.00     0.031 A 
BRANCH  63  77
ATOM     77  C   UNL     1      -9.510  11.560  -3.433  1.00  0.00    -0.014 A 
ATOM     78  C   UNL     1      -9.247  12.942  -3.452  1.00  0.00     0.010 A 
ATOM     79  C   UNL     1     -10.009  10.977  -2.254  1.00  0.00     0.010 A 
ATOM     80  C   UNL     1      -9.435  13.716  -2.303  1.00  0.00     0.020 A 
ATOM     81  C   UNL     1     -10.231  11.753  -1.112  1.00  0.00     0.020 A 
ATOM     82  C   UNL     1      -9.926  13.115  -1.140  1.00  0.00     0.054 A 
BRANCH  82  83
ATOM     83  S   UNL     1     -10.185  14.149   0.327  1.00  0.00     0.124 S 
ATOM     84  O   UNL     1      -8.813  14.435   0.740  1.00  0.00    -0.237 OA
ATOM     85  O   UNL     1     -10.927  15.286  -0.212  1.00  0.00    -0.237 OA
ATOM     86  O   UNL     1     -10.940  13.287   1.232  1.00  0.00    -0.744 OA
ENDBRANCH  82  83
ENDBRANCH  63  77
BRANCH  64  87
ATOM     87  C   UNL     1      -7.695   5.737 -11.376  1.00  0.00    -0.014 A 
ATOM     88  C   UNL     1      -8.118   6.094 -12.668  1.00  0.00     0.010 A 
ATOM     89  C   UNL     1      -7.000   4.526 -11.197  1.00  0.00     0.010 A 
ATOM     90  C   UNL     1      -7.869   5.250 -13.755  1.00  0.00     0.020 A 
ATOM     91  C   UNL     1      -6.722   3.695 -12.286  1.00  0.00     0.020 A 
ATOM     92  C   UNL     1      -7.169   4.057 -13.557  1.00  0.00     0.054 A 
BRANCH  92  93
ATOM     93  S   UNL     1      -6.818   3.002 -14.992  1.00  0.00     0.124 S 
ATOM     94  O   UNL     1      -8.138   2.467 -15.306  1.00  0.00    -0.237 OA
ATOM     95  O   UNL     1      -6.274   3.955 -15.956  1.00  0.00    -0.237 OA
ATOM     96  O   UNL     1      -5.855   2.032 -14.476  1.00  0.00    -0.744 OA
ENDBRANCH  92  93
ENDBRANCH  64  87
BRANCH  76  97
ATOM     97  C   UNL     1     -13.513   7.798  -8.095  1.00  0.00    -0.014 A 
ATOM     98  C   UNL     1     -14.107   6.556  -7.811  1.00  0.00     0.010 A 
ATOM     99  C   UNL     1     -14.324   8.863  -8.531  1.00  0.00     0.010 A 
ATOM    100  C   UNL     1     -15.484   6.381  -7.972  1.00  0.00     0.020 A 
ATOM    101  C   UNL     1     -15.704   8.701  -8.663  1.00  0.00     0.020 A 
ATOM    102  C   UNL     1     -16.275   7.458  -8.389  1.00  0.00     0.054 A 
BRANCH 102 103
ATOM    103  S   UNL     1     -18.069   7.225  -8.512  1.00  0.00     0.124 S 
ATOM    104  O   UNL     1     -18.185   6.367  -9.688  1.00  0.00    -0.237 OA
ATOM    105  O   UNL     1     -18.397   6.593  -7.237  1.00  0.00    -0.237 OA
ATOM    106  O   UNL     1     -18.585   8.582  -8.679  1.00  0.00    -0.744 OA
ENDBRANCH 102 103
ENDBRANCH  76  97
ENDBRANCH  50  51
ENDBRANCH  42  45
ENDBRANCH  40  41
ENDBRANCH  39  40
ENDBRANCH   1  39
TORSDOF 18
