REMARK SMILES COc1ccc(N2C(=O)/C(=C/c3c(C(=O)NCCCNC(=O)c4ccc(-c5c6nc(c(-c7ccc(S(=O)(=O)[O-])cc7)c7ccc([nH]7)c(-c7ccc(S(=O)(=O)[O-])cc7)c7nc(c(-c8ccc(S(=O)(=O)[O-])cc8)c8ccc5[nH]8)C=C7)C=C6)cc4)[nH]c4cc(OC)ccc34)SC2=S)cc1
REMARK SMILES IDX 18 1 17 2 16 3 14 4 15 5 13 7 12 8 91 9 83 10 84 11 90 12
REMARK SMILES IDX 85 14 89 15 86 16 11 17 7 18 8 19 93 20 9 21 10 22 92 23
REMARK SMILES IDX 94 24 6 25 3 26 4 27 96 28 5 29 95 30 2 31 1 32 87 33 88 34
REMARK SMILES IDX 19 35 20 36 21 37 22 39 23 40 24 41 82 42 25 43 81 44 26 45
REMARK SMILES IDX 27 46 28 47 75 48 29 49 80 50 74 51 76 52 30 53 79 54 73 55
REMARK SMILES IDX 72 56 31 58 61 59 42 60 60 61 43 62 46 63 59 64 77 65 44 66
REMARK SMILES IDX 45 67 58 69 78 70 47 71 32 72 33 73 41 74 34 75 40 76 35 77
REMARK SMILES IDX 36 78 37 79 38 80 39 81 62 82 63 83 71 84 64 85 70 86 65 87
REMARK SMILES IDX 66 88 67 89 68 90 69 91 48 92 49 93 57 94 50 95 56 96 51 97
REMARK SMILES IDX 52 98 53 99 54 100 55 101
REMARK H PARENT 16 6 83 13 20 38 76 57 46 68
REMARK Flexibility Score: inf
ROOT
ATOM      1  C   UNL     1       0.004   4.856   7.796  1.00  0.00     0.042 C 
ENDROOT
BRANCH   1   2
ATOM      2  C   UNL     1       1.326   4.510   8.456  1.00  0.00     0.118 C 
BRANCH   2   3
ATOM      3  N   UNL     1       2.452   5.309   7.998  1.00  0.00    -0.351 N 
ATOM      4  C   UNL     1       3.629   5.546   8.665  1.00  0.00     0.268 C 
ATOM      5  O   UNL     1       4.377   6.429   8.244  1.00  0.00    -0.268 OA
ATOM      6  H   UNL     1       2.359   5.727   7.111  1.00  0.00     0.163 HD
BRANCH   4   7
ATOM      7  C   UNL     1       3.897   4.832   9.889  1.00  0.00     0.112 A 
ATOM      8  C   UNL     1       3.796   3.495  10.287  1.00  0.00     0.014 A 
ATOM      9  C   UNL     1       3.730   3.533  11.736  1.00  0.00     0.008 A 
ATOM     10  N   UNL     1       4.380   5.520  10.969  1.00  0.00    -0.350 N 
ATOM     11  C   UNL     1       4.075   4.835  12.110  1.00  0.00     0.050 A 
ATOM     12  C   UNL     1       3.375   2.656  12.793  1.00  0.00     0.015 A 
ATOM     13  H   UNL     1       4.870   6.373  10.929  1.00  0.00     0.167 HD
ATOM     14  C   UNL     1       4.058   5.313  13.420  1.00  0.00     0.073 A 
ATOM     15  C   UNL     1       3.324   3.136  14.133  1.00  0.00     0.047 A 
ATOM     16  C   UNL     1       3.655   4.455  14.437  1.00  0.00     0.120 A 
BRANCH   8  17
ATOM     17  C   UNL     1       3.534   2.423   9.342  1.00  0.00     0.032 C 
ATOM     18  N   UNL     1       3.872   2.240   5.748  1.00  0.00    -0.261 N 
ATOM     19  C   UNL     1       3.399   1.666   6.938  1.00  0.00     0.270 C 
ATOM     20  C   UNL     1       4.926   3.133   5.873  1.00  0.00     0.152 C 
ATOM     21  O   UNL     1       2.470   0.884   7.080  1.00  0.00    -0.268 OA
ATOM     22  C   UNL     1       4.096   2.307   8.113  1.00  0.00     0.081 C 
ATOM     23  S   UNL     1       5.494   3.135   7.537  1.00  0.00    -0.054 SA
ATOM     24  S   UNL     1       5.684   4.067   4.710  1.00  0.00    -0.051 S 
BRANCH  18  25
ATOM     25  C   UNL     1       3.264   1.964   4.485  1.00  0.00     0.051 A 
ATOM     26  C   UNL     1       2.255   1.496   1.882  1.00  0.00     0.119 A 
ATOM     27  C   UNL     1       2.087   2.735   2.495  1.00  0.00     0.048 A 
ATOM     28  C   UNL     1       2.960   0.500   2.558  1.00  0.00     0.048 A 
ATOM     29  C   UNL     1       2.590   2.972   3.781  1.00  0.00     0.030 A 
ATOM     30  C   UNL     1       3.446   0.725   3.860  1.00  0.00     0.030 A 
BRANCH  26  31
ATOM     31  O   UNL     1       1.717   1.399   0.629  1.00  0.00    -0.497 OA
ATOM     32  C   UNL     1       1.497   0.088   0.124  1.00  0.00     0.278 C 
ENDBRANCH  26  31
ENDBRANCH  18  25
ENDBRANCH   8  17
BRANCH  16  33
ATOM     33  O   UNL     1       3.582   5.078  15.651  1.00  0.00    -0.497 OA
ATOM     34  C   UNL     1       3.638   4.276  16.817  1.00  0.00     0.278 C 
ENDBRANCH  16  33
ENDBRANCH   4   7
ENDBRANCH   2   3
ENDBRANCH   1   2
BRANCH   1  35
ATOM     35  C   UNL     1      -0.066   4.478   6.323  1.00  0.00     0.118 C 
BRANCH  35  36
ATOM     36  N   UNL     1       0.030   3.053   6.035  1.00  0.00    -0.352 N 
ATOM     37  C   UNL     1      -0.406   2.337   4.939  1.00  0.00     0.251 C 
ATOM     38  H   UNL     1       0.475   2.517   6.732  1.00  0.00     0.163 HD
ATOM     39  O   UNL     1      -0.251   1.117   4.932  1.00  0.00    -0.269 OA
BRANCH  37  40
ATOM     40  C   UNL     1      -1.126   2.987   3.811  1.00  0.00     0.039 A 
ATOM     41  C   UNL     1      -2.082   2.224   3.129  1.00  0.00     0.014 A 
ATOM     42  C   UNL     1      -0.954   4.329   3.466  1.00  0.00     0.014 A 
ATOM     43  C   UNL     1      -2.990   2.849   2.275  1.00  0.00     0.010 A 
ATOM     44  C   UNL     1      -1.909   4.974   2.694  1.00  0.00     0.010 A 
ATOM     45  C   UNL     1      -2.978   4.247   2.166  1.00  0.00    -0.014 A 
BRANCH  45  46
ATOM     46  C   UNL     1      -4.194   4.983   1.754  1.00  0.00     0.031 A 
ATOM     47  C   UNL     1      -4.191   5.877   0.554  1.00  0.00     0.074 A 
ATOM     48  C   UNL     1      -5.244   4.942   2.602  1.00  0.00     0.049 A 
ATOM     49  N   UNL     1      -5.154   6.633   0.099  1.00  0.00    -0.248 NA
ATOM     50  C   UNL     1      -2.938   5.968  -0.214  1.00  0.00     0.031 C 
ATOM     51  C   UNL     1      -5.278   4.196   3.869  1.00  0.00     0.029 A 
ATOM     52  N   UNL     1      -6.473   5.545   2.553  1.00  0.00    -0.354 N 
ATOM     53  C   UNL     1      -4.627   7.294  -1.003  1.00  0.00     0.074 A 
ATOM     54  C   UNL     1      -3.244   6.886  -1.121  1.00  0.00     0.031 C 
ATOM     55  C   UNL     1      -6.473   4.359   4.454  1.00  0.00     0.029 A 
ATOM     56  C   UNL     1      -7.276   5.249   3.631  1.00  0.00     0.049 A 
ATOM     57  H   UNL     1      -6.755   6.135   1.816  1.00  0.00     0.167 HD
ATOM     58  C   UNL     1      -5.256   8.152  -1.841  1.00  0.00     0.031 A 
ATOM     59  C   UNL     1      -8.525   5.653   3.926  1.00  0.00     0.031 A 
ATOM     60  C   UNL     1      -6.634   8.540  -1.683  1.00  0.00     0.049 A 
ATOM     61  C   UNL     1      -9.214   6.558   2.948  1.00  0.00     0.074 A 
ATOM     62  C   UNL     1      -7.406   9.335  -2.511  1.00  0.00     0.029 A 
ATOM     63  N   UNL     1      -7.444   8.164  -0.619  1.00  0.00    -0.354 N 
ATOM     64  N   UNL     1      -8.740   7.073   1.837  1.00  0.00    -0.248 NA
ATOM     65  C   UNL     1     -10.604   6.919   3.243  1.00  0.00     0.031 C 
ATOM     66  C   UNL     1      -8.666   9.481  -1.921  1.00  0.00     0.029 A 
ATOM     67  C   UNL     1      -8.700   8.729  -0.756  1.00  0.00     0.049 A 
ATOM     68  H   UNL     1      -7.165   7.582   0.124  1.00  0.00     0.167 HD
ATOM     69  C   UNL     1      -9.783   7.803   1.287  1.00  0.00     0.074 A 
ATOM     70  C   UNL     1     -10.918   7.641   2.176  1.00  0.00     0.031 C 
ATOM     71  C   UNL     1      -9.803   8.546   0.153  1.00  0.00     0.031 A 
BRANCH  58  72
ATOM     72  C   UNL     1      -4.474   8.716  -2.999  1.00  0.00    -0.014 A 
ATOM     73  C   UNL     1      -4.073   7.896  -4.069  1.00  0.00     0.010 A 
ATOM     74  C   UNL     1      -4.196  10.095  -3.058  1.00  0.00     0.010 A 
ATOM     75  C   UNL     1      -3.390   8.436  -5.163  1.00  0.00     0.020 A 
ATOM     76  C   UNL     1      -3.537  10.644  -4.163  1.00  0.00     0.020 A 
ATOM     77  C   UNL     1      -3.129   9.809  -5.205  1.00  0.00     0.054 A 
BRANCH  77  78
ATOM     78  S   UNL     1      -2.292  10.488  -6.664  1.00  0.00     0.124 S 
ATOM     79  O   UNL     1      -0.935   9.974  -6.501  1.00  0.00    -0.237 OA
ATOM     80  O   UNL     1      -3.054   9.909  -7.768  1.00  0.00    -0.237 OA
ATOM     81  O   UNL     1      -2.433  11.934  -6.505  1.00  0.00    -0.744 OA
ENDBRANCH  77  78
ENDBRANCH  58  72
BRANCH  59  82
ATOM     82  C   UNL     1      -9.195   5.183   5.171  1.00  0.00    -0.014 A 
ATOM     83  C   UNL     1     -10.274   4.284   5.107  1.00  0.00     0.010 A 
ATOM     84  C   UNL     1      -8.741   5.611   6.433  1.00  0.00     0.010 A 
ATOM     85  C   UNL     1     -10.909   3.851   6.275  1.00  0.00     0.020 A 
ATOM     86  C   UNL     1      -9.353   5.156   7.605  1.00  0.00     0.020 A 
ATOM     87  C   UNL     1     -10.446   4.293   7.518  1.00  0.00     0.054 A 
BRANCH  87  88
ATOM     88  S   UNL     1     -11.272   3.700   9.022  1.00  0.00     0.124 S 
ATOM     89  O   UNL     1     -12.527   4.445   8.991  1.00  0.00    -0.237 OA
ATOM     90  O   UNL     1     -11.381   2.264   8.779  1.00  0.00    -0.237 OA
ATOM     91  O   UNL     1     -10.347   4.075  10.089  1.00  0.00    -0.744 OA
ENDBRANCH  87  88
ENDBRANCH  59  82
BRANCH  71  92
ATOM     92  C   UNL     1     -11.104   9.214  -0.192  1.00  0.00    -0.014 A 
ATOM     93  C   UNL     1     -11.566  10.321   0.540  1.00  0.00     0.010 A 
ATOM     94  C   UNL     1     -11.847   8.751  -1.293  1.00  0.00     0.010 A 
ATOM     95  C   UNL     1     -12.771  10.935   0.196  1.00  0.00     0.020 A 
ATOM     96  C   UNL     1     -13.036   9.383  -1.658  1.00  0.00     0.020 A 
ATOM     97  C   UNL     1     -13.497  10.462  -0.902  1.00  0.00     0.054 A 
BRANCH  97  98
ATOM     98  S   UNL     1     -15.035  11.307  -1.355  1.00  0.00     0.124 S 
ATOM     99  O   UNL     1     -15.947  10.860  -0.305  1.00  0.00    -0.237 OA
ATOM    100  O   UNL     1     -14.655  12.716  -1.300  1.00  0.00    -0.237 OA
ATOM    101  O   UNL     1     -15.328  10.798  -2.693  1.00  0.00    -0.744 OA
ENDBRANCH  97  98
ENDBRANCH  71  92
ENDBRANCH  45  46
ENDBRANCH  37  40
ENDBRANCH  35  36
ENDBRANCH   1  35
TORSDOF 17
