REMARK SMILES CC[C@@H](C)NC(=O)Cn1cccc1C(=O)NCCCNC(=O)c1ccc(-c2c3nc(c(-c4ccc(S(=O)(=O)[O-])cc4)c4ccc([nH]4)c(-c4ccc(S(=O)(=O)[O-])cc4)c4nc(c(-c5ccc(S(=O)(=O)[O-])cc5)c5ccc2[nH]5)C=C4)C=C3)cc1
REMARK SMILES IDX 17 1 16 2 14 3 15 4 13 6 9 7 10 8 11 9 12 10 8 11 6 12 5 13
REMARK SMILES IDX 7 15 3 16 4 17 2 18 1 19 18 20 19 21 20 22 21 23 22 25 23 26
REMARK SMILES IDX 24 27 82 28 25 29 81 30 26 31 27 32 28 33 75 34 29 35 80 36
REMARK SMILES IDX 74 37 76 38 30 39 79 40 73 41 72 42 31 44 61 45 42 46 60 47
REMARK SMILES IDX 43 48 46 49 59 50 77 51 44 52 45 53 58 55 78 56 47 57 32 58
REMARK SMILES IDX 33 59 41 60 34 61 40 62 35 63 36 64 37 65 38 66 39 67 62 68
REMARK SMILES IDX 63 69 71 70 64 71 70 72 65 73 66 74 67 75 68 76 69 77 48 78
REMARK SMILES IDX 49 79 57 80 50 81 56 82 51 83 52 84 53 85 54 86 55 87
REMARK H PARENT 16 5 5 14 20 24 76 43 46 54
REMARK Flexibility Score: inf
ROOT
ATOM      1  C   UNL     1       3.248  -0.402   6.855  1.00  0.00     0.118 C 
ENDROOT
BRANCH   1   2
ATOM      2  N   UNL     1       2.600  -1.597   6.353  1.00  0.00    -0.351 N 
ATOM      3  C   UNL     1       2.684  -2.313   5.189  1.00  0.00     0.267 C 
ATOM      4  O   UNL     1       2.219  -3.459   5.251  1.00  0.00    -0.268 OA
ATOM      5  H   UNL     1       1.955  -1.980   6.991  1.00  0.00     0.163 HD
BRANCH   3   6
ATOM      6  C   UNL     1       3.338  -1.849   3.974  1.00  0.00     0.107 A 
ATOM      7  N   UNL     1       3.345  -0.615   3.345  1.00  0.00    -0.334 N 
ATOM      8  C   UNL     1       4.100  -0.678   2.190  1.00  0.00     0.087 A 
ATOM      9  C   UNL     1       4.443  -1.986   1.968  1.00  0.00     0.020 A 
ATOM     10  C   UNL     1       3.957  -2.716   3.070  1.00  0.00     0.033 A 
BRANCH   7  11
ATOM     11  C   UNL     1       2.637   0.598   3.708  1.00  0.00     0.222 C 
BRANCH  11  12
ATOM     12  C   UNL     1       1.128   0.445   3.765  1.00  0.00     0.240 C 
ATOM     13  N   UNL     1       0.356   1.104   2.855  1.00  0.00    -0.352 N 
ATOM     14  H   UNL     1      -0.522   1.424   3.165  1.00  0.00     0.163 HD
ATOM     15  O   UNL     1       0.543  -0.195   4.637  1.00  0.00    -0.273 OA
BRANCH  13  16
ATOM     16  C   UNL     1       0.704   1.380   1.471  1.00  0.00     0.078 C 
ATOM     17  C   UNL     1       0.044   2.680   1.030  1.00  0.00     0.031 C 
BRANCH  16  18
ATOM     18  C   UNL     1       0.282   0.162   0.638  1.00  0.00     0.021 C 
ATOM     19  C   UNL     1       0.923   0.129  -0.736  1.00  0.00     0.006 C 
ENDBRANCH  16  18
ENDBRANCH  13  16
ENDBRANCH  11  12
ENDBRANCH   7  11
ENDBRANCH   3   6
ENDBRANCH   1   2
BRANCH   1  20
ATOM     20  C   UNL     1       2.278   0.763   7.101  1.00  0.00     0.042 C 
BRANCH  20  21
ATOM     21  C   UNL     1       1.294   0.545   8.246  1.00  0.00     0.118 C 
BRANCH  21  22
ATOM     22  N   UNL     1       1.827   1.101   9.476  1.00  0.00    -0.352 N 
ATOM     23  C   UNL     1       1.202   1.326  10.672  1.00  0.00     0.251 C 
ATOM     24  H   UNL     1       2.779   1.353   9.445  1.00  0.00     0.163 HD
ATOM     25  O   UNL     1       1.678   2.185  11.414  1.00  0.00    -0.269 OA
BRANCH  23  26
ATOM     26  C   UNL     1      -0.012   0.586  11.086  1.00  0.00     0.039 A 
ATOM     27  C   UNL     1      -0.896   1.242  11.953  1.00  0.00     0.014 A 
ATOM     28  C   UNL     1      -0.242  -0.752  10.744  1.00  0.00     0.014 A 
ATOM     29  C   UNL     1      -2.017   0.579  12.441  1.00  0.00     0.010 A 
ATOM     30  C   UNL     1      -1.377  -1.414  11.213  1.00  0.00     0.010 A 
ATOM     31  C   UNL     1      -2.267  -0.746  12.058  1.00  0.00    -0.014 A 
BRANCH  31  32
ATOM     32  C   UNL     1      -3.557  -1.353  12.460  1.00  0.00     0.031 A 
ATOM     33  C   UNL     1      -4.716  -0.842  11.608  1.00  0.00     0.074 A 
ATOM     34  C   UNL     1      -3.568  -2.169  13.554  1.00  0.00     0.049 A 
ATOM     35  N   UNL     1      -5.921  -0.524  11.966  1.00  0.00    -0.248 NA
ATOM     36  C   UNL     1      -4.466  -0.517  10.180  1.00  0.00     0.031 C 
ATOM     37  C   UNL     1      -2.358  -2.610  14.278  1.00  0.00     0.029 A 
ATOM     38  N   UNL     1      -4.568  -2.781  14.284  1.00  0.00    -0.354 N 
ATOM     39  C   UNL     1      -6.611  -0.103  10.808  1.00  0.00     0.074 A 
ATOM     40  C   UNL     1      -5.632  -0.016   9.764  1.00  0.00     0.031 C 
ATOM     41  C   UNL     1      -2.689  -3.348  15.359  1.00  0.00     0.029 A 
ATOM     42  C   UNL     1      -4.133  -3.457  15.450  1.00  0.00     0.049 A 
ATOM     43  H   UNL     1      -5.514  -2.749  14.014  1.00  0.00     0.167 HD
ATOM     44  C   UNL     1      -7.968   0.026  10.747  1.00  0.00     0.031 A 
ATOM     45  C   UNL     1      -4.871  -4.014  16.458  1.00  0.00     0.031 A 
ATOM     46  C   UNL     1      -8.555  -0.306  12.002  1.00  0.00     0.049 A 
ATOM     47  C   UNL     1      -6.288  -3.840  16.093  1.00  0.00     0.074 A 
ATOM     48  C   UNL     1      -8.597   0.303  13.228  1.00  0.00     0.029 A 
ATOM     49  N   UNL     1      -8.957  -1.613  12.141  1.00  0.00    -0.354 N 
ATOM     50  N   UNL     1      -6.924  -4.509  15.181  1.00  0.00    -0.248 NA
ATOM     51  C   UNL     1      -7.060  -2.784  16.767  1.00  0.00     0.031 C 
ATOM     52  C   UNL     1      -8.580  -0.777  14.141  1.00  0.00     0.029 A 
ATOM     53  C   UNL     1      -8.661  -1.979  13.429  1.00  0.00     0.049 A 
ATOM     54  H   UNL     1      -9.377  -2.176  11.451  1.00  0.00     0.167 HD
ATOM     55  C   UNL     1      -8.018  -3.715  14.937  1.00  0.00     0.074 A 
ATOM     56  C   UNL     1      -8.214  -2.903  16.116  1.00  0.00     0.031 C 
ATOM     57  C   UNL     1      -8.322  -3.365  13.662  1.00  0.00     0.031 A 
BRANCH  44  58
ATOM     58  C   UNL     1      -8.907   0.151   9.572  1.00  0.00    -0.014 A 
ATOM     59  C   UNL     1     -10.261   0.464   9.864  1.00  0.00     0.010 A 
ATOM     60  C   UNL     1      -8.621  -0.335   8.289  1.00  0.00     0.010 A 
ATOM     61  C   UNL     1     -11.296   0.162   8.978  1.00  0.00     0.020 A 
ATOM     62  C   UNL     1      -9.655  -0.600   7.374  1.00  0.00     0.020 A 
ATOM     63  C   UNL     1     -10.986  -0.405   7.748  1.00  0.00     0.054 A 
BRANCH  63  64
ATOM     64  S   UNL     1     -12.349  -0.953   6.685  1.00  0.00     0.124 S 
ATOM     65  O   UNL     1     -12.809  -2.155   7.372  1.00  0.00    -0.237 OA
ATOM     66  O   UNL     1     -13.267   0.184   6.734  1.00  0.00    -0.237 OA
ATOM     67  O   UNL     1     -11.708  -1.168   5.390  1.00  0.00    -0.744 OA
ENDBRANCH  63  64
ENDBRANCH  44  58
BRANCH  45  68
ATOM     68  C   UNL     1      -4.605  -4.580  17.836  1.00  0.00    -0.014 A 
ATOM     69  C   UNL     1      -3.356  -4.928  18.363  1.00  0.00     0.010 A 
ATOM     70  C   UNL     1      -5.706  -4.726  18.728  1.00  0.00     0.010 A 
ATOM     71  C   UNL     1      -3.202  -5.253  19.733  1.00  0.00     0.020 A 
ATOM     72  C   UNL     1      -5.567  -5.005  20.088  1.00  0.00     0.020 A 
ATOM     73  C   UNL     1      -4.304  -5.244  20.595  1.00  0.00     0.054 A 
BRANCH  73  74
ATOM     74  S   UNL     1      -4.103  -5.420  22.389  1.00  0.00     0.124 S 
ATOM     75  O   UNL     1      -4.188  -6.864  22.574  1.00  0.00    -0.237 OA
ATOM     76  O   UNL     1      -2.790  -4.827  22.631  1.00  0.00    -0.237 OA
ATOM     77  O   UNL     1      -5.226  -4.653  22.929  1.00  0.00    -0.744 OA
ENDBRANCH  73  74
ENDBRANCH  45  68
BRANCH  57  78
ATOM     78  C   UNL     1      -7.832  -4.329  12.595  1.00  0.00    -0.014 A 
ATOM     79  C   UNL     1      -8.345  -5.637  12.548  1.00  0.00     0.010 A 
ATOM     80  C   UNL     1      -6.806  -3.999  11.686  1.00  0.00     0.010 A 
ATOM     81  C   UNL     1      -7.853  -6.580  11.634  1.00  0.00     0.020 A 
ATOM     82  C   UNL     1      -6.307  -4.936  10.765  1.00  0.00     0.020 A 
ATOM     83  C   UNL     1      -6.834  -6.226  10.746  1.00  0.00     0.054 A 
BRANCH  83  84
ATOM     84  S   UNL     1      -6.207  -7.482   9.593  1.00  0.00     0.124 S 
ATOM     85  O   UNL     1      -5.759  -8.548  10.490  1.00  0.00    -0.237 OA
ATOM     86  O   UNL     1      -7.380  -7.793   8.792  1.00  0.00    -0.237 OA
ATOM     87  O   UNL     1      -5.128  -6.793   8.877  1.00  0.00    -0.744 OA
ENDBRANCH  83  84
ENDBRANCH  57  78
ENDBRANCH  31  32
ENDBRANCH  23  26
ENDBRANCH  21  22
ENDBRANCH  20  21
ENDBRANCH   1  20
TORSDOF 17
