REMARK SMILES Cc1ccc(F)cc1NC(=O)c1nn(C)cc1C(=O)NCCCNC(=O)c1ccc(-c2c3nc(c(-c4ccc(S(=O)(=O)[O-])cc4)c4ccc([nH]4)c(-c4ccc(S(=O)(=O)[O-])cc4)c4nc(c(-c5ccc(S(=O)(=O)[O-])cc5)c5ccc2[nH]5)C=C4)C=C3)cc1
REMARK SMILES IDX 22 1 21 2 20 3 18 4 19 5 17 7 12 8 13 9 14 10 16 11 15 12
REMARK SMILES IDX 10 13 9 14 11 16 8 17 1 18 2 19 3 20 4 21 7 22 5 23 6 24
REMARK SMILES IDX 23 25 24 26 25 27 26 29 27 30 28 31 86 32 29 33 85 34 30 35
REMARK SMILES IDX 31 36 32 37 79 38 33 39 84 40 78 41 80 42 34 43 83 44 77 45
REMARK SMILES IDX 76 46 35 48 65 49 46 50 64 51 47 52 50 53 63 54 81 55 48 56
REMARK SMILES IDX 49 57 62 59 82 60 51 61 36 62 37 63 45 64 38 65 44 66 39 67
REMARK SMILES IDX 40 68 41 69 42 70 43 71 66 72 67 73 75 74 68 75 74 76 69 77
REMARK SMILES IDX 70 78 71 79 72 80 73 81 52 82 53 83 61 84 54 85 60 86 55 87
REMARK SMILES IDX 56 88 57 89 58 90 59 91
REMARK H PARENT 20 6 9 15 24 28 80 47 50 58
REMARK Flexibility Score: inf
ROOT
ATOM      1  C   UNL     1      -4.033  -0.243  -2.252  1.00  0.00     0.042 C 
ENDROOT
BRANCH   1   2
ATOM      2  C   UNL     1      -3.579  -1.565  -2.866  1.00  0.00     0.118 C 
BRANCH   2   3
ATOM      3  N   UNL     1      -2.138  -1.741  -2.891  1.00  0.00    -0.352 N 
ATOM      4  C   UNL     1      -1.253  -2.489  -2.155  1.00  0.00     0.255 C 
ATOM      5  O   UNL     1      -0.075  -2.435  -2.517  1.00  0.00    -0.269 OA
ATOM      6  H   UNL     1      -1.698  -1.206  -3.591  1.00  0.00     0.163 HD
BRANCH   4   7
ATOM      7  C   UNL     1      -1.639  -3.279  -0.994  1.00  0.00     0.090 A 
ATOM      8  C   UNL     1      -0.732  -3.767   0.019  1.00  0.00     0.163 A 
ATOM      9  N   UNL     1      -1.382  -4.472   0.966  1.00  0.00    -0.167 NA
ATOM     10  N   UNL     1      -2.660  -4.434   0.589  1.00  0.00    -0.274 N 
ATOM     11  C   UNL     1      -2.864  -3.772  -0.585  1.00  0.00     0.123 A 
ATOM     12  C   UNL     1      -3.664  -5.055   1.420  1.00  0.00     0.173 C 
BRANCH   8  13
ATOM     13  C   UNL     1       0.722  -3.592   0.121  1.00  0.00     0.277 C 
ATOM     14  N   UNL     1       1.295  -2.340   0.238  1.00  0.00    -0.320 N 
ATOM     15  H   UNL     1       2.279  -2.360   0.221  1.00  0.00     0.170 HD
ATOM     16  O   UNL     1       1.489  -4.560   0.097  1.00  0.00    -0.267 OA
BRANCH  14  17
ATOM     17  C   UNL     1       0.768  -1.041   0.379  1.00  0.00     0.047 A 
ATOM     18  C   UNL     1       3.060  -0.001  -0.234  1.00  0.00     0.046 C 
ATOM     19  C   UNL     1       1.589   0.074   0.091  1.00  0.00    -0.027 A 
ATOM     20  C   UNL     1       1.028   1.369   0.112  1.00  0.00     0.008 A 
ATOM     21  C   UNL     1      -0.310   1.567   0.433  1.00  0.00     0.039 A 
ATOM     22  C   UNL     1      -0.548  -0.809   0.791  1.00  0.00     0.065 A 
ATOM     23  C   UNL     1      -1.080   0.476   0.790  1.00  0.00     0.125 A 
ATOM     24  F   UNL     1      -2.362   0.655   1.133  1.00  0.00    -0.207 F 
ENDBRANCH  14  17
ENDBRANCH   8  13
ENDBRANCH   4   7
ENDBRANCH   2   3
ENDBRANCH   1   2
BRANCH   1  25
ATOM     25  C   UNL     1      -3.714   0.999  -3.087  1.00  0.00     0.118 C 
BRANCH  25  26
ATOM     26  N   UNL     1      -4.271   0.931  -4.432  1.00  0.00    -0.352 N 
ATOM     27  C   UNL     1      -5.242   1.664  -5.064  1.00  0.00     0.251 C 
ATOM     28  H   UNL     1      -3.875   0.225  -4.992  1.00  0.00     0.163 HD
ATOM     29  O   UNL     1      -5.682   1.242  -6.133  1.00  0.00    -0.269 OA
BRANCH  27  30
ATOM     30  C   UNL     1      -5.770   2.935  -4.511  1.00  0.00     0.039 A 
ATOM     31  C   UNL     1      -7.113   3.252  -4.747  1.00  0.00     0.014 A 
ATOM     32  C   UNL     1      -4.953   3.860  -3.857  1.00  0.00     0.014 A 
ATOM     33  C   UNL     1      -7.642   4.464  -4.292  1.00  0.00     0.010 A 
ATOM     34  C   UNL     1      -5.498   5.041  -3.344  1.00  0.00     0.010 A 
ATOM     35  C   UNL     1      -6.847   5.360  -3.561  1.00  0.00    -0.014 A 
BRANCH  35  36
ATOM     36  C   UNL     1      -7.426   6.615  -3.011  1.00  0.00     0.031 A 
ATOM     37  C   UNL     1      -6.954   7.963  -3.492  1.00  0.00     0.074 A 
ATOM     38  C   UNL     1      -8.357   6.540  -2.038  1.00  0.00     0.049 A 
ATOM     39  N   UNL     1      -7.347   9.155  -3.116  1.00  0.00    -0.248 NA
ATOM     40  C   UNL     1      -5.889   7.979  -4.507  1.00  0.00     0.031 C 
ATOM     41  C   UNL     1      -8.857   5.299  -1.440  1.00  0.00     0.029 A 
ATOM     42  N   UNL     1      -9.044   7.526  -1.375  1.00  0.00    -0.354 N 
ATOM     43  C   UNL     1      -6.567  10.058  -3.829  1.00  0.00     0.074 A 
ATOM     44  C   UNL     1      -5.653   9.278  -4.635  1.00  0.00     0.031 C 
ATOM     45  C   UNL     1      -9.786   5.597  -0.517  1.00  0.00     0.029 A 
ATOM     46  C   UNL     1      -9.927   7.047  -0.435  1.00  0.00     0.049 A 
ATOM     47  H   UNL     1      -8.918   8.485  -1.555  1.00  0.00     0.167 HD
ATOM     48  C   UNL     1      -6.615  11.412  -3.824  1.00  0.00     0.031 A 
ATOM     49  C   UNL     1     -10.758   7.698   0.402  1.00  0.00     0.031 A 
ATOM     50  C   UNL     1      -7.544  12.188  -3.043  1.00  0.00     0.049 A 
ATOM     51  C   UNL     1     -10.821   9.199   0.357  1.00  0.00     0.074 A 
ATOM     52  C   UNL     1      -7.724  13.562  -3.037  1.00  0.00     0.029 A 
ATOM     53  N   UNL     1      -8.444  11.664  -2.129  1.00  0.00    -0.354 N 
ATOM     54  N   UNL     1     -10.135  10.029  -0.392  1.00  0.00    -0.248 NA
ATOM     55  C   UNL     1     -11.783   9.850   1.257  1.00  0.00     0.031 C 
ATOM     56  C   UNL     1      -8.702  13.871  -2.086  1.00  0.00     0.029 A 
ATOM     57  C   UNL     1      -9.166  12.687  -1.536  1.00  0.00     0.049 A 
ATOM     58  H   UNL     1      -8.555  10.706  -1.931  1.00  0.00     0.167 HD
ATOM     59  C   UNL     1     -10.595  11.299  -0.064  1.00  0.00     0.074 A 
ATOM     60  C   UNL     1     -11.634  11.126   0.930  1.00  0.00     0.031 C 
ATOM     61  C   UNL     1     -10.190  12.502  -0.541  1.00  0.00     0.031 A 
BRANCH  48  62
ATOM     62  C   UNL     1      -5.636  12.156  -4.694  1.00  0.00    -0.014 A 
ATOM     63  C   UNL     1      -5.777  12.178  -6.093  1.00  0.00     0.010 A 
ATOM     64  C   UNL     1      -4.604  12.906  -4.099  1.00  0.00     0.010 A 
ATOM     65  C   UNL     1      -4.889  12.913  -6.883  1.00  0.00     0.020 A 
ATOM     66  C   UNL     1      -3.728  13.662  -4.884  1.00  0.00     0.020 A 
ATOM     67  C   UNL     1      -3.869  13.651  -6.274  1.00  0.00     0.054 A 
BRANCH  67  68
ATOM     68  S   UNL     1      -2.760  14.633  -7.320  1.00  0.00     0.124 S 
ATOM     69  O   UNL     1      -1.920  13.600  -7.921  1.00  0.00    -0.237 OA
ATOM     70  O   UNL     1      -3.685  15.299  -8.233  1.00  0.00    -0.237 OA
ATOM     71  O   UNL     1      -2.081  15.515  -6.374  1.00  0.00    -0.744 OA
ENDBRANCH  67  68
ENDBRANCH  48  62
BRANCH  49  72
ATOM     72  C   UNL     1     -11.607   6.929   1.353  1.00  0.00    -0.014 A 
ATOM     73  C   UNL     1     -12.996   6.839   1.161  1.00  0.00     0.010 A 
ATOM     74  C   UNL     1     -11.024   6.281   2.457  1.00  0.00     0.010 A 
ATOM     75  C   UNL     1     -13.792   6.135   2.070  1.00  0.00     0.020 A 
ATOM     76  C   UNL     1     -11.812   5.554   3.353  1.00  0.00     0.020 A 
ATOM     77  C   UNL     1     -13.194   5.498   3.162  1.00  0.00     0.054 A 
BRANCH  77  78
ATOM     78  S   UNL     1     -14.236   4.553   4.307  1.00  0.00     0.124 S 
ATOM     79  O   UNL     1     -14.847   5.611   5.105  1.00  0.00    -0.237 OA
ATOM     80  O   UNL     1     -15.137   3.840   3.404  1.00  0.00    -0.237 OA
ATOM     81  O   UNL     1     -13.280   3.704   5.014  1.00  0.00    -0.744 OA
ENDBRANCH  77  78
ENDBRANCH  49  72
BRANCH  61  82
ATOM     82  C   UNL     1     -10.886  13.723  -0.002  1.00  0.00    -0.014 A 
ATOM     83  C   UNL     1     -10.653  14.171   1.310  1.00  0.00     0.010 A 
ATOM     84  C   UNL     1     -11.767  14.444  -0.828  1.00  0.00     0.010 A 
ATOM     85  C   UNL     1     -11.324  15.293   1.803  1.00  0.00     0.020 A 
ATOM     86  C   UNL     1     -12.419  15.582  -0.348  1.00  0.00     0.020 A 
ATOM     87  C   UNL     1     -12.208  15.988   0.972  1.00  0.00     0.054 A 
BRANCH  87  88
ATOM     88  S   UNL     1     -13.056  17.452   1.626  1.00  0.00     0.124 S 
ATOM     89  O   UNL     1     -14.094  16.853   2.460  1.00  0.00    -0.237 OA
ATOM     90  O   UNL     1     -11.993  18.146   2.348  1.00  0.00    -0.237 OA
ATOM     91  O   UNL     1     -13.537  18.137   0.428  1.00  0.00    -0.744 OA
ENDBRANCH  87  88
ENDBRANCH  61  82
ENDBRANCH  35  36
ENDBRANCH  27  30
ENDBRANCH  25  26
ENDBRANCH   1  25
TORSDOF 15
