REMARK SMILES O=C(NCCCNC(=O)[C@H](NC(=O)c1ccc(Br)nc1)c1ccccc1)c1ccc(-c2c3nc(c(-c4ccc(S(=O)(=O)[O-])cc4)c4ccc([nH]4)c(-c4ccc(S(=O)(=O)[O-])cc4)c4nc(c(-c5ccc(S(=O)(=O)[O-])cc5)c5ccc2[nH]5)C=C4)C=C3)cc1
REMARK SMILES IDX 4 1 3 2 1 3 2 4 27 6 28 7 86 8 29 9 85 10 30 11 31 12 32 13
REMARK SMILES IDX 79 14 33 15 84 16 78 17 80 18 34 19 83 20 77 21 76 22 35 24
REMARK SMILES IDX 65 25 46 26 64 27 47 28 50 29 63 30 81 31 48 32 49 33 62 35
REMARK SMILES IDX 82 36 51 37 36 38 37 39 45 40 38 41 44 42 39 43 40 44 41 45
REMARK SMILES IDX 42 46 43 47 66 48 67 49 75 50 68 51 74 52 69 53 70 54 71 55
REMARK SMILES IDX 72 56 73 57 52 58 53 59 61 60 54 61 60 62 55 63 56 64 57 65
REMARK SMILES IDX 58 66 59 67 5 68 6 69 7 70 8 71 9 73 10 74 21 75 22 76 26 77
REMARK SMILES IDX 23 78 25 79 24 80 11 81 12 82 13 84 14 85 15 86 20 87 16 88
REMARK SMILES IDX 19 89 17 90 18 91
REMARK H PARENT 3 5 80 23 50 34 7 72 11 83
REMARK Flexibility Score: inf
ROOT
ATOM      1  C   UNL     1      10.246   4.706  -4.715  1.00  0.00     0.118 C 
ENDROOT
BRANCH   1   2
ATOM      2  N   UNL     1      11.194   4.987  -5.791  1.00  0.00    -0.352 N 
ATOM      3  O   UNL     1      12.532   6.306  -7.038  1.00  0.00    -0.269 OA
ATOM      4  C   UNL     1      12.064   6.040  -5.932  1.00  0.00     0.251 C 
ATOM      5  H   UNL     1      11.212   4.325  -6.520  1.00  0.00     0.163 HD
BRANCH   4   6
ATOM      6  C   UNL     1      12.436   6.832  -4.745  1.00  0.00     0.039 A 
ATOM      7  C   UNL     1      12.616   6.177  -3.529  1.00  0.00     0.014 A 
ATOM      8  C   UNL     1      12.628   8.213  -4.835  1.00  0.00     0.014 A 
ATOM      9  C   UNL     1      12.788   6.912  -2.373  1.00  0.00     0.010 A 
ATOM     10  C   UNL     1      12.962   8.938  -3.685  1.00  0.00     0.010 A 
ATOM     11  C   UNL     1      13.026   8.293  -2.441  1.00  0.00    -0.014 A 
BRANCH  11  12
ATOM     12  C   UNL     1      13.455   8.972  -1.194  1.00  0.00     0.031 A 
ATOM     13  C   UNL     1      12.647  10.073  -0.573  1.00  0.00     0.074 A 
ATOM     14  C   UNL     1      14.557   8.493  -0.577  1.00  0.00     0.049 A 
ATOM     15  N   UNL     1      12.852  10.692   0.561  1.00  0.00    -0.248 NA
ATOM     16  C   UNL     1      11.468  10.551  -1.312  1.00  0.00     0.031 C 
ATOM     17  C   UNL     1      15.423   7.430  -1.107  1.00  0.00     0.029 A 
ATOM     18  N   UNL     1      15.109   8.784   0.641  1.00  0.00    -0.354 N 
ATOM     19  C   UNL     1      11.841  11.638   0.669  1.00  0.00     0.074 A 
ATOM     20  C   UNL     1      11.038  11.534  -0.530  1.00  0.00     0.031 C 
ATOM     21  C   UNL     1      16.330   7.095  -0.182  1.00  0.00     0.029 A 
ATOM     22  C   UNL     1      16.184   7.985   0.959  1.00  0.00     0.049 A 
ATOM     23  H   UNL     1      14.771   9.495   1.232  1.00  0.00     0.167 HD
ATOM     24  C   UNL     1      11.606  12.507   1.682  1.00  0.00     0.031 A 
ATOM     25  C   UNL     1      16.986   7.982   2.038  1.00  0.00     0.031 A 
ATOM     26  C   UNL     1      12.422  12.600   2.867  1.00  0.00     0.049 A 
ATOM     27  C   UNL     1      16.715   8.976   3.127  1.00  0.00     0.074 A 
ATOM     28  C   UNL     1      12.272  13.449   3.951  1.00  0.00     0.029 A 
ATOM     29  N   UNL     1      13.537  11.816   3.129  1.00  0.00    -0.354 N 
ATOM     30  N   UNL     1      15.748   9.859   3.209  1.00  0.00    -0.248 NA
ATOM     31  C   UNL     1      17.640   8.976   4.263  1.00  0.00     0.031 C 
ATOM     32  C   UNL     1      13.325  13.214   4.841  1.00  0.00     0.029 A 
ATOM     33  C   UNL     1      14.095  12.174   4.346  1.00  0.00     0.049 A 
ATOM     34  H   UNL     1      13.881  11.109   2.536  1.00  0.00     0.167 HD
ATOM     35  C   UNL     1      15.948  10.521   4.412  1.00  0.00     0.074 A 
ATOM     36  C   UNL     1      17.100   9.904   5.040  1.00  0.00     0.031 C 
ATOM     37  C   UNL     1      15.252  11.556   4.944  1.00  0.00     0.031 A 
BRANCH  24  38
ATOM     38  C   UNL     1      10.432  13.444   1.549  1.00  0.00    -0.014 A 
ATOM     39  C   UNL     1       9.111  12.974   1.656  1.00  0.00     0.010 A 
ATOM     40  C   UNL     1      10.654  14.825   1.391  1.00  0.00     0.010 A 
ATOM     41  C   UNL     1       8.034  13.864   1.587  1.00  0.00     0.020 A 
ATOM     42  C   UNL     1       9.581  15.721   1.348  1.00  0.00     0.020 A 
ATOM     43  C   UNL     1       8.276  15.233   1.437  1.00  0.00     0.054 A 
BRANCH  43  44
ATOM     44  S   UNL     1       6.861  16.369   1.406  1.00  0.00     0.124 S 
ATOM     45  O   UNL     1       6.254  16.060   0.114  1.00  0.00    -0.237 OA
ATOM     46  O   UNL     1       6.092  15.953   2.576  1.00  0.00    -0.237 OA
ATOM     47  O   UNL     1       7.473  17.691   1.504  1.00  0.00    -0.744 OA
ENDBRANCH  43  44
ENDBRANCH  24  38
BRANCH  25  48
ATOM     48  C   UNL     1      18.147   7.052   2.100  1.00  0.00    -0.014 A 
ATOM     49  C   UNL     1      18.219   6.037   3.068  1.00  0.00     0.010 A 
ATOM     50  C   UNL     1      19.196   7.183   1.169  1.00  0.00     0.010 A 
ATOM     51  C   UNL     1      19.333   5.192   3.123  1.00  0.00     0.020 A 
ATOM     52  C   UNL     1      20.289   6.316   1.194  1.00  0.00     0.020 A 
ATOM     53  C   UNL     1      20.360   5.339   2.186  1.00  0.00     0.054 A 
BRANCH  53  54
ATOM     54  S   UNL     1      21.786   4.222   2.261  1.00  0.00     0.124 S 
ATOM     55  O   UNL     1      22.507   4.730   3.423  1.00  0.00    -0.237 OA
ATOM     56  O   UNL     1      21.156   2.914   2.427  1.00  0.00    -0.237 OA
ATOM     57  O   UNL     1      22.448   4.426   0.974  1.00  0.00    -0.744 OA
ENDBRANCH  53  54
ENDBRANCH  25  48
BRANCH  37  58
ATOM     58  C   UNL     1      15.718  12.062   6.282  1.00  0.00    -0.014 A 
ATOM     59  C   UNL     1      16.938  12.751   6.415  1.00  0.00     0.010 A 
ATOM     60  C   UNL     1      14.925  11.844   7.422  1.00  0.00     0.010 A 
ATOM     61  C   UNL     1      17.382  13.161   7.673  1.00  0.00     0.020 A 
ATOM     62  C   UNL     1      15.349  12.283   8.677  1.00  0.00     0.020 A 
ATOM     63  C   UNL     1      16.587  12.919   8.798  1.00  0.00     0.054 A 
BRANCH  63  64
ATOM     64  S   UNL     1      17.184  13.465  10.420  1.00  0.00     0.124 S 
ATOM     65  O   UNL     1      18.241  12.497  10.696  1.00  0.00    -0.237 OA
ATOM     66  O   UNL     1      17.634  14.829  10.153  1.00  0.00    -0.237 OA
ATOM     67  O   UNL     1      16.004  13.361  11.276  1.00  0.00    -0.744 OA
ENDBRANCH  63  64
ENDBRANCH  37  58
ENDBRANCH  11  12
ENDBRANCH   4   6
ENDBRANCH   1   2
BRANCH   1  68
ATOM     68  C   UNL     1       8.839   5.136  -5.098  1.00  0.00     0.042 C 
BRANCH  68  69
ATOM     69  C   UNL     1       8.298   4.294  -6.245  1.00  0.00     0.117 C 
BRANCH  69  70
ATOM     70  N   UNL     1       7.959   2.961  -5.776  1.00  0.00    -0.354 N 
ATOM     71  C   UNL     1       6.794   2.538  -5.194  1.00  0.00     0.247 C 
ATOM     72  H   UNL     1       8.656   2.274  -5.892  1.00  0.00     0.163 HD
ATOM     73  O   UNL     1       6.800   1.453  -4.607  1.00  0.00    -0.272 OA
BRANCH  71  74
ATOM     74  C   UNL     1       5.552   3.460  -5.237  1.00  0.00     0.202 C 
BRANCH  74  75
ATOM     75  C   UNL     1       4.397   2.857  -6.015  1.00  0.00    -0.016 A 
ATOM     76  C   UNL     1       3.820   3.598  -7.062  1.00  0.00     0.006 A 
ATOM     77  C   UNL     1       3.877   1.586  -5.738  1.00  0.00     0.006 A 
ATOM     78  C   UNL     1       2.712   3.124  -7.760  1.00  0.00     0.000 A 
ATOM     79  C   UNL     1       2.792   1.091  -6.468  1.00  0.00     0.000 A 
ATOM     80  C   UNL     1       2.196   1.868  -7.461  1.00  0.00     0.000 A 
ENDBRANCH  74  75
BRANCH  74  81
ATOM     81  N   UNL     1       5.196   3.845  -3.872  1.00  0.00    -0.336 N 
ATOM     82  C   UNL     1       5.122   5.128  -3.374  1.00  0.00     0.253 C 
ATOM     83  H   UNL     1       4.987   3.115  -3.245  1.00  0.00     0.165 HD
ATOM     84  O   UNL     1       5.206   5.357  -2.175  1.00  0.00    -0.269 OA
BRANCH  82  85
ATOM     85  C   UNL     1       4.959   6.245  -4.321  1.00  0.00     0.058 A 
ATOM     86  C   UNL     1       3.858   6.307  -5.172  1.00  0.00     0.018 A 
ATOM     87  C   UNL     1       5.943   7.212  -4.440  1.00  0.00     0.126 A 
ATOM     88  C   UNL     1       3.830   7.271  -6.177  1.00  0.00     0.037 A 
ATOM     89  N   UNL     1       5.950   8.146  -5.424  1.00  0.00    -0.249 NA
ATOM     90  C   UNL     1       4.899   8.152  -6.275  1.00  0.00     0.106 A 
ATOM     91  Br  UNL     1       4.927   9.388  -7.713  1.00  0.00    -0.029 Br
ENDBRANCH  82  85
ENDBRANCH  74  81
ENDBRANCH  71  74
ENDBRANCH  69  70
ENDBRANCH  68  69
ENDBRANCH   1  68
TORSDOF 16
