REMARK SMILES Cc1ccccc1C(=O)Nc1ccc(OCC(=O)NCCCNC(=O)c2ccc(-c3c4nc(c(-c5ccc(S(=O)(=O)[O-])cc5)c5ccc([nH]5)c(-c5ccc(S(=O)(=O)[O-])cc5)c5nc(c(-c6ccc(S(=O)(=O)[O-])cc6)c6ccc3[nH]6)C=C5)C=C4)cc2)c(-c2nc3ccccc3s2)c1
REMARK SMILES IDX 20 1 19 2 17 3 18 4 16 6 15 7 14 8 11 9 12 10 96 11 13 12
REMARK SMILES IDX 86 13 10 14 8 15 9 16 7 18 1 19 2 20 3 21 4 22 6 23 5 24
REMARK SMILES IDX 87 25 88 26 95 27 89 28 94 29 90 30 93 31 91 32 92 33 21 34
REMARK SMILES IDX 22 35 23 36 24 37 25 39 26 40 27 41 85 42 28 43 84 44 29 45
REMARK SMILES IDX 30 46 31 47 78 48 32 49 83 50 77 51 79 52 33 53 82 54 76 55
REMARK SMILES IDX 75 56 34 58 64 59 45 60 63 61 46 62 49 63 62 64 80 65 47 66
REMARK SMILES IDX 48 67 61 69 81 70 50 71 35 72 36 73 44 74 37 75 43 76 38 77
REMARK SMILES IDX 39 78 40 79 41 80 42 81 65 82 66 83 74 84 67 85 73 86 68 87
REMARK SMILES IDX 69 88 70 89 71 90 72 91 51 92 52 93 60 94 53 95 59 96 54 97
REMARK SMILES IDX 55 98 56 99 57 100 58 101
REMARK H PARENT 19 5 10 17 23 38 79 57 49 68
REMARK Flexibility Score: inf
ROOT
ATOM      1  C   UNL     1       5.021  -4.893   2.019  1.00  0.00     0.117 C 
ENDROOT
BRANCH   1   2
ATOM      2  N   UNL     1       3.982  -4.555   1.062  1.00  0.00    -0.353 N 
ATOM      3  C   UNL     1       4.069  -3.754  -0.043  1.00  0.00     0.257 C 
ATOM      4  O   UNL     1       3.027  -3.490  -0.640  1.00  0.00    -0.271 OA
ATOM      5  H   UNL     1       3.098  -4.956   1.230  1.00  0.00     0.163 HD
BRANCH   3   6
ATOM      6  C   UNL     1       5.472  -3.254  -0.488  1.00  0.00     0.329 C 
BRANCH   6   7
ATOM      7  O   UNL     1       5.646  -2.246  -1.486  1.00  0.00    -0.483 OA
BRANCH   7   8
ATOM      8  C   UNL     1       4.917  -1.113  -1.240  1.00  0.00     0.130 A 
ATOM      9  C   UNL     1       3.403   1.104  -0.491  1.00  0.00     0.042 A 
ATOM     10  C   UNL     1       4.641   0.881   0.108  1.00  0.00     0.030 A 
ATOM     11  C   UNL     1       3.001   0.307  -1.566  1.00  0.00     0.041 A 
ATOM     12  C   UNL     1       5.381  -0.247  -0.240  1.00  0.00     0.049 A 
ATOM     13  C   UNL     1       3.771  -0.799  -1.997  1.00  0.00     0.055 A 
BRANCH   9  14
ATOM     14  N   UNL     1       2.601   2.110   0.060  1.00  0.00    -0.322 N 
ATOM     15  C   UNL     1       1.233   2.188   0.218  1.00  0.00     0.255 C 
ATOM     16  O   UNL     1       0.751   3.282   0.518  1.00  0.00    -0.269 OA
ATOM     17  H   UNL     1       3.096   2.893   0.390  1.00  0.00     0.170 HD
BRANCH  15  18
ATOM     18  C   UNL     1       0.329   1.000   0.131  1.00  0.00     0.043 A 
ATOM     19  C   UNL     1       1.780  -0.610   1.540  1.00  0.00     0.045 C 
ATOM     20  C   UNL     1       0.583  -0.266   0.701  1.00  0.00    -0.038 A 
ATOM     21  C   UNL     1      -0.362  -1.295   0.517  1.00  0.00     0.004 A 
ATOM     22  C   UNL     1      -1.584  -1.049  -0.106  1.00  0.00     0.000 A 
ATOM     23  C   UNL     1      -0.925   1.240  -0.463  1.00  0.00     0.014 A 
ATOM     24  C   UNL     1      -1.879   0.227  -0.569  1.00  0.00     0.001 A 
ENDBRANCH  15  18
ENDBRANCH   9  14
BRANCH  13  25
ATOM     25  C   UNL     1       3.255  -1.578  -3.150  1.00  0.00     0.128 A 
ATOM     26  N   UNL     1       2.239  -1.183  -3.900  1.00  0.00    -0.236 NA
ATOM     27  S   UNL     1       3.912  -3.094  -3.650  1.00  0.00    -0.114 S 
ATOM     28  C   UNL     1       1.758  -2.245  -4.646  1.00  0.00     0.082 A 
ATOM     29  C   UNL     1       2.499  -3.420  -4.553  1.00  0.00     0.055 A 
ATOM     30  C   UNL     1       0.591  -2.248  -5.433  1.00  0.00     0.030 A 
ATOM     31  C   UNL     1       2.083  -4.622  -5.142  1.00  0.00     0.021 A 
ATOM     32  C   UNL     1       0.162  -3.440  -6.028  1.00  0.00     0.002 A 
ATOM     33  C   UNL     1       0.889  -4.616  -5.864  1.00  0.00     0.002 A 
ENDBRANCH  13  25
ENDBRANCH   7   8
ENDBRANCH   6   7
ENDBRANCH   3   6
ENDBRANCH   1   2
BRANCH   1  34
ATOM     34  C   UNL     1       5.247  -3.758   3.013  1.00  0.00     0.042 C 
BRANCH  34  35
ATOM     35  C   UNL     1       4.108  -3.620   4.006  1.00  0.00     0.118 C 
BRANCH  35  36
ATOM     36  N   UNL     1       4.241  -4.448   5.193  1.00  0.00    -0.352 N 
ATOM     37  C   UNL     1       3.658  -4.019   6.385  1.00  0.00     0.251 C 
ATOM     38  H   UNL     1       4.736  -5.298   5.157  1.00  0.00     0.163 HD
ATOM     39  O   UNL     1       4.260  -3.610   7.352  1.00  0.00    -0.269 OA
BRANCH  37  40
ATOM     40  C   UNL     1       2.179  -3.976   6.319  1.00  0.00     0.039 A 
ATOM     41  C   UNL     1       1.424  -5.066   6.751  1.00  0.00     0.014 A 
ATOM     42  C   UNL     1       1.609  -2.943   5.575  1.00  0.00     0.014 A 
ATOM     43  C   UNL     1       0.103  -5.184   6.321  1.00  0.00     0.010 A 
ATOM     44  C   UNL     1       0.340  -3.113   5.069  1.00  0.00     0.010 A 
ATOM     45  C   UNL     1      -0.403  -4.246   5.417  1.00  0.00    -0.014 A 
BRANCH  45  46
ATOM     46  C   UNL     1      -1.685  -4.366   4.737  1.00  0.00     0.031 A 
ATOM     47  C   UNL     1      -2.829  -3.537   5.178  1.00  0.00     0.074 A 
ATOM     48  C   UNL     1      -1.787  -5.127   3.624  1.00  0.00     0.049 A 
ATOM     49  N   UNL     1      -4.067  -3.807   4.930  1.00  0.00    -0.248 NA
ATOM     50  C   UNL     1      -2.658  -2.339   5.995  1.00  0.00     0.031 C 
ATOM     51  C   UNL     1      -2.865  -5.099   2.640  1.00  0.00     0.029 A 
ATOM     52  N   UNL     1      -1.033  -6.246   3.267  1.00  0.00    -0.354 N 
ATOM     53  C   UNL     1      -4.808  -2.696   5.271  1.00  0.00     0.074 A 
ATOM     54  C   UNL     1      -3.901  -1.851   6.011  1.00  0.00     0.031 C 
ATOM     55  C   UNL     1      -2.893  -6.281   2.004  1.00  0.00     0.029 A 
ATOM     56  C   UNL     1      -1.930  -7.145   2.668  1.00  0.00     0.049 A 
ATOM     57  H   UNL     1      -0.067  -6.378   3.407  1.00  0.00     0.167 HD
ATOM     58  C   UNL     1      -6.064  -2.541   4.765  1.00  0.00     0.031 A 
ATOM     59  C   UNL     1      -2.196  -8.395   3.150  1.00  0.00     0.031 A 
ATOM     60  C   UNL     1      -6.469  -3.700   3.973  1.00  0.00     0.049 A 
ATOM     61  C   UNL     1      -3.665  -8.601   3.453  1.00  0.00     0.074 A 
ATOM     62  C   UNL     1      -6.495  -3.941   2.609  1.00  0.00     0.029 A 
ATOM     63  N   UNL     1      -6.643  -4.928   4.598  1.00  0.00    -0.354 N 
ATOM     64  N   UNL     1      -4.520  -7.627   3.597  1.00  0.00    -0.248 NA
ATOM     65  C   UNL     1      -4.280  -9.911   3.650  1.00  0.00     0.031 C 
ATOM     66  C   UNL     1      -6.606  -5.342   2.417  1.00  0.00     0.029 A 
ATOM     67  C   UNL     1      -6.679  -5.943   3.662  1.00  0.00     0.049 A 
ATOM     68  H   UNL     1      -6.728  -5.057   5.570  1.00  0.00     0.167 HD
ATOM     69  C   UNL     1      -5.760  -8.136   3.884  1.00  0.00     0.074 A 
ATOM     70  C   UNL     1      -5.558  -9.574   3.903  1.00  0.00     0.031 C 
ATOM     71  C   UNL     1      -6.844  -7.329   4.081  1.00  0.00     0.031 A 
BRANCH  58  72
ATOM     72  C   UNL     1      -6.809  -1.222   4.742  1.00  0.00    -0.014 A 
ATOM     73  C   UNL     1      -7.770  -0.986   3.735  1.00  0.00     0.010 A 
ATOM     74  C   UNL     1      -6.581  -0.158   5.635  1.00  0.00     0.010 A 
ATOM     75  C   UNL     1      -8.388   0.263   3.567  1.00  0.00     0.020 A 
ATOM     76  C   UNL     1      -7.165   1.108   5.460  1.00  0.00     0.020 A 
ATOM     77  C   UNL     1      -8.058   1.314   4.416  1.00  0.00     0.054 A 
BRANCH  77  78
ATOM     78  S   UNL     1      -8.808   2.940   4.141  1.00  0.00     0.124 S 
ATOM     79  O   UNL     1      -8.412   3.242   2.768  1.00  0.00    -0.237 OA
ATOM     80  O   UNL     1     -10.229   2.669   4.342  1.00  0.00    -0.237 OA
ATOM     81  O   UNL     1      -8.189   3.785   5.161  1.00  0.00    -0.744 OA
ENDBRANCH  77  78
ENDBRANCH  58  72
BRANCH  59  82
ATOM     82  C   UNL     1      -1.069  -9.014   3.904  1.00  0.00    -0.014 A 
ATOM     83  C   UNL     1       0.069  -9.396   3.160  1.00  0.00     0.010 A 
ATOM     84  C   UNL     1      -0.932  -8.783   5.284  1.00  0.00     0.010 A 
ATOM     85  C   UNL     1       1.342  -9.342   3.733  1.00  0.00     0.020 A 
ATOM     86  C   UNL     1       0.346  -8.737   5.862  1.00  0.00     0.020 A 
ATOM     87  C   UNL     1       1.475  -8.930   5.059  1.00  0.00     0.054 A 
BRANCH  87  88
ATOM     88  S   UNL     1       3.131  -8.464   5.654  1.00  0.00     0.124 S 
ATOM     89  O   UNL     1       3.932  -9.635   5.316  1.00  0.00    -0.237 OA
ATOM     90  O   UNL     1       3.417  -7.256   4.872  1.00  0.00    -0.237 OA
ATOM     91  O   UNL     1       2.924  -8.231   7.079  1.00  0.00    -0.744 OA
ENDBRANCH  87  88
ENDBRANCH  59  82
BRANCH  71  92
ATOM     92  C   UNL     1      -8.197  -7.756   4.602  1.00  0.00    -0.014 A 
ATOM     93  C   UNL     1      -8.428  -8.926   5.340  1.00  0.00     0.010 A 
ATOM     94  C   UNL     1      -9.294  -6.869   4.456  1.00  0.00     0.010 A 
ATOM     95  C   UNL     1      -9.699  -9.227   5.853  1.00  0.00     0.020 A 
ATOM     96  C   UNL     1     -10.552  -7.135   5.002  1.00  0.00     0.020 A 
ATOM     97  C   UNL     1     -10.754  -8.331   5.678  1.00  0.00     0.054 A 
BRANCH  97  98
ATOM     98  S   UNL     1     -12.373  -8.697   6.401  1.00  0.00     0.124 S 
ATOM     99  O   UNL     1     -13.004  -9.481   5.342  1.00  0.00    -0.237 OA
ATOM    100  O   UNL     1     -12.031  -9.442   7.611  1.00  0.00    -0.237 OA
ATOM    101  O   UNL     1     -12.950  -7.376   6.634  1.00  0.00    -0.744 OA
ENDBRANCH  97  98
ENDBRANCH  71  92
ENDBRANCH  45  46
ENDBRANCH  37  40
ENDBRANCH  35  36
ENDBRANCH  34  35
ENDBRANCH   1  34
TORSDOF 18
