REMARK SMILES C[C@@H]1[C@@H](C(=O)NCCCNC(=O)c2ccc(-c3c4nc(c(-c5ccc(S(=O)(=O)[O-])cc5)c5ccc([nH]5)c(-c5ccc(S(=O)(=O)[O-])cc5)c5nc(c(-c6ccc(S(=O)(=O)[O-])cc6)c6ccc3[nH]6)C=C5)C=C4)cc2)CC[N@@H+]1CC(=O)N(C)C1CC1
REMARK SMILES IDX 7 1 6 2 4 3 5 4 3 6 1 7 2 8 75 9 73 10 74 11 76 13 77 14
REMARK SMILES IDX 78 15 79 16 80 17 81 18 82 19 83 20 8 21 9 22 10 23 11 24
REMARK SMILES IDX 12 26 13 27 14 28 72 29 15 30 71 31 16 32 17 33 18 34 65 35
REMARK SMILES IDX 19 36 70 37 64 38 66 39 20 40 69 41 63 42 62 43 21 45 51 46
REMARK SMILES IDX 32 47 50 48 33 49 36 50 49 51 67 52 34 53 35 54 48 56 68 57
REMARK SMILES IDX 37 58 22 59 23 60 31 61 24 62 30 63 25 64 26 65 27 66 28 67
REMARK SMILES IDX 29 68 52 69 53 70 61 71 54 72 60 73 55 74 56 75 57 76 58 77
REMARK SMILES IDX 59 78 38 79 39 80 47 81 40 82 46 83 41 84 42 85 43 86 44 87
REMARK SMILES IDX 45 88
REMARK H PARENT 6 5 75 12 10 25 66 44 36 55
REMARK Flexibility Score: inf
ROOT
ATOM      1  C   UNL     1      -2.837   2.741  -0.807  1.00  0.00     0.117 C 
ENDROOT
BRANCH   1   2
ATOM      2  N   UNL     1      -2.244   2.038  -1.929  1.00  0.00    -0.356 N 
ATOM      3  C   UNL     1      -1.242   1.119  -1.948  1.00  0.00     0.229 C 
ATOM      4  O   UNL     1      -0.908   0.681  -3.049  1.00  0.00    -0.275 OA
ATOM      5  H   UNL     1      -2.624   2.261  -2.809  1.00  0.00     0.163 HD
BRANCH   3   6
ATOM      6  C   UNL     1      -0.549   0.741  -0.646  1.00  0.00     0.142 C 
ATOM      7  C   UNL     1       1.927   0.252  -0.727  1.00  0.00     0.076 C 
ATOM      8  C   UNL     1       0.529  -0.342  -0.871  1.00  0.00     0.194 C 
ATOM      9  N   UNL     1       0.155  -1.489  -0.033  1.00  0.00    -0.324 N 
ATOM     10  C   UNL     1      -1.494   0.135   0.389  1.00  0.00     0.081 C 
ATOM     11  C   UNL     1      -1.258  -1.356   0.300  1.00  0.00     0.263 C 
ATOM     12  H   UNL     1       0.331  -2.306  -0.618  1.00  0.00     0.348 HD
BRANCH   9  13
ATOM     13  C   UNL     1       1.029  -1.971   1.038  1.00  0.00     0.364 C 
BRANCH  13  14
ATOM     14  C   UNL     1       1.040  -1.114   2.313  1.00  0.00     0.277 C 
ATOM     15  O   UNL     1       0.012  -1.024   2.998  1.00  0.00    -0.268 OA
BRANCH  14  16
ATOM     16  N   UNL     1       2.207  -0.459   2.701  1.00  0.00    -0.338 N 
ATOM     17  C   UNL     1       3.538  -0.659   2.141  1.00  0.00     0.147 C 
BRANCH  16  18
ATOM     18  C   UNL     1       2.126   0.429   3.843  1.00  0.00     0.085 C 
ATOM     19  C   UNL     1       2.905   1.714   3.954  1.00  0.00     0.027 C 
ATOM     20  C   UNL     1       1.427   1.760   3.717  1.00  0.00     0.027 C 
ENDBRANCH  16  18
ENDBRANCH  14  16
ENDBRANCH  13  14
ENDBRANCH   9  13
ENDBRANCH   3   6
ENDBRANCH   1   2
BRANCH   1  21
ATOM     21  C   UNL     1      -3.074   4.211  -1.099  1.00  0.00     0.042 C 
BRANCH  21  22
ATOM     22  C   UNL     1      -3.831   4.485  -2.389  1.00  0.00     0.118 C 
BRANCH  22  23
ATOM     23  N   UNL     1      -5.121   3.811  -2.461  1.00  0.00    -0.352 N 
ATOM     24  C   UNL     1      -6.387   4.343  -2.568  1.00  0.00     0.251 C 
ATOM     25  H   UNL     1      -5.082   2.828  -2.429  1.00  0.00     0.163 HD
ATOM     26  O   UNL     1      -7.369   3.623  -2.475  1.00  0.00    -0.269 OA
BRANCH  24  27
ATOM     27  C   UNL     1      -6.540   5.801  -2.756  1.00  0.00     0.039 A 
ATOM     28  C   UNL     1      -7.451   6.498  -1.961  1.00  0.00     0.014 A 
ATOM     29  C   UNL     1      -5.739   6.482  -3.675  1.00  0.00     0.014 A 
ATOM     30  C   UNL     1      -7.492   7.892  -2.025  1.00  0.00     0.010 A 
ATOM     31  C   UNL     1      -5.700   7.869  -3.652  1.00  0.00     0.010 A 
ATOM     32  C   UNL     1      -6.580   8.591  -2.833  1.00  0.00    -0.014 A 
BRANCH  32  33
ATOM     33  C   UNL     1      -6.534  10.075  -2.856  1.00  0.00     0.031 A 
ATOM     34  C   UNL     1      -6.772  10.810  -4.149  1.00  0.00     0.074 A 
ATOM     35  C   UNL     1      -6.203  10.756  -1.740  1.00  0.00     0.049 A 
ATOM     36  N   UNL     1      -6.685  12.091  -4.398  1.00  0.00    -0.248 NA
ATOM     37  C   UNL     1      -7.115   9.994  -5.326  1.00  0.00     0.031 C 
ATOM     38  C   UNL     1      -5.896  10.158  -0.436  1.00  0.00     0.029 A 
ATOM     39  N   UNL     1      -6.062  12.104  -1.523  1.00  0.00    -0.354 N 
ATOM     40  C   UNL     1      -6.934  12.228  -5.759  1.00  0.00     0.074 A 
ATOM     41  C   UNL     1      -7.114  10.897  -6.294  1.00  0.00     0.031 C 
ATOM     42  C   UNL     1      -5.644  11.136   0.449  1.00  0.00     0.029 A 
ATOM     43  C   UNL     1      -5.724  12.425  -0.229  1.00  0.00     0.049 A 
ATOM     44  H   UNL     1      -6.192  12.778  -2.229  1.00  0.00     0.167 HD
ATOM     45  C   UNL     1      -7.034  13.360  -6.494  1.00  0.00     0.031 A 
ATOM     46  C   UNL     1      -5.503  13.623   0.346  1.00  0.00     0.031 A 
ATOM     47  C   UNL     1      -6.887  14.683  -5.953  1.00  0.00     0.049 A 
ATOM     48  C   UNL     1      -5.632  14.868  -0.488  1.00  0.00     0.074 A 
ATOM     49  C   UNL     1      -7.031  15.898  -6.598  1.00  0.00     0.029 A 
ATOM     50  N   UNL     1      -6.569  14.964  -4.632  1.00  0.00    -0.354 N 
ATOM     51  N   UNL     1      -5.928  14.979  -1.761  1.00  0.00    -0.248 NA
ATOM     52  C   UNL     1      -5.409  16.150   0.195  1.00  0.00     0.031 C 
ATOM     53  C   UNL     1      -6.757  16.914  -5.678  1.00  0.00     0.029 A 
ATOM     54  C   UNL     1      -6.497  16.333  -4.446  1.00  0.00     0.049 A 
ATOM     55  H   UNL     1      -6.418  14.289  -3.931  1.00  0.00     0.167 HD
ATOM     56  C   UNL     1      -5.955  16.344  -2.025  1.00  0.00     0.074 A 
ATOM     57  C   UNL     1      -5.658  17.017  -0.776  1.00  0.00     0.031 C 
ATOM     58  C   UNL     1      -6.204  16.983  -3.194  1.00  0.00     0.031 A 
BRANCH  45  59
ATOM     59  C   UNL     1      -7.324  13.208  -7.965  1.00  0.00    -0.014 A 
ATOM     60  C   UNL     1      -8.576  12.748  -8.413  1.00  0.00     0.010 A 
ATOM     61  C   UNL     1      -6.343  13.553  -8.912  1.00  0.00     0.010 A 
ATOM     62  C   UNL     1      -8.825  12.590  -9.778  1.00  0.00     0.020 A 
ATOM     63  C   UNL     1      -6.599  13.426 -10.280  1.00  0.00     0.020 A 
ATOM     64  C   UNL     1      -7.833  12.927 -10.704  1.00  0.00     0.054 A 
BRANCH  64  65
ATOM     65  S   UNL     1      -8.191  12.732 -12.471  1.00  0.00     0.124 S 
ATOM     66  O   UNL     1      -8.138  11.280 -12.629  1.00  0.00    -0.237 OA
ATOM     67  O   UNL     1      -9.519  13.328 -12.597  1.00  0.00    -0.237 OA
ATOM     68  O   UNL     1      -7.115  13.470 -13.127  1.00  0.00    -0.744 OA
ENDBRANCH  64  65
ENDBRANCH  45  59
BRANCH  46  69
ATOM     69  C   UNL     1      -5.163  13.704   1.794  1.00  0.00    -0.014 A 
ATOM     70  C   UNL     1      -6.096  14.211   2.716  1.00  0.00     0.010 A 
ATOM     71  C   UNL     1      -3.912  13.262   2.262  1.00  0.00     0.010 A 
ATOM     72  C   UNL     1      -5.778  14.294   4.075  1.00  0.00     0.020 A 
ATOM     73  C   UNL     1      -3.600  13.319   3.623  1.00  0.00     0.020 A 
ATOM     74  C   UNL     1      -4.532  13.846   4.520  1.00  0.00     0.054 A 
BRANCH  74  75
ATOM     75  S   UNL     1      -4.160  13.916   6.295  1.00  0.00     0.124 S 
ATOM     76  O   UNL     1      -3.933  15.343   6.502  1.00  0.00    -0.237 OA
ATOM     77  O   UNL     1      -5.376  13.374   6.895  1.00  0.00    -0.237 OA
ATOM     78  O   UNL     1      -2.977  13.067   6.429  1.00  0.00    -0.744 OA
ENDBRANCH  74  75
ENDBRANCH  46  69
BRANCH  58  79
ATOM     79  C   UNL     1      -6.204  18.488  -3.175  1.00  0.00    -0.014 A 
ATOM     80  C   UNL     1      -5.006  19.215  -3.065  1.00  0.00     0.010 A 
ATOM     81  C   UNL     1      -7.418  19.181  -3.332  1.00  0.00     0.010 A 
ATOM     82  C   UNL     1      -5.027  20.612  -3.083  1.00  0.00     0.020 A 
ATOM     83  C   UNL     1      -7.439  20.576  -3.378  1.00  0.00     0.020 A 
ATOM     84  C   UNL     1      -6.244  21.284  -3.239  1.00  0.00     0.054 A 
BRANCH  84  85
ATOM     85  S   UNL     1      -6.238  23.096  -3.307  1.00  0.00     0.124 S 
ATOM     86  O   UNL     1      -6.006  23.451  -1.910  1.00  0.00    -0.237 OA
ATOM     87  O   UNL     1      -5.132  23.379  -4.219  1.00  0.00    -0.237 OA
ATOM     88  O   UNL     1      -7.564  23.427  -3.824  1.00  0.00    -0.744 OA
ENDBRANCH  84  85
ENDBRANCH  58  79
ENDBRANCH  32  33
ENDBRANCH  24  27
ENDBRANCH  22  23
ENDBRANCH  21  22
ENDBRANCH   1  21
TORSDOF 17
