REMARK SMILES COCCCN1C(=O)CC[C@@H](C(=O)NCCCNC(=O)c2ccc(-c3c4nc(c(-c5ccc(S(=O)(=O)[O-])cc5)c5ccc([nH]5)c(-c5ccc(S(=O)(=O)[O-])cc5)c5nc(c(-c6ccc(S(=O)(=O)[O-])cc6)c6ccc3[nH]6)C=C5)C=C4)cc2)[C@@H]1c1ccc(F)cc1
REMARK SMILES IDX 15 1 14 2 12 3 13 4 11 6 6 7 7 8 81 9 8 10 9 11 10 12 5 13
REMARK SMILES IDX 4 14 3 15 2 16 1 17 82 18 83 19 88 20 84 21 87 22 85 23
REMARK SMILES IDX 86 24 16 25 17 26 18 27 19 28 20 30 21 31 22 32 80 33 23 34
REMARK SMILES IDX 79 35 24 36 25 37 26 38 73 39 27 40 78 41 72 42 74 43 28 44
REMARK SMILES IDX 77 45 71 46 70 47 29 49 59 50 40 51 58 52 41 53 44 54 57 55
REMARK SMILES IDX 75 56 42 57 43 58 56 60 76 61 45 62 30 63 31 64 39 65 32 66
REMARK SMILES IDX 38 67 33 68 34 69 35 70 36 71 37 72 60 73 61 74 69 75 62 76
REMARK SMILES IDX 68 77 63 78 64 79 65 80 66 81 67 82 46 83 47 84 55 85 48 86
REMARK SMILES IDX 54 87 49 88 50 89 51 90 52 91 53 92
REMARK H PARENT 14 5 18 29 74 48 44 59
REMARK Flexibility Score: inf
ROOT
ATOM      1  C   UNL     1       3.754   0.968  -2.273  1.00  0.00     0.117 C 
ENDROOT
BRANCH   1   2
ATOM      2  N   UNL     1       4.093  -0.372  -2.714  1.00  0.00    -0.356 N 
ATOM      3  C   UNL     1       4.559  -1.449  -2.020  1.00  0.00     0.225 C 
ATOM      4  O   UNL     1       4.845  -2.455  -2.668  1.00  0.00    -0.275 OA
ATOM      5  H   UNL     1       3.965  -0.531  -3.677  1.00  0.00     0.163 HD
BRANCH   3   6
ATOM      6  C   UNL     1       4.725  -1.376  -0.504  1.00  0.00     0.106 C 
ATOM      7  N   UNL     1       2.612  -2.570   0.090  1.00  0.00    -0.335 N 
ATOM      8  C   UNL     1       3.227  -3.811   0.162  1.00  0.00     0.223 C 
ATOM      9  C   UNL     1       3.362  -1.314   0.202  1.00  0.00     0.128 C 
ATOM     10  O   UNL     1       2.583  -4.855   0.285  1.00  0.00    -0.275 OA
ATOM     11  C   UNL     1       4.736  -3.877  -0.002  1.00  0.00     0.101 C 
ATOM     12  C   UNL     1       5.510  -2.567   0.050  1.00  0.00     0.026 C 
BRANCH   7  13
ATOM     13  C   UNL     1       1.158  -2.516  -0.139  1.00  0.00     0.122 C 
BRANCH  13  14
ATOM     14  C   UNL     1       0.283  -2.391   1.109  1.00  0.00     0.050 C 
BRANCH  14  15
ATOM     15  C   UNL     1       0.034  -0.978   1.637  1.00  0.00     0.161 C 
BRANCH  15  16
ATOM     16  O   UNL     1      -0.687  -0.165   0.715  1.00  0.00    -0.385 OA
ATOM     17  C   UNL     1       0.109   0.793   0.032  1.00  0.00     0.194 C 
ENDBRANCH  15  16
ENDBRANCH  14  15
ENDBRANCH  13  14
ENDBRANCH   7  13
BRANCH   9  18
ATOM     18  C   UNL     1       3.492  -0.798   1.642  1.00  0.00    -0.024 A 
ATOM     19  C   UNL     1       3.269  -1.612   2.768  1.00  0.00     0.009 A 
ATOM     20  C   UNL     1       3.766   0.569   1.857  1.00  0.00     0.009 A 
ATOM     21  C   UNL     1       3.232  -1.060   4.052  1.00  0.00     0.039 A 
ATOM     22  C   UNL     1       3.743   1.115   3.141  1.00  0.00     0.039 A 
ATOM     23  C   UNL     1       3.455   0.299   4.225  1.00  0.00     0.123 A 
ATOM     24  F   UNL     1       3.377   0.831   5.451  1.00  0.00    -0.207 F 
ENDBRANCH   9  18
ENDBRANCH   3   6
ENDBRANCH   1   2
BRANCH   1  25
ATOM     25  C   UNL     1       4.710   2.026  -2.803  1.00  0.00     0.042 C 
BRANCH  25  26
ATOM     26  C   UNL     1       4.746   2.146  -4.321  1.00  0.00     0.118 C 
BRANCH  26  27
ATOM     27  N   UNL     1       3.463   2.530  -4.894  1.00  0.00    -0.352 N 
ATOM     28  C   UNL     1       3.130   3.598  -5.690  1.00  0.00     0.251 C 
ATOM     29  H   UNL     1       2.716   1.927  -4.676  1.00  0.00     0.163 HD
ATOM     30  O   UNL     1       1.942   3.813  -5.931  1.00  0.00    -0.269 OA
BRANCH  28  31
ATOM     31  C   UNL     1       4.170   4.502  -6.230  1.00  0.00     0.039 A 
ATOM     32  C   UNL     1       3.917   5.877  -6.258  1.00  0.00     0.014 A 
ATOM     33  C   UNL     1       5.381   4.011  -6.725  1.00  0.00     0.014 A 
ATOM     34  C   UNL     1       4.903   6.758  -6.709  1.00  0.00     0.010 A 
ATOM     35  C   UNL     1       6.395   4.895  -7.092  1.00  0.00     0.010 A 
ATOM     36  C   UNL     1       6.168   6.279  -7.088  1.00  0.00    -0.014 A 
BRANCH  36  37
ATOM     37  C   UNL     1       7.263   7.214  -7.464  1.00  0.00     0.031 A 
ATOM     38  C   UNL     1       7.859   7.183  -8.847  1.00  0.00     0.074 A 
ATOM     39  C   UNL     1       7.759   8.060  -6.538  1.00  0.00     0.049 A 
ATOM     40  N   UNL     1       8.836   7.901  -9.338  1.00  0.00    -0.248 NA
ATOM     41  C   UNL     1       7.300   6.204  -9.793  1.00  0.00     0.031 C 
ATOM     42  C   UNL     1       7.299   8.163  -5.151  1.00  0.00     0.029 A 
ATOM     43  N   UNL     1       8.759   8.997  -6.623  1.00  0.00    -0.354 N 
ATOM     44  C   UNL     1       9.016   7.457 -10.644  1.00  0.00     0.074 A 
ATOM     45  C   UNL     1       8.085   6.369 -10.849  1.00  0.00     0.031 C 
ATOM     46  C   UNL     1       7.989   9.131  -4.528  1.00  0.00     0.029 A 
ATOM     47  C   UNL     1       8.972   9.687  -5.452  1.00  0.00     0.049 A 
ATOM     48  H   UNL     1       9.277   9.159  -7.445  1.00  0.00     0.167 HD
ATOM     49  C   UNL     1       9.863   7.924 -11.593  1.00  0.00     0.031 A 
ATOM     50  C   UNL     1       9.860  10.654  -5.150  1.00  0.00     0.031 A 
ATOM     51  C   UNL     1      10.789   9.007 -11.386  1.00  0.00     0.049 A 
ATOM     52  C   UNL     1      10.808  11.138  -6.213  1.00  0.00     0.074 A 
ATOM     53  C   UNL     1      11.654   9.584 -12.301  1.00  0.00     0.029 A 
ATOM     54  N   UNL     1      10.978   9.673 -10.185  1.00  0.00    -0.354 N 
ATOM     55  N   UNL     1      10.915  10.749  -7.461  1.00  0.00    -0.248 NA
ATOM     56  C   UNL     1      11.746  12.201  -5.829  1.00  0.00     0.031 C 
ATOM     57  C   UNL     1      12.409  10.556 -11.636  1.00  0.00     0.029 A 
ATOM     58  C   UNL     1      11.965  10.635 -10.326  1.00  0.00     0.049 A 
ATOM     59  H   UNL     1      10.483   9.490  -9.354  1.00  0.00     0.167 HD
ATOM     60  C   UNL     1      11.913  11.540  -8.019  1.00  0.00     0.074 A 
ATOM     61  C   UNL     1      12.363  12.441  -6.978  1.00  0.00     0.031 C 
ATOM     62  C   UNL     1      12.411  11.522  -9.280  1.00  0.00     0.031 A 
BRANCH  49  63
ATOM     63  C   UNL     1       9.832   7.258 -12.945  1.00  0.00    -0.014 A 
ATOM     64  C   UNL     1       8.721   7.393 -13.798  1.00  0.00     0.010 A 
ATOM     65  C   UNL     1      10.947   6.524 -13.390  1.00  0.00     0.010 A 
ATOM     66  C   UNL     1       8.708   6.772 -15.050  1.00  0.00     0.020 A 
ATOM     67  C   UNL     1      10.951   5.928 -14.655  1.00  0.00     0.020 A 
ATOM     68  C   UNL     1       9.824   6.042 -15.470  1.00  0.00     0.054 A 
BRANCH  68  69
ATOM     69  S   UNL     1       9.786   5.266 -17.109  1.00  0.00     0.124 S 
ATOM     70  O   UNL     1       8.826   4.184 -16.908  1.00  0.00    -0.237 OA
ATOM     71  O   UNL     1       9.331   6.357 -17.968  1.00  0.00    -0.237 OA
ATOM     72  O   UNL     1      11.167   4.841 -17.325  1.00  0.00    -0.744 OA
ENDBRANCH  68  69
ENDBRANCH  49  63
BRANCH  50  73
ATOM     73  C   UNL     1       9.886  11.239  -3.780  1.00  0.00    -0.014 A 
ATOM     74  C   UNL     1       9.479  12.567  -3.561  1.00  0.00     0.010 A 
ATOM     75  C   UNL     1      10.311  10.466  -2.684  1.00  0.00     0.010 A 
ATOM     76  C   UNL     1       9.514  13.116  -2.276  1.00  0.00     0.020 A 
ATOM     77  C   UNL     1      10.318  11.001  -1.393  1.00  0.00     0.020 A 
ATOM     78  C   UNL     1       9.930  12.328  -1.199  1.00  0.00     0.054 A 
BRANCH  78  79
ATOM     79  S   UNL     1       9.918  13.046   0.467  1.00  0.00     0.124 S 
ATOM     80  O   UNL     1      11.043  13.973   0.407  1.00  0.00    -0.237 OA
ATOM     81  O   UNL     1       8.593  13.659   0.535  1.00  0.00    -0.237 OA
ATOM     82  O   UNL     1      10.104  11.888   1.339  1.00  0.00    -0.744 OA
ENDBRANCH  78  79
ENDBRANCH  50  73
BRANCH  62  83
ATOM     83  C   UNL     1      13.480  12.530  -9.617  1.00  0.00    -0.014 A 
ATOM     84  C   UNL     1      14.775  12.433  -9.079  1.00  0.00     0.010 A 
ATOM     85  C   UNL     1      13.191  13.570 -10.520  1.00  0.00     0.010 A 
ATOM     86  C   UNL     1      15.749  13.381  -9.404  1.00  0.00     0.020 A 
ATOM     87  C   UNL     1      14.171  14.501 -10.874  1.00  0.00     0.020 A 
ATOM     88  C   UNL     1      15.440  14.410 -10.299  1.00  0.00     0.054 A 
BRANCH  88  89
ATOM     89  S   UNL     1      16.731  15.610 -10.728  1.00  0.00     0.124 S 
ATOM     90  O   UNL     1      16.837  16.393  -9.500  1.00  0.00    -0.237 OA
ATOM     91  O   UNL     1      17.876  14.754 -11.029  1.00  0.00    -0.237 OA
ATOM     92  O   UNL     1      16.175  16.323 -11.876  1.00  0.00    -0.744 OA
ENDBRANCH  88  89
ENDBRANCH  62  83
ENDBRANCH  36  37
ENDBRANCH  28  31
ENDBRANCH  26  27
ENDBRANCH  25  26
ENDBRANCH   1  25
TORSDOF 18
