REMARK SMILES C[C@]12c3ccccc3[C@](C)(c3ccccc31)[C@@H]1C(=O)N(c3ccc(C(=O)NCCCNC(=O)c4ccc(-c5c6nc(c(-c7ccc(S(=O)(=O)[O-])cc7)c7ccc([nH]7)c(-c7ccc(S(=O)(=O)[O-])cc7)c7nc(c(-c8ccc(S(=O)(=O)[O-])cc8)c8ccc5[nH]8)C=C7)C=C6)cc4)cc3)C(=O)[C@H]12
REMARK SMILES IDX 30 1 29 2 28 3 27 4 25 5 26 6 24 8 21 9 22 10 95 11 23 12
REMARK SMILES IDX 94 13 20 14 1 15 2 16 16 17 3 18 98 19 15 20 11 21 8 22 4 23
REMARK SMILES IDX 17 24 96 25 14 26 12 27 9 28 7 29 5 30 18 31 97 32 13 33
REMARK SMILES IDX 10 34 6 35 19 36 31 37 32 38 33 40 34 41 35 42 93 43 36 44
REMARK SMILES IDX 92 45 37 46 38 47 39 48 86 49 40 50 91 51 85 52 87 53 41 54
REMARK SMILES IDX 90 55 84 56 83 57 42 59 72 60 53 61 71 62 54 63 57 64 70 65
REMARK SMILES IDX 88 66 55 67 56 68 69 70 89 71 58 72 43 73 44 74 52 75 45 76
REMARK SMILES IDX 51 77 46 78 47 79 48 80 49 81 50 82 73 83 74 84 82 85 75 86
REMARK SMILES IDX 81 87 76 88 77 89 78 90 79 91 80 92 59 93 60 94 68 95 61 96
REMARK SMILES IDX 67 97 62 98 63 99 64 100 65 101 66 102
REMARK H PARENT 27 7 31 39 87 58 57 69
REMARK Flexibility Score: inf
ROOT
ATOM      1  C   UNL     1       1.193  10.387   5.892  1.00  0.00     0.118 C 
ENDROOT
BRANCH   1   2
ATOM      2  C   UNL     1       1.208   8.882   5.685  1.00  0.00     0.042 C 
BRANCH   2   3
ATOM      3  C   UNL     1      -0.150   8.215   5.817  1.00  0.00     0.118 C 
BRANCH   3   4
ATOM      4  N   UNL     1      -1.131   8.684   4.846  1.00  0.00    -0.352 N 
ATOM      5  C   UNL     1      -1.881   8.022   3.906  1.00  0.00     0.251 C 
ATOM      6  O   UNL     1      -2.611   8.676   3.163  1.00  0.00    -0.269 OA
ATOM      7  H   UNL     1      -1.283   9.657   4.868  1.00  0.00     0.163 HD
BRANCH   5   8
ATOM      8  C   UNL     1      -1.793   6.554   3.725  1.00  0.00     0.039 A 
ATOM      9  C   UNL     1      -1.350   3.819   3.238  1.00  0.00     0.052 A 
ATOM     10  C   UNL     1      -1.615   4.696   2.179  1.00  0.00     0.027 A 
ATOM     11  C   UNL     1      -1.422   4.310   4.548  1.00  0.00     0.027 A 
ATOM     12  C   UNL     1      -1.846   6.053   2.421  1.00  0.00     0.016 A 
ATOM     13  C   UNL     1      -1.665   5.664   4.790  1.00  0.00     0.016 A 
BRANCH   9  14
ATOM     14  N   UNL     1      -0.966   2.482   3.000  1.00  0.00    -0.250 N 
ATOM     15  C   UNL     1       0.917  -0.123  -0.172  1.00  0.00     0.022 C 
ATOM     16  C   UNL     1       0.557  -0.514   1.260  1.00  0.00     0.030 C 
ATOM     17  C   UNL     1       1.753  -0.936   2.152  1.00  0.00    -0.033 A 
ATOM     18  C   UNL     1      -0.444  -1.710   1.385  1.00  0.00    -0.033 A 
ATOM     19  C   UNL     1      -0.307   0.566   1.952  1.00  0.00     0.108 C 
ATOM     20  C   UNL     1       3.088  -0.996   1.764  1.00  0.00     0.005 A 
ATOM     21  C   UNL     1       1.386  -1.343   3.482  1.00  0.00    -0.033 A 
ATOM     22  C   UNL     1      -0.865  -1.959   2.738  1.00  0.00    -0.033 A 
ATOM     23  C   UNL     1      -0.962  -2.460   0.333  1.00  0.00     0.005 A 
ATOM     24  C   UNL     1      -0.197   0.393   3.466  1.00  0.00     0.108 C 
ATOM     25  C   UNL     1      -0.256   2.057   1.865  1.00  0.00     0.238 C 
ATOM     26  C   UNL     1       4.045  -1.455   2.675  1.00  0.00     0.000 A 
ATOM     27  C   UNL     1       2.347  -1.814   4.373  1.00  0.00     0.005 A 
ATOM     28  C   UNL     1      -0.124  -1.113   3.803  1.00  0.00     0.030 C 
ATOM     29  C   UNL     1      -1.810  -2.948   2.993  1.00  0.00     0.005 A 
ATOM     30  C   UNL     1      -1.902  -3.451   0.613  1.00  0.00     0.000 A 
ATOM     31  C   UNL     1      -1.172   1.431   3.904  1.00  0.00     0.238 C 
ATOM     32  O   UNL     1       0.214   2.701   0.946  1.00  0.00    -0.274 OA
ATOM     33  C   UNL     1       3.677  -1.867   3.961  1.00  0.00     0.000 A 
ATOM     34  C   UNL     1      -0.519  -1.390   5.253  1.00  0.00     0.022 C 
ATOM     35  C   UNL     1      -2.326  -3.688   1.927  1.00  0.00     0.000 A 
ATOM     36  O   UNL     1      -1.892   1.374   4.887  1.00  0.00    -0.274 OA
ENDBRANCH   9  14
ENDBRANCH   5   8
ENDBRANCH   3   4
ENDBRANCH   2   3
ENDBRANCH   1   2
BRANCH   1  37
ATOM     37  N   UNL     1       0.825  10.785   7.248  1.00  0.00    -0.352 N 
ATOM     38  C   UNL     1       1.586  11.275   8.286  1.00  0.00     0.251 C 
ATOM     39  H   UNL     1      -0.133  10.685   7.456  1.00  0.00     0.163 HD
ATOM     40  O   UNL     1       1.083  11.399   9.400  1.00  0.00    -0.269 OA
BRANCH  38  41
ATOM     41  C   UNL     1       3.014  11.604   8.078  1.00  0.00     0.039 A 
ATOM     42  C   UNL     1       3.434  12.226   6.907  1.00  0.00     0.014 A 
ATOM     43  C   UNL     1       3.954  11.255   9.053  1.00  0.00     0.014 A 
ATOM     44  C   UNL     1       4.785  12.254   6.592  1.00  0.00     0.010 A 
ATOM     45  C   UNL     1       5.319  11.420   8.792  1.00  0.00     0.010 A 
ATOM     46  C   UNL     1       5.750  11.853   7.529  1.00  0.00    -0.014 A 
BRANCH  46  47
ATOM     47  C   UNL     1       7.191  11.898   7.158  1.00  0.00     0.031 A 
ATOM     48  C   UNL     1       8.031  10.646   7.166  1.00  0.00     0.074 A 
ATOM     49  C   UNL     1       7.726  13.064   6.741  1.00  0.00     0.049 A 
ATOM     50  N   UNL     1       9.296  10.506   6.859  1.00  0.00    -0.248 NA
ATOM     51  C   UNL     1       7.377   9.390   7.572  1.00  0.00     0.031 C 
ATOM     52  C   UNL     1       7.003  14.336   6.658  1.00  0.00     0.029 A 
ATOM     53  N   UNL     1       8.980  13.368   6.274  1.00  0.00    -0.354 N 
ATOM     54  C   UNL     1       9.590   9.159   7.047  1.00  0.00     0.074 A 
ATOM     55  C   UNL     1       8.385   8.530   7.537  1.00  0.00     0.031 C 
ATOM     56  C   UNL     1       7.798  15.259   6.102  1.00  0.00     0.029 A 
ATOM     57  C   UNL     1       9.118  14.679   5.882  1.00  0.00     0.049 A 
ATOM     58  H   UNL     1       9.712  12.711   6.226  1.00  0.00     0.167 HD
ATOM     59  C   UNL     1      10.753   8.506   6.812  1.00  0.00     0.031 A 
ATOM     60  C   UNL     1      10.185  15.358   5.414  1.00  0.00     0.031 A 
ATOM     61  C   UNL     1      11.943   9.143   6.307  1.00  0.00     0.049 A 
ATOM     62  C   UNL     1      11.482  14.628   5.225  1.00  0.00     0.074 A 
ATOM     63  C   UNL     1      13.170   8.565   6.031  1.00  0.00     0.029 A 
ATOM     64  N   UNL     1      12.058  10.490   5.991  1.00  0.00    -0.354 N 
ATOM     65  N   UNL     1      11.739  13.355   5.414  1.00  0.00    -0.248 NA
ATOM     66  C   UNL     1      12.631  15.415   4.761  1.00  0.00     0.031 C 
ATOM     67  C   UNL     1      14.046   9.572   5.626  1.00  0.00     0.029 A 
ATOM     68  C   UNL     1      13.344  10.765   5.556  1.00  0.00     0.049 A 
ATOM     69  H   UNL     1      11.333  11.152   6.066  1.00  0.00     0.167 HD
ATOM     70  C   UNL     1      13.077  13.186   5.080  1.00  0.00     0.074 A 
ATOM     71  C   UNL     1      13.568  14.480   4.653  1.00  0.00     0.031 C 
ATOM     72  C   UNL     1      13.827  12.058   5.130  1.00  0.00     0.031 A 
BRANCH  59  73
ATOM     73  C   UNL     1      10.816   7.022   7.084  1.00  0.00    -0.014 A 
ATOM     74  C   UNL     1      11.686   6.527   8.075  1.00  0.00     0.010 A 
ATOM     75  C   UNL     1      10.116   6.106   6.278  1.00  0.00     0.010 A 
ATOM     76  C   UNL     1      11.887   5.151   8.226  1.00  0.00     0.020 A 
ATOM     77  C   UNL     1      10.287   4.728   6.449  1.00  0.00     0.020 A 
ATOM     78  C   UNL     1      11.192   4.261   7.405  1.00  0.00     0.054 A 
BRANCH  78  79
ATOM     79  S   UNL     1      11.495   2.481   7.589  1.00  0.00     0.124 S 
ATOM     80  O   UNL     1      12.830   2.334   7.019  1.00  0.00    -0.237 OA
ATOM     81  O   UNL     1      11.399   2.290   9.034  1.00  0.00    -0.237 OA
ATOM     82  O   UNL     1      10.415   1.868   6.817  1.00  0.00    -0.744 OA
ENDBRANCH  78  79
ENDBRANCH  59  73
BRANCH  60  83
ATOM     83  C   UNL     1      10.031  16.804   5.087  1.00  0.00    -0.014 A 
ATOM     84  C   UNL     1       9.715  17.731   6.101  1.00  0.00     0.010 A 
ATOM     85  C   UNL     1      10.071  17.243   3.753  1.00  0.00     0.010 A 
ATOM     86  C   UNL     1       9.357  19.042   5.781  1.00  0.00     0.020 A 
ATOM     87  C   UNL     1       9.753  18.568   3.432  1.00  0.00     0.020 A 
ATOM     88  C   UNL     1       9.360  19.446   4.444  1.00  0.00     0.054 A 
BRANCH  88  89
ATOM     89  S   UNL     1       8.801  21.125   4.047  1.00  0.00     0.124 S 
ATOM     90  O   UNL     1       7.361  21.021   4.270  1.00  0.00    -0.237 OA
ATOM     91  O   UNL     1       9.531  21.940   5.014  1.00  0.00    -0.237 OA
ATOM     92  O   UNL     1       9.206  21.301   2.655  1.00  0.00    -0.744 OA
ENDBRANCH  88  89
ENDBRANCH  60  83
BRANCH  72  93
ATOM     93  C   UNL     1      15.276  12.144   4.719  1.00  0.00    -0.014 A 
ATOM     94  C   UNL     1      15.725  11.426   3.594  1.00  0.00     0.010 A 
ATOM     95  C   UNL     1      16.216  12.806   5.527  1.00  0.00     0.010 A 
ATOM     96  C   UNL     1      17.090  11.321   3.317  1.00  0.00     0.020 A 
ATOM     97  C   UNL     1      17.581  12.735   5.232  1.00  0.00     0.020 A 
ATOM     98  C   UNL     1      18.010  11.966   4.147  1.00  0.00     0.054 A 
BRANCH  98  99
ATOM     99  S   UNL     1      19.780  11.764   3.808  1.00  0.00     0.124 S 
ATOM    100  O   UNL     1      20.017  10.384   4.222  1.00  0.00    -0.237 OA
ATOM    101  O   UNL     1      19.860  12.013   2.370  1.00  0.00    -0.237 OA
ATOM    102  O   UNL     1      20.409  12.783   4.645  1.00  0.00    -0.744 OA
ENDBRANCH  98  99
ENDBRANCH  72  93
ENDBRANCH  46  47
ENDBRANCH  38  41
ENDBRANCH   1  37
TORSDOF 14
