REMARK SMILES C[C@@H]1CCN(c2cncc(C(=O)NCCCNC(=O)c3ccc(-c4c5nc(c(-c6ccc(S(=O)(=O)[O-])cc6)c6ccc([nH]6)c(-c6ccc(S(=O)(=O)[O-])cc6)c6nc(c(-c7ccc(S(=O)(=O)[O-])cc7)c7ccc4[nH]7)C=C6)C=C5)cc3)n2)[C@H](C)C1
REMARK SMILES IDX 16 1 15 2 14 3 13 4 11 5 12 6 10 8 6 9 7 10 80 11 8 12 9 13
REMARK SMILES IDX 5 14 1 15 2 16 3 17 83 18 4 19 81 20 82 21 17 22 18 23 19 25
REMARK SMILES IDX 20 26 21 27 79 28 22 29 78 30 23 31 24 32 25 33 72 34 26 35
REMARK SMILES IDX 77 36 71 37 73 38 27 39 76 40 70 41 69 42 28 44 58 45 39 46
REMARK SMILES IDX 57 47 40 48 43 49 56 50 74 51 41 52 42 53 55 55 75 56 44 57
REMARK SMILES IDX 29 58 30 59 38 60 31 61 37 62 32 63 33 64 34 65 35 66 36 67
REMARK SMILES IDX 59 68 60 69 68 70 61 71 67 72 62 73 63 74 64 75 65 76 66 77
REMARK SMILES IDX 45 78 46 79 54 80 47 81 53 82 48 83 49 84 50 85 51 86 52 87
REMARK H PARENT 13 7 17 24 73 43 43 54
REMARK Flexibility Score: inf
ROOT
ATOM      1  C   UNL     1       6.606  -5.263   3.459  1.00  0.00     0.118 C 
ENDROOT
BRANCH   1   2
ATOM      2  C   UNL     1       5.297  -4.875   2.772  1.00  0.00     0.042 C 
BRANCH   2   3
ATOM      3  C   UNL     1       4.776  -5.923   1.792  1.00  0.00     0.118 C 
BRANCH   3   4
ATOM      4  N   UNL     1       4.268  -7.104   2.467  1.00  0.00    -0.351 N 
ATOM      5  C   UNL     1       2.983  -7.474   2.790  1.00  0.00     0.271 C 
ATOM      6  O   UNL     1       2.834  -8.569   3.340  1.00  0.00    -0.267 OA
ATOM      7  H   UNL     1       4.960  -7.749   2.739  1.00  0.00     0.163 HD
BRANCH   5   8
ATOM      8  C   UNL     1       1.782  -6.632   2.510  1.00  0.00     0.148 A 
ATOM      9  C   UNL     1       0.791  -4.668   1.786  1.00  0.00     0.148 A 
ATOM     10  C   UNL     1      -0.447  -5.227   2.134  1.00  0.00     0.157 A 
ATOM     11  N   UNL     1       1.919  -5.394   1.965  1.00  0.00    -0.222 NA
ATOM     12  N   UNL     1      -0.614  -6.467   2.657  1.00  0.00    -0.258 NA
ATOM     13  C   UNL     1       0.537  -7.153   2.842  1.00  0.00     0.145 A 
BRANCH   9  14
ATOM     14  N   UNL     1       0.880  -3.411   1.226  1.00  0.00    -0.353 N 
ATOM     15  C   UNL     1       1.044   0.046  -0.276  1.00  0.00     0.008 C 
ATOM     16  C   UNL     1       0.214  -1.215  -0.525  1.00  0.00    -0.011 C 
ATOM     17  C   UNL     1      -0.646  -1.588   0.694  1.00  0.00     0.025 C 
ATOM     18  C   UNL     1       1.059  -2.417  -0.990  1.00  0.00     0.028 C 
ATOM     19  C   UNL     1       0.157  -2.281   1.794  1.00  0.00     0.118 C 
ATOM     20  C   UNL     1       1.812  -3.168   0.125  1.00  0.00     0.081 C 
ATOM     21  C   UNL     1       3.071  -2.444   0.587  1.00  0.00     0.031 C 
ENDBRANCH   9  14
ENDBRANCH   5   8
ENDBRANCH   3   4
ENDBRANCH   2   3
ENDBRANCH   1   2
BRANCH   1  22
ATOM     22  N   UNL     1       7.694  -5.433   2.504  1.00  0.00    -0.352 N 
ATOM     23  C   UNL     1       8.900  -4.801   2.393  1.00  0.00     0.251 C 
ATOM     24  H   UNL     1       7.531  -6.123   1.821  1.00  0.00     0.163 HD
ATOM     25  O   UNL     1       9.544  -4.945   1.346  1.00  0.00    -0.269 OA
BRANCH  23  26
ATOM     26  C   UNL     1       9.457  -3.970   3.482  1.00  0.00     0.039 A 
ATOM     27  C   UNL     1      10.260  -2.875   3.143  1.00  0.00     0.014 A 
ATOM     28  C   UNL     1       9.289  -4.311   4.827  1.00  0.00     0.014 A 
ATOM     29  C   UNL     1      10.877  -2.120   4.143  1.00  0.00     0.010 A 
ATOM     30  C   UNL     1       9.846  -3.514   5.827  1.00  0.00     0.010 A 
ATOM     31  C   UNL     1      10.669  -2.429   5.495  1.00  0.00    -0.014 A 
BRANCH  31  32
ATOM     32  C   UNL     1      11.352  -1.659   6.567  1.00  0.00     0.031 A 
ATOM     33  C   UNL     1      12.386  -2.329   7.435  1.00  0.00     0.074 A 
ATOM     34  C   UNL     1      11.027  -0.369   6.777  1.00  0.00     0.049 A 
ATOM     35  N   UNL     1      13.077  -1.831   8.429  1.00  0.00    -0.248 NA
ATOM     36  C   UNL     1      12.664  -3.749   7.164  1.00  0.00     0.031 C 
ATOM     37  C   UNL     1      10.020   0.384   6.025  1.00  0.00     0.029 A 
ATOM     38  N   UNL     1      11.513   0.538   7.683  1.00  0.00    -0.354 N 
ATOM     39  C   UNL     1      13.853  -2.879   8.913  1.00  0.00     0.074 A 
ATOM     40  C   UNL     1      13.512  -4.050   8.136  1.00  0.00     0.031 C 
ATOM     41  C   UNL     1       9.989   1.648   6.479  1.00  0.00     0.029 A 
ATOM     42  C   UNL     1      10.948   1.786   7.571  1.00  0.00     0.049 A 
ATOM     43  H   UNL     1      12.202   0.317   8.351  1.00  0.00     0.167 HD
ATOM     44  C   UNL     1      14.783  -2.865   9.900  1.00  0.00     0.031 A 
ATOM     45  C   UNL     1      11.183   2.918   8.262  1.00  0.00     0.031 A 
ATOM     46  C   UNL     1      15.134  -1.696  10.660  1.00  0.00     0.049 A 
ATOM     47  C   UNL     1      12.232   2.915   9.340  1.00  0.00     0.074 A 
ATOM     48  C   UNL     1      16.086  -1.567  11.656  1.00  0.00     0.029 A 
ATOM     49  N   UNL     1      14.551  -0.448  10.500  1.00  0.00    -0.354 N 
ATOM     50  N   UNL     1      12.984   1.923   9.756  1.00  0.00    -0.248 NA
ATOM     51  C   UNL     1      12.478   4.190  10.026  1.00  0.00     0.031 C 
ATOM     52  C   UNL     1      16.057  -0.247  12.121  1.00  0.00     0.029 A 
ATOM     53  C   UNL     1      15.120   0.457  11.381  1.00  0.00     0.049 A 
ATOM     54  H   UNL     1      13.838  -0.236   9.856  1.00  0.00     0.167 HD
ATOM     55  C   UNL     1      13.816   2.464  10.729  1.00  0.00     0.074 A 
ATOM     56  C   UNL     1      13.481   3.870  10.833  1.00  0.00     0.031 C 
ATOM     57  C   UNL     1      14.777   1.853  11.467  1.00  0.00     0.031 A 
BRANCH  44  58
ATOM     58  C   UNL     1      15.480  -4.165  10.208  1.00  0.00    -0.014 A 
ATOM     59  C   UNL     1      16.402  -4.725   9.304  1.00  0.00     0.010 A 
ATOM     60  C   UNL     1      15.219  -4.832  11.419  1.00  0.00     0.010 A 
ATOM     61  C   UNL     1      17.009  -5.953   9.580  1.00  0.00     0.020 A 
ATOM     62  C   UNL     1      15.846  -6.047  11.711  1.00  0.00     0.020 A 
ATOM     63  C   UNL     1      16.720  -6.611  10.779  1.00  0.00     0.054 A 
BRANCH  63  64
ATOM     64  S   UNL     1      17.520  -8.204  11.114  1.00  0.00     0.124 S 
ATOM     65  O   UNL     1      16.761  -9.108  10.252  1.00  0.00    -0.237 OA
ATOM     66  O   UNL     1      18.902  -7.964  10.708  1.00  0.00    -0.237 OA
ATOM     67  O   UNL     1      17.320  -8.397  12.548  1.00  0.00    -0.744 OA
ENDBRANCH  63  64
ENDBRANCH  44  58
BRANCH  45  68
ATOM     68  C   UNL     1      10.441   4.162   7.922  1.00  0.00    -0.014 A 
ATOM     69  C   UNL     1      11.092   5.215   7.255  1.00  0.00     0.010 A 
ATOM     70  C   UNL     1       9.079   4.293   8.244  1.00  0.00     0.010 A 
ATOM     71  C   UNL     1      10.399   6.385   6.933  1.00  0.00     0.020 A 
ATOM     72  C   UNL     1       8.376   5.452   7.901  1.00  0.00     0.020 A 
ATOM     73  C   UNL     1       9.044   6.495   7.257  1.00  0.00     0.054 A 
BRANCH  73  74
ATOM     74  S   UNL     1       8.149   8.000   6.780  1.00  0.00     0.124 S 
ATOM     75  O   UNL     1       8.617   8.960   7.775  1.00  0.00    -0.237 OA
ATOM     76  O   UNL     1       8.614   8.226   5.414  1.00  0.00    -0.237 OA
ATOM     77  O   UNL     1       6.745   7.611   6.895  1.00  0.00    -0.744 OA
ENDBRANCH  73  74
ENDBRANCH  45  68
BRANCH  57  78
ATOM     78  C   UNL     1      15.565   2.714  12.415  1.00  0.00    -0.014 A 
ATOM     79  C   UNL     1      14.999   3.200  13.606  1.00  0.00     0.010 A 
ATOM     80  C   UNL     1      16.907   3.015  12.119  1.00  0.00     0.010 A 
ATOM     81  C   UNL     1      15.749   4.009  14.465  1.00  0.00     0.020 A 
ATOM     82  C   UNL     1      17.668   3.802  12.987  1.00  0.00     0.020 A 
ATOM     83  C   UNL     1      17.077   4.310  14.146  1.00  0.00     0.054 A 
BRANCH  83  84
ATOM     84  S   UNL     1      18.040   5.343  15.284  1.00  0.00     0.124 S 
ATOM     85  O   UNL     1      17.533   6.679  14.983  1.00  0.00    -0.237 OA
ATOM     86  O   UNL     1      17.672   4.811  16.594  1.00  0.00    -0.237 OA
ATOM     87  O   UNL     1      19.424   5.096  14.886  1.00  0.00    -0.744 OA
ENDBRANCH  83  84
ENDBRANCH  57  78
ENDBRANCH  31  32
ENDBRANCH  23  26
ENDBRANCH   1  22
TORSDOF 14
