REMARK SMILES CN(C(=O)c1cccn1CC(=O)NCCCNC(=O)c1ccc(-c2c3nc(c(-c4ccc(S(=O)(=O)[O-])cc4)c4ccc([nH]4)c(-c4ccc(S(=O)(=O)[O-])cc4)c4nc(c(-c5ccc(S(=O)(=O)[O-])cc5)c5ccc2[nH]5)C=C4)C=C3)cc1)c1ccc(F)cc1
REMARK SMILES IDX 14 1 13 2 11 3 12 4 10 6 9 7 5 8 6 9 7 10 8 11 3 12 4 13
REMARK SMILES IDX 2 14 1 15 80 16 81 17 86 18 82 19 85 20 83 21 84 22 15 23
REMARK SMILES IDX 16 24 17 25 18 26 19 28 20 29 21 30 79 31 22 32 78 33 23 34
REMARK SMILES IDX 24 35 25 36 72 37 26 38 77 39 71 40 73 41 27 42 76 43 70 44
REMARK SMILES IDX 69 45 28 47 58 48 39 49 57 50 40 51 43 52 56 53 74 54 41 55
REMARK SMILES IDX 42 56 55 58 75 59 44 60 29 61 30 62 38 63 31 64 37 65 32 66
REMARK SMILES IDX 33 67 34 68 35 69 36 70 59 71 60 72 68 73 61 74 67 75 62 76
REMARK SMILES IDX 63 77 64 78 65 79 66 80 45 81 46 82 54 83 47 84 53 85 48 86
REMARK SMILES IDX 49 87 50 88 51 89 52 90
REMARK H PARENT 13 5 17 27 73 46 43 57
REMARK Flexibility Score: inf
ROOT
ATOM      1  C   UNL     1       2.311  -0.851   3.828  1.00  0.00     0.117 C 
ENDROOT
BRANCH   1   2
ATOM      2  N   UNL     1       1.783  -0.958   5.173  1.00  0.00    -0.354 N 
ATOM      3  C   UNL     1       0.506  -1.242   5.572  1.00  0.00     0.239 C 
ATOM      4  O   UNL     1       0.263  -1.273   6.779  1.00  0.00    -0.273 OA
ATOM      5  H   UNL     1       2.430  -0.804   5.898  1.00  0.00     0.163 HD
BRANCH   3   6
ATOM      6  C   UNL     1      -0.555  -1.586   4.548  1.00  0.00     0.222 C 
BRANCH   6   7
ATOM      7  N   UNL     1      -0.942  -0.462   3.700  1.00  0.00    -0.334 N 
ATOM      8  C   UNL     1      -0.933  -0.426   2.310  1.00  0.00     0.108 A 
ATOM      9  C   UNL     1      -1.417   0.826   1.954  1.00  0.00     0.033 A 
ATOM     10  C   UNL     1      -1.682   1.560   3.132  1.00  0.00     0.020 A 
ATOM     11  C   UNL     1      -1.403   0.735   4.194  1.00  0.00     0.087 A 
BRANCH   8  12
ATOM     12  C   UNL     1      -0.574  -1.564   1.468  1.00  0.00     0.274 C 
ATOM     13  O   UNL     1      -1.018  -2.671   1.759  1.00  0.00    -0.267 OA
BRANCH  12  14
ATOM     14  N   UNL     1       0.348  -1.378   0.405  1.00  0.00    -0.310 N 
ATOM     15  C   UNL     1       1.031  -0.113   0.119  1.00  0.00     0.153 C 
BRANCH  14  16
ATOM     16  C   UNL     1       0.699  -2.495  -0.440  1.00  0.00     0.044 A 
ATOM     17  C   UNL     1      -0.253  -3.467  -0.785  1.00  0.00     0.029 A 
ATOM     18  C   UNL     1       2.004  -2.648  -0.944  1.00  0.00     0.029 A 
ATOM     19  C   UNL     1       0.085  -4.564  -1.583  1.00  0.00     0.041 A 
ATOM     20  C   UNL     1       2.348  -3.753  -1.731  1.00  0.00     0.041 A 
ATOM     21  C   UNL     1       1.385  -4.701  -2.042  1.00  0.00     0.123 A 
ATOM     22  F   UNL     1       1.715  -5.759  -2.795  1.00  0.00    -0.207 F 
ENDBRANCH  14  16
ENDBRANCH  12  14
ENDBRANCH   8  12
ENDBRANCH   6   7
ENDBRANCH   3   6
ENDBRANCH   1   2
BRANCH   1  23
ATOM     23  C   UNL     1       2.450   0.606   3.382  1.00  0.00     0.042 C 
BRANCH  23  24
ATOM     24  C   UNL     1       3.679   1.281   3.982  1.00  0.00     0.118 C 
BRANCH  24  25
ATOM     25  N   UNL     1       4.889   0.736   3.381  1.00  0.00    -0.352 N 
ATOM     26  C   UNL     1       6.189   1.159   3.454  1.00  0.00     0.251 C 
ATOM     27  H   UNL     1       4.748  -0.068   2.832  1.00  0.00     0.163 HD
ATOM     28  O   UNL     1       6.963   0.793   2.574  1.00  0.00    -0.269 OA
BRANCH  26  29
ATOM     29  C   UNL     1       6.676   2.024   4.550  1.00  0.00     0.039 A 
ATOM     30  C   UNL     1       7.748   2.884   4.268  1.00  0.00     0.014 A 
ATOM     31  C   UNL     1       6.178   1.930   5.854  1.00  0.00     0.014 A 
ATOM     32  C   UNL     1       8.280   3.685   5.273  1.00  0.00     0.010 A 
ATOM     33  C   UNL     1       6.696   2.738   6.860  1.00  0.00     0.010 A 
ATOM     34  C   UNL     1       7.730   3.630   6.560  1.00  0.00    -0.014 A 
BRANCH  34  35
ATOM     35  C   UNL     1       8.047   4.709   7.519  1.00  0.00     0.031 A 
ATOM     36  C   UNL     1       7.170   5.960   7.211  1.00  0.00     0.074 A 
ATOM     37  C   UNL     1       9.011   4.439   8.461  1.00  0.00     0.049 A 
ATOM     38  N   UNL     1       7.362   7.204   7.515  1.00  0.00    -0.248 NA
ATOM     39  C   UNL     1       5.923   5.824   6.392  1.00  0.00     0.031 C 
ATOM     40  C   UNL     1       9.699   3.132   8.626  1.00  0.00     0.029 A 
ATOM     41  N   UNL     1       9.609   5.168   9.472  1.00  0.00    -0.354 N 
ATOM     42  C   UNL     1       6.207   7.938   7.139  1.00  0.00     0.074 A 
ATOM     43  C   UNL     1       5.402   7.054   6.360  1.00  0.00     0.031 C 
ATOM     44  C   UNL     1      10.658   3.193   9.583  1.00  0.00     0.029 A 
ATOM     45  C   UNL     1      10.680   4.522  10.164  1.00  0.00     0.049 A 
ATOM     46  H   UNL     1       9.314   6.079   9.703  1.00  0.00     0.167 HD
ATOM     47  C   UNL     1       5.932   9.185   7.627  1.00  0.00     0.031 A 
ATOM     48  C   UNL     1      11.538   5.039  11.106  1.00  0.00     0.031 A 
ATOM     49  C   UNL     1       7.015   9.615   8.443  1.00  0.00     0.049 A 
ATOM     50  C   UNL     1      10.967   6.349  11.440  1.00  0.00     0.074 A 
ATOM     51  C   UNL     1       8.306   9.960   8.144  1.00  0.00     0.029 A 
ATOM     52  N   UNL     1       6.916   9.291   9.775  1.00  0.00    -0.354 N 
ATOM     53  N   UNL     1       9.896   6.529  12.150  1.00  0.00    -0.248 NA
ATOM     54  C   UNL     1      11.594   7.557  10.888  1.00  0.00     0.031 C 
ATOM     55  C   UNL     1       9.031   9.293   9.150  1.00  0.00     0.029 A 
ATOM     56  C   UNL     1       8.157   8.858  10.155  1.00  0.00     0.049 A 
ATOM     57  H   UNL     1       6.113   9.357  10.342  1.00  0.00     0.167 HD
ATOM     58  C   UNL     1       9.515   7.786  11.767  1.00  0.00     0.074 A 
ATOM     59  C   UNL     1      10.714   8.461  11.309  1.00  0.00     0.031 C 
ATOM     60  C   UNL     1       8.257   7.982  11.293  1.00  0.00     0.031 A 
BRANCH  47  61
ATOM     61  C   UNL     1       4.673  10.012   7.709  1.00  0.00    -0.014 A 
ATOM     62  C   UNL     1       4.832  11.353   8.154  1.00  0.00     0.010 A 
ATOM     63  C   UNL     1       3.384   9.466   7.757  1.00  0.00     0.010 A 
ATOM     64  C   UNL     1       3.802  12.051   8.783  1.00  0.00     0.020 A 
ATOM     65  C   UNL     1       2.326  10.185   8.347  1.00  0.00     0.020 A 
ATOM     66  C   UNL     1       2.559  11.445   8.908  1.00  0.00     0.054 A 
BRANCH  66  67
ATOM     67  S   UNL     1       1.290  12.308   9.876  1.00  0.00     0.124 S 
ATOM     68  O   UNL     1       1.806  12.188  11.236  1.00  0.00    -0.237 OA
ATOM     69  O   UNL     1       1.325  13.656   9.311  1.00  0.00    -0.237 OA
ATOM     70  O   UNL     1       0.072  11.555   9.592  1.00  0.00    -0.744 OA
ENDBRANCH  66  67
ENDBRANCH  47  61
BRANCH  48  71
ATOM     71  C   UNL     1      12.858   4.739  11.805  1.00  0.00    -0.014 A 
ATOM     72  C   UNL     1      13.635   3.581  11.695  1.00  0.00     0.010 A 
ATOM     73  C   UNL     1      13.466   5.804  12.543  1.00  0.00     0.010 A 
ATOM     74  C   UNL     1      14.989   3.565  12.137  1.00  0.00     0.020 A 
ATOM     75  C   UNL     1      14.809   5.825  12.927  1.00  0.00     0.020 A 
ATOM     76  C   UNL     1      15.584   4.710  12.686  1.00  0.00     0.054 A 
BRANCH  76  77
ATOM     77  S   UNL     1      17.384   4.820  12.935  1.00  0.00     0.124 S 
ATOM     78  O   UNL     1      17.571   4.140  14.212  1.00  0.00    -0.237 OA
ATOM     79  O   UNL     1      17.913   4.126  11.764  1.00  0.00    -0.237 OA
ATOM     80  O   UNL     1      17.640   6.260  12.954  1.00  0.00    -0.744 OA
ENDBRANCH  76  77
ENDBRANCH  48  71
BRANCH  60  81
ATOM     81  C   UNL     1       7.197   6.984  11.756  1.00  0.00    -0.014 A 
ATOM     82  C   UNL     1       6.983   6.801  13.136  1.00  0.00     0.010 A 
ATOM     83  C   UNL     1       6.454   6.162  10.883  1.00  0.00     0.010 A 
ATOM     84  C   UNL     1       6.079   5.846  13.627  1.00  0.00     0.020 A 
ATOM     85  C   UNL     1       5.545   5.195  11.364  1.00  0.00     0.020 A 
ATOM     86  C   UNL     1       5.361   5.046  12.739  1.00  0.00     0.054 A 
BRANCH  86  87
ATOM     87  S   UNL     1       4.195   3.823  13.415  1.00  0.00     0.124 S 
ATOM     88  O   UNL     1       5.049   2.995  14.263  1.00  0.00    -0.237 OA
ATOM     89  O   UNL     1       3.235   4.662  14.128  1.00  0.00    -0.237 OA
ATOM     90  O   UNL     1       3.668   3.148  12.230  1.00  0.00    -0.744 OA
ENDBRANCH  86  87
ENDBRANCH  60  81
ENDBRANCH  34  35
ENDBRANCH  26  29
ENDBRANCH  24  25
ENDBRANCH  23  24
ENDBRANCH   1  23
TORSDOF 17
