REMARK SMILES C[C@]12CC[C@H]3[C@@H](CCC4=CC(=O)C=C[C@@]43C)[C@@H]1CC[C@H]2O[C@@H]1O[C@H](C(=O)NCCCNC(=O)c2ccc(-c3c4nc(c(-c5ccc(S(=O)(=O)[O-])cc5)c5ccc([nH]5)c(-c5ccc(S(=O)(=O)[O-])cc5)c5nc(c(-c6ccc(S(=O)(=O)[O-])cc6)c6ccc3[nH]6)C=C5)C=C4)cc2)[C@@H](O)[C@H](O)[C@H]1O
REMARK SMILES IDX 29 1 28 2 27 3 25 4 26 5 24 7 22 8 23 9 98 10 96 11 94 12
REMARK SMILES IDX 21 13 20 14 1 15 2 16 3 17 17 18 4 19 6 20 18 21 19 22 5 23
REMARK SMILES IDX 7 24 15 25 8 26 9 27 14 28 16 29 10 30 13 31 11 32 12 33
REMARK SMILES IDX 99 34 97 36 95 38 30 40 31 41 32 42 33 44 34 45 35 46 93 47
REMARK SMILES IDX 36 48 92 49 37 50 38 51 39 52 86 53 40 54 91 55 85 56 87 57
REMARK SMILES IDX 41 58 90 59 84 60 83 61 42 63 72 64 53 65 71 66 54 67 57 68
REMARK SMILES IDX 70 69 88 70 55 71 56 72 69 74 89 75 58 76 43 77 44 78 52 79
REMARK SMILES IDX 45 80 51 81 46 82 47 83 48 84 49 85 50 86 73 87 74 88 82 89
REMARK SMILES IDX 75 90 81 91 76 92 77 93 78 94 79 95 80 96 59 97 60 98 68 99
REMARK SMILES IDX 61 100 67 101 62 102 63 103 64 104 65 105 66 106
REMARK H PARENT 27 6 99 35 97 37 95 39 31 43 87 62 57 73
REMARK Flexibility Score: inf
ROOT
ATOM      1  C   UNL     1       1.833  -5.463  -4.184  1.00  0.00     0.042 C 
ENDROOT
BRANCH   1   2
ATOM      2  C   UNL     1       2.584  -4.471  -2.486  1.00  0.00     0.117 C 
BRANCH   2   3
ATOM      3  N   UNL     1       3.926  -4.163  -1.830  1.00  0.00    -0.354 N 
ATOM      4  C   UNL     1       4.468  -3.029  -1.269  1.00  0.00     0.252 C 
ATOM      5  O   UNL     1       5.570  -3.167  -0.718  1.00  0.00    -0.272 OA
ATOM      6  H   UNL     1       4.532  -4.938  -1.802  1.00  0.00     0.163 HD
BRANCH   4   7
ATOM      7  C   UNL     1       3.804  -1.617  -1.271  1.00  0.00     0.241 C 
ATOM      8  C   UNL     1       3.094   0.292  -2.597  1.00  0.00     0.282 C 
ATOM      9  O   UNL     1       3.655  -1.025  -2.558  1.00  0.00    -0.334 OA
ATOM     10  C   UNL     1       1.884   0.539  -1.647  1.00  0.00     0.202 C 
ATOM     11  C   UNL     1       2.017  -0.177  -0.298  1.00  0.00     0.180 C 
ATOM     12  C   UNL     1       2.492  -1.622  -0.480  1.00  0.00     0.184 C 
BRANCH   8  13
ATOM     13  O   UNL     1       2.864   0.769  -3.944  1.00  0.00    -0.346 OA
BRANCH  13  14
ATOM     14  C   UNL     1       1.954   0.229  -4.929  1.00  0.00     0.127 C 
ATOM     15  C   UNL     1       1.399  -1.530  -6.712  1.00  0.00     0.014 C 
ATOM     16  C   UNL     1       2.149  -1.250  -5.364  1.00  0.00    -0.003 C 
ATOM     17  C   UNL     1       3.616  -1.692  -5.630  1.00  0.00     0.010 C 
ATOM     18  C   UNL     1       1.397  -1.889  -4.171  1.00  0.00     0.001 C 
ATOM     19  C   UNL     1       3.845  -3.228  -5.726  1.00  0.00     0.006 C 
ATOM     20  C   UNL     1       1.477  -3.378  -4.168  1.00  0.00    -0.003 C 
ATOM     21  C   UNL     1       0.060  -1.161  -4.114  1.00  0.00     0.007 C 
ATOM     22  C   UNL     1       0.446   0.278  -4.548  1.00  0.00     0.033 C 
ATOM     23  C   UNL     1       3.380  -3.843  -4.410  1.00  0.00     0.006 C 
ATOM     24  C   UNL     1       0.457  -4.338  -2.790  1.00  0.00     0.009 C 
ATOM     25  C   UNL     1       4.010  -5.629  -3.917  1.00  0.00     0.010 C 
ATOM     26  C   UNL     1       1.131  -6.115  -2.276  1.00  0.00     0.032 C 
ATOM     27  C   UNL     1       2.940  -6.622  -2.690  1.00  0.00    -0.056 C 
ATOM     28  C   UNL     1       5.451  -5.634  -3.365  1.00  0.00    -0.012 C 
ATOM     29  C   UNL     1       4.384  -6.530  -5.159  1.00  0.00     0.021 C 
ATOM     30  C   UNL     1       3.588  -7.433  -1.831  1.00  0.00     0.052 C 
ATOM     31  C   UNL     1       5.913  -6.539  -2.484  1.00  0.00     0.048 C 
ATOM     32  C   UNL     1       5.073  -7.555  -1.792  1.00  0.00     0.178 C 
ATOM     33  O   UNL     1       5.600  -8.410  -1.086  1.00  0.00    -0.290 OA
ENDBRANCH  13  14
ENDBRANCH   8  13
BRANCH  10  34
ATOM     34  O   UNL     1       1.646   1.937  -1.409  1.00  0.00    -0.385 OA
ATOM     35  H   UNL     1       2.402   2.318  -0.935  1.00  0.00     0.211 HD
ENDBRANCH  10  34
BRANCH  11  36
ATOM     36  O   UNL     1       0.760  -0.194   0.405  1.00  0.00    -0.387 OA
ATOM     37  H   UNL     1       0.105  -0.687  -0.114  1.00  0.00     0.211 HD
ENDBRANCH  11  36
BRANCH  12  38
ATOM     38  O   UNL     1       2.630  -2.282   0.780  1.00  0.00    -0.387 OA
ATOM     39  H   UNL     1       3.288  -1.815   1.318  1.00  0.00     0.211 HD
ENDBRANCH  12  38
ENDBRANCH   4   7
ENDBRANCH   2   3
ENDBRANCH   1   2
BRANCH   1  40
ATOM     40  C   UNL     1       1.558  -6.799  -5.063  1.00  0.00     0.118 C 
BRANCH  40  41
ATOM     41  N   UNL     1       0.991  -8.067  -4.712  1.00  0.00    -0.352 N 
ATOM     42  C   UNL     1       0.466  -8.914  -5.684  1.00  0.00     0.251 C 
ATOM     43  H   UNL     1       0.972  -8.344  -3.767  1.00  0.00     0.163 HD
ATOM     44  O   UNL     1      -0.350  -9.784  -5.392  1.00  0.00    -0.269 OA
BRANCH  42  45
ATOM     45  C   UNL     1       0.894  -8.714  -7.099  1.00  0.00     0.039 A 
ATOM     46  C   UNL     1      -0.038  -8.496  -8.114  1.00  0.00     0.014 A 
ATOM     47  C   UNL     1       2.262  -8.672  -7.390  1.00  0.00     0.014 A 
ATOM     48  C   UNL     1       0.410  -8.252  -9.419  1.00  0.00     0.010 A 
ATOM     49  C   UNL     1       2.702  -8.294  -8.653  1.00  0.00     0.010 A 
ATOM     50  C   UNL     1       1.785  -8.153  -9.701  1.00  0.00    -0.014 A 
BRANCH  50  51
ATOM     51  C   UNL     1       2.286  -8.040 -11.099  1.00  0.00     0.031 A 
ATOM     52  C   UNL     1       3.146  -9.149 -11.663  1.00  0.00     0.074 A 
ATOM     53  C   UNL     1       1.980  -6.965 -11.852  1.00  0.00     0.049 A 
ATOM     54  N   UNL     1       3.667  -9.268 -12.857  1.00  0.00    -0.248 NA
ATOM     55  C   UNL     1       3.499 -10.256 -10.754  1.00  0.00     0.031 C 
ATOM     56  C   UNL     1       1.205  -5.806 -11.399  1.00  0.00     0.029 A 
ATOM     57  N   UNL     1       2.270  -6.676 -13.162  1.00  0.00    -0.354 N 
ATOM     58  C   UNL     1       4.415 -10.442 -12.828  1.00  0.00     0.074 A 
ATOM     59  C   UNL     1       4.354 -10.954 -11.482  1.00  0.00     0.031 C 
ATOM     60  C   UNL     1       1.033  -4.962 -12.430  1.00  0.00     0.029 A 
ATOM     61  C   UNL     1       1.714  -5.497 -13.605  1.00  0.00     0.049 A 
ATOM     62  H   UNL     1       2.824  -7.257 -13.731  1.00  0.00     0.167 HD
ATOM     63  C   UNL     1       5.062 -11.066 -13.840  1.00  0.00     0.031 A 
ATOM     64  C   UNL     1       1.740  -4.923 -14.824  1.00  0.00     0.031 A 
ATOM     65  C   UNL     1       5.087 -10.566 -15.186  1.00  0.00     0.049 A 
ATOM     66  C   UNL     1       2.454  -5.638 -15.941  1.00  0.00     0.074 A 
ATOM     67  C   UNL     1       5.658 -11.137 -16.308  1.00  0.00     0.029 A 
ATOM     68  N   UNL     1       4.508  -9.372 -15.590  1.00  0.00    -0.354 N 
ATOM     69  N   UNL     1       3.092  -6.785 -15.909  1.00  0.00    -0.248 NA
ATOM     70  C   UNL     1       2.439  -4.992 -17.260  1.00  0.00     0.031 C 
ATOM     71  C   UNL     1       5.474 -10.259 -17.380  1.00  0.00     0.029 A 
ATOM     72  C   UNL     1       4.728  -9.175 -16.940  1.00  0.00     0.049 A 
ATOM     73  H   UNL     1       4.013  -8.756 -15.002  1.00  0.00     0.167 HD
ATOM     74  C   UNL     1       3.531  -7.011 -17.209  1.00  0.00     0.074 A 
ATOM     75  C   UNL     1       3.068  -5.891 -18.005  1.00  0.00     0.031 C 
ATOM     76  C   UNL     1       4.253  -8.048 -17.703  1.00  0.00     0.031 A 
BRANCH  63  77
ATOM     77  C   UNL     1       5.785 -12.353 -13.525  1.00  0.00    -0.014 A 
ATOM     78  C   UNL     1       5.083 -13.515 -13.153  1.00  0.00     0.010 A 
ATOM     79  C   UNL     1       7.188 -12.409 -13.623  1.00  0.00     0.010 A 
ATOM     80  C   UNL     1       5.770 -14.692 -12.838  1.00  0.00     0.020 A 
ATOM     81  C   UNL     1       7.877 -13.594 -13.343  1.00  0.00     0.020 A 
ATOM     82  C   UNL     1       7.163 -14.723 -12.936  1.00  0.00     0.054 A 
BRANCH  82  83
ATOM     83  S   UNL     1       8.025 -16.273 -12.551  1.00  0.00     0.124 S 
ATOM     84  O   UNL     1       7.861 -16.357 -11.102  1.00  0.00    -0.237 OA
ATOM     85  O   UNL     1       7.272 -17.256 -13.326  1.00  0.00    -0.237 OA
ATOM     86  O   UNL     1       9.391 -16.034 -13.010  1.00  0.00    -0.744 OA
ENDBRANCH  82  83
ENDBRANCH  63  77
BRANCH  64  87
ATOM     87  C   UNL     1       1.045  -3.624 -15.056  1.00  0.00    -0.014 A 
ATOM     88  C   UNL     1      -0.103  -3.554 -15.867  1.00  0.00     0.010 A 
ATOM     89  C   UNL     1       1.518  -2.447 -14.446  1.00  0.00     0.010 A 
ATOM     90  C   UNL     1      -0.752  -2.332 -16.077  1.00  0.00     0.020 A 
ATOM     91  C   UNL     1       0.854  -1.230 -14.628  1.00  0.00     0.020 A 
ATOM     92  C   UNL     1      -0.272  -1.178 -15.451  1.00  0.00     0.054 A 
BRANCH  92  93
ATOM     93  S   UNL     1      -1.161   0.386 -15.694  1.00  0.00     0.124 S 
ATOM     94  O   UNL     1      -0.843   0.705 -17.081  1.00  0.00    -0.237 OA
ATOM     95  O   UNL     1      -2.546   0.003 -15.432  1.00  0.00    -0.237 OA
ATOM     96  O   UNL     1      -0.570   1.273 -14.694  1.00  0.00    -0.744 OA
ENDBRANCH  92  93
ENDBRANCH  64  87
BRANCH  76  97
ATOM     97  C   UNL     1       4.560  -8.036 -19.176  1.00  0.00    -0.014 A 
ATOM     98  C   UNL     1       5.482  -7.126 -19.721  1.00  0.00     0.010 A 
ATOM     99  C   UNL     1       3.963  -8.997 -20.012  1.00  0.00     0.010 A 
ATOM    100  C   UNL     1       5.776  -7.156 -21.085  1.00  0.00     0.020 A 
ATOM    101  C   UNL     1       4.280  -9.052 -21.370  1.00  0.00     0.020 A 
ATOM    102  C   UNL     1       5.175  -8.120 -21.901  1.00  0.00     0.054 A 
BRANCH 102 103
ATOM    103  S   UNL     1       5.609  -8.165 -23.660  1.00  0.00     0.124 S 
ATOM    104  O   UNL     1       4.942  -6.969 -24.167  1.00  0.00    -0.237 OA
ATOM    105  O   UNL     1       7.069  -8.105 -23.629  1.00  0.00    -0.237 OA
ATOM    106  O   UNL     1       5.052  -9.433 -24.123  1.00  0.00    -0.744 OA
ENDBRANCH 102 103
ENDBRANCH  76  97
ENDBRANCH  50  51
ENDBRANCH  42  45
ENDBRANCH  40  41
ENDBRANCH   1  40
TORSDOF 18
