REMARK SMILES NC(=O)c1ccnc(N(CC(=O)NCCCNC(=O)c2ccc(-c3c4nc(c(-c5ccc(S(=O)(=O)[O-])cc5)c5ccc([nH]5)c(-c5ccc(S(=O)(=O)[O-])cc5)c5nc(c(-c6ccc(S(=O)(=O)[O-])cc6)c6ccc3[nH]6)C=C5)C=C4)cc2)CC(F)(F)F)c1
REMARK SMILES IDX 15 1 14 2 13 3 11 4 12 5 10 7 9 8 8 9 4 10 5 11 85 12 6 13
REMARK SMILES IDX 7 14 2 15 1 16 3 19 80 20 81 21 82 22 83 23 84 24 16 25
REMARK SMILES IDX 17 26 18 27 19 29 20 30 21 31 79 32 22 33 78 34 23 35 24 36
REMARK SMILES IDX 25 37 72 38 26 39 77 40 71 41 73 42 27 43 76 44 70 45 69 46
REMARK SMILES IDX 28 48 58 49 39 50 57 51 40 52 43 53 56 54 74 55 41 56 42 57
REMARK SMILES IDX 55 59 75 60 44 61 29 62 30 63 38 64 31 65 37 66 32 67 33 68
REMARK SMILES IDX 34 69 35 70 36 71 59 72 60 73 68 74 61 75 67 76 62 77 63 78
REMARK SMILES IDX 64 79 65 80 66 81 45 82 46 83 54 84 47 85 53 86 48 87 49 88
REMARK SMILES IDX 50 89 51 90 52 91
REMARK H PARENT 13 6 1 17 1 18 17 28 73 47 43 58
REMARK Flexibility Score: inf
ROOT
ATOM      1  C   UNL     1      -0.668   6.752   0.035  1.00  0.00     0.042 C 
ENDROOT
BRANCH   1   2
ATOM      2  C   UNL     1       0.519   7.557   0.558  1.00  0.00     0.117 C 
BRANCH   2   3
ATOM      3  N   UNL     1       0.283   8.111   1.880  1.00  0.00    -0.354 N 
ATOM      4  C   UNL     1       0.715   7.646   3.089  1.00  0.00     0.239 C 
ATOM      5  O   UNL     1       0.362   8.238   4.112  1.00  0.00    -0.273 OA
ATOM      6  H   UNL     1      -0.260   8.932   1.907  1.00  0.00     0.163 HD
BRANCH   4   7
ATOM      7  C   UNL     1       1.615   6.409   3.165  1.00  0.00     0.218 C 
BRANCH   7   8
ATOM      8  N   UNL     1       0.864   5.157   2.959  1.00  0.00    -0.338 N 
BRANCH   8   9
ATOM      9  C   UNL     1       1.278   4.285   1.972  1.00  0.00     0.130 A 
ATOM     10  C   UNL     1       1.077   2.262   0.662  1.00  0.00     0.044 A 
ATOM     11  C   UNL     1       2.146   2.655  -0.128  1.00  0.00     0.034 A 
ATOM     12  C   UNL     1       0.642   3.080   1.712  1.00  0.00     0.060 A 
ATOM     13  C   UNL     1       2.745   3.849   0.195  1.00  0.00     0.114 A 
ATOM     14  N   UNL     1       2.341   4.641   1.214  1.00  0.00    -0.239 NA
BRANCH  10  15
ATOM     15  C   UNL     1       0.332   1.010   0.409  1.00  0.00     0.248 C 
ATOM     16  N   UNL     1       1.009  -0.033  -0.146  1.00  0.00    -0.366 N 
ATOM     17  H   UNL     1       0.543  -0.881  -0.328  1.00  0.00     0.159 HD
ATOM     18  H   UNL     1       1.964   0.061  -0.365  1.00  0.00     0.159 HD
ATOM     19  O   UNL     1      -0.850   0.906   0.729  1.00  0.00    -0.270 OA
ENDBRANCH  10  15
ENDBRANCH   8   9
BRANCH   8  20
ATOM     20  C   UNL     1      -0.223   4.845   3.922  1.00  0.00     0.234 C 
BRANCH  20  21
ATOM     21  C   UNL     1      -1.667   5.048   3.427  1.00  0.00     0.405 C 
ATOM     22  F   UNL     1      -1.956   4.295   2.345  1.00  0.00    -0.169 F 
ATOM     23  F   UNL     1      -2.541   4.698   4.402  1.00  0.00    -0.169 F 
ATOM     24  F   UNL     1      -1.923   6.336   3.106  1.00  0.00    -0.169 F 
ENDBRANCH  20  21
ENDBRANCH   8  20
ENDBRANCH   7   8
ENDBRANCH   4   7
ENDBRANCH   2   3
ENDBRANCH   1   2
BRANCH   1  25
ATOM     25  C   UNL     1      -1.922   7.588  -0.213  1.00  0.00     0.118 C 
BRANCH  25  26
ATOM     26  N   UNL     1      -1.741   8.533  -1.308  1.00  0.00    -0.352 N 
ATOM     27  C   UNL     1      -2.454   8.680  -2.471  1.00  0.00     0.251 C 
ATOM     28  H   UNL     1      -0.992   9.163  -1.195  1.00  0.00     0.163 HD
ATOM     29  O   UNL     1      -2.002   9.387  -3.368  1.00  0.00    -0.269 OA
BRANCH  27  30
ATOM     30  C   UNL     1      -3.751   7.991  -2.655  1.00  0.00     0.039 A 
ATOM     31  C   UNL     1      -4.040   7.419  -3.897  1.00  0.00     0.014 A 
ATOM     32  C   UNL     1      -4.699   7.946  -1.629  1.00  0.00     0.014 A 
ATOM     33  C   UNL     1      -5.256   6.759  -4.094  1.00  0.00     0.010 A 
ATOM     34  C   UNL     1      -5.884   7.233  -1.806  1.00  0.00     0.010 A 
ATOM     35  C   UNL     1      -6.178   6.636  -3.042  1.00  0.00    -0.014 A 
BRANCH  35  36
ATOM     36  C   UNL     1      -7.449   5.886  -3.216  1.00  0.00     0.031 A 
ATOM     37  C   UNL     1      -8.773   6.598  -3.121  1.00  0.00     0.074 A 
ATOM     38  C   UNL     1      -7.414   4.551  -3.404  1.00  0.00     0.049 A 
ATOM     39  N   UNL     1      -9.982   6.103  -3.193  1.00  0.00    -0.248 NA
ATOM     40  C   UNL     1      -8.732   8.052  -2.894  1.00  0.00     0.031 C 
ATOM     41  C   UNL     1      -6.197   3.739  -3.478  1.00  0.00     0.029 A 
ATOM     42  N   UNL     1      -8.430   3.641  -3.558  1.00  0.00    -0.354 N 
ATOM     43  C   UNL     1     -10.845   7.177  -3.005  1.00  0.00     0.074 A 
ATOM     44  C   UNL     1     -10.020   8.343  -2.771  1.00  0.00     0.031 C 
ATOM     45  C   UNL     1      -6.537   2.457  -3.688  1.00  0.00     0.029 A 
ATOM     46  C   UNL     1      -7.992   2.347  -3.719  1.00  0.00     0.049 A 
ATOM     47  H   UNL     1      -9.382   3.890  -3.553  1.00  0.00     0.167 HD
ATOM     48  C   UNL     1     -12.199   7.196  -3.039  1.00  0.00     0.031 A 
ATOM     49  C   UNL     1      -8.681   1.198  -3.866  1.00  0.00     0.031 A 
ATOM     50  C   UNL     1     -13.017   6.035  -3.277  1.00  0.00     0.049 A 
ATOM     51  C   UNL     1     -10.185   1.243  -3.884  1.00  0.00     0.074 A 
ATOM     52  C   UNL     1     -14.395   5.961  -3.382  1.00  0.00     0.029 A 
ATOM     53  N   UNL     1     -12.534   4.745  -3.441  1.00  0.00    -0.354 N 
ATOM     54  N   UNL     1     -10.980   2.280  -3.770  1.00  0.00    -0.248 NA
ATOM     55  C   UNL     1     -10.884  -0.037  -4.063  1.00  0.00     0.031 C 
ATOM     56  C   UNL     1     -14.748   4.619  -3.558  1.00  0.00     0.029 A 
ATOM     57  C   UNL     1     -13.588   3.865  -3.624  1.00  0.00     0.049 A 
ATOM     58  H   UNL     1     -11.582   4.493  -3.430  1.00  0.00     0.167 HD
ATOM     59  C   UNL     1     -12.273   1.780  -3.891  1.00  0.00     0.074 A 
ATOM     60  C   UNL     1     -12.151   0.352  -4.102  1.00  0.00     0.031 C 
ATOM     61  C   UNL     1     -13.453   2.445  -3.833  1.00  0.00     0.031 A 
BRANCH  48  62
ATOM     62  C   UNL     1     -12.885   8.518  -2.804  1.00  0.00    -0.014 A 
ATOM     63  C   UNL     1     -12.815   9.552  -3.755  1.00  0.00     0.010 A 
ATOM     64  C   UNL     1     -13.645   8.715  -1.637  1.00  0.00     0.010 A 
ATOM     65  C   UNL     1     -13.455  10.773  -3.523  1.00  0.00     0.020 A 
ATOM     66  C   UNL     1     -14.312   9.924  -1.415  1.00  0.00     0.020 A 
ATOM     67  C   UNL     1     -14.197  10.952  -2.352  1.00  0.00     0.054 A 
BRANCH  67  68
ATOM     68  S   UNL     1     -15.034  12.540  -2.088  1.00  0.00     0.124 S 
ATOM     69  O   UNL     1     -13.912  13.424  -1.784  1.00  0.00    -0.237 OA
ATOM     70  O   UNL     1     -15.688  12.775  -3.373  1.00  0.00    -0.237 OA
ATOM     71  O   UNL     1     -15.938  12.275  -0.972  1.00  0.00    -0.744 OA
ENDBRANCH  67  68
ENDBRANCH  48  62
BRANCH  49  72
ATOM     72  C   UNL     1      -7.952  -0.091  -4.022  1.00  0.00    -0.014 A 
ATOM     73  C   UNL     1      -7.953  -0.766  -5.255  1.00  0.00     0.010 A 
ATOM     74  C   UNL     1      -7.240  -0.645  -2.942  1.00  0.00     0.010 A 
ATOM     75  C   UNL     1      -7.272  -1.978  -5.401  1.00  0.00     0.020 A 
ATOM     76  C   UNL     1      -6.534  -1.842  -3.091  1.00  0.00     0.020 A 
ATOM     77  C   UNL     1      -6.564  -2.508  -4.318  1.00  0.00     0.054 A 
BRANCH  77  78
ATOM     78  S   UNL     1      -5.645  -4.056  -4.547  1.00  0.00     0.124 S 
ATOM     79  O   UNL     1      -6.719  -5.043  -4.598  1.00  0.00    -0.237 OA
ATOM     80  O   UNL     1      -4.941  -3.822  -5.806  1.00  0.00    -0.237 OA
ATOM     81  O   UNL     1      -4.786  -4.124  -3.367  1.00  0.00    -0.744 OA
ENDBRANCH  77  78
ENDBRANCH  49  72
BRANCH  61  82
ATOM     82  C   UNL     1     -14.712   1.644  -4.039  1.00  0.00    -0.014 A 
ATOM     83  C   UNL     1     -15.181   0.754  -3.057  1.00  0.00     0.010 A 
ATOM     84  C   UNL     1     -15.466   1.828  -5.213  1.00  0.00     0.010 A 
ATOM     85  C   UNL     1     -16.365   0.039  -3.260  1.00  0.00     0.020 A 
ATOM     86  C   UNL     1     -16.664   1.137  -5.406  1.00  0.00     0.020 A 
ATOM     87  C   UNL     1     -17.099   0.235  -4.433  1.00  0.00     0.054 A 
BRANCH  87  88
ATOM     88  S   UNL     1     -18.655  -0.671  -4.653  1.00  0.00     0.124 S 
ATOM     89  O   UNL     1     -18.182  -2.024  -4.935  1.00  0.00    -0.237 OA
ATOM     90  O   UNL     1     -19.315  -0.493  -3.362  1.00  0.00    -0.237 OA
ATOM     91  O   UNL     1     -19.298   0.010  -5.774  1.00  0.00    -0.744 OA
ENDBRANCH  87  88
ENDBRANCH  61  82
ENDBRANCH  35  36
ENDBRANCH  27  30
ENDBRANCH  25  26
ENDBRANCH   1  25
TORSDOF 18
