REMARK SMILES O=C(NCc1ccc(C(=O)NCCCNC(=O)c2ccc(-c3c4nc(c(-c5ccc(S(=O)(=O)[O-])cc5)c5ccc([nH]5)c(-c5ccc(S(=O)(=O)[O-])cc5)c5nc(c(-c6ccc(S(=O)(=O)[O-])cc6)c6ccc3[nH]6)C=C5)C=C4)cc2)o1)Nc1ccc(F)c(Cl)c1
REMARK SMILES IDX 13 1 12 2 11 3 9 4 10 5 8 7 5 8 6 9 78 10 7 11 4 12 3 13
REMARK SMILES IDX 1 14 2 15 79 16 80 19 81 20 87 21 82 22 85 23 83 24 86 25
REMARK SMILES IDX 84 26 14 27 15 28 16 29 17 31 18 32 19 33 77 34 20 35 76 36
REMARK SMILES IDX 21 37 22 38 23 39 70 40 24 41 75 42 69 43 71 44 25 45 74 46
REMARK SMILES IDX 68 47 67 48 26 50 56 51 37 52 55 53 38 54 41 55 54 56 72 57
REMARK SMILES IDX 39 58 40 59 53 61 73 62 42 63 27 64 28 65 36 66 29 67 35 68
REMARK SMILES IDX 30 69 31 70 32 71 33 72 34 73 57 74 58 75 66 76 59 77 65 78
REMARK SMILES IDX 60 79 61 80 62 81 63 82 64 83 43 84 44 85 52 86 45 87 51 88
REMARK SMILES IDX 46 89 47 90 48 91 49 92 50 93
REMARK H PARENT 11 6 3 17 79 18 15 30 71 49 41 60
REMARK Flexibility Score: inf
ROOT
ATOM      1  C   UNL     1       5.569   1.966   7.304  1.00  0.00     0.042 C 
ENDROOT
BRANCH   1   2
ATOM      2  C   UNL     1       6.699   1.388   6.456  1.00  0.00     0.118 C 
BRANCH   2   3
ATOM      3  N   UNL     1       6.576  -0.046   6.293  1.00  0.00    -0.349 N 
ATOM      4  C   UNL     1       6.108  -0.802   5.244  1.00  0.00     0.286 C 
ATOM      5  O   UNL     1       6.255  -2.021   5.360  1.00  0.00    -0.266 OA
ATOM      6  H   UNL     1       6.881  -0.571   7.069  1.00  0.00     0.163 HD
BRANCH   4   7
ATOM      7  C   UNL     1       5.499  -0.193   4.074  1.00  0.00     0.191 A 
ATOM      8  C   UNL     1       4.733  -0.291   1.996  1.00  0.00     0.124 A 
ATOM      9  C   UNL     1       4.511   0.996   2.426  1.00  0.00     0.048 A 
ATOM     10  O   UNL     1       5.345  -1.008   2.975  1.00  0.00    -0.454 OA
ATOM     11  C   UNL     1       4.967   1.048   3.766  1.00  0.00     0.056 A 
BRANCH   8  12
ATOM     12  C   UNL     1       4.391  -1.023   0.753  1.00  0.00     0.193 C 
BRANCH  12  13
ATOM     13  N   UNL     1       2.950  -0.993   0.617  1.00  0.00    -0.331 N 
ATOM     14  O   UNL     1       0.966  -0.121   0.150  1.00  0.00    -0.248 OA
ATOM     15  C   UNL     1       2.156  -0.193  -0.139  1.00  0.00     0.319 C 
ATOM     16  N   UNL     1       2.757   0.438  -1.192  1.00  0.00    -0.308 N 
ATOM     17  H   UNL     1       2.469  -1.659   1.160  1.00  0.00     0.165 HD
ATOM     18  H   UNL     1       3.688   0.186  -1.391  1.00  0.00     0.171 HD
BRANCH  16  19
ATOM     19  C   UNL     1       2.169   1.417  -2.019  1.00  0.00     0.044 A 
ATOM     20  C   UNL     1       2.756   1.639  -3.273  1.00  0.00     0.029 A 
ATOM     21  C   UNL     1       1.046   2.165  -1.646  1.00  0.00     0.049 A 
ATOM     22  C   UNL     1       2.194   2.556  -4.164  1.00  0.00     0.043 A 
ATOM     23  C   UNL     1       0.496   3.094  -2.532  1.00  0.00     0.078 A 
ATOM     24  C   UNL     1       1.064   3.275  -3.790  1.00  0.00     0.141 A 
ATOM     25  Cl  UNL     1      -0.883   4.009  -2.059  1.00  0.00    -0.081 Cl
ATOM     26  F   UNL     1       0.537   4.144  -4.666  1.00  0.00    -0.205 F 
ENDBRANCH  16  19
ENDBRANCH  12  13
ENDBRANCH   8  12
ENDBRANCH   4   7
ENDBRANCH   2   3
ENDBRANCH   1   2
BRANCH   1  27
ATOM     27  C   UNL     1       5.745   1.710   8.802  1.00  0.00     0.118 C 
BRANCH  27  28
ATOM     28  N   UNL     1       6.899   2.417   9.344  1.00  0.00    -0.352 N 
ATOM     29  C   UNL     1       6.981   3.368  10.330  1.00  0.00     0.251 C 
ATOM     30  H   UNL     1       7.761   2.171   8.936  1.00  0.00     0.163 HD
ATOM     31  O   UNL     1       8.026   4.000  10.460  1.00  0.00    -0.269 OA
BRANCH  29  32
ATOM     32  C   UNL     1       5.836   3.639  11.226  1.00  0.00     0.039 A 
ATOM     33  C   UNL     1       5.579   4.959  11.610  1.00  0.00     0.014 A 
ATOM     34  C   UNL     1       5.054   2.600  11.739  1.00  0.00     0.014 A 
ATOM     35  C   UNL     1       4.511   5.242  12.465  1.00  0.00     0.010 A 
ATOM     36  C   UNL     1       3.948   2.889  12.536  1.00  0.00     0.010 A 
ATOM     37  C   UNL     1       3.669   4.211  12.913  1.00  0.00    -0.014 A 
BRANCH  37  38
ATOM     38  C   UNL     1       2.494   4.496  13.775  1.00  0.00     0.031 A 
ATOM     39  C   UNL     1       2.435   3.967  15.182  1.00  0.00     0.074 A 
ATOM     40  C   UNL     1       1.450   5.181  13.269  1.00  0.00     0.049 A 
ATOM     41  N   UNL     1       1.473   4.069  16.063  1.00  0.00    -0.248 NA
ATOM     42  C   UNL     1       3.602   3.202  15.651  1.00  0.00     0.031 C 
ATOM     43  C   UNL     1       1.372   5.724  11.911  1.00  0.00     0.029 A 
ATOM     44  N   UNL     1       0.254   5.537  13.838  1.00  0.00    -0.354 N 
ATOM     45  C   UNL     1       1.909   3.369  17.182  1.00  0.00     0.074 A 
ATOM     46  C   UNL     1       3.199   2.805  16.849  1.00  0.00     0.031 C 
ATOM     47  C   UNL     1       0.207   6.374  11.764  1.00  0.00     0.029 A 
ATOM     48  C   UNL     1      -0.562   6.258  13.000  1.00  0.00     0.049 A 
ATOM     49  H   UNL     1       0.003   5.298  14.760  1.00  0.00     0.167 HD
ATOM     50  C   UNL     1       1.299   3.220  18.384  1.00  0.00     0.031 A 
ATOM     51  C   UNL     1      -1.790   6.772  13.201  1.00  0.00     0.031 A 
ATOM     52  C   UNL     1       0.015   3.781  18.712  1.00  0.00     0.049 A 
ATOM     53  C   UNL     1      -2.458   6.578  14.533  1.00  0.00     0.074 A 
ATOM     54  C   UNL     1      -0.668   3.728  19.914  1.00  0.00     0.029 A 
ATOM     55  N   UNL     1      -0.783   4.496  17.831  1.00  0.00    -0.354 N 
ATOM     56  N   UNL     1      -2.010   5.955  15.596  1.00  0.00    -0.248 NA
ATOM     57  C   UNL     1      -3.796   7.165  14.693  1.00  0.00     0.031 C 
ATOM     58  C   UNL     1      -1.901   4.370  19.745  1.00  0.00     0.029 A 
ATOM     59  C   UNL     1      -1.962   4.870  18.454  1.00  0.00     0.049 A 
ATOM     60  H   UNL     1      -0.547   4.706  16.898  1.00  0.00     0.167 HD
ATOM     61  C   UNL     1      -2.999   6.097  16.562  1.00  0.00     0.074 A 
ATOM     62  C   UNL     1      -4.065   6.872  15.958  1.00  0.00     0.031 C 
ATOM     63  C   UNL     1      -3.019   5.631  17.836  1.00  0.00     0.031 A 
BRANCH  50  64
ATOM     64  C   UNL     1       2.021   2.397  19.421  1.00  0.00    -0.014 A 
ATOM     65  C   UNL     1       3.212   2.856  20.014  1.00  0.00     0.010 A 
ATOM     66  C   UNL     1       1.511   1.141  19.797  1.00  0.00     0.010 A 
ATOM     67  C   UNL     1       3.916   2.045  20.909  1.00  0.00     0.020 A 
ATOM     68  C   UNL     1       2.196   0.340  20.715  1.00  0.00     0.020 A 
ATOM     69  C   UNL     1       3.410   0.785  21.242  1.00  0.00     0.054 A 
BRANCH  69  70
ATOM     70  S   UNL     1       4.359  -0.262  22.380  1.00  0.00     0.124 S 
ATOM     71  O   UNL     1       5.436  -0.740  21.518  1.00  0.00    -0.237 OA
ATOM     72  O   UNL     1       4.761   0.677  23.424  1.00  0.00    -0.237 OA
ATOM     73  O   UNL     1       3.397  -1.278  22.798  1.00  0.00    -0.744 OA
ENDBRANCH  69  70
ENDBRANCH  50  64
BRANCH  51  74
ATOM     74  C   UNL     1      -2.442   7.558  12.119  1.00  0.00    -0.014 A 
ATOM     75  C   UNL     1      -2.531   8.957  12.223  1.00  0.00     0.010 A 
ATOM     76  C   UNL     1      -2.926   6.924  10.961  1.00  0.00     0.010 A 
ATOM     77  C   UNL     1      -3.090   9.709  11.187  1.00  0.00     0.020 A 
ATOM     78  C   UNL     1      -3.465   7.675   9.912  1.00  0.00     0.020 A 
ATOM     79  C   UNL     1      -3.546   9.064  10.034  1.00  0.00     0.054 A 
BRANCH  79  80
ATOM     80  S   UNL     1      -4.187  10.071   8.668  1.00  0.00     0.124 S 
ATOM     81  O   UNL     1      -5.484  10.494   9.184  1.00  0.00    -0.237 OA
ATOM     82  O   UNL     1      -3.178  11.122   8.552  1.00  0.00    -0.237 OA
ATOM     83  O   UNL     1      -4.231   9.136   7.546  1.00  0.00    -0.744 OA
ENDBRANCH  79  80
ENDBRANCH  51  74
BRANCH  63  84
ATOM     84  C   UNL     1      -4.223   5.971  18.674  1.00  0.00    -0.014 A 
ATOM     85  C   UNL     1      -5.463   5.345  18.454  1.00  0.00     0.010 A 
ATOM     86  C   UNL     1      -4.098   6.897  19.725  1.00  0.00     0.010 A 
ATOM     87  C   UNL     1      -6.565   5.664  19.253  1.00  0.00     0.020 A 
ATOM     88  C   UNL     1      -5.190   7.199  20.542  1.00  0.00     0.020 A 
ATOM     89  C   UNL     1      -6.422   6.590  20.291  1.00  0.00     0.054 A 
BRANCH  89  90
ATOM     90  S   UNL     1      -7.855   6.956  21.341  1.00  0.00     0.124 S 
ATOM     91  O   UNL     1      -8.662   7.805  20.469  1.00  0.00    -0.237 OA
ATOM     92  O   UNL     1      -8.404   5.629  21.611  1.00  0.00    -0.237 OA
ATOM     93  O   UNL     1      -7.272   7.628  22.500  1.00  0.00    -0.744 OA
ENDBRANCH  89  90
ENDBRANCH  63  84
ENDBRANCH  37  38
ENDBRANCH  29  32
ENDBRANCH  27  28
ENDBRANCH   1  27
TORSDOF 16
