REMARK SMILES C[C@@H]1CCC[C@H]1NC(=O)c1csc(/C=C/C(=O)NCCCNC(=O)c2ccc(-c3c4nc(c(-c5ccc(S(=O)(=O)[O-])cc5)c5ccc([nH]5)c(-c5ccc(S(=O)(=O)[O-])cc5)c5nc(c(-c6ccc(S(=O)(=O)[O-])cc6)c6ccc3[nH]6)C=C5)C=C4)cc2)c1
REMARK SMILES IDX 20 1 19 2 18 3 16 4 17 5 15 7 14 8 13 9 10 10 11 11 85 12
REMARK SMILES IDX 12 13 8 14 7 15 9 17 6 18 1 19 2 20 3 21 4 22 5 23 21 24
REMARK SMILES IDX 22 25 23 26 24 28 25 29 26 30 84 31 27 32 83 33 28 34 29 35
REMARK SMILES IDX 30 36 77 37 31 38 82 39 76 40 78 41 32 42 81 43 75 44 74 45
REMARK SMILES IDX 33 47 63 48 44 49 62 50 45 51 48 52 61 53 79 54 46 55 47 56
REMARK SMILES IDX 60 58 80 59 49 60 34 61 35 62 43 63 36 64 42 65 37 66 38 67
REMARK SMILES IDX 39 68 40 69 41 70 64 71 65 72 73 73 66 74 72 75 67 76 68 77
REMARK SMILES IDX 69 78 70 79 71 80 50 81 51 82 59 83 52 84 58 85 53 86 54 87
REMARK SMILES IDX 55 88 56 89 57 90
REMARK H PARENT 18 6 7 16 22 27 78 46 48 57
REMARK Flexibility Score: inf
ROOT
ATOM      1  C   UNL     1       4.903   7.132   4.866  1.00  0.00     0.042 C 
ENDROOT
BRANCH   1   2
ATOM      2  C   UNL     1       3.889   8.132   4.314  1.00  0.00     0.118 C 
BRANCH   2   3
ATOM      3  N   UNL     1       4.370   8.762   3.094  1.00  0.00    -0.352 N 
ATOM      4  C   UNL     1       3.949   8.641   1.806  1.00  0.00     0.244 C 
ATOM      5  O   UNL     1       4.425   9.368   0.938  1.00  0.00    -0.270 OA
ATOM      6  H   UNL     1       5.127   9.378   3.222  1.00  0.00     0.163 HD
BRANCH   4   7
ATOM      7  C   UNL     1       2.849   7.718   1.457  1.00  0.00     0.072 C 
ATOM      8  C   UNL     1       2.810   6.437   1.847  1.00  0.00     0.024 C 
BRANCH   8   9
ATOM      9  C   UNL     1       1.720   5.565   1.559  1.00  0.00     0.028 A 
ATOM     10  C   UNL     1       0.188   3.781   1.781  1.00  0.00     0.051 A 
ATOM     11  C   UNL     1      -0.195   4.337   0.576  1.00  0.00     0.079 A 
ATOM     12  C   UNL     1       1.266   4.529   2.357  1.00  0.00     0.033 A 
ATOM     13  S   UNL     1       0.791   5.651   0.115  1.00  0.00    -0.144 S 
BRANCH  10  14
ATOM     14  C   UNL     1      -0.451   2.641   2.423  1.00  0.00     0.252 C 
ATOM     15  N   UNL     1      -0.587   1.470   1.724  1.00  0.00    -0.349 N 
ATOM     16  H   UNL     1      -1.097   0.765   2.185  1.00  0.00     0.164 HD
ATOM     17  O   UNL     1      -0.836   2.693   3.587  1.00  0.00    -0.269 OA
BRANCH  15  18
ATOM     18  C   UNL     1      -0.088   1.109   0.400  1.00  0.00     0.085 C 
ATOM     19  C   UNL     1       1.787  -0.162  -0.736  1.00  0.00     0.010 C 
ATOM     20  C   UNL     1       0.841  -0.112   0.466  1.00  0.00     0.008 C 
ATOM     21  C   UNL     1      -0.131  -1.292   0.470  1.00  0.00     0.005 C 
ATOM     22  C   UNL     1      -1.297  -0.861  -0.415  1.00  0.00     0.002 C 
ATOM     23  C   UNL     1      -1.249   0.666  -0.493  1.00  0.00     0.025 C 
ENDBRANCH  15  18
ENDBRANCH  10  14
ENDBRANCH   8   9
ENDBRANCH   4   7
ENDBRANCH   2   3
ENDBRANCH   1   2
BRANCH   1  24
ATOM     24  C   UNL     1       6.115   7.792   5.521  1.00  0.00     0.118 C 
BRANCH  24  25
ATOM     25  N   UNL     1       5.762   8.485   6.752  1.00  0.00    -0.352 N 
ATOM     26  C   UNL     1       6.231   8.313   8.030  1.00  0.00     0.251 C 
ATOM     27  H   UNL     1       5.078   9.186   6.651  1.00  0.00     0.163 HD
ATOM     28  O   UNL     1       5.638   8.851   8.962  1.00  0.00    -0.269 OA
BRANCH  26  29
ATOM     29  C   UNL     1       7.431   7.489   8.295  1.00  0.00     0.039 A 
ATOM     30  C   UNL     1       7.444   6.664   9.424  1.00  0.00     0.014 A 
ATOM     31  C   UNL     1       8.559   7.560   7.473  1.00  0.00     0.014 A 
ATOM     32  C   UNL     1       8.563   5.874   9.698  1.00  0.00     0.010 A 
ATOM     33  C   UNL     1       9.647   6.722   7.708  1.00  0.00     0.010 A 
ATOM     34  C   UNL     1       9.664   5.875   8.826  1.00  0.00    -0.014 A 
BRANCH  34  35
ATOM     35  C   UNL     1      10.836   4.994   9.065  1.00  0.00     0.031 A 
ATOM     36  C   UNL     1      12.190   5.588   9.349  1.00  0.00     0.074 A 
ATOM     37  C   UNL     1      10.694   3.657   8.963  1.00  0.00     0.049 A 
ATOM     38  N   UNL     1      13.337   4.982   9.520  1.00  0.00    -0.248 NA
ATOM     39  C   UNL     1      12.270   7.056   9.429  1.00  0.00     0.031 C 
ATOM     40  C   UNL     1       9.443   2.960   8.655  1.00  0.00     0.029 A 
ATOM     41  N   UNL     1      11.612   2.646   9.098  1.00  0.00    -0.354 N 
ATOM     42  C   UNL     1      14.276   5.991   9.706  1.00  0.00     0.074 A 
ATOM     43  C   UNL     1      13.572   7.249   9.585  1.00  0.00     0.031 C 
ATOM     44  C   UNL     1       9.667   1.636   8.646  1.00  0.00     0.029 A 
ATOM     45  C   UNL     1      11.082   1.391   8.908  1.00  0.00     0.049 A 
ATOM     46  H   UNL     1      12.560   2.803   9.312  1.00  0.00     0.167 HD
ATOM     47  C   UNL     1      15.600   5.880   9.970  1.00  0.00     0.031 A 
ATOM     48  C   UNL     1      11.668   0.178   8.931  1.00  0.00     0.031 A 
ATOM     49  C   UNL     1      16.295   4.626  10.101  1.00  0.00     0.049 A 
ATOM     50  C   UNL     1      13.140   0.081   9.223  1.00  0.00     0.074 A 
ATOM     51  C   UNL     1      17.623   4.408  10.425  1.00  0.00     0.029 A 
ATOM     52  N   UNL     1      15.719   3.378   9.915  1.00  0.00    -0.354 N 
ATOM     53  N   UNL     1      13.998   1.045   9.459  1.00  0.00    -0.248 NA
ATOM     54  C   UNL     1      13.720  -1.268   9.264  1.00  0.00     0.031 C 
ATOM     55  C   UNL     1      17.861   3.030  10.385  1.00  0.00     0.029 A 
ATOM     56  C   UNL     1      16.669   2.387  10.094  1.00  0.00     0.049 A 
ATOM     57  H   UNL     1      14.774   3.221   9.690  1.00  0.00     0.167 HD
ATOM     58  C   UNL     1      15.214   0.417   9.701  1.00  0.00     0.074 A 
ATOM     59  C   UNL     1      14.977  -1.008   9.598  1.00  0.00     0.031 C 
ATOM     60  C   UNL     1      16.419   0.972   9.985  1.00  0.00     0.031 A 
BRANCH  47  61
ATOM     61  C   UNL     1      16.389   7.155  10.125  1.00  0.00    -0.014 A 
ATOM     62  C   UNL     1      16.209   7.990  11.243  1.00  0.00     0.010 A 
ATOM     63  C   UNL     1      17.353   7.504   9.161  1.00  0.00     0.010 A 
ATOM     64  C   UNL     1      16.943   9.172  11.370  1.00  0.00     0.020 A 
ATOM     65  C   UNL     1      18.110   8.671   9.299  1.00  0.00     0.020 A 
ATOM     66  C   UNL     1      17.887   9.507  10.395  1.00  0.00     0.054 A 
BRANCH  66  67
ATOM     67  S   UNL     1      18.839  11.038  10.595  1.00  0.00     0.124 S 
ATOM     68  O   UNL     1      17.840  12.056  10.281  1.00  0.00    -0.237 OA
ATOM     69  O   UNL     1      19.255  10.978  11.994  1.00  0.00    -0.237 OA
ATOM     70  O   UNL     1      19.920  10.905   9.621  1.00  0.00    -0.744 OA
ENDBRANCH  66  67
ENDBRANCH  47  61
BRANCH  48  71
ATOM     71  C   UNL     1      10.855  -1.043   8.681  1.00  0.00    -0.014 A 
ATOM     72  C   UNL     1      10.563  -1.933   9.730  1.00  0.00     0.010 A 
ATOM     73  C   UNL     1      10.350  -1.312   7.396  1.00  0.00     0.010 A 
ATOM     74  C   UNL     1       9.794  -3.077   9.495  1.00  0.00     0.020 A 
ATOM     75  C   UNL     1       9.559  -2.440   7.163  1.00  0.00     0.020 A 
ATOM     76  C   UNL     1       9.295  -3.322   8.213  1.00  0.00     0.054 A 
BRANCH  76  77
ATOM     77  S   UNL     1       8.253  -4.783   7.943  1.00  0.00     0.124 S 
ATOM     78  O   UNL     1       9.234  -5.864   7.967  1.00  0.00    -0.237 OA
ATOM     79  O   UNL     1       7.337  -4.733   9.079  1.00  0.00    -0.237 OA
ATOM     80  O   UNL     1       7.635  -4.526   6.644  1.00  0.00    -0.744 OA
ENDBRANCH  76  77
ENDBRANCH  48  71
BRANCH  60  81
ATOM     81  C   UNL     1      17.570   0.035  10.236  1.00  0.00    -0.014 A 
ATOM     82  C   UNL     1      18.170  -0.680   9.185  1.00  0.00     0.010 A 
ATOM     83  C   UNL     1      18.091  -0.090  11.537  1.00  0.00     0.010 A 
ATOM     84  C   UNL     1      19.252  -1.529   9.436  1.00  0.00     0.020 A 
ATOM     85  C   UNL     1      19.190  -0.915  11.787  1.00  0.00     0.020 A 
ATOM     86  C   UNL     1      19.755  -1.641  10.737  1.00  0.00     0.054 A 
BRANCH  86  87
ATOM     87  S   UNL     1      21.187  -2.715  11.030  1.00  0.00     0.124 S 
ATOM     88  O   UNL     1      20.591  -4.045  10.945  1.00  0.00    -0.237 OA
ATOM     89  O   UNL     1      22.085  -2.358   9.935  1.00  0.00    -0.237 OA
ATOM     90  O   UNL     1      21.648  -2.322  12.360  1.00  0.00    -0.744 OA
ENDBRANCH  86  87
ENDBRANCH  60  81
ENDBRANCH  34  35
ENDBRANCH  26  29
ENDBRANCH  24  25
ENDBRANCH   1  24
TORSDOF 16
