REMARK SMILES Cc1ccc(S(=O)(=O)Nc2cnc(N(C)C)c(C(=O)NCCCNC(=O)c3ccc(-c4c5nc(c(-c6ccc(S(=O)(=O)[O-])cc6)c6ccc([nH]6)c(-c6ccc(S(=O)(=O)[O-])cc6)c6nc(c(-c7ccc(S(=O)(=O)[O-])cc7)c7ccc4[nH]7)C=C6)C=C5)cc3)c2)c(C)c1
REMARK SMILES IDX 22 1 21 2 20 3 18 4 19 5 17 7 10 8 11 9 87 10 12 11 13 12
REMARK SMILES IDX 9 13 6 15 7 16 8 17 5 18 1 19 2 20 3 21 90 22 4 23 88 24
REMARK SMILES IDX 89 25 14 26 15 27 16 28 23 29 24 30 25 31 26 33 27 34 28 35
REMARK SMILES IDX 86 36 29 37 85 38 30 39 31 40 32 41 79 42 33 43 84 44 78 45
REMARK SMILES IDX 80 46 34 47 83 48 77 49 76 50 35 52 65 53 46 54 64 55 47 56
REMARK SMILES IDX 50 57 63 58 81 59 48 60 49 61 62 63 82 64 51 65 36 66 37 67
REMARK SMILES IDX 45 68 38 69 44 70 39 71 40 72 41 73 42 74 43 75 66 76 67 77
REMARK SMILES IDX 75 78 68 79 74 80 69 81 70 82 71 83 72 84 73 85 52 86 53 87
REMARK SMILES IDX 61 88 54 89 60 90 55 91 56 92 57 93 58 94 59 95
REMARK H PARENT 20 6 9 14 24 32 80 51 50 62
REMARK Flexibility Score: inf
ROOT
ATOM      1  C   UNL     1      -0.002  -1.576   3.665  1.00  0.00     0.042 C 
ENDROOT
BRANCH   1   2
ATOM      2  C   UNL     1       1.035  -1.711   2.548  1.00  0.00     0.118 C 
BRANCH   2   3
ATOM      3  N   UNL     1       1.877  -2.875   2.776  1.00  0.00    -0.352 N 
ATOM      4  C   UNL     1       1.819  -4.167   2.306  1.00  0.00     0.255 C 
ATOM      5  O   UNL     1       2.448  -5.017   2.932  1.00  0.00    -0.269 OA
ATOM      6  H   UNL     1       2.634  -2.706   3.382  1.00  0.00     0.163 HD
BRANCH   4   7
ATOM      7  C   UNL     1       1.056  -4.549   1.090  1.00  0.00     0.084 A 
ATOM      8  C   UNL     1      -1.029  -4.398  -0.140  1.00  0.00     0.068 A 
ATOM      9  C   UNL     1      -0.486  -5.297  -1.031  1.00  0.00     0.140 A 
ATOM     10  C   UNL     1      -0.292  -4.134   1.002  1.00  0.00     0.046 A 
ATOM     11  N   UNL     1       0.773  -5.764  -0.946  1.00  0.00    -0.236 NA
ATOM     12  C   UNL     1       1.599  -5.352   0.059  1.00  0.00     0.141 A 
BRANCH   8  13
ATOM     13  N   UNL     1      -2.239  -3.746  -0.499  1.00  0.00    -0.278 N 
ATOM     14  H   UNL     1      -2.894  -4.261  -1.023  1.00  0.00     0.180 HD
BRANCH  13  15
ATOM     15  S   UNL     1      -2.637  -2.166  -0.099  1.00  0.00     0.262 S 
ATOM     16  O   UNL     1      -2.766  -2.112   1.344  1.00  0.00    -0.201 OA
ATOM     17  O   UNL     1      -3.735  -1.829  -0.977  1.00  0.00    -0.201 OA
BRANCH  15  18
ATOM     18  C   UNL     1      -1.284  -1.068  -0.526  1.00  0.00     0.090 A 
ATOM     19  C   UNL     1       2.351   1.250  -0.468  1.00  0.00     0.044 C 
ATOM     20  C   UNL     1       1.073   0.470  -0.562  1.00  0.00    -0.051 A 
ATOM     21  C   UNL     1       1.047  -0.794  -1.153  1.00  0.00     0.005 A 
ATOM     22  C   UNL     1      -0.123   1.015  -0.085  1.00  0.00     0.008 A 
ATOM     23  C   UNL     1      -0.130  -1.550  -1.155  1.00  0.00     0.023 A 
ATOM     24  C   UNL     1      -1.313   0.263  -0.058  1.00  0.00    -0.030 A 
ATOM     25  C   UNL     1      -2.556   0.969   0.415  1.00  0.00     0.046 C 
ENDBRANCH  15  18
ENDBRANCH  13  15
ENDBRANCH   8  13
BRANCH  12  26
ATOM     26  N   UNL     1       2.918  -5.718  -0.141  1.00  0.00    -0.362 N 
ATOM     27  C   UNL     1       3.169  -6.846  -1.038  1.00  0.00     0.145 C 
ATOM     28  C   UNL     1       4.048  -5.289   0.663  1.00  0.00     0.145 C 
ENDBRANCH  12  26
ENDBRANCH   4   7
ENDBRANCH   2   3
ENDBRANCH   1   2
BRANCH   1  29
ATOM     29  C   UNL     1       0.601  -1.121   4.991  1.00  0.00     0.118 C 
BRANCH  29  30
ATOM     30  N   UNL     1       0.960   0.288   4.969  1.00  0.00    -0.352 N 
ATOM     31  C   UNL     1       0.719   1.256   5.912  1.00  0.00     0.251 C 
ATOM     32  H   UNL     1       1.442   0.590   4.166  1.00  0.00     0.163 HD
ATOM     33  O   UNL     1       0.919   2.434   5.630  1.00  0.00    -0.269 OA
BRANCH  31  34
ATOM     34  C   UNL     1       0.208   0.889   7.253  1.00  0.00     0.039 A 
ATOM     35  C   UNL     1      -0.791   1.679   7.829  1.00  0.00     0.014 A 
ATOM     36  C   UNL     1       0.739  -0.192   7.964  1.00  0.00     0.014 A 
ATOM     37  C   UNL     1      -1.278   1.370   9.101  1.00  0.00     0.010 A 
ATOM     38  C   UNL     1       0.215  -0.532   9.211  1.00  0.00     0.010 A 
ATOM     39  C   UNL     1      -0.787   0.255   9.798  1.00  0.00    -0.014 A 
BRANCH  39  40
ATOM     40  C   UNL     1      -1.287  -0.078  11.156  1.00  0.00     0.031 A 
ATOM     41  C   UNL     1      -0.377   0.053  12.347  1.00  0.00     0.074 A 
ATOM     42  C   UNL     1      -2.542  -0.539  11.313  1.00  0.00     0.049 A 
ATOM     43  N   UNL     1      -0.616  -0.226  13.603  1.00  0.00    -0.248 NA
ATOM     44  C   UNL     1       0.988   0.540  12.090  1.00  0.00     0.031 C 
ATOM     45  C   UNL     1      -3.509  -0.753  10.234  1.00  0.00     0.029 A 
ATOM     46  N   UNL     1      -3.218  -0.918  12.446  1.00  0.00    -0.354 N 
ATOM     47  C   UNL     1       0.573   0.023  14.280  1.00  0.00     0.074 A 
ATOM     48  C   UNL     1       1.541   0.446  13.290  1.00  0.00     0.031 C 
ATOM     49  C   UNL     1      -4.660  -1.203  10.760  1.00  0.00     0.029 A 
ATOM     50  C   UNL     1      -4.506  -1.333  12.206  1.00  0.00     0.049 A 
ATOM     51  H   UNL     1      -2.818  -0.894  13.345  1.00  0.00     0.167 HD
ATOM     52  C   UNL     1       0.834  -0.076  15.605  1.00  0.00     0.031 A 
ATOM     53  C   UNL     1      -5.458  -1.766  13.055  1.00  0.00     0.031 A 
ATOM     54  C   UNL     1      -0.135  -0.469  16.593  1.00  0.00     0.049 A 
ATOM     55  C   UNL     1      -5.162  -1.822  14.527  1.00  0.00     0.074 A 
ATOM     56  C   UNL     1       0.017  -0.550  17.966  1.00  0.00     0.029 A 
ATOM     57  N   UNL     1      -1.441  -0.840  16.312  1.00  0.00    -0.354 N 
ATOM     58  N   UNL     1      -4.046  -1.533  15.153  1.00  0.00    -0.248 NA
ATOM     59  C   UNL     1      -6.259  -2.245  15.409  1.00  0.00     0.031 C 
ATOM     60  C   UNL     1      -1.193  -0.993  18.515  1.00  0.00     0.029 A 
ATOM     61  C   UNL     1      -2.106  -1.155  17.485  1.00  0.00     0.049 A 
ATOM     62  H   UNL     1      -1.837  -0.875  15.412  1.00  0.00     0.167 HD
ATOM     63  C   UNL     1      -4.312  -1.721  16.504  1.00  0.00     0.074 A 
ATOM     64  C   UNL     1      -5.697  -2.135  16.605  1.00  0.00     0.031 C 
ATOM     65  C   UNL     1      -3.484  -1.563  17.566  1.00  0.00     0.031 A 
BRANCH  52  66
ATOM     66  C   UNL     1       2.233   0.246  16.056  1.00  0.00    -0.014 A 
ATOM     67  C   UNL     1       2.698   1.573  16.080  1.00  0.00     0.010 A 
ATOM     68  C   UNL     1       3.091  -0.789  16.469  1.00  0.00     0.010 A 
ATOM     69  C   UNL     1       4.012   1.855  16.460  1.00  0.00     0.020 A 
ATOM     70  C   UNL     1       4.400  -0.509  16.872  1.00  0.00     0.020 A 
ATOM     71  C   UNL     1       4.859   0.810  16.843  1.00  0.00     0.054 A 
BRANCH  71  72
ATOM     72  S   UNL     1       6.563   1.197  17.331  1.00  0.00     0.124 S 
ATOM     73  O   UNL     1       7.214   1.367  16.034  1.00  0.00    -0.237 OA
ATOM     74  O   UNL     1       6.407   2.417  18.119  1.00  0.00    -0.237 OA
ATOM     75  O   UNL     1       6.980   0.020  18.089  1.00  0.00    -0.744 OA
ENDBRANCH  71  72
ENDBRANCH  52  66
BRANCH  53  76
ATOM     76  C   UNL     1      -6.796  -2.146  12.531  1.00  0.00    -0.014 A 
ATOM     77  C   UNL     1      -7.891  -1.281  12.696  1.00  0.00     0.010 A 
ATOM     78  C   UNL     1      -6.974  -3.358  11.842  1.00  0.00     0.010 A 
ATOM     79  C   UNL     1      -9.147  -1.627  12.190  1.00  0.00     0.020 A 
ATOM     80  C   UNL     1      -8.225  -3.698  11.318  1.00  0.00     0.020 A 
ATOM     81  C   UNL     1      -9.306  -2.834  11.504  1.00  0.00     0.054 A 
BRANCH  81  82
ATOM     82  S   UNL     1     -10.929  -3.238  10.797  1.00  0.00     0.124 S 
ATOM     83  O   UNL     1     -11.655  -3.725  11.965  1.00  0.00    -0.237 OA
ATOM     84  O   UNL     1     -11.375  -1.952  10.266  1.00  0.00    -0.237 OA
ATOM     85  O   UNL     1     -10.616  -4.245   9.786  1.00  0.00    -0.744 OA
ENDBRANCH  81  82
ENDBRANCH  53  76
BRANCH  65  86
ATOM     86  C   UNL     1      -4.064  -1.811  18.930  1.00  0.00    -0.014 A 
ATOM     87  C   UNL     1      -4.280  -3.119  19.397  1.00  0.00     0.010 A 
ATOM     88  C   UNL     1      -4.355  -0.722  19.770  1.00  0.00     0.010 A 
ATOM     89  C   UNL     1      -4.807  -3.333  20.673  1.00  0.00     0.020 A 
ATOM     90  C   UNL     1      -4.865  -0.932  21.053  1.00  0.00     0.020 A 
ATOM     91  C   UNL     1      -5.102  -2.237  21.491  1.00  0.00     0.054 A 
BRANCH  91  92
ATOM     92  S   UNL     1      -5.750  -2.534  23.160  1.00  0.00     0.124 S 
ATOM     93  O   UNL     1      -7.162  -2.795  22.894  1.00  0.00    -0.237 OA
ATOM     94  O   UNL     1      -4.972  -3.686  23.611  1.00  0.00    -0.237 OA
ATOM     95  O   UNL     1      -5.467  -1.286  23.865  1.00  0.00    -0.744 OA
ENDBRANCH  91  92
ENDBRANCH  65  86
ENDBRANCH  39  40
ENDBRANCH  31  34
ENDBRANCH  29  30
ENDBRANCH   1  29
TORSDOF 17
