REMARK SMILES C/C(=N\O)[C@@H]1C[C@@H](CC(=O)NCCCNC(=O)c2ccc(-c3c4nc(c(-c5ccc(S(=O)(=O)[O-])cc5)c5ccc([nH]5)c(-c5ccc(S(=O)(=O)[O-])cc5)c5nc(c(-c6ccc(S(=O)(=O)[O-])cc6)c6ccc3[nH]6)C=C5)C=C4)cc2)C1(C)C
REMARK SMILES IDX 13 1 12 2 11 3 9 4 10 5 8 7 7 8 5 9 6 10 78 11 79 12 80 13
REMARK SMILES IDX 2 14 1 15 3 16 4 17 14 19 15 20 16 21 17 23 18 24 19 25
REMARK SMILES IDX 77 26 20 27 76 28 21 29 22 30 23 31 70 32 24 33 75 34 69 35
REMARK SMILES IDX 71 36 25 37 74 38 68 39 67 40 26 42 56 43 37 44 55 45 38 46
REMARK SMILES IDX 41 47 54 48 72 49 39 50 40 51 53 53 73 54 42 55 27 56 28 57
REMARK SMILES IDX 36 58 29 59 35 60 30 61 31 62 32 63 33 64 34 65 57 66 58 67
REMARK SMILES IDX 66 68 59 69 65 70 60 71 61 72 62 73 63 74 64 75 43 76 44 77
REMARK SMILES IDX 52 78 45 79 51 80 46 81 47 82 48 83 49 84 50 85
REMARK H PARENT 11 6 4 18 15 22 71 41 41 52
REMARK Flexibility Score: inf
ROOT
ATOM      1  C   UNL     1       3.964  -0.532   3.541  1.00  0.00     0.042 C 
ENDROOT
BRANCH   1   2
ATOM      2  C   UNL     1       2.820  -0.710   4.541  1.00  0.00     0.117 C 
BRANCH   2   3
ATOM      3  N   UNL     1       2.566   0.486   5.327  1.00  0.00    -0.356 N 
ATOM      4  C   UNL     1       1.568   1.410   5.276  1.00  0.00     0.220 C 
ATOM      5  O   UNL     1       1.593   2.322   6.107  1.00  0.00    -0.275 OA
ATOM      6  H   UNL     1       3.239   0.660   6.025  1.00  0.00     0.163 HD
BRANCH   4   7
ATOM      7  C   UNL     1       0.460   1.358   4.236  1.00  0.00     0.104 C 
BRANCH   7   8
ATOM      8  C   UNL     1       0.629   2.408   3.132  1.00  0.00     0.005 C 
ATOM      9  C   UNL     1       0.304   2.770   0.994  1.00  0.00     0.043 C 
ATOM     10  C   UNL     1      -0.582   2.811   2.260  1.00  0.00     0.015 C 
ATOM     11  C   UNL     1       1.384   1.993   1.827  1.00  0.00    -0.024 C 
ATOM     12  C   UNL     1       1.357   0.538   1.356  1.00  0.00     0.012 C 
ATOM     13  C   UNL     1       2.797   2.583   1.869  1.00  0.00     0.012 C 
BRANCH   9  14
ATOM     14  C   UNL     1       0.817   4.038   0.239  1.00  0.00     0.058 C 
ATOM     15  C   UNL     1       0.415   5.410   0.707  1.00  0.00     0.066 C 
ATOM     16  N   UNL     1       1.608   3.791  -0.765  1.00  0.00    -0.099 NA
BRANCH  16  17
ATOM     17  O   UNL     1       2.103   4.950  -1.360  1.00  0.00    -0.411 OA
ATOM     18  H   UNL     1       2.683   4.889  -2.093  1.00  0.00     0.330 HD
ENDBRANCH  16  17
ENDBRANCH   9  14
ENDBRANCH   7   8
ENDBRANCH   4   7
ENDBRANCH   2   3
ENDBRANCH   1   2
BRANCH   1  19
ATOM     19  C   UNL     1       5.355  -0.490   4.163  1.00  0.00     0.118 C 
BRANCH  19  20
ATOM     20  N   UNL     1       6.051  -1.750   3.953  1.00  0.00    -0.352 N 
ATOM     21  C   UNL     1       6.980  -2.107   3.003  1.00  0.00     0.251 C 
ATOM     22  H   UNL     1       5.820  -2.461   4.592  1.00  0.00     0.163 HD
ATOM     23  O   UNL     1       7.169  -3.304   2.796  1.00  0.00    -0.269 OA
BRANCH  21  24
ATOM     24  C   UNL     1       7.760  -1.099   2.236  1.00  0.00     0.039 A 
ATOM     25  C   UNL     1       8.165  -1.412   0.931  1.00  0.00     0.014 A 
ATOM     26  C   UNL     1       8.204   0.091   2.815  1.00  0.00     0.014 A 
ATOM     27  C   UNL     1       8.991  -0.536   0.212  1.00  0.00     0.010 A 
ATOM     28  C   UNL     1       8.961   1.000   2.071  1.00  0.00     0.010 A 
ATOM     29  C   UNL     1       9.391   0.685   0.772  1.00  0.00    -0.014 A 
BRANCH  29  30
ATOM     30  C   UNL     1      10.317   1.615   0.063  1.00  0.00     0.031 A 
ATOM     31  C   UNL     1      11.667   1.928   0.663  1.00  0.00     0.074 A 
ATOM     32  C   UNL     1       9.939   2.228  -1.076  1.00  0.00     0.049 A 
ATOM     33  N   UNL     1      12.557   2.812   0.287  1.00  0.00    -0.248 NA
ATOM     34  C   UNL     1      12.053   1.163   1.860  1.00  0.00     0.031 C 
ATOM     35  C   UNL     1       8.663   2.031  -1.766  1.00  0.00     0.029 A 
ATOM     36  N   UNL     1      10.593   3.158  -1.849  1.00  0.00    -0.354 N 
ATOM     37  C   UNL     1      13.584   2.740   1.224  1.00  0.00     0.074 A 
ATOM     38  C   UNL     1      13.191   1.750   2.203  1.00  0.00     0.031 C 
ATOM     39  C   UNL     1       8.634   2.803  -2.865  1.00  0.00     0.029 A 
ATOM     40  C   UNL     1       9.866   3.584  -2.936  1.00  0.00     0.049 A 
ATOM     41  H   UNL     1      11.498   3.488  -1.644  1.00  0.00     0.167 HD
ATOM     42  C   UNL     1      14.754   3.422   1.262  1.00  0.00     0.031 A 
ATOM     43  C   UNL     1      10.147   4.510  -3.875  1.00  0.00     0.031 A 
ATOM     44  C   UNL     1      15.167   4.378   0.270  1.00  0.00     0.049 A 
ATOM     45  C   UNL     1      11.456   5.251  -3.819  1.00  0.00     0.074 A 
ATOM     46  C   UNL     1      16.356   5.082   0.196  1.00  0.00     0.029 A 
ATOM     47  N   UNL     1      14.409   4.755  -0.828  1.00  0.00    -0.354 N 
ATOM     48  N   UNL     1      12.422   5.149  -2.939  1.00  0.00    -0.248 NA
ATOM     49  C   UNL     1      11.715   6.226  -4.889  1.00  0.00     0.031 C 
ATOM     50  C   UNL     1      16.303   5.912  -0.929  1.00  0.00     0.029 A 
ATOM     51  C   UNL     1      15.101   5.688  -1.581  1.00  0.00     0.049 A 
ATOM     52  H   UNL     1      13.512   4.410  -1.040  1.00  0.00     0.167 HD
ATOM     53  C   UNL     1      13.417   6.022  -3.367  1.00  0.00     0.074 A 
ATOM     54  C   UNL     1      12.938   6.641  -4.585  1.00  0.00     0.031 C 
ATOM     55  C   UNL     1      14.621   6.284  -2.801  1.00  0.00     0.031 A 
BRANCH  42  56
ATOM     56  C   UNL     1      15.672   3.161   2.428  1.00  0.00    -0.014 A 
ATOM     57  C   UNL     1      16.362   1.942   2.555  1.00  0.00     0.010 A 
ATOM     58  C   UNL     1      15.869   4.161   3.399  1.00  0.00     0.010 A 
ATOM     59  C   UNL     1      17.189   1.707   3.657  1.00  0.00     0.020 A 
ATOM     60  C   UNL     1      16.717   3.941   4.488  1.00  0.00     0.020 A 
ATOM     61  C   UNL     1      17.354   2.706   4.621  1.00  0.00     0.054 A 
BRANCH  61  62
ATOM     62  S   UNL     1      18.435   2.377   6.040  1.00  0.00     0.124 S 
ATOM     63  O   UNL     1      17.600   1.497   6.855  1.00  0.00    -0.237 OA
ATOM     64  O   UNL     1      19.597   1.743   5.422  1.00  0.00    -0.237 OA
ATOM     65  O   UNL     1      18.679   3.702   6.605  1.00  0.00    -0.744 OA
ENDBRANCH  61  62
ENDBRANCH  42  56
BRANCH  43  66
ATOM     66  C   UNL     1       9.169   4.780  -4.964  1.00  0.00    -0.014 A 
ATOM     67  C   UNL     1       9.427   4.342  -6.275  1.00  0.00     0.010 A 
ATOM     68  C   UNL     1       7.968   5.461  -4.693  1.00  0.00     0.010 A 
ATOM     69  C   UNL     1       8.508   4.591  -7.298  1.00  0.00     0.020 A 
ATOM     70  C   UNL     1       7.036   5.690  -5.709  1.00  0.00     0.020 A 
ATOM     71  C   UNL     1       7.317   5.261  -7.008  1.00  0.00     0.054 A 
BRANCH  71  72
ATOM     72  S   UNL     1       6.110   5.519  -8.339  1.00  0.00     0.124 S 
ATOM     73  O   UNL     1       6.719   6.610  -9.094  1.00  0.00    -0.237 OA
ATOM     74  O   UNL     1       6.091   4.220  -9.006  1.00  0.00    -0.237 OA
ATOM     75  O   UNL     1       4.883   5.860  -7.623  1.00  0.00    -0.744 OA
ENDBRANCH  71  72
ENDBRANCH  43  66
BRANCH  55  76
ATOM     76  C   UNL     1      15.537   7.241  -3.514  1.00  0.00    -0.014 A 
ATOM     77  C   UNL     1      15.310   8.627  -3.487  1.00  0.00     0.010 A 
ATOM     78  C   UNL     1      16.690   6.746  -4.152  1.00  0.00     0.010 A 
ATOM     79  C   UNL     1      16.212   9.502  -4.101  1.00  0.00     0.020 A 
ATOM     80  C   UNL     1      17.604   7.618  -4.747  1.00  0.00     0.020 A 
ATOM     81  C   UNL     1      17.355   8.991  -4.726  1.00  0.00     0.054 A 
BRANCH  81  82
ATOM     82  S   UNL     1      18.545  10.149  -5.457  1.00  0.00     0.124 S 
ATOM     83  O   UNL     1      17.861  10.555  -6.682  1.00  0.00    -0.237 OA
ATOM     84  O   UNL     1      18.661  11.182  -4.430  1.00  0.00    -0.237 OA
ATOM     85  O   UNL     1      19.744   9.337  -5.651  1.00  0.00    -0.744 OA
ENDBRANCH  81  82
ENDBRANCH  55  76
ENDBRANCH  29  30
ENDBRANCH  21  24
ENDBRANCH  19  20
ENDBRANCH   1  19
TORSDOF 16
