REMARK SMILES C[C@@H](NC(=O)N1CC[N@@H+]2CCCC[C@H]2C1)C(=O)NCCCNC(=O)c1ccc(-c2c3nc(c(-c4ccc(S(=O)(=O)[O-])cc4)c4ccc([nH]4)c(-c4ccc(S(=O)(=O)[O-])cc4)c4nc(c(-c5ccc(S(=O)(=O)[O-])cc5)c5ccc2[nH]5)C=C4)C=C3)cc1
REMARK SMILES IDX 20 1 19 2 18 3 16 4 17 5 2 7 1 8 3 9 4 10 5 12 6 13 7 14
REMARK SMILES IDX 15 15 8 16 14 17 9 18 13 19 10 20 12 22 11 23 21 24 22 25
REMARK SMILES IDX 23 26 24 28 25 29 26 30 84 31 27 32 83 33 28 34 29 35 30 36
REMARK SMILES IDX 77 37 31 38 82 39 76 40 78 41 32 42 81 43 75 44 74 45 33 47
REMARK SMILES IDX 63 48 44 49 62 50 45 51 48 52 61 53 79 54 46 55 47 56 60 58
REMARK SMILES IDX 80 59 49 60 34 61 35 62 43 63 36 64 42 65 37 66 38 67 39 68
REMARK SMILES IDX 40 69 41 70 64 71 65 72 73 73 66 74 72 75 67 76 68 77 69 78
REMARK SMILES IDX 70 79 71 80 50 81 51 82 59 83 52 84 58 85 53 86 54 87 55 88
REMARK SMILES IDX 56 89 57 90
REMARK H PARENT 18 6 3 11 9 21 22 27 78 46 48 57
REMARK Flexibility Score: inf
ROOT
ATOM      1  C   UNL     1      -0.563  -2.054   2.455  1.00  0.00     0.042 C 
ENDROOT
BRANCH   1   2
ATOM      2  C   UNL     1      -0.372  -1.874   0.954  1.00  0.00     0.117 C 
BRANCH   2   3
ATOM      3  N   UNL     1      -0.899  -0.608   0.480  1.00  0.00    -0.354 N 
ATOM      4  C   UNL     1      -0.585   0.082  -0.652  1.00  0.00     0.242 C 
ATOM      5  O   UNL     1      -1.101   1.195  -0.803  1.00  0.00    -0.273 OA
ATOM      6  H   UNL     1      -1.578  -0.189   1.056  1.00  0.00     0.163 HD
BRANCH   4   7
ATOM      7  C   UNL     1       0.504  -0.394  -1.631  1.00  0.00     0.170 C 
ATOM      8  C   UNL     1       1.844   0.086  -1.057  1.00  0.00     0.041 C 
BRANCH   7   9
ATOM      9  N   UNL     1       0.571  -1.825  -1.913  1.00  0.00    -0.326 N 
ATOM     10  C   UNL     1      -0.348  -2.738  -2.295  1.00  0.00     0.318 C 
ATOM     11  H   UNL     1       1.473  -2.203  -1.802  1.00  0.00     0.166 HD
ATOM     12  O   UNL     1       0.053  -3.897  -2.409  1.00  0.00    -0.249 OA
BRANCH  10  13
ATOM     13  N   UNL     1      -1.669  -2.417  -2.342  1.00  0.00    -0.313 N 
ATOM     14  C   UNL     1      -2.279  -1.304  -3.067  1.00  0.00     0.183 C 
ATOM     15  C   UNL     1      -2.644  -3.430  -1.939  1.00  0.00     0.186 C 
ATOM     16  C   UNL     1      -3.482  -0.694  -2.310  1.00  0.00     0.284 C 
ATOM     17  C   UNL     1      -3.711  -2.775  -1.038  1.00  0.00     0.203 C 
ATOM     18  N   UNL     1      -4.430  -1.671  -1.724  1.00  0.00    -0.330 N 
ATOM     19  C   UNL     1      -4.719  -3.814  -0.536  1.00  0.00     0.067 C 
ATOM     20  C   UNL     1      -5.323  -0.984  -0.770  1.00  0.00     0.262 C 
ATOM     21  H   UNL     1      -4.981  -2.077  -2.480  1.00  0.00     0.348 HD
ATOM     22  C   UNL     1      -5.674  -3.170   0.463  1.00  0.00     0.012 C 
ATOM     23  C   UNL     1      -6.339  -1.936  -0.134  1.00  0.00     0.062 C 
ENDBRANCH  10  13
ENDBRANCH   7   9
ENDBRANCH   4   7
ENDBRANCH   2   3
ENDBRANCH   1   2
BRANCH   1  24
ATOM     24  C   UNL     1      -2.002  -2.356   2.858  1.00  0.00     0.118 C 
BRANCH  24  25
ATOM     25  N   UNL     1      -2.461  -3.670   2.432  1.00  0.00    -0.352 N 
ATOM     26  C   UNL     1      -3.420  -4.476   3.002  1.00  0.00     0.251 C 
ATOM     27  H   UNL     1      -2.027  -4.031   1.625  1.00  0.00     0.163 HD
ATOM     28  O   UNL     1      -3.635  -5.589   2.529  1.00  0.00    -0.269 OA
BRANCH  26  29
ATOM     29  C   UNL     1      -4.146  -4.030   4.214  1.00  0.00     0.039 A 
ATOM     30  C   UNL     1      -4.295  -4.944   5.260  1.00  0.00     0.014 A 
ATOM     31  C   UNL     1      -4.629  -2.725   4.351  1.00  0.00     0.014 A 
ATOM     32  C   UNL     1      -4.828  -4.520   6.477  1.00  0.00     0.010 A 
ATOM     33  C   UNL     1      -5.100  -2.285   5.585  1.00  0.00     0.010 A 
ATOM     34  C   UNL     1      -5.178  -3.173   6.665  1.00  0.00    -0.014 A 
BRANCH  34  35
ATOM     35  C   UNL     1      -5.522  -2.673   8.016  1.00  0.00     0.031 A 
ATOM     36  C   UNL     1      -6.907  -2.192   8.333  1.00  0.00     0.074 A 
ATOM     37  C   UNL     1      -4.545  -2.612   8.942  1.00  0.00     0.049 A 
ATOM     38  N   UNL     1      -7.390  -1.790   9.480  1.00  0.00    -0.248 NA
ATOM     39  C   UNL     1      -7.867  -2.133   7.220  1.00  0.00     0.031 C 
ATOM     40  C   UNL     1      -3.142  -2.975   8.715  1.00  0.00     0.029 A 
ATOM     41  N   UNL     1      -4.578  -2.232  10.259  1.00  0.00    -0.354 N 
ATOM     42  C   UNL     1      -8.710  -1.435   9.230  1.00  0.00     0.074 A 
ATOM     43  C   UNL     1      -8.935  -1.617   7.812  1.00  0.00     0.031 C 
ATOM     44  C   UNL     1      -2.460  -2.841   9.863  1.00  0.00     0.029 A 
ATOM     45  C   UNL     1      -3.368  -2.363  10.899  1.00  0.00     0.049 A 
ATOM     46  H   UNL     1      -5.390  -1.896  10.703  1.00  0.00     0.167 HD
ATOM     47  C   UNL     1      -9.652  -1.018  10.110  1.00  0.00     0.031 A 
ATOM     48  C   UNL     1      -3.031  -2.141  12.183  1.00  0.00     0.031 A 
ATOM     49  C   UNL     1      -9.410  -0.831  11.516  1.00  0.00     0.049 A 
ATOM     50  C   UNL     1      -4.101  -1.708  13.145  1.00  0.00     0.074 A 
ATOM     51  C   UNL     1     -10.305  -0.463  12.505  1.00  0.00     0.029 A 
ATOM     52  N   UNL     1      -8.178  -0.994  12.134  1.00  0.00    -0.354 N 
ATOM     53  N   UNL     1      -5.370  -1.471  12.910  1.00  0.00    -0.248 NA
ATOM     54  C   UNL     1      -3.700  -1.536  14.546  1.00  0.00     0.031 C 
ATOM     55  C   UNL     1      -9.604  -0.360  13.713  1.00  0.00     0.029 A 
ATOM     56  C   UNL     1      -8.284  -0.716  13.486  1.00  0.00     0.049 A 
ATOM     57  H   UNL     1      -7.349  -1.268  11.677  1.00  0.00     0.167 HD
ATOM     58  C   UNL     1      -5.926  -1.143  14.140  1.00  0.00     0.074 A 
ATOM     59  C   UNL     1      -4.858  -1.232  15.117  1.00  0.00     0.031 C 
ATOM     60  C   UNL     1      -7.204  -0.800  14.437  1.00  0.00     0.031 A 
BRANCH  47  61
ATOM     61  C   UNL     1     -11.030  -0.738   9.569  1.00  0.00    -0.014 A 
ATOM     62  C   UNL     1     -11.857  -1.785   9.122  1.00  0.00     0.010 A 
ATOM     63  C   UNL     1     -11.519   0.581   9.534  1.00  0.00     0.010 A 
ATOM     64  C   UNL     1     -13.129  -1.516   8.609  1.00  0.00     0.020 A 
ATOM     65  C   UNL     1     -12.802   0.852   9.046  1.00  0.00     0.020 A 
ATOM     66  C   UNL     1     -13.591  -0.197   8.570  1.00  0.00     0.054 A 
BRANCH  66  67
ATOM     67  S   UNL     1     -15.252   0.123   7.913  1.00  0.00     0.124 S 
ATOM     68  O   UNL     1     -15.047  -0.060   6.478  1.00  0.00    -0.237 OA
ATOM     69  O   UNL     1     -16.060  -0.903   8.568  1.00  0.00    -0.237 OA
ATOM     70  O   UNL     1     -15.532   1.494   8.332  1.00  0.00    -0.744 OA
ENDBRANCH  66  67
ENDBRANCH  47  61
BRANCH  48  71
ATOM     71  C   UNL     1      -1.633  -2.376  12.635  1.00  0.00    -0.014 A 
ATOM     72  C   UNL     1      -1.320  -3.482  13.444  1.00  0.00     0.010 A 
ATOM     73  C   UNL     1      -0.601  -1.510  12.231  1.00  0.00     0.010 A 
ATOM     74  C   UNL     1      -0.004  -3.708  13.858  1.00  0.00     0.020 A 
ATOM     75  C   UNL     1       0.721  -1.747  12.622  1.00  0.00     0.020 A 
ATOM     76  C   UNL     1       1.009  -2.839  13.443  1.00  0.00     0.054 A 
BRANCH  76  77
ATOM     77  S   UNL     1       2.719  -3.182  13.945  1.00  0.00     0.124 S 
ATOM     78  O   UNL     1       2.713  -2.765  15.344  1.00  0.00    -0.237 OA
ATOM     79  O   UNL     1       2.836  -4.619  13.712  1.00  0.00    -0.237 OA
ATOM     80  O   UNL     1       3.511  -2.346  13.045  1.00  0.00    -0.744 OA
ENDBRANCH  76  77
ENDBRANCH  48  71
BRANCH  60  81
ATOM     81  C   UNL     1      -7.514  -0.516  15.881  1.00  0.00    -0.014 A 
ATOM     82  C   UNL     1      -7.057   0.658  16.506  1.00  0.00     0.010 A 
ATOM     83  C   UNL     1      -8.297  -1.426  16.614  1.00  0.00     0.010 A 
ATOM     84  C   UNL     1      -7.340   0.895  17.853  1.00  0.00     0.020 A 
ATOM     85  C   UNL     1      -8.605  -1.179  17.954  1.00  0.00     0.020 A 
ATOM     86  C   UNL     1      -8.108  -0.028  18.570  1.00  0.00     0.054 A 
BRANCH  86  87
ATOM     87  S   UNL     1      -8.481   0.310  20.312  1.00  0.00     0.124 S 
ATOM     88  O   UNL     1      -7.215  -0.016  20.961  1.00  0.00    -0.237 OA
ATOM     89  O   UNL     1      -8.833   1.728  20.296  1.00  0.00    -0.237 OA
ATOM     90  O   UNL     1      -9.588  -0.597  20.610  1.00  0.00    -0.744 OA
ENDBRANCH  86  87
ENDBRANCH  60  81
ENDBRANCH  34  35
ENDBRANCH  26  29
ENDBRANCH  24  25
ENDBRANCH   1  24
TORSDOF 15
