REMARK SMILES Cc1cccc(Cl)c1Nc1ccccc1CC(=O)NCCCNC(=O)c1ccc(-c2c3nc(c(-c4ccc(S(=O)(=O)[O-])cc4)c4ccc([nH]4)c(-c4ccc(S(=O)(=O)[O-])cc4)c4nc(c(-c5ccc(S(=O)(=O)[O-])cc5)c5ccc2[nH]5)C=C4)C=C3)cc1
REMARK SMILES IDX 21 1 20 2 19 3 17 4 18 5 16 7 15 8 10 9 11 10 12 11 14 12
REMARK SMILES IDX 13 13 9 14 8 16 1 17 2 18 3 19 4 20 6 21 5 22 7 23 22 24
REMARK SMILES IDX 23 25 24 26 25 28 26 29 27 30 85 31 28 32 84 33 29 34 30 35
REMARK SMILES IDX 31 36 78 37 32 38 83 39 77 40 79 41 33 42 82 43 76 44 75 45
REMARK SMILES IDX 34 47 64 48 45 49 63 50 46 51 49 52 62 53 80 54 47 55 48 56
REMARK SMILES IDX 61 58 81 59 50 60 35 61 36 62 44 63 37 64 43 65 38 66 39 67
REMARK SMILES IDX 40 68 41 69 42 70 65 71 66 72 74 73 67 74 73 75 68 76 69 77
REMARK SMILES IDX 70 78 71 79 72 80 51 81 52 82 60 83 53 84 59 85 54 86 55 87
REMARK SMILES IDX 56 88 57 89 58 90
REMARK H PARENT 19 6 9 15 23 27 79 46 49 57
REMARK Flexibility Score: inf
ROOT
ATOM      1  C   UNL     1       0.455   5.023  -2.256  1.00  0.00     0.042 C 
ENDROOT
BRANCH   1   2
ATOM      2  C   UNL     1      -0.023   3.683  -2.807  1.00  0.00     0.117 C 
BRANCH   2   3
ATOM      3  N   UNL     1       0.948   3.083  -3.700  1.00  0.00    -0.356 N 
ATOM      4  C   UNL     1       1.859   2.103  -3.425  1.00  0.00     0.224 C 
ATOM      5  O   UNL     1       2.655   1.777  -4.307  1.00  0.00    -0.275 OA
ATOM      6  H   UNL     1       0.952   3.426  -4.623  1.00  0.00     0.163 HD
BRANCH   4   7
ATOM      7  C   UNL     1       1.835   1.407  -2.074  1.00  0.00     0.137 C 
BRANCH   7   8
ATOM      8  C   UNL     1       2.331   2.260  -0.925  1.00  0.00    -0.015 A 
ATOM      9  C   UNL     1       1.557   2.548   0.220  1.00  0.00     0.042 A 
ATOM     10  C   UNL     1       2.078   3.437   1.179  1.00  0.00     0.026 A 
ATOM     11  C   UNL     1       3.345   4.002   1.039  1.00  0.00     0.002 A 
ATOM     12  C   UNL     1       3.622   2.819  -1.038  1.00  0.00     0.006 A 
ATOM     13  C   UNL     1       4.124   3.682  -0.065  1.00  0.00     0.000 A 
BRANCH   9  14
ATOM     14  N   UNL     1       0.304   1.967   0.508  1.00  0.00    -0.354 N 
ATOM     15  H   UNL     1      -0.365   2.609   0.839  1.00  0.00     0.167 HD
BRANCH  14  16
ATOM     16  C   UNL     1      -0.178   0.639   0.415  1.00  0.00     0.060 A 
ATOM     17  C   UNL     1      -2.517   1.603   0.012  1.00  0.00     0.046 C 
ATOM     18  C   UNL     1      -1.558   0.446   0.134  1.00  0.00    -0.026 A 
ATOM     19  C   UNL     1      -2.062  -0.851  -0.079  1.00  0.00     0.005 A 
ATOM     20  C   UNL     1      -1.228  -1.961  -0.007  1.00  0.00     0.002 A 
ATOM     21  C   UNL     1       0.639  -0.511   0.519  1.00  0.00     0.064 A 
ATOM     22  C   UNL     1       0.117  -1.792   0.300  1.00  0.00     0.023 A 
ATOM     23  Cl  UNL     1       2.295  -0.459   1.028  1.00  0.00    -0.082 Cl
ENDBRANCH  14  16
ENDBRANCH   9  14
ENDBRANCH   7   8
ENDBRANCH   4   7
ENDBRANCH   2   3
ENDBRANCH   1   2
BRANCH   1  24
ATOM     24  C   UNL     1       0.535   6.122  -3.310  1.00  0.00     0.118 C 
BRANCH  24  25
ATOM     25  N   UNL     1      -0.769   6.446  -3.871  1.00  0.00    -0.352 N 
ATOM     26  C   UNL     1      -1.410   7.653  -3.962  1.00  0.00     0.251 C 
ATOM     27  H   UNL     1      -1.266   5.681  -4.242  1.00  0.00     0.163 HD
ATOM     28  O   UNL     1      -2.601   7.679  -4.282  1.00  0.00    -0.269 OA
BRANCH  26  29
ATOM     29  C   UNL     1      -0.693   8.912  -3.672  1.00  0.00     0.039 A 
ATOM     30  C   UNL     1      -1.361   9.926  -2.980  1.00  0.00     0.014 A 
ATOM     31  C   UNL     1       0.619   9.113  -4.110  1.00  0.00     0.014 A 
ATOM     32  C   UNL     1      -0.699  11.119  -2.686  1.00  0.00     0.010 A 
ATOM     33  C   UNL     1       1.303  10.270  -3.748  1.00  0.00     0.010 A 
ATOM     34  C   UNL     1       0.648  11.291  -3.044  1.00  0.00    -0.014 A 
BRANCH  34  35
ATOM     35  C   UNL     1       1.383  12.538  -2.710  1.00  0.00     0.031 A 
ATOM     36  C   UNL     1       1.909  13.420  -3.812  1.00  0.00     0.074 A 
ATOM     37  C   UNL     1       1.626  12.846  -1.421  1.00  0.00     0.049 A 
ATOM     38  N   UNL     1       2.628  14.509  -3.723  1.00  0.00    -0.248 NA
ATOM     39  C   UNL     1       1.609  13.013  -5.196  1.00  0.00     0.031 C 
ATOM     40  C   UNL     1       1.199  12.054  -0.264  1.00  0.00     0.029 A 
ATOM     41  N   UNL     1       2.299  13.905  -0.864  1.00  0.00    -0.354 N 
ATOM     42  C   UNL     1       2.884  14.903  -5.032  1.00  0.00     0.074 A 
ATOM     43  C   UNL     1       2.284  13.912  -5.897  1.00  0.00     0.031 C 
ATOM     44  C   UNL     1       1.597  12.668   0.862  1.00  0.00     0.029 A 
ATOM     45  C   UNL     1       2.345  13.871   0.510  1.00  0.00     0.049 A 
ATOM     46  H   UNL     1       2.709  14.623  -1.399  1.00  0.00     0.167 HD
ATOM     47  C   UNL     1       3.542  16.001  -5.475  1.00  0.00     0.031 A 
ATOM     48  C   UNL     1       2.932  14.707   1.388  1.00  0.00     0.031 A 
ATOM     49  C   UNL     1       4.121  16.994  -4.610  1.00  0.00     0.049 A 
ATOM     50  C   UNL     1       3.667  15.914   0.869  1.00  0.00     0.074 A 
ATOM     51  C   UNL     1       4.757  18.172  -4.960  1.00  0.00     0.029 A 
ATOM     52  N   UNL     1       4.134  16.928  -3.225  1.00  0.00    -0.354 N 
ATOM     53  N   UNL     1       3.840  16.303  -0.372  1.00  0.00    -0.248 NA
ATOM     54  C   UNL     1       4.274  16.803   1.869  1.00  0.00     0.031 C 
ATOM     55  C   UNL     1       5.205  18.791  -3.790  1.00  0.00     0.029 A 
ATOM     56  C   UNL     1       4.789  18.033  -2.707  1.00  0.00     0.049 A 
ATOM     57  H   UNL     1       3.738  16.204  -2.690  1.00  0.00     0.167 HD
ATOM     58  C   UNL     1       4.545  17.500  -0.298  1.00  0.00     0.074 A 
ATOM     59  C   UNL     1       4.753  17.777   1.108  1.00  0.00     0.031 C 
ATOM     60  C   UNL     1       4.979  18.299  -1.304  1.00  0.00     0.031 A 
BRANCH  47  61
ATOM     61  C   UNL     1       3.676  16.189  -6.964  1.00  0.00    -0.014 A 
ATOM     62  C   UNL     1       2.561  16.506  -7.761  1.00  0.00     0.010 A 
ATOM     63  C   UNL     1       4.945  16.110  -7.566  1.00  0.00     0.010 A 
ATOM     64  C   UNL     1       2.708  16.710  -9.135  1.00  0.00     0.020 A 
ATOM     65  C   UNL     1       5.101  16.343  -8.935  1.00  0.00     0.020 A 
ATOM     66  C   UNL     1       3.978  16.630  -9.714  1.00  0.00     0.054 A 
BRANCH  66  67
ATOM     67  S   UNL     1       4.144  16.945 -11.492  1.00  0.00     0.124 S 
ATOM     68  O   UNL     1       3.528  15.752 -12.068  1.00  0.00    -0.237 OA
ATOM     69  O   UNL     1       3.393  18.186 -11.667  1.00  0.00    -0.237 OA
ATOM     70  O   UNL     1       5.586  17.059 -11.693  1.00  0.00    -0.744 OA
ENDBRANCH  66  67
ENDBRANCH  47  61
BRANCH  48  71
ATOM     71  C   UNL     1       2.846  14.440   2.851  1.00  0.00    -0.014 A 
ATOM     72  C   UNL     1       2.104  15.289   3.692  1.00  0.00     0.010 A 
ATOM     73  C   UNL     1       3.519  13.341   3.415  1.00  0.00     0.010 A 
ATOM     74  C   UNL     1       2.062  15.063   5.071  1.00  0.00     0.020 A 
ATOM     75  C   UNL     1       3.454  13.093   4.789  1.00  0.00     0.020 A 
ATOM     76  C   UNL     1       2.739  13.966   5.611  1.00  0.00     0.054 A 
BRANCH  76  77
ATOM     77  S   UNL     1       2.650  13.677   7.400  1.00  0.00     0.124 S 
ATOM     78  O   UNL     1       3.504  14.740   7.921  1.00  0.00    -0.237 OA
ATOM     79  O   UNL     1       1.222  13.820   7.671  1.00  0.00    -0.237 OA
ATOM     80  O   UNL     1       3.173  12.321   7.553  1.00  0.00    -0.744 OA
ENDBRANCH  76  77
ENDBRANCH  48  71
BRANCH  60  81
ATOM     81  C   UNL     1       5.678  19.578  -0.924  1.00  0.00    -0.014 A 
ATOM     82  C   UNL     1       6.971  19.573  -0.375  1.00  0.00     0.010 A 
ATOM     83  C   UNL     1       5.045  20.810  -1.177  1.00  0.00     0.010 A 
ATOM     84  C   UNL     1       7.606  20.776  -0.054  1.00  0.00     0.020 A 
ATOM     85  C   UNL     1       5.689  22.015  -0.888  1.00  0.00     0.020 A 
ATOM     86  C   UNL     1       6.960  21.990  -0.314  1.00  0.00     0.054 A 
BRANCH  86  87
ATOM     87  S   UNL     1       7.824  23.538   0.071  1.00  0.00     0.124 S 
ATOM     88  O   UNL     1       7.763  23.564   1.530  1.00  0.00    -0.237 OA
ATOM     89  O   UNL     1       9.150  23.315  -0.499  1.00  0.00    -0.237 OA
ATOM     90  O   UNL     1       7.024  24.558  -0.604  1.00  0.00    -0.744 OA
ENDBRANCH  86  87
ENDBRANCH  60  81
ENDBRANCH  34  35
ENDBRANCH  26  29
ENDBRANCH  24  25
ENDBRANCH   1  24
TORSDOF 16
