REMARK SMILES COc1ccc(F)cc1-c1ccc(C[C@]2(C(=O)NCCCNC(=O)c3ccc(-c4c5nc(c(-c6ccc(S(=O)(=O)[O-])cc6)c6ccc([nH]6)c(-c6ccc(S(=O)(=O)[O-])cc6)c6nc(c(-c7ccc(S(=O)(=O)[O-])cc7)c7ccc4[nH]7)C=C6)C=C5)cc3)CCCO2)cc1
REMARK SMILES IDX 19 1 18 2 16 3 17 4 15 6 85 7 88 8 86 9 87 10 14 11 13 12
REMARK SMILES IDX 10 13 11 14 90 15 12 16 89 17 9 18 3 19 4 20 5 21 8 22 6 23
REMARK SMILES IDX 7 24 2 25 1 26 20 27 21 28 22 29 23 30 24 32 25 33 26 34
REMARK SMILES IDX 84 35 27 36 83 37 28 38 29 39 30 40 77 41 31 42 82 43 76 44
REMARK SMILES IDX 78 45 32 46 81 47 75 48 74 49 33 51 63 52 44 53 62 54 45 55
REMARK SMILES IDX 48 56 61 57 79 58 46 59 47 60 60 62 80 63 49 64 34 65 35 66
REMARK SMILES IDX 43 67 36 68 42 69 37 70 38 71 39 72 40 73 41 74 64 75 65 76
REMARK SMILES IDX 73 77 66 78 72 79 67 80 68 81 69 82 70 83 71 84 50 85 51 86
REMARK SMILES IDX 59 87 52 88 58 89 53 90 54 91 55 92 56 93 57 94
REMARK H PARENT 18 5 22 31 78 50 48 61
REMARK Flexibility Score: inf
ROOT
ATOM      1  C   UNL     1      -9.290  -3.625  -2.745  1.00  0.00     0.117 C 
ENDROOT
BRANCH   1   2
ATOM      2  N   UNL     1      -9.102  -3.269  -1.351  1.00  0.00    -0.354 N 
ATOM      3  C   UNL     1      -7.968  -3.076  -0.614  1.00  0.00     0.252 C 
ATOM      4  O   UNL     1      -8.144  -2.749   0.566  1.00  0.00    -0.272 OA
ATOM      5  H   UNL     1      -9.939  -3.144  -0.848  1.00  0.00     0.163 HD
BRANCH   3   6
ATOM      6  C   UNL     1      -6.538  -3.312  -1.195  1.00  0.00     0.150 C 
ATOM      7  C   UNL     1      -6.319  -4.803  -1.472  1.00  0.00     0.048 C 
ATOM      8  O   UNL     1      -6.375  -2.616  -2.444  1.00  0.00    -0.365 OA
ATOM      9  C   UNL     1      -5.976  -4.896  -2.941  1.00  0.00     0.032 C 
ATOM     10  C   UNL     1      -5.691  -3.475  -3.363  1.00  0.00     0.162 C 
BRANCH   6  11
ATOM     11  C   UNL     1      -5.519  -2.743  -0.157  1.00  0.00     0.081 C 
BRANCH  11  12
ATOM     12  C   UNL     1      -4.062  -2.694  -0.579  1.00  0.00    -0.045 A 
ATOM     13  C   UNL     1      -1.381  -2.604  -1.480  1.00  0.00    -0.015 A 
ATOM     14  C   UNL     1      -1.923  -3.784  -0.954  1.00  0.00     0.009 A 
ATOM     15  C   UNL     1      -2.189  -1.460  -1.523  1.00  0.00     0.009 A 
ATOM     16  C   UNL     1      -3.240  -3.823  -0.490  1.00  0.00     0.004 A 
ATOM     17  C   UNL     1      -3.517  -1.506  -1.084  1.00  0.00     0.004 A 
BRANCH  13  18
ATOM     18  C   UNL     1      -0.006  -2.586  -1.993  1.00  0.00     0.027 A 
ATOM     19  C   UNL     1       1.058  -2.002  -1.279  1.00  0.00     0.126 A 
ATOM     20  C   UNL     1       2.368  -2.048  -1.774  1.00  0.00     0.050 A 
ATOM     21  C   UNL     1       2.624  -2.644  -3.007  1.00  0.00     0.043 A 
ATOM     22  C   UNL     1       0.274  -3.180  -3.235  1.00  0.00     0.051 A 
ATOM     23  C   UNL     1       1.575  -3.200  -3.728  1.00  0.00     0.124 A 
ATOM     24  F   UNL     1       1.823  -3.776  -4.911  1.00  0.00    -0.207 F 
BRANCH  19  25
ATOM     25  O   UNL     1       0.809  -1.472  -0.037  1.00  0.00    -0.496 OA
ATOM     26  C   UNL     1       1.122  -0.082   0.021  1.00  0.00     0.278 C 
ENDBRANCH  19  25
ENDBRANCH  13  18
ENDBRANCH  11  12
ENDBRANCH   6  11
ENDBRANCH   3   6
ENDBRANCH   1   2
BRANCH   1  27
ATOM     27  C   UNL     1      -9.658  -5.095  -2.928  1.00  0.00     0.042 C 
BRANCH  27  28
ATOM     28  C   UNL     1     -11.060  -5.442  -2.445  1.00  0.00     0.118 C 
BRANCH  28  29
ATOM     29  N   UNL     1     -12.086  -4.899  -3.321  1.00  0.00    -0.352 N 
ATOM     30  C   UNL     1     -13.031  -5.545  -4.077  1.00  0.00     0.251 C 
ATOM     31  H   UNL     1     -12.105  -3.916  -3.380  1.00  0.00     0.163 HD
ATOM     32  O   UNL     1     -13.643  -4.915  -4.935  1.00  0.00    -0.269 OA
BRANCH  30  33
ATOM     33  C   UNL     1     -13.314  -6.986  -3.876  1.00  0.00     0.039 A 
ATOM     34  C   UNL     1     -13.600  -7.779  -4.992  1.00  0.00     0.014 A 
ATOM     35  C   UNL     1     -13.363  -7.547  -2.596  1.00  0.00     0.014 A 
ATOM     36  C   UNL     1     -13.899  -9.134  -4.828  1.00  0.00     0.010 A 
ATOM     37  C   UNL     1     -13.584  -8.914  -2.440  1.00  0.00     0.010 A 
ATOM     38  C   UNL     1     -13.876  -9.718  -3.551  1.00  0.00    -0.014 A 
BRANCH  38  39
ATOM     39  C   UNL     1     -14.201 -11.153  -3.352  1.00  0.00     0.031 A 
ATOM     40  C   UNL     1     -15.421 -11.544  -2.559  1.00  0.00     0.074 A 
ATOM     41  C   UNL     1     -13.376 -12.103  -3.834  1.00  0.00     0.049 A 
ATOM     42  N   UNL     1     -15.839 -12.737  -2.220  1.00  0.00    -0.248 NA
ATOM     43  C   UNL     1     -16.269 -10.448  -2.061  1.00  0.00     0.031 C 
ATOM     44  C   UNL     1     -12.146 -11.855  -4.588  1.00  0.00     0.029 A 
ATOM     45  N   UNL     1     -13.448 -13.472  -3.756  1.00  0.00    -0.354 N 
ATOM     46  C   UNL     1     -16.979 -12.534  -1.450  1.00  0.00     0.074 A 
ATOM     47  C   UNL     1     -17.161 -11.104  -1.333  1.00  0.00     0.031 C 
ATOM     48  C   UNL     1     -11.592 -13.032  -4.926  1.00  0.00     0.029 A 
ATOM     49  C   UNL     1     -12.407 -14.115  -4.383  1.00  0.00     0.049 A 
ATOM     50  H   UNL     1     -14.176 -13.948  -3.295  1.00  0.00     0.167 HD
ATOM     51  C   UNL     1     -17.812 -13.453  -0.904  1.00  0.00     0.031 A 
ATOM     52  C   UNL     1     -12.136 -15.429  -4.505  1.00  0.00     0.031 A 
ATOM     53  C   UNL     1     -17.642 -14.875  -1.040  1.00  0.00     0.049 A 
ATOM     54  C   UNL     1     -13.081 -16.432  -3.902  1.00  0.00     0.074 A 
ATOM     55  C   UNL     1     -18.458 -15.889  -0.570  1.00  0.00     0.029 A 
ATOM     56  N   UNL     1     -16.585 -15.484  -1.701  1.00  0.00    -0.354 N 
ATOM     57  N   UNL     1     -14.180 -16.220  -3.219  1.00  0.00    -0.248 NA
ATOM     58  C   UNL     1     -12.754 -17.851  -4.099  1.00  0.00     0.031 C 
ATOM     59  C   UNL     1     -17.874 -17.113  -0.915  1.00  0.00     0.029 A 
ATOM     60  C   UNL     1     -16.721 -16.860  -1.640  1.00  0.00     0.049 A 
ATOM     61  H   UNL     1     -15.848 -15.007  -2.147  1.00  0.00     0.167 HD
ATOM     62  C   UNL     1     -14.692 -17.479  -2.927  1.00  0.00     0.074 A 
ATOM     63  C   UNL     1     -13.787 -18.446  -3.517  1.00  0.00     0.031 C 
ATOM     64  C   UNL     1     -15.811 -17.806  -2.234  1.00  0.00     0.031 A 
BRANCH  51  65
ATOM     65  C   UNL     1     -18.981 -12.939  -0.105  1.00  0.00    -0.014 A 
ATOM     66  C   UNL     1     -20.061 -12.293  -0.733  1.00  0.00     0.010 A 
ATOM     67  C   UNL     1     -19.009 -13.118   1.290  1.00  0.00     0.010 A 
ATOM     68  C   UNL     1     -21.122 -11.788   0.024  1.00  0.00     0.020 A 
ATOM     69  C   UNL     1     -20.082 -12.640   2.048  1.00  0.00     0.020 A 
ATOM     70  C   UNL     1     -21.121 -11.959   1.411  1.00  0.00     0.054 A 
BRANCH  70  71
ATOM     71  S   UNL     1     -22.512 -11.297   2.371  1.00  0.00     0.124 S 
ATOM     72  O   UNL     1     -22.218  -9.866   2.377  1.00  0.00    -0.237 OA
ATOM     73  O   UNL     1     -23.671 -11.696   1.577  1.00  0.00    -0.237 OA
ATOM     74  O   UNL     1     -22.388 -11.964   3.664  1.00  0.00    -0.744 OA
ENDBRANCH  70  71
ENDBRANCH  51  65
BRANCH  52  75
ATOM     75  C   UNL     1     -10.930 -15.869  -5.256  1.00  0.00    -0.014 A 
ATOM     76  C   UNL     1     -11.059 -16.451  -6.529  1.00  0.00     0.010 A 
ATOM     77  C   UNL     1      -9.645 -15.685  -4.714  1.00  0.00     0.010 A 
ATOM     78  C   UNL     1      -9.926 -16.853  -7.243  1.00  0.00     0.020 A 
ATOM     79  C   UNL     1      -8.508 -16.064  -5.435  1.00  0.00     0.020 A 
ATOM     80  C   UNL     1      -8.657 -16.655  -6.691  1.00  0.00     0.054 A 
BRANCH  80  81
ATOM     81  S   UNL     1      -7.197 -17.126  -7.661  1.00  0.00     0.124 S 
ATOM     82  O   UNL     1      -7.200 -18.579  -7.526  1.00  0.00    -0.237 OA
ATOM     83  O   UNL     1      -7.520 -16.612  -8.990  1.00  0.00    -0.237 OA
ATOM     84  O   UNL     1      -6.102 -16.434  -6.985  1.00  0.00    -0.744 OA
ENDBRANCH  80  81
ENDBRANCH  52  75
BRANCH  64  85
ATOM     85  C   UNL     1     -16.140 -19.268  -2.105  1.00  0.00    -0.014 A 
ATOM     86  C   UNL     1     -15.415 -20.104  -1.239  1.00  0.00     0.010 A 
ATOM     87  C   UNL     1     -17.229 -19.798  -2.822  1.00  0.00     0.010 A 
ATOM     88  C   UNL     1     -15.754 -21.454  -1.115  1.00  0.00     0.020 A 
ATOM     89  C   UNL     1     -17.586 -21.141  -2.682  1.00  0.00     0.020 A 
ATOM     90  C   UNL     1     -16.836 -21.964  -1.838  1.00  0.00     0.054 A 
BRANCH  90  91
ATOM     91  S   UNL     1     -17.286 -23.709  -1.627  1.00  0.00     0.124 S 
ATOM     92  O   UNL     1     -16.253 -24.385  -2.407  1.00  0.00    -0.237 OA
ATOM     93  O   UNL     1     -17.200 -23.891  -0.180  1.00  0.00    -0.237 OA
ATOM     94  O   UNL     1     -18.636 -23.787  -2.179  1.00  0.00    -0.744 OA
ENDBRANCH  90  91
ENDBRANCH  64  85
ENDBRANCH  38  39
ENDBRANCH  30  33
ENDBRANCH  28  29
ENDBRANCH  27  28
ENDBRANCH   1  27
TORSDOF 17
