REMARK SMILES O=C(COC1CC[NH+](Cc2nccs2)CC1)NCCCNC(=O)c1ccc(-c2c3nc(c(-c4ccc(S(=O)(=O)[O-])cc4)c4ccc([nH]4)c(-c4ccc(S(=O)(=O)[O-])cc4)c4nc(c(-c5ccc(S(=O)(=O)[O-])cc5)c5ccc2[nH]5)C=C4)C=C3)cc1
REMARK SMILES IDX 18 1 17 2 1 3 2 4 3 6 4 7 5 8 6 9 16 10 7 11 15 12 8 13 9 15
REMARK SMILES IDX 10 16 11 17 14 18 12 19 13 20 19 21 20 22 21 23 22 24 23 26
REMARK SMILES IDX 24 27 25 28 83 29 26 30 82 31 27 32 28 33 29 34 76 35 30 36
REMARK SMILES IDX 81 37 75 38 77 39 31 40 80 41 74 42 73 43 32 45 62 46 43 47
REMARK SMILES IDX 61 48 44 49 47 50 60 51 78 52 45 53 46 54 59 56 79 57 48 58
REMARK SMILES IDX 33 59 34 60 42 61 35 62 41 63 36 64 37 65 38 66 39 67 40 68
REMARK SMILES IDX 63 69 64 70 72 71 65 72 71 73 66 74 67 75 68 76 69 77 70 78
REMARK SMILES IDX 49 79 50 80 58 81 51 82 57 83 52 84 53 85 54 86 55 87 56 88
REMARK H PARENT 17 5 8 14 21 25 77 44 47 55
REMARK Flexibility Score: inf
ROOT
ATOM      1  C   UNL     1       2.123   1.450   1.837  1.00  0.00     0.117 C 
ENDROOT
BRANCH   1   2
ATOM      2  N   UNL     1       2.813   0.545   0.942  1.00  0.00    -0.354 N 
ATOM      3  O   UNL     1       0.994  -0.771   0.418  1.00  0.00    -0.272 OA
ATOM      4  C   UNL     1       2.147  -0.413   0.203  1.00  0.00     0.246 C 
ATOM      5  H   UNL     1       3.792   0.615   0.857  1.00  0.00     0.163 HD
BRANCH   4   6
ATOM      6  C   UNL     1       2.974  -0.950  -0.966  1.00  0.00     0.260 C 
BRANCH   6   7
ATOM      7  O   UNL     1       3.603   0.059  -1.755  1.00  0.00    -0.368 OA
BRANCH   7   8
ATOM      8  C   UNL     1       2.710   0.815  -2.592  1.00  0.00     0.130 C 
ATOM      9  C   UNL     1       3.506   1.323  -3.798  1.00  0.00     0.093 C 
ATOM     10  C   UNL     1       2.138   2.039  -1.873  1.00  0.00     0.093 C 
ATOM     11  C   UNL     1       4.574   2.339  -3.378  1.00  0.00     0.265 C 
ATOM     12  C   UNL     1       3.260   2.981  -1.435  1.00  0.00     0.265 C 
ATOM     13  N   UNL     1       4.010   3.456  -2.600  1.00  0.00    -0.329 N 
ATOM     14  H   UNL     1       3.347   3.936  -3.208  1.00  0.00     0.348 HD
BRANCH  13  15
ATOM     15  C   UNL     1       5.046   4.450  -2.222  1.00  0.00     0.331 C 
BRANCH  15  16
ATOM     16  C   UNL     1       6.246   3.920  -1.465  1.00  0.00     0.147 A 
ATOM     17  N   UNL     1       7.232   3.238  -2.018  1.00  0.00    -0.244 NA
ATOM     18  S   UNL     1       6.408   4.191   0.229  1.00  0.00    -0.122 S 
ATOM     19  C   UNL     1       8.140   2.857  -1.053  1.00  0.00     0.123 A 
ATOM     20  C   UNL     1       7.866   3.290   0.225  1.00  0.00     0.087 A 
ENDBRANCH  15  16
ENDBRANCH  13  15
ENDBRANCH   7   8
ENDBRANCH   6   7
ENDBRANCH   4   6
ENDBRANCH   1   2
BRANCH   1  21
ATOM     21  C   UNL     1       2.468   1.240   3.300  1.00  0.00     0.042 C 
BRANCH  21  22
ATOM     22  C   UNL     1       3.943   1.423   3.633  1.00  0.00     0.118 C 
BRANCH  22  23
ATOM     23  N   UNL     1       4.431   2.777   3.406  1.00  0.00    -0.352 N 
ATOM     24  C   UNL     1       5.137   3.611   4.240  1.00  0.00     0.251 C 
ATOM     25  H   UNL     1       4.224   3.151   2.520  1.00  0.00     0.163 HD
ATOM     26  O   UNL     1       5.349   4.771   3.887  1.00  0.00    -0.269 OA
BRANCH  24  27
ATOM     27  C   UNL     1       5.617   3.143   5.560  1.00  0.00     0.039 A 
ATOM     28  C   UNL     1       5.536   4.014   6.651  1.00  0.00     0.014 A 
ATOM     29  C   UNL     1       6.157   1.866   5.735  1.00  0.00     0.014 A 
ATOM     30  C   UNL     1       5.934   3.582   7.919  1.00  0.00     0.010 A 
ATOM     31  C   UNL     1       6.465   1.406   7.015  1.00  0.00     0.010 A 
ATOM     32  C   UNL     1       6.366   2.261   8.122  1.00  0.00    -0.014 A 
BRANCH  32  33
ATOM     33  C   UNL     1       6.707   1.770   9.485  1.00  0.00     0.031 A 
ATOM     34  C   UNL     1       8.103   1.301   9.806  1.00  0.00     0.074 A 
ATOM     35  C   UNL     1       5.748   1.718  10.431  1.00  0.00     0.049 A 
ATOM     36  N   UNL     1       8.583   0.864  10.944  1.00  0.00    -0.248 NA
ATOM     37  C   UNL     1       9.081   1.298   8.706  1.00  0.00     0.031 C 
ATOM     38  C   UNL     1       4.344   2.089  10.235  1.00  0.00     0.029 A 
ATOM     39  N   UNL     1       5.807   1.338  11.749  1.00  0.00    -0.354 N 
ATOM     40  C   UNL     1       9.909   0.529  10.694  1.00  0.00     0.074 A 
ATOM     41  C   UNL     1      10.142   0.755   9.285  1.00  0.00     0.031 C 
ATOM     42  C   UNL     1       3.688   1.964  11.400  1.00  0.00     0.029 A 
ATOM     43  C   UNL     1       4.609   1.463  12.415  1.00  0.00     0.049 A 
ATOM     44  H   UNL     1       6.629   1.006  12.178  1.00  0.00     0.167 HD
ATOM     45  C   UNL     1      10.856   0.096  11.562  1.00  0.00     0.031 A 
ATOM     46  C   UNL     1       4.286   1.210  13.698  1.00  0.00     0.031 A 
ATOM     47  C   UNL     1      10.625  -0.125  12.965  1.00  0.00     0.049 A 
ATOM     48  C   UNL     1       5.354   0.726  14.641  1.00  0.00     0.074 A 
ATOM     49  C   UNL     1      11.533  -0.510  13.937  1.00  0.00     0.029 A 
ATOM     50  N   UNL     1       9.399   0.013  13.599  1.00  0.00    -0.354 N 
ATOM     51  N   UNL     1       6.622   0.491  14.401  1.00  0.00    -0.248 NA
ATOM     52  C   UNL     1       4.949   0.492  16.034  1.00  0.00     0.031 C 
ATOM     53  C   UNL     1      10.844  -0.664  15.144  1.00  0.00     0.029 A 
ATOM     54  C   UNL     1       9.521  -0.306  14.942  1.00  0.00     0.049 A 
ATOM     55  H   UNL     1       8.564   0.295  13.159  1.00  0.00     0.167 HD
ATOM     56  C   UNL     1       7.173   0.109  15.619  1.00  0.00     0.074 A 
ATOM     57  C   UNL     1       6.105   0.167  16.596  1.00  0.00     0.031 C 
ATOM     58  C   UNL     1       8.449  -0.255  15.904  1.00  0.00     0.031 A 
BRANCH  45  59
ATOM     59  C   UNL     1      12.236  -0.171  11.013  1.00  0.00    -0.014 A 
ATOM     60  C   UNL     1      13.055   0.879  10.557  1.00  0.00     0.010 A 
ATOM     61  C   UNL     1      12.741  -1.484  10.995  1.00  0.00     0.010 A 
ATOM     62  C   UNL     1      14.332   0.617  10.054  1.00  0.00     0.020 A 
ATOM     63  C   UNL     1      14.030  -1.748  10.523  1.00  0.00     0.020 A 
ATOM     64  C   UNL     1      14.811  -0.696  10.039  1.00  0.00     0.054 A 
BRANCH  64  65
ATOM     65  S   UNL     1      16.481  -1.003   9.402  1.00  0.00     0.124 S 
ATOM     66  O   UNL     1      16.303  -0.775   7.970  1.00  0.00    -0.237 OA
ATOM     67  O   UNL     1      17.279   0.000  10.102  1.00  0.00    -0.237 OA
ATOM     68  O   UNL     1      16.750  -2.387   9.782  1.00  0.00    -0.744 OA
ENDBRANCH  64  65
ENDBRANCH  45  59
BRANCH  46  69
ATOM     69  C   UNL     1       2.891   1.432  14.173  1.00  0.00    -0.014 A 
ATOM     70  C   UNL     1       2.596   2.469  15.075  1.00  0.00     0.010 A 
ATOM     71  C   UNL     1       1.845   0.607  13.718  1.00  0.00     0.010 A 
ATOM     72  C   UNL     1       1.289   2.664  15.531  1.00  0.00     0.020 A 
ATOM     73  C   UNL     1       0.532   0.819  14.146  1.00  0.00     0.020 A 
ATOM     74  C   UNL     1       0.264   1.838  15.060  1.00  0.00     0.054 A 
BRANCH  74  75
ATOM     75  S   UNL     1      -1.432   2.139  15.629  1.00  0.00     0.124 S 
ATOM     76  O   UNL     1      -1.376   1.676  17.012  1.00  0.00    -0.237 OA
ATOM     77  O   UNL     1      -1.573   3.582  15.449  1.00  0.00    -0.237 OA
ATOM     78  O   UNL     1      -2.244   1.324  14.728  1.00  0.00    -0.744 OA
ENDBRANCH  74  75
ENDBRANCH  46  69
BRANCH  58  79
ATOM     79  C   UNL     1       8.768  -0.585  17.340  1.00  0.00    -0.014 A 
ATOM     80  C   UNL     1       8.259  -1.741  17.959  1.00  0.00     0.010 A 
ATOM     81  C   UNL     1       9.615   0.266  18.074  1.00  0.00     0.010 A 
ATOM     82  C   UNL     1       8.548  -2.010  19.300  1.00  0.00     0.020 A 
ATOM     83  C   UNL     1       9.934  -0.018  19.404  1.00  0.00     0.020 A 
ATOM     84  C   UNL     1       9.381  -1.144  20.015  1.00  0.00     0.054 A 
BRANCH  84  85
ATOM     85  S   UNL     1       9.751  -1.522  21.749  1.00  0.00     0.124 S 
ATOM     86  O   UNL     1       8.485  -1.207  22.406  1.00  0.00    -0.237 OA
ATOM     87  O   UNL     1      10.097  -2.941  21.701  1.00  0.00    -0.237 OA
ATOM     88  O   UNL     1      10.860  -0.627  22.071  1.00  0.00    -0.744 OA
ENDBRANCH  84  85
ENDBRANCH  58  79
ENDBRANCH  32  33
ENDBRANCH  24  27
ENDBRANCH  22  23
ENDBRANCH  21  22
ENDBRANCH   1  21
TORSDOF 17
