REMARK SMILES C[NH2+][C@]1(C(=O)NCCCNC(=O)c2ccc(-c3c4nc(c(-c5ccc(S(=O)(=O)[O-])cc5)c5ccc([nH]5)c(-c5ccc(S(=O)(=O)[O-])cc5)c5nc(c(-c6ccc(S(=O)(=O)[O-])cc6)c6ccc3[nH]6)C=C5)C=C4)cc2)CCC[C@@H](Sc2nncs2)C1
REMARK SMILES IDX 8 1 7 2 6 3 4 4 5 5 3 7 73 8 83 9 74 10 76 11 75 12 2 13
REMARK SMILES IDX 1 14 77 17 78 18 79 19 82 20 80 21 81 22 9 23 10 24 11 25
REMARK SMILES IDX 12 27 13 28 14 29 72 30 15 31 71 32 16 33 17 34 18 35 65 36
REMARK SMILES IDX 19 37 70 38 64 39 66 40 20 41 69 42 63 43 62 44 21 46 51 47
REMARK SMILES IDX 32 48 50 49 33 50 36 51 49 52 67 53 34 54 35 55 48 57 68 58
REMARK SMILES IDX 37 59 22 60 23 61 31 62 24 63 30 64 25 65 26 66 27 67 28 68
REMARK SMILES IDX 29 69 52 70 53 71 61 72 54 73 60 74 55 75 56 76 57 77 58 78
REMARK SMILES IDX 59 79 38 80 39 81 47 82 40 83 46 84 41 85 42 86 43 87 44 88
REMARK SMILES IDX 45 89
REMARK H PARENT 6 6 2 15 2 16 10 26 66 45 36 56
REMARK Flexibility Score: inf
ROOT
ATOM      1  C   UNL     1       0.879  -1.753   2.441  1.00  0.00     0.042 C 
ENDROOT
BRANCH   1   2
ATOM      2  C   UNL     1       0.468  -0.596   1.543  1.00  0.00     0.118 C 
BRANCH   2   3
ATOM      3  N   UNL     1       0.966  -0.746   0.183  1.00  0.00    -0.351 N 
ATOM      4  C   UNL     1       0.323  -0.907  -1.007  1.00  0.00     0.281 C 
ATOM      5  O   UNL     1       1.042  -1.076  -2.002  1.00  0.00    -0.268 OA
ATOM      6  H   UNL     1       1.948  -0.728   0.110  1.00  0.00     0.163 HD
BRANCH   4   7
ATOM      7  C   UNL     1      -1.252  -0.928  -1.142  1.00  0.00     0.176 C 
ATOM      8  C   UNL     1      -1.760  -2.190  -0.400  1.00  0.00     0.079 C 
ATOM      9  C   UNL     1      -1.824   0.416  -0.613  1.00  0.00     0.094 C 
ATOM     10  C   UNL     1      -3.225  -2.169   0.021  1.00  0.00     0.008 C 
ATOM     11  C   UNL     1      -3.282   0.349  -0.151  1.00  0.00     0.061 C 
ATOM     12  C   UNL     1      -3.594  -0.869   0.721  1.00  0.00     0.015 C 
BRANCH   7  13
ATOM     13  N   UNL     1      -1.523  -0.925  -2.615  1.00  0.00    -0.336 N 
ATOM     14  C   UNL     1      -2.653  -1.665  -3.130  1.00  0.00     0.331 C 
ATOM     15  H   UNL     1      -1.654   0.048  -2.892  1.00  0.00     0.346 HD
ATOM     16  H   UNL     1      -0.717  -1.410  -3.010  1.00  0.00     0.346 HD
ENDBRANCH   7  13
BRANCH  11  17
ATOM     17  S   UNL     1      -3.824   1.915   0.653  1.00  0.00    -0.090 SA
BRANCH  17  18
ATOM     18  C   UNL     1      -3.098   1.800   2.240  1.00  0.00     0.174 A 
ATOM     19  N   UNL     1      -1.806   1.629   2.419  1.00  0.00    -0.132 NA
ATOM     20  S   UNL     1      -4.005   1.879   3.694  1.00  0.00    -0.094 S 
ATOM     21  N   UNL     1      -1.472   1.506   3.753  1.00  0.00    -0.146 NA
ATOM     22  C   UNL     1      -2.529   1.619   4.529  1.00  0.00     0.203 A 
ENDBRANCH  17  18
ENDBRANCH  11  17
ENDBRANCH   4   7
ENDBRANCH   2   3
ENDBRANCH   1   2
BRANCH   1  23
ATOM     23  C   UNL     1       2.378  -1.847   2.678  1.00  0.00     0.118 C 
BRANCH  23  24
ATOM     24  N   UNL     1       2.901  -0.714   3.428  1.00  0.00    -0.352 N 
ATOM     25  C   UNL     1       3.492  -0.672   4.667  1.00  0.00     0.251 C 
ATOM     26  H   UNL     1       2.819   0.157   2.976  1.00  0.00     0.163 HD
ATOM     27  O   UNL     1       3.700   0.413   5.205  1.00  0.00    -0.269 OA
BRANCH  25  28
ATOM     28  C   UNL     1       3.850  -1.924   5.367  1.00  0.00     0.039 A 
ATOM     29  C   UNL     1       3.599  -2.027   6.737  1.00  0.00     0.014 A 
ATOM     30  C   UNL     1       4.434  -2.993   4.683  1.00  0.00     0.014 A 
ATOM     31  C   UNL     1       3.866  -3.226   7.403  1.00  0.00     0.010 A 
ATOM     32  C   UNL     1       4.608  -4.215   5.324  1.00  0.00     0.010 A 
ATOM     33  C   UNL     1       4.333  -4.345   6.693  1.00  0.00    -0.014 A 
BRANCH  33  34
ATOM     34  C   UNL     1       4.545  -5.654   7.362  1.00  0.00     0.031 A 
ATOM     35  C   UNL     1       5.919  -6.271   7.397  1.00  0.00     0.074 A 
ATOM     36  C   UNL     1       3.492  -6.317   7.883  1.00  0.00     0.049 A 
ATOM     37  N   UNL     1       6.288  -7.431   7.877  1.00  0.00    -0.248 NA
ATOM     38  C   UNL     1       7.015  -5.497   6.792  1.00  0.00     0.031 C 
ATOM     39  C   UNL     1       2.105  -5.845   7.876  1.00  0.00     0.029 A 
ATOM     40  N   UNL     1       3.422  -7.534   8.514  1.00  0.00    -0.354 N 
ATOM     41  C   UNL     1       7.650  -7.533   7.615  1.00  0.00     0.074 A 
ATOM     42  C   UNL     1       8.031  -6.343   6.887  1.00  0.00     0.031 C 
ATOM     43  C   UNL     1       1.330  -6.745   8.502  1.00  0.00     0.029 A 
ATOM     44  C   UNL     1       2.151  -7.880   8.910  1.00  0.00     0.049 A 
ATOM     45  H   UNL     1       4.208  -8.106   8.669  1.00  0.00     0.167 HD
ATOM     46  C   UNL     1       8.511  -8.517   7.968  1.00  0.00     0.031 A 
ATOM     47  C   UNL     1       1.694  -8.989   9.524  1.00  0.00     0.031 A 
ATOM     48  C   UNL     1       8.130  -9.693   8.703  1.00  0.00     0.049 A 
ATOM     49  C   UNL     1       2.668 -10.076   9.890  1.00  0.00     0.074 A 
ATOM     50  C   UNL     1       8.938 -10.721   9.157  1.00  0.00     0.029 A 
ATOM     51  N   UNL     1       6.835 -10.001   9.091  1.00  0.00    -0.354 N 
ATOM     52  N   UNL     1       3.964 -10.121   9.692  1.00  0.00    -0.248 NA
ATOM     53  C   UNL     1       2.120 -11.255  10.573  1.00  0.00     0.031 C 
ATOM     54  C   UNL     1       8.123 -11.680   9.765  1.00  0.00     0.029 A 
ATOM     55  C   UNL     1       6.817 -11.216   9.754  1.00  0.00     0.049 A 
ATOM     56  H   UNL     1       6.045  -9.439   8.919  1.00  0.00     0.167 HD
ATOM     57  C   UNL     1       4.391 -11.319  10.256  1.00  0.00     0.074 A 
ATOM     58  C   UNL     1       3.217 -11.959  10.814  1.00  0.00     0.031 C 
ATOM     59  C   UNL     1       5.641 -11.840  10.309  1.00  0.00     0.031 A 
BRANCH  46  60
ATOM     60  C   UNL     1       9.954  -8.365   7.558  1.00  0.00    -0.014 A 
ATOM     61  C   UNL     1      10.775  -7.378   8.132  1.00  0.00     0.010 A 
ATOM     62  C   UNL     1      10.511  -9.256   6.621  1.00  0.00     0.010 A 
ATOM     63  C   UNL     1      12.114  -7.260   7.750  1.00  0.00     0.020 A 
ATOM     64  C   UNL     1      11.858  -9.161   6.260  1.00  0.00     0.020 A 
ATOM     65  C   UNL     1      12.647  -8.153   6.816  1.00  0.00     0.054 A 
BRANCH  65  66
ATOM     66  S   UNL     1      14.397  -7.996   6.366  1.00  0.00     0.124 S 
ATOM     67  O   UNL     1      14.396  -6.766   5.578  1.00  0.00    -0.237 OA
ATOM     68  O   UNL     1      15.055  -7.907   7.667  1.00  0.00    -0.237 OA
ATOM     69  O   UNL     1      14.674  -9.216   5.613  1.00  0.00    -0.744 OA
ENDBRANCH  65  66
ENDBRANCH  46  60
BRANCH  47  70
ATOM     70  C   UNL     1       0.244  -9.123   9.839  1.00  0.00    -0.014 A 
ATOM     71  C   UNL     1      -0.205  -9.101  11.171  1.00  0.00     0.010 A 
ATOM     72  C   UNL     1      -0.699  -9.272   8.804  1.00  0.00     0.010 A 
ATOM     73  C   UNL     1      -1.565  -9.247  11.465  1.00  0.00     0.020 A 
ATOM     74  C   UNL     1      -2.062  -9.386   9.092  1.00  0.00     0.020 A 
ATOM     75  C   UNL     1      -2.485  -9.386  10.422  1.00  0.00     0.054 A 
BRANCH  75  76
ATOM     76  S   UNL     1      -4.248  -9.529  10.824  1.00  0.00     0.124 S 
ATOM     77  O   UNL     1      -4.324 -10.874  11.384  1.00  0.00    -0.237 OA
ATOM     78  O   UNL     1      -4.444  -8.435  11.772  1.00  0.00    -0.237 OA
ATOM     79  O   UNL     1      -4.909  -9.349   9.533  1.00  0.00    -0.744 OA
ENDBRANCH  75  76
ENDBRANCH  47  70
BRANCH  59  80
ATOM     80  C   UNL     1       5.821 -13.148  11.033  1.00  0.00    -0.014 A 
ATOM     81  C   UNL     1       5.340 -14.356  10.498  1.00  0.00     0.010 A 
ATOM     82  C   UNL     1       6.539 -13.173  12.244  1.00  0.00     0.010 A 
ATOM     83  C   UNL     1       5.546 -15.560  11.177  1.00  0.00     0.020 A 
ATOM     84  C   UNL     1       6.775 -14.378  12.909  1.00  0.00     0.020 A 
ATOM     85  C   UNL     1       6.264 -15.563  12.377  1.00  0.00     0.054 A 
BRANCH  85  86
ATOM     86  S   UNL     1       6.558 -17.145  13.213  1.00  0.00     0.124 S 
ATOM     87  O   UNL     1       5.231 -17.467  13.732  1.00  0.00    -0.237 OA
ATOM     88  O   UNL     1       7.032 -17.998  12.126  1.00  0.00    -0.237 OA
ATOM     89  O   UNL     1       7.561 -16.822  14.226  1.00  0.00    -0.744 OA
ENDBRANCH  85  86
ENDBRANCH  59  80
ENDBRANCH  33  34
ENDBRANCH  25  28
ENDBRANCH  23  24
ENDBRANCH   1  23
TORSDOF 16
