REMARK SMILES C[C@H](CC[NH+](C)C)[NH2+][C@H](C)[C@@H](C)C(=O)NCCCNC(=O)c1ccc(-c2c3nc(c(-c4ccc(S(=O)(=O)[O-])cc4)c4ccc([nH]4)c(-c4ccc(S(=O)(=O)[O-])cc4)c4nc(c(-c5ccc(S(=O)(=O)[O-])cc5)c5ccc2[nH]5)C=C4)C=C3)cc1
REMARK SMILES IDX 13 1 14 2 15 3 11 5 12 6 9 7 10 8 8 9 2 12 1 13 3 14 4 15
REMARK SMILES IDX 5 16 6 17 7 18 16 20 17 21 18 22 19 23 20 24 21 26 22 27
REMARK SMILES IDX 23 28 81 29 24 30 80 31 25 32 26 33 27 34 74 35 28 36 79 37
REMARK SMILES IDX 73 38 75 39 29 40 78 41 72 42 71 43 30 45 60 46 41 47 59 48
REMARK SMILES IDX 42 49 45 50 58 51 76 52 43 53 44 54 57 56 77 57 46 58 31 59
REMARK SMILES IDX 32 60 40 61 33 62 39 63 34 64 35 65 36 66 37 67 38 68 61 69
REMARK SMILES IDX 62 70 70 71 63 72 69 73 64 74 65 75 66 76 67 77 68 78 47 79
REMARK SMILES IDX 48 80 56 81 49 82 55 83 50 84 51 85 52 86 53 87 54 88
REMARK H PARENT 15 4 8 10 8 11 5 19 19 25 75 44 45 55
REMARK Flexibility Score: inf
ROOT
ATOM      1  C   UNL     1      -3.790   3.016   2.485  1.00  0.00     0.228 C 
ATOM      2  O   UNL     1      -4.806   3.587   2.073  1.00  0.00    -0.275 OA
ATOM      3  N   UNL     1      -3.348   3.360   3.721  1.00  0.00    -0.356 N 
ATOM      4  H   UNL     1      -3.836   4.111   4.130  1.00  0.00     0.163 HD
ENDROOT
BRANCH   1   5
ATOM      5  C   UNL     1      -3.128   1.926   1.643  1.00  0.00     0.133 C 
ATOM      6  C   UNL     1      -3.441   0.567   2.282  1.00  0.00     0.024 C 
BRANCH   5   7
ATOM      7  C   UNL     1      -1.635   2.208   1.302  1.00  0.00     0.191 C 
ATOM      8  C   UNL     1      -0.925   1.070   0.540  1.00  0.00     0.076 C 
BRANCH   7   9
ATOM      9  N   UNL     1      -1.316   3.509   0.670  1.00  0.00    -0.341 N 
ATOM     10  H   UNL     1      -1.145   4.172   1.425  1.00  0.00     0.346 HD
ATOM     11  H   UNL     1      -0.528   3.293   0.059  1.00  0.00     0.346 HD
BRANCH   9  12
ATOM     12  C   UNL     1      -2.299   4.133  -0.236  1.00  0.00     0.185 C 
ATOM     13  C   UNL     1      -2.718   3.250  -1.418  1.00  0.00     0.075 C 
BRANCH  12  14
ATOM     14  C   UNL     1      -1.788   5.541  -0.636  1.00  0.00     0.126 C 
BRANCH  14  15
ATOM     15  C   UNL     1      -2.471   6.261  -1.820  1.00  0.00     0.268 C 
BRANCH  15  16
ATOM     16  N   UNL     1      -3.893   6.631  -1.820  1.00  0.00    -0.340 N 
ATOM     17  C   UNL     1      -4.469   6.483  -3.157  1.00  0.00     0.332 C 
ATOM     18  C   UNL     1      -4.757   6.030  -0.818  1.00  0.00     0.332 C 
ATOM     19  H   UNL     1      -3.868   7.610  -1.533  1.00  0.00     0.347 HD
ENDBRANCH  15  16
ENDBRANCH  14  15
ENDBRANCH  12  14
ENDBRANCH   9  12
ENDBRANCH   7   9
ENDBRANCH   5   7
ENDBRANCH   1   5
BRANCH   3  20
ATOM     20  C   UNL     1      -2.285   2.819   4.548  1.00  0.00     0.117 C 
BRANCH  20  21
ATOM     21  C   UNL     1      -1.114   3.778   4.713  1.00  0.00     0.042 C 
BRANCH  21  22
ATOM     22  C   UNL     1      -1.493   5.106   5.354  1.00  0.00     0.118 C 
BRANCH  22  23
ATOM     23  N   UNL     1      -2.160   4.930   6.640  1.00  0.00    -0.352 N 
ATOM     24  C   UNL     1      -1.690   5.101   7.915  1.00  0.00     0.251 C 
ATOM     25  H   UNL     1      -3.100   4.642   6.581  1.00  0.00     0.163 HD
ATOM     26  O   UNL     1      -2.324   4.629   8.862  1.00  0.00    -0.269 OA
BRANCH  24  27
ATOM     27  C   UNL     1      -0.432   5.833   8.158  1.00  0.00     0.039 A 
ATOM     28  C   UNL     1       0.447   5.379   9.144  1.00  0.00     0.014 A 
ATOM     29  C   UNL     1      -0.134   6.989   7.433  1.00  0.00     0.014 A 
ATOM     30  C   UNL     1       1.655   6.048   9.353  1.00  0.00     0.010 A 
ATOM     31  C   UNL     1       1.110   7.593   7.572  1.00  0.00     0.010 A 
ATOM     32  C   UNL     1       2.013   7.138   8.543  1.00  0.00    -0.014 A 
BRANCH  32  33
ATOM     33  C   UNL     1       3.316   7.829   8.699  1.00  0.00     0.031 A 
ATOM     34  C   UNL     1       3.354   9.286   9.077  1.00  0.00     0.074 A 
ATOM     35  C   UNL     1       4.459   7.166   8.432  1.00  0.00     0.049 A 
ATOM     36  N   UNL     1       4.387  10.082   9.193  1.00  0.00    -0.248 NA
ATOM     37  C   UNL     1       2.061   9.943   9.332  1.00  0.00     0.031 C 
ATOM     38  C   UNL     1       4.549   5.763   8.018  1.00  0.00     0.029 A 
ATOM     39  N   UNL     1       5.764   7.585   8.464  1.00  0.00    -0.354 N 
ATOM     40  C   UNL     1       3.867  11.331   9.514  1.00  0.00     0.074 A 
ATOM     41  C   UNL     1       2.427  11.203   9.515  1.00  0.00     0.031 C 
ATOM     42  C   UNL     1       5.841   5.430   7.872  1.00  0.00     0.029 A 
ATOM     43  C   UNL     1       6.668   6.603   8.133  1.00  0.00     0.049 A 
ATOM     44  H   UNL     1       6.030   8.503   8.703  1.00  0.00     0.167 HD
ATOM     45  C   UNL     1       4.528  12.476   9.807  1.00  0.00     0.031 A 
ATOM     46  C   UNL     1       8.011   6.644   8.043  1.00  0.00     0.031 A 
ATOM     47  C   UNL     1       5.962  12.595   9.810  1.00  0.00     0.049 A 
ATOM     48  C   UNL     1       8.723   7.933   8.350  1.00  0.00     0.074 A 
ATOM     49  C   UNL     1       6.734  13.695  10.138  1.00  0.00     0.029 A 
ATOM     50  N   UNL     1       6.840  11.577   9.469  1.00  0.00    -0.354 N 
ATOM     51  N   UNL     1       8.217   9.089   8.711  1.00  0.00    -0.248 NA
ATOM     52  C   UNL     1      10.188   7.921   8.246  1.00  0.00     0.031 C 
ATOM     53  C   UNL     1       8.077  13.359   9.941  1.00  0.00     0.029 A 
ATOM     54  C   UNL     1       8.146  12.030   9.554  1.00  0.00     0.049 A 
ATOM     55  H   UNL     1       6.574  10.666   9.204  1.00  0.00     0.167 HD
ATOM     56  C   UNL     1       9.305   9.932   8.909  1.00  0.00     0.074 A 
ATOM     57  C   UNL     1      10.494   9.150   8.640  1.00  0.00     0.031 C 
ATOM     58  C   UNL     1       9.318  11.236   9.282  1.00  0.00     0.031 A 
BRANCH  45  59
ATOM     59  C   UNL     1       3.700  13.690  10.143  1.00  0.00    -0.014 A 
ATOM     60  C   UNL     1       2.941  13.746  11.327  1.00  0.00     0.010 A 
ATOM     61  C   UNL     1       3.694  14.798   9.277  1.00  0.00     0.010 A 
ATOM     62  C   UNL     1       2.153  14.864  11.612  1.00  0.00     0.020 A 
ATOM     63  C   UNL     1       2.933  15.932   9.575  1.00  0.00     0.020 A 
ATOM     64  C   UNL     1       2.151  15.949  10.731  1.00  0.00     0.054 A 
BRANCH  64  65
ATOM     65  S   UNL     1       1.127  17.391  11.133  1.00  0.00     0.124 S 
ATOM     66  O   UNL     1      -0.220  16.882  10.887  1.00  0.00    -0.237 OA
ATOM     67  O   UNL     1       1.458  17.639  12.534  1.00  0.00    -0.237 OA
ATOM     68  O   UNL     1       1.586  18.415  10.197  1.00  0.00    -0.744 OA
ENDBRANCH  64  65
ENDBRANCH  45  59
BRANCH  46  69
ATOM     69  C   UNL     1       8.770   5.418   7.671  1.00  0.00    -0.014 A 
ATOM     70  C   UNL     1       9.570   4.761   8.623  1.00  0.00     0.010 A 
ATOM     71  C   UNL     1       8.687   4.892   6.369  1.00  0.00     0.010 A 
ATOM     72  C   UNL     1      10.287   3.612   8.275  1.00  0.00     0.020 A 
ATOM     73  C   UNL     1       9.379   3.727   6.026  1.00  0.00     0.020 A 
ATOM     74  C   UNL     1      10.184   3.101   6.979  1.00  0.00     0.054 A 
BRANCH  74  75
ATOM     75  S   UNL     1      11.085   1.581   6.566  1.00  0.00     0.124 S 
ATOM     76  O   UNL     1      12.466   2.049   6.519  1.00  0.00    -0.237 OA
ATOM     77  O   UNL     1      10.750   0.703   7.684  1.00  0.00    -0.237 OA
ATOM     78  O   UNL     1      10.513   1.184   5.280  1.00  0.00    -0.744 OA
ENDBRANCH  74  75
ENDBRANCH  46  69
BRANCH  58  79
ATOM     79  C   UNL     1      10.662  11.891   9.460  1.00  0.00    -0.014 A 
ATOM     80  C   UNL     1      11.477  12.201   8.358  1.00  0.00     0.010 A 
ATOM     81  C   UNL     1      11.089  12.251  10.752  1.00  0.00     0.010 A 
ATOM     82  C   UNL     1      12.710  12.831   8.547  1.00  0.00     0.020 A 
ATOM     83  C   UNL     1      12.307  12.908  10.943  1.00  0.00     0.020 A 
ATOM     84  C   UNL     1      13.116  13.181   9.839  1.00  0.00     0.054 A 
BRANCH  84  85
ATOM     85  S   UNL     1      14.700  14.038  10.053  1.00  0.00     0.124 S 
ATOM     86  O   UNL     1      15.661  12.968   9.802  1.00  0.00    -0.237 OA
ATOM     87  O   UNL     1      14.640  15.081   9.031  1.00  0.00    -0.237 OA
ATOM     88  O   UNL     1      14.651  14.521  11.431  1.00  0.00    -0.744 OA
ENDBRANCH  84  85
ENDBRANCH  58  79
ENDBRANCH  32  33
ENDBRANCH  24  27
ENDBRANCH  22  23
ENDBRANCH  21  22
ENDBRANCH  20  21
ENDBRANCH   3  20
TORSDOF 19
