REMARK SMILES NS(=O)(=O)c1ccc(-n2nc(C(=O)NCCCNC(=O)c3ccc(-c4c5nc(c(-c6ccc(S(=O)(=O)[O-])cc6)c6ccc([nH]6)c(-c6ccc(S(=O)(=O)[O-])cc6)c6nc(c(-c7ccc(S(=O)(=O)[O-])cc7)c7ccc4[nH]7)C=C6)C=C5)cc3)cc2-c2ccc(Cl)s2)cc1
REMARK SMILES IDX 16 1 15 2 14 3 12 4 13 5 11 7 9 8 10 9 82 10 81 11 8 12 5 13
REMARK SMILES IDX 6 14 90 15 7 16 89 17 2 18 3 19 4 20 1 21 83 24 84 25 88 26
REMARK SMILES IDX 85 27 86 28 87 29 17 30 18 31 19 32 20 34 21 35 22 36 80 37
REMARK SMILES IDX 23 38 79 39 24 40 25 41 26 42 73 43 27 44 78 45 72 46 74 47
REMARK SMILES IDX 28 48 77 49 71 50 70 51 29 53 59 54 40 55 58 56 41 57 44 58
REMARK SMILES IDX 57 59 75 60 42 61 43 62 56 64 76 65 45 66 30 67 31 68 39 69
REMARK SMILES IDX 32 70 38 71 33 72 34 73 35 74 36 75 37 76 60 77 61 78 69 79
REMARK SMILES IDX 62 80 68 81 63 82 64 83 65 84 66 85 67 86 46 87 47 88 55 89
REMARK SMILES IDX 48 90 54 91 49 92 50 93 51 94 52 95 53 96
REMARK H PARENT 14 6 1 22 1 23 18 33 74 52 44 63
REMARK Flexibility Score: inf
ROOT
ATOM      1  C   UNL     1       4.257 -10.415   5.064  1.00  0.00     0.042 C 
ENDROOT
BRANCH   1   2
ATOM      2  C   UNL     1       2.731 -10.247   5.082  1.00  0.00     0.118 C 
BRANCH   2   3
ATOM      3  N   UNL     1       2.279  -9.398   6.172  1.00  0.00    -0.351 N 
ATOM      4  C   UNL     1       1.994  -8.049   6.240  1.00  0.00     0.271 C 
ATOM      5  O   UNL     1       1.501  -7.652   7.297  1.00  0.00    -0.267 OA
ATOM      6  H   UNL     1       2.152  -9.876   7.023  1.00  0.00     0.163 HD
BRANCH   4   7
ATOM      7  C   UNL     1       2.231  -7.151   5.088  1.00  0.00     0.151 A 
ATOM      8  N   UNL     1       1.986  -5.418   3.830  1.00  0.00    -0.231 N 
ATOM      9  N   UNL     1       1.730  -5.896   5.068  1.00  0.00    -0.162 NA
ATOM     10  C   UNL     1       2.758  -6.292   3.092  1.00  0.00     0.085 A 
ATOM     11  C   UNL     1       2.978  -7.375   3.907  1.00  0.00     0.066 A 
BRANCH   8  12
ATOM     12  C   UNL     1       1.495  -4.157   3.417  1.00  0.00     0.065 A 
ATOM     13  C   UNL     1       0.843  -1.633   2.468  1.00  0.00     0.082 A 
ATOM     14  C   UNL     1       0.554  -2.756   1.687  1.00  0.00     0.024 A 
ATOM     15  C   UNL     1       1.409  -1.767   3.741  1.00  0.00     0.024 A 
ATOM     16  C   UNL     1       0.896  -4.021   2.157  1.00  0.00     0.030 A 
ATOM     17  C   UNL     1       1.708  -3.040   4.234  1.00  0.00     0.030 A 
BRANCH  13  18
ATOM     18  S   UNL     1       0.529  -0.028   1.799  1.00  0.00     0.238 S 
ATOM     19  O   UNL     1       1.270   0.965   2.551  1.00  0.00    -0.207 OA
ATOM     20  O   UNL     1      -0.875   0.094   1.511  1.00  0.00    -0.207 OA
BRANCH  18  21
ATOM     21  N   UNL     1       1.306  -0.097   0.305  1.00  0.00    -0.225 NA
ATOM     22  H   UNL     1       1.190   0.793  -0.180  1.00  0.00     0.137 HD
ATOM     23  H   UNL     1       0.899  -0.846  -0.255  1.00  0.00     0.137 HD
ENDBRANCH  18  21
ENDBRANCH  13  18
ENDBRANCH   8  12
BRANCH  10  24
ATOM     24  C   UNL     1       3.299  -6.072   1.788  1.00  0.00     0.054 A 
ATOM     25  C   UNL     1       3.016  -6.805   0.652  1.00  0.00     0.024 A 
ATOM     26  S   UNL     1       4.473  -4.862   1.492  1.00  0.00    -0.122 S 
ATOM     27  C   UNL     1       3.761  -6.350  -0.476  1.00  0.00     0.033 A 
ATOM     28  C   UNL     1       4.584  -5.307  -0.135  1.00  0.00     0.094 A 
ATOM     29  Cl  UNL     1       5.662  -4.471  -1.176  1.00  0.00    -0.072 Cl
ENDBRANCH  10  24
ENDBRANCH   4   7
ENDBRANCH   2   3
ENDBRANCH   1   2
BRANCH   1  30
ATOM     30  C   UNL     1       4.707 -11.563   5.955  1.00  0.00     0.118 C 
BRANCH  30  31
ATOM     31  N   UNL     1       4.321 -12.867   5.404  1.00  0.00    -0.352 N 
ATOM     32  C   UNL     1       4.519 -14.129   5.931  1.00  0.00     0.251 C 
ATOM     33  H   UNL     1       3.855 -12.840   4.537  1.00  0.00     0.163 HD
ATOM     34  O   UNL     1       4.461 -15.116   5.207  1.00  0.00    -0.269 OA
BRANCH  32  35
ATOM     35  C   UNL     1       4.793 -14.268   7.372  1.00  0.00     0.039 A 
ATOM     36  C   UNL     1       5.693 -15.220   7.862  1.00  0.00     0.014 A 
ATOM     37  C   UNL     1       4.135 -13.402   8.239  1.00  0.00     0.014 A 
ATOM     38  C   UNL     1       5.979 -15.234   9.227  1.00  0.00     0.010 A 
ATOM     39  C   UNL     1       4.548 -13.297   9.538  1.00  0.00     0.010 A 
ATOM     40  C   UNL     1       5.412 -14.253  10.055  1.00  0.00    -0.014 A 
BRANCH  40  41
ATOM     41  C   UNL     1       5.828 -14.086  11.444  1.00  0.00     0.031 A 
ATOM     42  C   UNL     1       7.280 -13.775  11.573  1.00  0.00     0.074 A 
ATOM     43  C   UNL     1       4.928 -13.927  12.443  1.00  0.00     0.049 A 
ATOM     44  N   UNL     1       8.218 -14.517  12.064  1.00  0.00    -0.248 NA
ATOM     45  C   UNL     1       7.787 -12.574  10.874  1.00  0.00     0.031 C 
ATOM     46  C   UNL     1       3.463 -13.851  12.323  1.00  0.00     0.029 A 
ATOM     47  N   UNL     1       5.117 -13.651  13.761  1.00  0.00    -0.354 N 
ATOM     48  C   UNL     1       9.374 -13.741  11.996  1.00  0.00     0.074 A 
ATOM     49  C   UNL     1       9.104 -12.715  11.026  1.00  0.00     0.031 C 
ATOM     50  C   UNL     1       2.941 -13.293  13.438  1.00  0.00     0.029 A 
ATOM     51  C   UNL     1       3.999 -13.127  14.416  1.00  0.00     0.049 A 
ATOM     52  H   UNL     1       5.974 -13.809  14.219  1.00  0.00     0.167 HD
ATOM     53  C   UNL     1      10.308 -13.784  12.990  1.00  0.00     0.031 A 
ATOM     54  C   UNL     1       3.958 -12.553  15.650  1.00  0.00     0.031 A 
ATOM     55  C   UNL     1      10.117 -14.946  13.825  1.00  0.00     0.049 A 
ATOM     56  C   UNL     1       5.207 -12.949  16.345  1.00  0.00     0.074 A 
ATOM     57  C   UNL     1      10.075 -16.309  13.612  1.00  0.00     0.029 A 
ATOM     58  N   UNL     1       9.500 -14.729  15.035  1.00  0.00    -0.354 N 
ATOM     59  N   UNL     1       5.494 -14.179  16.669  1.00  0.00    -0.248 NA
ATOM     60  C   UNL     1       6.342 -12.049  16.238  1.00  0.00     0.031 C 
ATOM     61  C   UNL     1       9.037 -16.783  14.467  1.00  0.00     0.029 A 
ATOM     62  C   UNL     1       8.569 -15.712  15.230  1.00  0.00     0.049 A 
ATOM     63  H   UNL     1       9.696 -13.992  15.657  1.00  0.00     0.167 HD
ATOM     64  C   UNL     1       6.841 -14.317  16.367  1.00  0.00     0.074 A 
ATOM     65  C   UNL     1       7.327 -12.948  16.182  1.00  0.00     0.031 C 
ATOM     66  C   UNL     1       7.360 -15.529  16.008  1.00  0.00     0.031 A 
BRANCH  53  67
ATOM     67  C   UNL     1      11.039 -12.551  13.500  1.00  0.00    -0.014 A 
ATOM     68  C   UNL     1      11.883 -12.690  14.622  1.00  0.00     0.010 A 
ATOM     69  C   UNL     1      10.718 -11.231  13.118  1.00  0.00     0.010 A 
ATOM     70  C   UNL     1      12.287 -11.581  15.378  1.00  0.00     0.020 A 
ATOM     71  C   UNL     1      11.150 -10.115  13.837  1.00  0.00     0.020 A 
ATOM     72  C   UNL     1      11.903 -10.300  14.986  1.00  0.00     0.054 A 
BRANCH  72  73
ATOM     73  S   UNL     1      12.353  -8.882  16.013  1.00  0.00     0.124 S 
ATOM     74  O   UNL     1      11.595  -9.142  17.231  1.00  0.00    -0.237 OA
ATOM     75  O   UNL     1      13.802  -9.031  16.120  1.00  0.00    -0.237 OA
ATOM     76  O   UNL     1      11.907  -7.735  15.224  1.00  0.00    -0.744 OA
ENDBRANCH  72  73
ENDBRANCH  53  67
BRANCH  54  77
ATOM     77  C   UNL     1       3.118 -11.417  16.130  1.00  0.00    -0.014 A 
ATOM     78  C   UNL     1       3.069 -11.073  17.498  1.00  0.00     0.010 A 
ATOM     79  C   UNL     1       2.602 -10.481  15.212  1.00  0.00     0.010 A 
ATOM     80  C   UNL     1       2.589  -9.818  17.921  1.00  0.00     0.020 A 
ATOM     81  C   UNL     1       2.116  -9.231  15.626  1.00  0.00     0.020 A 
ATOM     82  C   UNL     1       2.136  -8.894  16.977  1.00  0.00     0.054 A 
BRANCH  82  83
ATOM     83  S   UNL     1       1.695  -7.207  17.504  1.00  0.00     0.124 S 
ATOM     84  O   UNL     1       0.452  -7.424  18.238  1.00  0.00    -0.237 OA
ATOM     85  O   UNL     1       2.845  -6.813  18.313  1.00  0.00    -0.237 OA
ATOM     86  O   UNL     1       1.551  -6.480  16.243  1.00  0.00    -0.744 OA
ENDBRANCH  82  83
ENDBRANCH  54  77
BRANCH  66  87
ATOM     87  C   UNL     1       6.554 -16.777  16.286  1.00  0.00    -0.014 A 
ATOM     88  C   UNL     1       5.288 -17.064  15.736  1.00  0.00     0.010 A 
ATOM     89  C   UNL     1       7.193 -17.771  17.046  1.00  0.00     0.010 A 
ATOM     90  C   UNL     1       4.673 -18.306  15.971  1.00  0.00     0.020 A 
ATOM     91  C   UNL     1       6.598 -19.012  17.266  1.00  0.00     0.020 A 
ATOM     92  C   UNL     1       5.334 -19.271  16.740  1.00  0.00     0.054 A 
BRANCH  92  93
ATOM     93  S   UNL     1       4.554 -20.883  17.038  1.00  0.00     0.124 S 
ATOM     94  O   UNL     1       3.417 -20.533  17.884  1.00  0.00    -0.237 OA
ATOM     95  O   UNL     1       4.221 -21.337  15.690  1.00  0.00    -0.237 OA
ATOM     96  O   UNL     1       5.601 -21.659  17.702  1.00  0.00    -0.744 OA
ENDBRANCH  92  93
ENDBRANCH  66  87
ENDBRANCH  40  41
ENDBRANCH  32  35
ENDBRANCH  30  31
ENDBRANCH   1  30
TORSDOF 17
