REMARK SMILES Cc1ccc(-c2nc(NC(=O)[C@H]3[C@@H](C(=O)NCCCNC(=O)c4ccc(-c5c6nc(c(-c7ccc(S(=O)(=O)[O-])cc7)c7ccc([nH]7)c(-c7ccc(S(=O)(=O)[O-])cc7)c7nc(c(-c8ccc(S(=O)(=O)[O-])cc8)c8ccc5[nH]8)C=C7)C=C6)cc4)[C@@H]4CC[C@H]3O4)sc2C)cc1
REMARK SMILES IDX 18 1 17 2 16 3 14 4 15 5 13 7 12 8 86 9 83 10 85 11 87 12
REMARK SMILES IDX 84 13 10 14 9 15 11 17 8 18 6 19 7 20 89 21 88 22 90 23 5 24
REMARK SMILES IDX 1 25 2 26 3 27 92 28 4 29 91 30 19 31 20 32 21 33 22 35
REMARK SMILES IDX 23 36 24 37 82 38 25 39 81 40 26 41 27 42 28 43 75 44 29 45
REMARK SMILES IDX 80 46 74 47 76 48 30 49 79 50 73 51 72 52 31 54 61 55 42 56
REMARK SMILES IDX 60 57 43 58 46 59 59 60 77 61 44 62 45 63 58 65 78 66 47 67
REMARK SMILES IDX 32 68 33 69 41 70 34 71 40 72 35 73 36 74 37 75 38 76 39 77
REMARK SMILES IDX 62 78 63 79 71 80 64 81 70 82 65 83 66 84 67 85 68 86 69 87
REMARK SMILES IDX 48 88 49 89 57 90 50 91 56 92 51 93 52 94 53 95 54 96 55 97
REMARK H PARENT 16 6 9 16 20 34 76 53 46 64
REMARK Flexibility Score: inf
ROOT
ATOM      1  C   UNL     1      -5.773  -1.060   1.166  1.00  0.00     0.042 C 
ENDROOT
BRANCH   1   2
ATOM      2  C   UNL     1      -6.615  -0.594   2.337  1.00  0.00     0.117 C 
BRANCH   2   3
ATOM      3  N   UNL     1      -7.462   0.572   2.105  1.00  0.00    -0.356 N 
ATOM      4  C   UNL     1      -8.776   0.529   1.744  1.00  0.00     0.226 C 
ATOM      5  O   UNL     1      -9.613   0.983   2.527  1.00  0.00    -0.275 OA
ATOM      6  H   UNL     1      -7.052   1.460   2.218  1.00  0.00     0.163 HD
BRANCH   4   7
ATOM      7  C   UNL     1      -9.171  -0.184   0.473  1.00  0.00     0.122 C 
ATOM      8  C   UNL     1      -8.524  -0.034  -0.916  1.00  0.00     0.123 C 
ATOM      9  C   UNL     1      -9.734  -0.443  -1.785  1.00  0.00     0.132 C 
ATOM     10  C   UNL     1     -10.688  -0.052   0.124  1.00  0.00     0.132 C 
ATOM     11  C   UNL     1     -10.343  -1.813  -1.378  1.00  0.00     0.035 C 
ATOM     12  O   UNL     1     -10.700   0.474  -1.233  1.00  0.00    -0.373 OA
ATOM     13  C   UNL     1     -11.237  -1.437  -0.187  1.00  0.00     0.035 C 
BRANCH   8  14
ATOM     14  C   UNL     1      -7.772   1.083  -1.704  1.00  0.00     0.232 C 
ATOM     15  N   UNL     1      -7.699   2.431  -1.648  1.00  0.00    -0.302 N 
ATOM     16  H   UNL     1      -7.162   2.792  -2.389  1.00  0.00     0.172 HD
ATOM     17  O   UNL     1      -7.119   0.634  -2.677  1.00  0.00    -0.274 OA
BRANCH  15  18
ATOM     18  C   UNL     1      -8.169   3.429  -0.842  1.00  0.00     0.190 A 
ATOM     19  C   UNL     1      -8.444   5.439   0.104  1.00  0.00     0.086 A 
ATOM     20  N   UNL     1      -7.835   4.706  -0.935  1.00  0.00    -0.220 NA
ATOM     21  C   UNL     1      -9.326   4.682   0.863  1.00  0.00     0.031 A 
ATOM     22  S   UNL     1      -9.295   3.079   0.329  1.00  0.00    -0.101 S 
ATOM     23  C   UNL     1     -10.260   4.980   1.978  1.00  0.00     0.059 C 
BRANCH  19  24
ATOM     24  C   UNL     1      -8.203   6.868   0.366  1.00  0.00     0.001 A 
ATOM     25  C   UNL     1      -7.938  11.101   1.321  1.00  0.00     0.044 C 
ATOM     26  C   UNL     1      -8.005   9.639   0.984  1.00  0.00    -0.051 A 
ATOM     27  C   UNL     1      -7.982   9.192  -0.346  1.00  0.00     0.004 A 
ATOM     28  C   UNL     1      -8.068   8.690   2.002  1.00  0.00     0.004 A 
ATOM     29  C   UNL     1      -8.083   7.818  -0.654  1.00  0.00     0.010 A 
ATOM     30  C   UNL     1      -8.141   7.329   1.694  1.00  0.00     0.010 A 
ENDBRANCH  19  24
ENDBRANCH  15  18
ENDBRANCH   8  14
ENDBRANCH   4   7
ENDBRANCH   2   3
ENDBRANCH   1   2
BRANCH   1  31
ATOM     31  C   UNL     1      -4.932   0.045   0.560  1.00  0.00     0.118 C 
BRANCH  31  32
ATOM     32  N   UNL     1      -3.549   0.025   0.987  1.00  0.00    -0.352 N 
ATOM     33  C   UNL     1      -2.606  -0.461   0.080  1.00  0.00     0.251 C 
ATOM     34  H   UNL     1      -3.284   0.343   1.880  1.00  0.00     0.163 HD
ATOM     35  O   UNL     1      -2.529  -1.592  -0.310  1.00  0.00    -0.269 OA
BRANCH  33  36
ATOM     36  C   UNL     1      -2.019   0.658  -0.695  1.00  0.00     0.039 A 
ATOM     37  C   UNL     1      -0.899   1.375  -0.281  1.00  0.00     0.014 A 
ATOM     38  C   UNL     1      -2.841   1.111  -1.731  1.00  0.00     0.014 A 
ATOM     39  C   UNL     1      -0.651   2.622  -0.860  1.00  0.00     0.010 A 
ATOM     40  C   UNL     1      -2.644   2.371  -2.237  1.00  0.00     0.010 A 
ATOM     41  C   UNL     1      -1.565   3.135  -1.784  1.00  0.00    -0.014 A 
BRANCH  41  42
ATOM     42  C   UNL     1      -1.522   4.469  -2.359  1.00  0.00     0.031 A 
ATOM     43  C   UNL     1      -0.966   4.660  -3.712  1.00  0.00     0.074 A 
ATOM     44  C   UNL     1      -2.178   5.466  -1.732  1.00  0.00     0.049 A 
ATOM     45  N   UNL     1      -0.635   5.801  -4.211  1.00  0.00    -0.248 NA
ATOM     46  C   UNL     1      -0.687   3.539  -4.604  1.00  0.00     0.031 C 
ATOM     47  C   UNL     1      -2.616   6.741  -2.287  1.00  0.00     0.029 A 
ATOM     48  N   UNL     1      -2.409   5.590  -0.370  1.00  0.00    -0.354 N 
ATOM     49  C   UNL     1      -0.400   5.611  -5.554  1.00  0.00     0.074 A 
ATOM     50  C   UNL     1      -0.333   4.178  -5.722  1.00  0.00     0.031 C 
ATOM     51  C   UNL     1      -2.845   7.598  -1.277  1.00  0.00     0.029 A 
ATOM     52  C   UNL     1      -2.389   6.954  -0.054  1.00  0.00     0.049 A 
ATOM     53  H   UNL     1      -2.561   4.850   0.261  1.00  0.00     0.167 HD
ATOM     54  C   UNL     1      -0.440   6.686  -6.393  1.00  0.00     0.031 A 
ATOM     55  C   UNL     1      -1.397   7.451   0.748  1.00  0.00     0.031 A 
ATOM     56  C   UNL     1      -0.581   7.934  -5.640  1.00  0.00     0.049 A 
ATOM     57  C   UNL     1      -0.483   8.429   0.040  1.00  0.00     0.074 A 
ATOM     58  C   UNL     1      -1.663   8.759  -5.379  1.00  0.00     0.029 A 
ATOM     59  N   UNL     1       0.428   8.317  -4.764  1.00  0.00    -0.354 N 
ATOM     60  N   UNL     1      -0.363   8.525  -1.257  1.00  0.00    -0.248 NA
ATOM     61  C   UNL     1       0.367   9.382   0.746  1.00  0.00     0.031 C 
ATOM     62  C   UNL     1      -1.326   9.579  -4.268  1.00  0.00     0.029 A 
ATOM     63  C   UNL     1      -0.029   9.281  -3.885  1.00  0.00     0.049 A 
ATOM     64  H   UNL     1       1.343   7.952  -4.768  1.00  0.00     0.167 HD
ATOM     65  C   UNL     1       0.535   9.513  -1.569  1.00  0.00     0.074 A 
ATOM     66  C   UNL     1       0.955  10.028  -0.277  1.00  0.00     0.031 C 
ATOM     67  C   UNL     1       0.857   9.825  -2.861  1.00  0.00     0.031 A 
BRANCH  54  68
ATOM     68  C   UNL     1      -0.631   6.594  -7.895  1.00  0.00    -0.014 A 
ATOM     69  C   UNL     1      -1.108   7.718  -8.604  1.00  0.00     0.010 A 
ATOM     70  C   UNL     1      -0.438   5.429  -8.661  1.00  0.00     0.010 A 
ATOM     71  C   UNL     1      -1.450   7.657  -9.966  1.00  0.00     0.020 A 
ATOM     72  C   UNL     1      -0.793   5.344 -10.016  1.00  0.00     0.020 A 
ATOM     73  C   UNL     1      -1.312   6.458 -10.660  1.00  0.00     0.054 A 
BRANCH  73  74
ATOM     74  S   UNL     1      -1.813   6.369 -12.398  1.00  0.00     0.124 S 
ATOM     75  O   UNL     1      -3.235   6.699 -12.332  1.00  0.00    -0.237 OA
ATOM     76  O   UNL     1      -0.961   7.375 -13.025  1.00  0.00    -0.237 OA
ATOM     77  O   UNL     1      -1.519   4.987 -12.775  1.00  0.00    -0.744 OA
ENDBRANCH  73  74
ENDBRANCH  54  68
BRANCH  55  78
ATOM     78  C   UNL     1      -0.979   6.494   1.820  1.00  0.00    -0.014 A 
ATOM     79  C   UNL     1      -1.924   6.213   2.833  1.00  0.00     0.010 A 
ATOM     80  C   UNL     1       0.054   5.569   1.585  1.00  0.00     0.010 A 
ATOM     81  C   UNL     1      -1.961   4.955   3.441  1.00  0.00     0.020 A 
ATOM     82  C   UNL     1       0.027   4.310   2.208  1.00  0.00     0.020 A 
ATOM     83  C   UNL     1      -1.030   3.987   3.064  1.00  0.00     0.054 A 
BRANCH  83  84
ATOM     84  S   UNL     1      -1.358   2.261   3.533  1.00  0.00     0.124 S 
ATOM     85  O   UNL     1      -1.475   2.341   4.985  1.00  0.00    -0.237 OA
ATOM     86  O   UNL     1      -2.605   1.976   2.815  1.00  0.00    -0.237 OA
ATOM     87  O   UNL     1      -0.193   1.536   3.036  1.00  0.00    -0.744 OA
ENDBRANCH  83  84
ENDBRANCH  55  78
BRANCH  67  88
ATOM     88  C   UNL     1       1.983  10.733  -3.310  1.00  0.00    -0.014 A 
ATOM     89  C   UNL     1       3.068  11.114  -2.505  1.00  0.00     0.010 A 
ATOM     90  C   UNL     1       2.029  11.144  -4.667  1.00  0.00     0.010 A 
ATOM     91  C   UNL     1       4.105  11.916  -3.005  1.00  0.00     0.020 A 
ATOM     92  C   UNL     1       3.083  11.899  -5.190  1.00  0.00     0.020 A 
ATOM     93  C   UNL     1       4.105  12.306  -4.344  1.00  0.00     0.054 A 
BRANCH  93  94
ATOM     94  S   UNL     1       5.483  13.287  -4.988  1.00  0.00     0.124 S 
ATOM     95  O   UNL     1       5.082  14.643  -4.624  1.00  0.00    -0.237 OA
ATOM     96  O   UNL     1       6.631  12.756  -4.255  1.00  0.00    -0.237 OA
ATOM     97  O   UNL     1       5.476  12.992  -6.418  1.00  0.00    -0.744 OA
ENDBRANCH  93  94
ENDBRANCH  67  88
ENDBRANCH  41  42
ENDBRANCH  33  36
ENDBRANCH  31  32
ENDBRANCH   1  31
TORSDOF 16
