REMARK SMILES O=C(NCCCNC(=O)[C@H]1CC2(CCN(C(=O)c3cccc(O)c3)CC2)CN1C(=O)C1CC1)c1ccc(-c2c3nc(c(-c4ccc(S(=O)(=O)[O-])cc4)c4ccc([nH]4)c(-c4ccc(S(=O)(=O)[O-])cc4)c4nc(c(-c5ccc(S(=O)(=O)[O-])cc5)c5ccc2[nH]5)C=C4)C=C3)cc1
REMARK SMILES IDX 4 1 3 2 1 3 2 4 34 6 35 7 93 8 36 9 92 10 37 11 38 12 39 13
REMARK SMILES IDX 86 14 40 15 91 16 85 17 87 18 41 19 90 20 84 21 83 22 42 24
REMARK SMILES IDX 72 25 53 26 71 27 54 28 57 29 70 30 88 31 55 32 56 33 69 35
REMARK SMILES IDX 89 36 58 37 43 38 44 39 52 40 45 41 51 42 46 43 47 44 48 45
REMARK SMILES IDX 49 46 50 47 73 48 74 49 82 50 75 51 81 52 76 53 77 54 78 55
REMARK SMILES IDX 79 56 80 57 59 58 60 59 68 60 61 61 67 62 62 63 63 64 64 65
REMARK SMILES IDX 65 66 66 67 5 68 6 69 7 70 8 71 9 73 10 74 11 75 28 76 12 77
REMARK SMILES IDX 27 78 13 79 26 80 14 81 25 82 15 83 16 84 17 85 29 86 30 87
REMARK SMILES IDX 31 88 32 89 33 90 18 91 19 92 24 93 20 94 22 95 21 96 23 97
REMARK H PARENT 3 5 87 23 57 34 7 72 23 98
REMARK Flexibility Score: inf
ROOT
ATOM      1  C   UNL     1       4.184  -3.172   0.503  1.00  0.00     0.118 C 
ENDROOT
BRANCH   1   2
ATOM      2  N   UNL     1       4.368  -1.856   1.086  1.00  0.00    -0.352 N 
ATOM      3  O   UNL     1       4.290  -0.265   2.680  1.00  0.00    -0.269 OA
ATOM      4  C   UNL     1       4.057  -1.427   2.357  1.00  0.00     0.251 C 
ATOM      5  H   UNL     1       4.770  -1.179   0.495  1.00  0.00     0.163 HD
BRANCH   4   6
ATOM      6  C   UNL     1       3.391  -2.343   3.313  1.00  0.00     0.039 A 
ATOM      7  C   UNL     1       3.887  -3.624   3.572  1.00  0.00     0.014 A 
ATOM      8  C   UNL     1       2.227  -1.904   3.952  1.00  0.00     0.014 A 
ATOM      9  C   UNL     1       3.149  -4.507   4.363  1.00  0.00     0.010 A 
ATOM     10  C   UNL     1       1.517  -2.773   4.785  1.00  0.00     0.010 A 
ATOM     11  C   UNL     1       1.948  -4.097   4.964  1.00  0.00    -0.014 A 
BRANCH  11  12
ATOM     12  C   UNL     1       1.147  -5.056   5.772  1.00  0.00     0.031 A 
ATOM     13  C   UNL     1      -0.198  -5.536   5.290  1.00  0.00     0.074 A 
ATOM     14  C   UNL     1       1.633  -5.508   6.944  1.00  0.00     0.049 A 
ATOM     15  N   UNL     1      -1.022  -6.385   5.853  1.00  0.00    -0.248 NA
ATOM     16  C   UNL     1      -0.686  -4.986   4.015  1.00  0.00     0.031 C 
ATOM     17  C   UNL     1       2.917  -5.120   7.532  1.00  0.00     0.029 A 
ATOM     18  N   UNL     1       1.109  -6.399   7.846  1.00  0.00    -0.354 N 
ATOM     19  C   UNL     1      -2.131  -6.456   5.017  1.00  0.00     0.074 A 
ATOM     20  C   UNL     1      -1.885  -5.546   3.918  1.00  0.00     0.031 C 
ATOM     21  C   UNL     1       3.095  -5.795   8.678  1.00  0.00     0.029 A 
ATOM     22  C   UNL     1       1.925  -6.631   8.928  1.00  0.00     0.049 A 
ATOM     23  H   UNL     1       0.232  -6.832   7.730  1.00  0.00     0.167 HD
ATOM     24  C   UNL     1      -3.249  -7.211   5.146  1.00  0.00     0.031 A 
ATOM     25  C   UNL     1       1.753  -7.423  10.004  1.00  0.00     0.031 A 
ATOM     26  C   UNL     1      -3.495  -8.124   6.233  1.00  0.00     0.049 A 
ATOM     27  C   UNL     1       0.500  -8.243  10.130  1.00  0.00     0.074 A 
ATOM     28  C   UNL     1      -4.580  -8.965   6.421  1.00  0.00     0.029 A 
ATOM     29  N   UNL     1      -2.652  -8.315   7.316  1.00  0.00    -0.354 N 
ATOM     30  N   UNL     1      -0.516  -8.328   9.305  1.00  0.00    -0.248 NA
ATOM     31  C   UNL     1       0.375  -9.081  11.331  1.00  0.00     0.031 C 
ATOM     32  C   UNL     1      -4.413  -9.631   7.641  1.00  0.00     0.029 A 
ATOM     33  C   UNL     1      -3.201  -9.242   8.187  1.00  0.00     0.049 A 
ATOM     34  H   UNL     1      -1.790  -7.858   7.447  1.00  0.00     0.167 HD
ATOM     35  C   UNL     1      -1.389  -9.248   9.875  1.00  0.00     0.074 A 
ATOM     36  C   UNL     1      -0.776  -9.700  11.108  1.00  0.00     0.031 C 
ATOM     37  C   UNL     1      -2.588  -9.682   9.414  1.00  0.00     0.031 A 
BRANCH  24  38
ATOM     38  C   UNL     1      -4.315  -7.063   4.092  1.00  0.00    -0.014 A 
ATOM     39  C   UNL     1      -4.143  -7.591   2.800  1.00  0.00     0.010 A 
ATOM     40  C   UNL     1      -5.527  -6.425   4.413  1.00  0.00     0.010 A 
ATOM     41  C   UNL     1      -5.146  -7.446   1.836  1.00  0.00     0.020 A 
ATOM     42  C   UNL     1      -6.542  -6.298   3.460  1.00  0.00     0.020 A 
ATOM     43  C   UNL     1      -6.337  -6.793   2.171  1.00  0.00     0.054 A 
BRANCH  43  44
ATOM     44  S   UNL     1      -7.627  -6.626   0.906  1.00  0.00     0.124 S 
ATOM     45  O   UNL     1      -7.087  -5.560   0.066  1.00  0.00    -0.237 OA
ATOM     46  O   UNL     1      -7.655  -7.952   0.295  1.00  0.00    -0.237 OA
ATOM     47  O   UNL     1      -8.819  -6.272   1.672  1.00  0.00    -0.744 OA
ENDBRANCH  43  44
ENDBRANCH  24  38
BRANCH  25  48
ATOM     48  C   UNL     1       2.813  -7.491  11.044  1.00  0.00    -0.014 A 
ATOM     49  C   UNL     1       3.616  -8.638  11.167  1.00  0.00     0.010 A 
ATOM     50  C   UNL     1       3.039  -6.399  11.902  1.00  0.00     0.010 A 
ATOM     51  C   UNL     1       4.620  -8.697  12.137  1.00  0.00     0.020 A 
ATOM     52  C   UNL     1       4.059  -6.445  12.856  1.00  0.00     0.020 A 
ATOM     53  C   UNL     1       4.837  -7.599  12.974  1.00  0.00     0.054 A 
BRANCH  53  54
ATOM     54  S   UNL     1       6.187  -7.671  14.183  1.00  0.00     0.124 S 
ATOM     55  O   UNL     1       5.615  -8.515  15.226  1.00  0.00    -0.237 OA
ATOM     56  O   UNL     1       7.274  -8.267  13.410  1.00  0.00    -0.237 OA
ATOM     57  O   UNL     1       6.390  -6.271  14.549  1.00  0.00    -0.744 OA
ENDBRANCH  53  54
ENDBRANCH  25  48
BRANCH  37  58
ATOM     58  C   UNL     1      -3.302 -10.726  10.231  1.00  0.00    -0.014 A 
ATOM     59  C   UNL     1      -3.922 -10.401  11.450  1.00  0.00     0.010 A 
ATOM     60  C   UNL     1      -3.375 -12.048   9.755  1.00  0.00     0.010 A 
ATOM     61  C   UNL     1      -4.569 -11.388  12.199  1.00  0.00     0.020 A 
ATOM     62  C   UNL     1      -4.041 -13.033  10.489  1.00  0.00     0.020 A 
ATOM     63  C   UNL     1      -4.619 -12.700  11.717  1.00  0.00     0.054 A 
BRANCH  63  64
ATOM     64  S   UNL     1      -5.481 -13.963  12.693  1.00  0.00     0.124 S 
ATOM     65  O   UNL     1      -4.507 -14.254  13.741  1.00  0.00    -0.237 OA
ATOM     66  O   UNL     1      -6.687 -13.264  13.132  1.00  0.00    -0.237 OA
ATOM     67  O   UNL     1      -5.710 -15.043  11.735  1.00  0.00    -0.744 OA
ENDBRANCH  63  64
ENDBRANCH  37  58
ENDBRANCH  11  12
ENDBRANCH   4   6
ENDBRANCH   1   2
BRANCH   1  68
ATOM     68  C   UNL     1       3.745  -3.176  -0.957  1.00  0.00     0.042 C 
BRANCH  68  69
ATOM     69  C   UNL     1       4.649  -2.463  -1.958  1.00  0.00     0.117 C 
BRANCH  69  70
ATOM     70  N   UNL     1       6.057  -2.824  -1.915  1.00  0.00    -0.354 N 
ATOM     71  C   UNL     1       6.768  -3.709  -2.685  1.00  0.00     0.242 C 
ATOM     72  H   UNL     1       6.583  -2.361  -1.224  1.00  0.00     0.163 HD
ATOM     73  O   UNL     1       7.999  -3.652  -2.653  1.00  0.00    -0.273 OA
BRANCH  71  74
ATOM     74  C   UNL     1       6.035  -4.659  -3.631  1.00  0.00     0.175 C 
ATOM     75  C   UNL     1       6.828  -5.400  -4.701  1.00  0.00     0.044 C 
ATOM     76  N   UNL     1       5.065  -5.661  -3.218  1.00  0.00    -0.330 N 
ATOM     77  C   UNL     1       5.707  -6.163  -5.480  1.00  0.00    -0.006 C 
ATOM     78  C   UNL     1       4.535  -6.250  -4.447  1.00  0.00     0.127 C 
ATOM     79  C   UNL     1       6.170  -7.574  -5.910  1.00  0.00     0.030 C 
ATOM     80  C   UNL     1       5.248  -5.382  -6.736  1.00  0.00     0.030 C 
ATOM     81  C   UNL     1       7.194  -7.538  -7.045  1.00  0.00     0.120 C 
ATOM     82  C   UNL     1       6.278  -5.402  -7.865  1.00  0.00     0.120 C 
ATOM     83  N   UNL     1       6.685  -6.766  -8.179  1.00  0.00    -0.339 N 
ATOM     84  C   UNL     1       6.755  -7.143  -9.520  1.00  0.00     0.253 C 
ATOM     85  O   UNL     1       6.587  -6.357 -10.452  1.00  0.00    -0.269 OA
BRANCH  76  86
ATOM     86  C   UNL     1       4.912  -6.452  -2.085  1.00  0.00     0.226 C 
ATOM     87  O   UNL     1       3.862  -7.085  -1.955  1.00  0.00    -0.275 OA
BRANCH  86  88
ATOM     88  C   UNL     1       5.929  -6.709  -1.027  1.00  0.00     0.079 C 
ATOM     89  C   UNL     1       7.419  -6.667  -1.204  1.00  0.00     0.014 C 
ATOM     90  C   UNL     1       6.746  -5.739  -0.234  1.00  0.00     0.014 C 
ENDBRANCH  86  88
ENDBRANCH  76  86
BRANCH  84  91
ATOM     91  C   UNL     1       7.025  -8.553  -9.875  1.00  0.00     0.043 A 
ATOM     92  C   UNL     1       6.204  -9.582  -9.398  1.00  0.00     0.014 A 
ATOM     93  C   UNL     1       8.050  -8.833 -10.784  1.00  0.00     0.060 A 
ATOM     94  C   UNL     1       6.442 -10.900  -9.795  1.00  0.00     0.005 A 
ATOM     95  C   UNL     1       8.272 -10.149 -11.174  1.00  0.00     0.116 A 
ATOM     96  C   UNL     1       7.482 -11.186 -10.683  1.00  0.00     0.046 A 
BRANCH  95  97
ATOM     97  O   UNL     1       9.283 -10.387 -12.059  1.00  0.00    -0.508 OA
ATOM     98  H   UNL     1       9.460 -11.263 -12.343  1.00  0.00     0.293 HD
ENDBRANCH  95  97
ENDBRANCH  84  91
ENDBRANCH  71  74
ENDBRANCH  69  70
ENDBRANCH  68  69
ENDBRANCH   1  68
TORSDOF 17
