REMARK SMILES O=C(/C=C\c1ccc([N+](=O)[O-])cc1)NCCCNC(=O)c1ccc(-c2c3nc(c(-c4ccc(S(=O)(=O)[O-])cc4)c4ccc([nH]4)c(-c4ccc(S(=O)(=O)[O-])cc4)c4nc(c(-c5ccc(S(=O)(=O)[O-])cc5)c5ccc2[nH]5)C=C4)C=C3)cc1
REMARK SMILES IDX 16 1 15 2 14 3 1 4 2 5 3 7 4 8 5 9 6 10 13 11 7 12 12 13
REMARK SMILES IDX 8 14 9 15 10 16 11 17 17 18 18 19 19 20 20 22 21 23 22 24
REMARK SMILES IDX 80 25 23 26 79 27 24 28 25 29 26 30 73 31 27 32 78 33 72 34
REMARK SMILES IDX 74 35 28 36 77 37 71 38 70 39 29 41 59 42 40 43 58 44 41 45
REMARK SMILES IDX 44 46 57 47 75 48 42 49 43 50 56 52 76 53 45 54 30 55 31 56
REMARK SMILES IDX 39 57 32 58 38 59 33 60 34 61 35 62 36 63 37 64 60 65 61 66
REMARK SMILES IDX 69 67 62 68 68 69 63 70 64 71 65 72 66 73 67 74 46 75 47 76
REMARK SMILES IDX 55 77 48 78 54 79 49 80 50 81 51 82 52 83 53 84
REMARK H PARENT 14 6 18 21 74 40 44 51
REMARK Flexibility Score: inf
ROOT
ATOM      1  C   UNL     1       2.107  -0.828   3.398  1.00  0.00     0.042 C 
ENDROOT
BRANCH   1   2
ATOM      2  C   UNL     1       1.998   0.383   2.472  1.00  0.00     0.118 C 
BRANCH   2   3
ATOM      3  N   UNL     1       2.787   0.274   1.261  1.00  0.00    -0.352 N 
ATOM      4  O   UNL     1       1.118  -0.626  -0.024  1.00  0.00    -0.270 OA
ATOM      5  C   UNL     1       2.271  -0.215   0.095  1.00  0.00     0.244 C 
ATOM      6  H   UNL     1       3.728   0.564   1.279  1.00  0.00     0.163 HD
BRANCH   5   7
ATOM      7  C   UNL     1       3.137  -0.157  -1.115  1.00  0.00     0.072 C 
ATOM      8  C   UNL     1       4.472  -0.120  -1.263  1.00  0.00     0.014 C 
BRANCH   8   9
ATOM      9  C   UNL     1       5.489  -0.146  -0.215  1.00  0.00    -0.025 A 
ATOM     10  C   UNL     1       6.305   0.976  -0.022  1.00  0.00     0.015 A 
ATOM     11  C   UNL     1       5.655  -1.273   0.598  1.00  0.00     0.015 A 
ATOM     12  C   UNL     1       7.243   0.997   1.014  1.00  0.00     0.086 A 
ATOM     13  C   UNL     1       6.598  -1.264   1.629  1.00  0.00     0.086 A 
ATOM     14  C   UNL     1       7.373  -0.119   1.850  1.00  0.00     0.269 A 
BRANCH  14  15
ATOM     15  N   UNL     1       8.315  -0.081   2.976  1.00  0.00     0.062 N 
ATOM     16  O   UNL     1       9.008   0.938   3.109  1.00  0.00    -0.258 OA
ATOM     17  O   UNL     1       8.350  -1.066   3.725  1.00  0.00    -0.258 OA
ENDBRANCH  14  15
ENDBRANCH   8   9
ENDBRANCH   5   7
ENDBRANCH   2   3
ENDBRANCH   1   2
BRANCH   1  18
ATOM     18  C   UNL     1       3.507  -1.135   3.930  1.00  0.00     0.118 C 
BRANCH  18  19
ATOM     19  N   UNL     1       4.128  -0.028   4.638  1.00  0.00    -0.352 N 
ATOM     20  C   UNL     1       4.973  -0.015   5.721  1.00  0.00     0.251 C 
ATOM     21  H   UNL     1       3.905   0.863   4.282  1.00  0.00     0.163 HD
ATOM     22  O   UNL     1       5.293   1.078   6.188  1.00  0.00    -0.269 OA
BRANCH  20  23
ATOM     23  C   UNL     1       5.478  -1.260   6.352  1.00  0.00     0.039 A 
ATOM     24  C   UNL     1       5.632  -1.274   7.744  1.00  0.00     0.014 A 
ATOM     25  C   UNL     1       5.846  -2.389   5.616  1.00  0.00     0.014 A 
ATOM     26  C   UNL     1       6.093  -2.423   8.393  1.00  0.00     0.010 A 
ATOM     27  C   UNL     1       6.268  -3.554   6.266  1.00  0.00     0.010 A 
ATOM     28  C   UNL     1       6.384  -3.586   7.662  1.00  0.00    -0.014 A 
BRANCH  28  29
ATOM     29  C   UNL     1       6.718  -4.852   8.363  1.00  0.00     0.031 A 
ATOM     30  C   UNL     1       8.096  -5.450   8.296  1.00  0.00     0.074 A 
ATOM     31  C   UNL     1       5.740  -5.491   9.035  1.00  0.00     0.049 A 
ATOM     32  N   UNL     1       8.555  -6.521   8.895  1.00  0.00    -0.248 NA
ATOM     33  C   UNL     1       9.079  -4.773   7.438  1.00  0.00     0.031 C 
ATOM     34  C   UNL     1       4.347  -5.043   9.122  1.00  0.00     0.029 A 
ATOM     35  N   UNL     1       5.762  -6.648   9.771  1.00  0.00    -0.354 N 
ATOM     36  C   UNL     1       9.880  -6.647   8.492  1.00  0.00     0.074 A 
ATOM     37  C   UNL     1      10.136  -5.566   7.561  1.00  0.00     0.031 C 
ATOM     38  C   UNL     1       3.657  -5.899   9.890  1.00  0.00     0.029 A 
ATOM     39  C   UNL     1       4.548  -6.967  10.331  1.00  0.00     0.049 A 
ATOM     40  H   UNL     1       6.571  -7.198   9.887  1.00  0.00     0.167 HD
ATOM     41  C   UNL     1      10.799  -7.569   8.872  1.00  0.00     0.031 A 
ATOM     42  C   UNL     1       4.188  -7.998  11.119  1.00  0.00     0.031 A 
ATOM     43  C   UNL     1      10.532  -8.652   9.787  1.00  0.00     0.049 A 
ATOM     44  C   UNL     1       5.228  -8.997  11.538  1.00  0.00     0.074 A 
ATOM     45  C   UNL     1      11.412  -9.604  10.276  1.00  0.00     0.029 A 
ATOM     46  N   UNL     1       9.293  -8.935  10.344  1.00  0.00    -0.354 N 
ATOM     47  N   UNL     1       6.498  -9.049  11.214  1.00  0.00    -0.248 NA
ATOM     48  C   UNL     1       4.791 -10.061  12.451  1.00  0.00     0.031 C 
ATOM     49  C   UNL     1      10.694 -10.492  11.086  1.00  0.00     0.029 A 
ATOM     50  C   UNL     1       9.380 -10.059  11.152  1.00  0.00     0.049 A 
ATOM     51  H   UNL     1       8.473  -8.415  10.188  1.00  0.00     0.167 HD
ATOM     52  C   UNL     1       7.019 -10.137  11.905  1.00  0.00     0.074 A 
ATOM     53  C   UNL     1       5.930 -10.700  12.679  1.00  0.00     0.031 C 
ATOM     54  C   UNL     1       8.286 -10.623  11.902  1.00  0.00     0.031 A 
BRANCH  41  55
ATOM     55  C   UNL     1      12.188  -7.452   8.295  1.00  0.00    -0.014 A 
ATOM     56  C   UNL     1      13.045  -6.400   8.671  1.00  0.00     0.010 A 
ATOM     57  C   UNL     1      12.667  -8.436   7.411  1.00  0.00     0.010 A 
ATOM     58  C   UNL     1      14.338  -6.314   8.145  1.00  0.00     0.020 A 
ATOM     59  C   UNL     1      13.969  -8.368   6.903  1.00  0.00     0.020 A 
ATOM     60  C   UNL     1      14.791  -7.297   7.261  1.00  0.00     0.054 A 
BRANCH  60  61
ATOM     61  S   UNL     1      16.482  -7.175   6.613  1.00  0.00     0.124 S 
ATOM     62  O   UNL     1      16.362  -6.069   5.665  1.00  0.00    -0.237 OA
ATOM     63  O   UNL     1      17.266  -6.892   7.812  1.00  0.00    -0.237 OA
ATOM     64  O   UNL     1      16.720  -8.485   6.012  1.00  0.00    -0.744 OA
ENDBRANCH  60  61
ENDBRANCH  41  55
BRANCH  42  65
ATOM     65  C   UNL     1       2.782  -8.107  11.594  1.00  0.00    -0.014 A 
ATOM     66  C   UNL     1       2.460  -7.848  12.938  1.00  0.00     0.010 A 
ATOM     67  C   UNL     1       1.754  -8.443  10.695  1.00  0.00     0.010 A 
ATOM     68  C   UNL     1       1.137  -7.939  13.378  1.00  0.00     0.020 A 
ATOM     69  C   UNL     1       0.426  -8.508  11.126  1.00  0.00     0.020 A 
ATOM     70  C   UNL     1       0.127  -8.266  12.469  1.00  0.00     0.054 A 
BRANCH  70  71
ATOM     71  S   UNL     1      -1.591  -8.319  13.049  1.00  0.00     0.124 S 
ATOM     72  O   UNL     1      -1.619  -9.571  13.799  1.00  0.00    -0.237 OA
ATOM     73  O   UNL     1      -1.693  -7.100  13.847  1.00  0.00    -0.237 OA
ATOM     74  O   UNL     1      -2.369  -8.311  11.812  1.00  0.00    -0.744 OA
ENDBRANCH  70  71
ENDBRANCH  42  65
BRANCH  54  75
ATOM     75  C   UNL     1       8.562 -11.811  12.788  1.00  0.00    -0.014 A 
ATOM     76  C   UNL     1       8.039 -13.083  12.491  1.00  0.00     0.010 A 
ATOM     77  C   UNL     1       9.355 -11.649  13.938  1.00  0.00     0.010 A 
ATOM     78  C   UNL     1       8.253 -14.156  13.361  1.00  0.00     0.020 A 
ATOM     79  C   UNL     1       9.597 -12.727  14.794  1.00  0.00     0.020 A 
ATOM     80  C   UNL     1       9.023 -13.969  14.512  1.00  0.00     0.054 A 
BRANCH  80  81
ATOM     81  S   UNL     1       9.283 -15.373  15.631  1.00  0.00     0.124 S 
ATOM     82  O   UNL     1       7.995 -15.459  16.314  1.00  0.00    -0.237 OA
ATOM     83  O   UNL     1       9.581 -16.468  14.711  1.00  0.00    -0.237 OA
ATOM     84  O   UNL     1      10.404 -14.947  16.465  1.00  0.00    -0.744 OA
ENDBRANCH  80  81
ENDBRANCH  54  75
ENDBRANCH  28  29
ENDBRANCH  20  23
ENDBRANCH  18  19
ENDBRANCH   1  18
TORSDOF 15
