REMARK SMILES O=C(CC1CCN(C(=O)NCc2ccccn2)CC1)NCCCNC(=O)c1ccc(-c2c3nc(c(-c4ccc(S(=O)(=O)[O-])cc4)c4ccc([nH]4)c(-c4ccc(S(=O)(=O)[O-])cc4)c4nc(c(-c5ccc(S(=O)(=O)[O-])cc5)c5ccc2[nH]5)C=C4)C=C3)cc1
REMARK SMILES IDX 22 1 21 2 20 3 1 4 2 5 3 7 4 8 5 9 19 10 6 11 18 12 7 13
REMARK SMILES IDX 8 14 9 15 10 16 11 18 12 19 13 20 17 21 14 22 16 23 15 24
REMARK SMILES IDX 23 25 24 26 25 27 26 29 27 30 28 31 86 32 29 33 85 34 30 35
REMARK SMILES IDX 31 36 32 37 79 38 33 39 84 40 78 41 80 42 34 43 83 44 77 45
REMARK SMILES IDX 76 46 35 48 65 49 46 50 64 51 47 52 50 53 63 54 81 55 48 56
REMARK SMILES IDX 49 57 62 59 82 60 51 61 36 62 37 63 45 64 38 65 44 66 39 67
REMARK SMILES IDX 40 68 41 69 42 70 43 71 66 72 67 73 75 74 68 75 74 76 69 77
REMARK SMILES IDX 70 78 71 79 72 80 73 81 52 82 53 83 61 84 54 85 60 86 55 87
REMARK SMILES IDX 56 88 57 89 58 90 59 91
REMARK H PARENT 20 6 10 17 24 28 80 47 50 58
REMARK Flexibility Score: inf
ROOT
ATOM      1  C   UNL     1       1.965  -2.873  -2.024  1.00  0.00     0.042 C 
ENDROOT
BRANCH   1   2
ATOM      2  C   UNL     1       1.670  -2.178  -0.700  1.00  0.00     0.117 C 
BRANCH   2   3
ATOM      3  N   UNL     1       2.263  -0.856  -0.626  1.00  0.00    -0.356 N 
ATOM      4  O   UNL     1       0.910  -0.051   1.051  1.00  0.00    -0.275 OA
ATOM      5  C   UNL     1       1.885   0.067   0.329  1.00  0.00     0.220 C 
ATOM      6  H   UNL     1       2.957  -0.609  -1.279  1.00  0.00     0.163 HD
BRANCH   5   7
ATOM      7  C   UNL     1       2.894   1.196   0.487  1.00  0.00     0.103 C 
BRANCH   7   8
ATOM      8  C   UNL     1       3.893   0.891   1.628  1.00  0.00     0.002 C 
ATOM      9  C   UNL     1       5.012   1.953   1.700  1.00  0.00     0.026 C 
ATOM     10  C   UNL     1       4.537  -0.511   1.541  1.00  0.00     0.026 C 
ATOM     11  C   UNL     1       6.136   1.750   0.669  1.00  0.00     0.121 C 
ATOM     12  C   UNL     1       5.511  -0.579   0.371  1.00  0.00     0.121 C 
ATOM     13  N   UNL     1       6.592   0.354   0.625  1.00  0.00    -0.325 N 
ATOM     14  C   UNL     1       7.916   0.094   0.821  1.00  0.00     0.317 C 
ATOM     15  O   UNL     1       8.745   1.005   0.917  1.00  0.00    -0.249 OA
ATOM     16  N   UNL     1       8.427  -1.141   0.924  1.00  0.00    -0.332 N 
ATOM     17  H   UNL     1       9.410  -1.116   0.969  1.00  0.00     0.165 HD
BRANCH  16  18
ATOM     18  C   UNL     1       7.936  -2.509   0.989  1.00  0.00     0.174 C 
BRANCH  18  19
ATOM     19  C   UNL     1       8.093  -3.299  -0.294  1.00  0.00     0.060 A 
ATOM     20  C   UNL     1       8.370  -2.697  -1.522  1.00  0.00     0.026 A 
ATOM     21  N   UNL     1       7.993  -4.646  -0.168  1.00  0.00    -0.259 NA
ATOM     22  C   UNL     1       8.611  -3.502  -2.634  1.00  0.00     0.004 A 
ATOM     23  C   UNL     1       8.212  -5.404  -1.268  1.00  0.00     0.111 A 
ATOM     24  C   UNL     1       8.544  -4.883  -2.505  1.00  0.00     0.020 A 
ENDBRANCH  18  19
ENDBRANCH  16  18
ENDBRANCH   7   8
ENDBRANCH   5   7
ENDBRANCH   2   3
ENDBRANCH   1   2
BRANCH   1  25
ATOM     25  C   UNL     1       3.440  -3.174  -2.287  1.00  0.00     0.118 C 
BRANCH  25  26
ATOM     26  N   UNL     1       3.963  -4.273  -1.495  1.00  0.00    -0.352 N 
ATOM     27  C   UNL     1       4.641  -5.405  -1.890  1.00  0.00     0.251 C 
ATOM     28  H   UNL     1       3.810  -4.197  -0.525  1.00  0.00     0.163 HD
ATOM     29  O   UNL     1       4.831  -6.300  -1.069  1.00  0.00    -0.269 OA
BRANCH  27  30
ATOM     30  C   UNL     1       5.111  -5.589  -3.289  1.00  0.00     0.039 A 
ATOM     31  C   UNL     1       5.108  -6.883  -3.825  1.00  0.00     0.014 A 
ATOM     32  C   UNL     1       5.596  -4.532  -4.065  1.00  0.00     0.014 A 
ATOM     33  C   UNL     1       5.506  -7.099  -5.148  1.00  0.00     0.010 A 
ATOM     34  C   UNL     1       5.945  -4.736  -5.400  1.00  0.00     0.010 A 
ATOM     35  C   UNL     1       5.884  -6.019  -5.959  1.00  0.00    -0.014 A 
BRANCH  35  36
ATOM     36  C   UNL     1       6.120  -6.191  -7.414  1.00  0.00     0.031 A 
ATOM     37  C   UNL     1       7.484  -5.995  -8.011  1.00  0.00     0.074 A 
ATOM     38  C   UNL     1       5.058  -6.430  -8.210  1.00  0.00     0.049 A 
ATOM     39  N   UNL     1       7.847  -6.048  -9.267  1.00  0.00    -0.248 NA
ATOM     40  C   UNL     1       8.579  -5.682  -7.081  1.00  0.00     0.031 C 
ATOM     41  C   UNL     1       3.676  -6.589  -7.747  1.00  0.00     0.029 A 
ATOM     42  N   UNL     1       4.968  -6.560  -9.572  1.00  0.00    -0.354 N 
ATOM     43  C   UNL     1       9.210  -5.775  -9.282  1.00  0.00     0.074 A 
ATOM     44  C   UNL     1       9.600  -5.516  -7.912  1.00  0.00     0.031 C 
ATOM     45  C   UNL     1       2.880  -6.803  -8.805  1.00  0.00     0.029 A 
ATOM     46  C   UNL     1       3.684  -6.760 -10.021  1.00  0.00     0.049 A 
ATOM     47  H   UNL     1       5.748  -6.515 -10.171  1.00  0.00     0.167 HD
ATOM     48  C   UNL     1      10.057  -5.754 -10.340  1.00  0.00     0.031 A 
ATOM     49  C   UNL     1       3.201  -6.881 -11.272  1.00  0.00     0.031 A 
ATOM     50  C   UNL     1       9.652  -5.994 -11.702  1.00  0.00     0.049 A 
ATOM     51  C   UNL     1       4.156  -6.827 -12.431  1.00  0.00     0.074 A 
ATOM     52  C   UNL     1      10.441  -6.048 -12.838  1.00  0.00     0.029 A 
ATOM     53  N   UNL     1       8.344  -6.205 -12.116  1.00  0.00    -0.354 N 
ATOM     54  N   UNL     1       5.456  -6.651 -12.416  1.00  0.00    -0.248 NA
ATOM     55  C   UNL     1       3.583  -7.002 -13.771  1.00  0.00     0.031 C 
ATOM     56  C   UNL     1       9.605  -6.233 -13.944  1.00  0.00     0.029 A 
ATOM     57  C   UNL     1       8.302  -6.359 -13.492  1.00  0.00     0.049 A 
ATOM     58  H   UNL     1       7.562  -6.241 -11.520  1.00  0.00     0.167 HD
ATOM     59  C   UNL     1       5.860  -6.722 -13.744  1.00  0.00     0.074 A 
ATOM     60  C   UNL     1       4.669  -6.971 -14.531  1.00  0.00     0.031 C 
ATOM     61  C   UNL     1       7.107  -6.598 -14.263  1.00  0.00     0.031 A 
BRANCH  48  62
ATOM     62  C   UNL     1      11.509  -5.449 -10.072  1.00  0.00    -0.014 A 
ATOM     63  C   UNL     1      12.331  -6.370  -9.396  1.00  0.00     0.010 A 
ATOM     64  C   UNL     1      12.076  -4.254 -10.552  1.00  0.00     0.010 A 
ATOM     65  C   UNL     1      13.681  -6.084  -9.171  1.00  0.00     0.020 A 
ATOM     66  C   UNL     1      13.433  -3.977 -10.354  1.00  0.00     0.020 A 
ATOM     67  C   UNL     1      14.223  -4.888  -9.650  1.00  0.00     0.054 A 
BRANCH  67  68
ATOM     68  S   UNL     1      15.983  -4.555  -9.362  1.00  0.00     0.124 S 
ATOM     69  O   UNL     1      16.004  -4.276  -7.928  1.00  0.00    -0.237 OA
ATOM     70  O   UNL     1      16.615  -5.807  -9.767  1.00  0.00    -0.237 OA
ATOM     71  O   UNL     1      16.265  -3.409 -10.223  1.00  0.00    -0.744 OA
ENDBRANCH  67  68
ENDBRANCH  48  62
BRANCH  49  72
ATOM     72  C   UNL     1       1.742  -7.080 -11.483  1.00  0.00    -0.014 A 
ATOM     73  C   UNL     1       1.247  -8.323 -11.912  1.00  0.00     0.010 A 
ATOM     74  C   UNL     1       0.836  -6.035 -11.223  1.00  0.00     0.010 A 
ATOM     75  C   UNL     1      -0.126  -8.515 -12.091  1.00  0.00     0.020 A 
ATOM     76  C   UNL     1      -0.540  -6.231 -11.374  1.00  0.00     0.020 A 
ATOM     77  C   UNL     1      -1.011  -7.468 -11.818  1.00  0.00     0.054 A 
BRANCH  77  78
ATOM     78  S   UNL     1      -2.792  -7.759 -12.002  1.00  0.00     0.124 S 
ATOM     79  O   UNL     1      -2.945  -7.788 -13.453  1.00  0.00    -0.237 OA
ATOM     80  O   UNL     1      -2.975  -9.037 -11.319  1.00  0.00    -0.237 OA
ATOM     81  O   UNL     1      -3.396  -6.610 -11.331  1.00  0.00    -0.744 OA
ENDBRANCH  77  78
ENDBRANCH  49  72
BRANCH  61  82
ATOM     82  C   UNL     1       7.252  -6.757 -15.753  1.00  0.00    -0.014 A 
ATOM     83  C   UNL     1       6.793  -5.769 -16.642  1.00  0.00     0.010 A 
ATOM     84  C   UNL     1       7.905  -7.893 -16.268  1.00  0.00     0.010 A 
ATOM     85  C   UNL     1       6.957  -5.928 -18.020  1.00  0.00     0.020 A 
ATOM     86  C   UNL     1       8.096  -8.042 -17.643  1.00  0.00     0.020 A 
ATOM     87  C   UNL     1       7.609  -7.064 -18.512  1.00  0.00     0.054 A 
BRANCH  87  88
ATOM     88  S   UNL     1       7.850  -7.224 -20.303  1.00  0.00     0.124 S 
ATOM     89  O   UNL     1       6.502  -7.540 -20.764  1.00  0.00    -0.237 OA
ATOM     90  O   UNL     1       8.350  -5.903 -20.678  1.00  0.00    -0.237 OA
ATOM     91  O   UNL     1       8.822  -8.309 -20.426  1.00  0.00    -0.744 OA
ENDBRANCH  87  88
ENDBRANCH  61  82
ENDBRANCH  35  36
ENDBRANCH  27  30
ENDBRANCH  25  26
ENDBRANCH   1  25
TORSDOF 16
