REMARK SMILES C[C@H](Nc1ncccc1C(=O)NCCCNC(=O)c1ccc(-c2c3nc(c(-c4ccc(S(=O)(=O)[O-])cc4)c4ccc([nH]4)c(-c4ccc(S(=O)(=O)[O-])cc4)c4nc(c(-c5ccc(S(=O)(=O)[O-])cc5)c5ccc2[nH]5)C=C4)C=C3)cc1)c1ccc(Cl)cc1
REMARK SMILES IDX 14 1 13 2 12 3 10 4 11 5 9 7 4 8 5 9 6 10 8 11 7 12 3 13
REMARK SMILES IDX 2 15 1 16 79 17 80 18 85 19 81 20 84 21 82 22 83 23 15 24
REMARK SMILES IDX 16 25 17 26 18 28 19 29 20 30 78 31 21 32 77 33 22 34 23 35
REMARK SMILES IDX 24 36 71 37 25 38 76 39 70 40 72 41 26 42 75 43 69 44 68 45
REMARK SMILES IDX 27 47 57 48 38 49 56 50 39 51 42 52 55 53 73 54 40 55 41 56
REMARK SMILES IDX 54 58 74 59 43 60 28 61 29 62 37 63 30 64 36 65 31 66 32 67
REMARK SMILES IDX 33 68 34 69 35 70 58 71 59 72 67 73 60 74 66 75 61 76 62 77
REMARK SMILES IDX 63 78 64 79 65 80 44 81 45 82 53 83 46 84 52 85 47 86 48 87
REMARK SMILES IDX 49 88 50 89 51 90
REMARK H PARENT 12 6 3 14 16 27 72 46 42 57
REMARK Flexibility Score: inf
ROOT
ATOM      1  C   UNL     1       5.861   3.722   0.091  1.00  0.00     0.042 C 
ENDROOT
BRANCH   1   2
ATOM      2  C   UNL     1       5.959   2.200   0.081  1.00  0.00     0.118 C 
BRANCH   2   3
ATOM      3  N   UNL     1       4.860   1.557   0.781  1.00  0.00    -0.352 N 
ATOM      4  C   UNL     1       3.657   0.977   0.459  1.00  0.00     0.255 C 
ATOM      5  O   UNL     1       3.118   0.417   1.417  1.00  0.00    -0.269 OA
ATOM      6  H   UNL     1       5.021   1.530   1.752  1.00  0.00     0.163 HD
BRANCH   4   7
ATOM      7  C   UNL     1       3.005   0.944  -0.894  1.00  0.00     0.082 A 
ATOM      8  C   UNL     1       1.678   0.501  -1.060  1.00  0.00     0.139 A 
ATOM      9  N   UNL     1       1.175   0.187  -2.287  1.00  0.00    -0.239 NA
ATOM     10  C   UNL     1       1.903   0.443  -3.384  1.00  0.00     0.113 A 
ATOM     11  C   UNL     1       3.689   1.274  -2.072  1.00  0.00     0.019 A 
ATOM     12  C   UNL     1       3.139   1.032  -3.329  1.00  0.00     0.021 A 
BRANCH   8  13
ATOM     13  N   UNL     1       0.667   0.392  -0.156  1.00  0.00    -0.363 N 
ATOM     14  H   UNL     1       0.029  -0.330  -0.358  1.00  0.00     0.162 HD
BRANCH  13  15
ATOM     15  C   UNL     1       0.348   1.141   1.058  1.00  0.00     0.108 C 
ATOM     16  C   UNL     1       0.867   2.590   1.032  1.00  0.00     0.036 C 
BRANCH  15  17
ATOM     17  C   UNL     1      -1.176   1.009   1.284  1.00  0.00    -0.026 A 
ATOM     18  C   UNL     1      -2.065   2.098   1.327  1.00  0.00     0.007 A 
ATOM     19  C   UNL     1      -1.733  -0.284   1.401  1.00  0.00     0.007 A 
ATOM     20  C   UNL     1      -3.447   1.907   1.440  1.00  0.00     0.021 A 
ATOM     21  C   UNL     1      -3.115  -0.477   1.508  1.00  0.00     0.021 A 
ATOM     22  C   UNL     1      -3.967   0.621   1.521  1.00  0.00     0.041 A 
ATOM     23  Cl  UNL     1      -5.669   0.391   1.631  1.00  0.00    -0.084 Cl
ENDBRANCH  15  17
ENDBRANCH  13  15
ENDBRANCH   8  13
ENDBRANCH   4   7
ENDBRANCH   2   3
ENDBRANCH   1   2
BRANCH   1  24
ATOM     24  C   UNL     1       6.186   4.340   1.454  1.00  0.00     0.118 C 
BRANCH  24  25
ATOM     25  N   UNL     1       7.541   4.022   1.895  1.00  0.00    -0.352 N 
ATOM     26  C   UNL     1       8.649   4.818   2.045  1.00  0.00     0.251 C 
ATOM     27  H   UNL     1       7.685   3.075   2.123  1.00  0.00     0.163 HD
ATOM     28  O   UNL     1       9.753   4.293   2.154  1.00  0.00    -0.269 OA
BRANCH  26  29
ATOM     29  C   UNL     1       8.523   6.290   2.089  1.00  0.00     0.039 A 
ATOM     30  C   UNL     1       9.507   7.076   1.480  1.00  0.00     0.014 A 
ATOM     31  C   UNL     1       7.481   6.897   2.792  1.00  0.00     0.014 A 
ATOM     32  C   UNL     1       9.415   8.469   1.531  1.00  0.00     0.010 A 
ATOM     33  C   UNL     1       7.350   8.283   2.781  1.00  0.00     0.010 A 
ATOM     34  C   UNL     1       8.320   9.083   2.160  1.00  0.00    -0.014 A 
BRANCH  34  35
ATOM     35  C   UNL     1       8.167  10.559   2.191  1.00  0.00     0.031 A 
ATOM     36  C   UNL     1       8.190  11.293   3.505  1.00  0.00     0.074 A 
ATOM     37  C   UNL     1       7.922  11.227   1.046  1.00  0.00     0.049 A 
ATOM     38  N   UNL     1       7.982  12.562   3.745  1.00  0.00    -0.248 NA
ATOM     39  C   UNL     1       8.453  10.488   4.709  1.00  0.00     0.031 C 
ATOM     40  C   UNL     1       7.848  10.624  -0.287  1.00  0.00     0.029 A 
ATOM     41  N   UNL     1       7.682  12.559   0.822  1.00  0.00    -0.354 N 
ATOM     42  C   UNL     1       8.054  12.702   5.127  1.00  0.00     0.074 A 
ATOM     43  C   UNL     1       8.286  11.382   5.673  1.00  0.00     0.031 C 
ATOM     44  C   UNL     1       7.612  11.588  -1.192  1.00  0.00     0.029 A 
ATOM     45  C   UNL     1       7.473  12.866  -0.501  1.00  0.00     0.049 A 
ATOM     46  H   UNL     1       7.662  13.231   1.541  1.00  0.00     0.167 HD
ATOM     47  C   UNL     1       7.948  13.828   5.873  1.00  0.00     0.031 A 
ATOM     48  C   UNL     1       7.195  14.043  -1.093  1.00  0.00     0.031 A 
ATOM     49  C   UNL     1       7.736  15.140   5.321  1.00  0.00     0.049 A 
ATOM     50  C   UNL     1       7.077  15.279  -0.246  1.00  0.00     0.074 A 
ATOM     51  C   UNL     1       7.687  16.354   5.983  1.00  0.00     0.029 A 
ATOM     52  N   UNL     1       7.533  15.408   3.975  1.00  0.00    -0.354 N 
ATOM     53  N   UNL     1       7.210  15.402   1.053  1.00  0.00    -0.248 NA
ATOM     54  C   UNL     1       6.778  16.536  -0.946  1.00  0.00     0.031 C 
ATOM     55  C   UNL     1       7.402  17.351   5.043  1.00  0.00     0.029 A 
ATOM     56  C   UNL     1       7.331  16.765   3.789  1.00  0.00     0.049 A 
ATOM     57  H   UNL     1       7.533  14.733   3.259  1.00  0.00     0.167 HD
ATOM     58  C   UNL     1       7.044  16.756   1.323  1.00  0.00     0.074 A 
ATOM     59  C   UNL     1       6.805  17.410   0.052  1.00  0.00     0.031 C 
ATOM     60  C   UNL     1       7.094  17.400   2.516  1.00  0.00     0.031 A 
BRANCH  47  61
ATOM     61  C   UNL     1       8.036  13.679   7.370  1.00  0.00    -0.014 A 
ATOM     62  C   UNL     1       9.240  13.316   8.002  1.00  0.00     0.010 A 
ATOM     63  C   UNL     1       6.896  13.914   8.160  1.00  0.00     0.010 A 
ATOM     64  C   UNL     1       9.285  13.129   9.386  1.00  0.00     0.020 A 
ATOM     65  C   UNL     1       6.945  13.759   9.549  1.00  0.00     0.020 A 
ATOM     66  C   UNL     1       8.134  13.343  10.150  1.00  0.00     0.054 A 
BRANCH  66  67
ATOM     67  S   UNL     1       8.216  13.081  11.943  1.00  0.00     0.124 S 
ATOM     68  O   UNL     1       8.238  11.623  12.032  1.00  0.00    -0.237 OA
ATOM     69  O   UNL     1       9.462  13.751  12.309  1.00  0.00    -0.237 OA
ATOM     70  O   UNL     1       7.000  13.718  12.443  1.00  0.00    -0.744 OA
ENDBRANCH  66  67
ENDBRANCH  47  61
BRANCH  48  71
ATOM     71  C   UNL     1       7.052  14.109  -2.573  1.00  0.00    -0.014 A 
ATOM     72  C   UNL     1       8.060  14.703  -3.351  1.00  0.00     0.010 A 
ATOM     73  C   UNL     1       5.934  13.546  -3.214  1.00  0.00     0.010 A 
ATOM     74  C   UNL     1       7.953  14.737  -4.744  1.00  0.00     0.020 A 
ATOM     75  C   UNL     1       5.835  13.556  -4.609  1.00  0.00     0.020 A 
ATOM     76  C   UNL     1       6.843  14.158  -5.365  1.00  0.00     0.054 A 
BRANCH  76  77
ATOM     77  S   UNL     1       6.764  14.148  -7.178  1.00  0.00     0.124 S 
ATOM     78  O   UNL     1       6.466  15.544  -7.477  1.00  0.00    -0.237 OA
ATOM     79  O   UNL     1       8.102  13.692  -7.548  1.00  0.00    -0.237 OA
ATOM     80  O   UNL     1       5.691  13.200  -7.467  1.00  0.00    -0.744 OA
ENDBRANCH  76  77
ENDBRANCH  48  71
BRANCH  60  81
ATOM     81  C   UNL     1       6.925  18.895   2.504  1.00  0.00    -0.014 A 
ATOM     82  C   UNL     1       5.670  19.487   2.277  1.00  0.00     0.010 A 
ATOM     83  C   UNL     1       8.031  19.717   2.788  1.00  0.00     0.010 A 
ATOM     84  C   UNL     1       5.531  20.877   2.310  1.00  0.00     0.020 A 
ATOM     85  C   UNL     1       7.890  21.105   2.848  1.00  0.00     0.020 A 
ATOM     86  C   UNL     1       6.642  21.677   2.597  1.00  0.00     0.054 A 
BRANCH  86  87
ATOM     87  S   UNL     1       6.424  23.476   2.689  1.00  0.00     0.124 S 
ATOM     88  O   UNL     1       6.293  23.838   1.280  1.00  0.00    -0.237 OA
ATOM     89  O   UNL     1       5.208  23.611   3.488  1.00  0.00    -0.237 OA
ATOM     90  O   UNL     1       7.646  23.940   3.341  1.00  0.00    -0.744 OA
ENDBRANCH  86  87
ENDBRANCH  60  81
ENDBRANCH  34  35
ENDBRANCH  26  29
ENDBRANCH  24  25
ENDBRANCH   1  24
TORSDOF 16
