REMARK SMILES O=C(Nc1cccc(C(=O)NCCCNC(=O)c2ccc(-c3c4nc(c(-c5ccc(S(=O)(=O)[O-])cc5)c5ccc([nH]5)c(-c5ccc(S(=O)(=O)[O-])cc5)c5nc(c(-c6ccc(S(=O)(=O)[O-])cc6)c6ccc3[nH]6)C=C5)C=C4)cc2)c1)Nc1cc(Cl)c(Cl)cc1Cl
REMARK SMILES IDX 13 1 12 2 11 3 9 4 10 5 8 7 4 8 5 9 78 10 6 11 7 12 3 13
REMARK SMILES IDX 1 14 2 15 79 16 80 19 81 20 87 21 82 22 86 23 88 24 83 25
REMARK SMILES IDX 84 26 85 27 14 28 15 29 16 30 17 32 18 33 19 34 77 35 20 36
REMARK SMILES IDX 76 37 21 38 22 39 23 40 70 41 24 42 75 43 69 44 71 45 25 46
REMARK SMILES IDX 74 47 68 48 67 49 26 51 56 52 37 53 55 54 38 55 41 56 54 57
REMARK SMILES IDX 72 58 39 59 40 60 53 62 73 63 42 64 27 65 28 66 36 67 29 68
REMARK SMILES IDX 35 69 30 70 31 71 32 72 33 73 34 74 57 75 58 76 66 77 59 78
REMARK SMILES IDX 65 79 60 80 61 81 62 82 63 83 64 84 43 85 44 86 52 87 45 88
REMARK SMILES IDX 51 89 46 90 47 91 48 92 49 93 50 94
REMARK H PARENT 11 6 3 17 79 18 15 31 71 50 41 61
REMARK Flexibility Score: inf
ROOT
ATOM      1  C   UNL     1       4.397   3.457   1.620  1.00  0.00     0.042 C 
ENDROOT
BRANCH   1   2
ATOM      2  C   UNL     1       5.380   3.045   0.523  1.00  0.00     0.118 C 
BRANCH   2   3
ATOM      3  N   UNL     1       6.627   2.550   1.076  1.00  0.00    -0.352 N 
ATOM      4  C   UNL     1       7.101   1.296   1.362  1.00  0.00     0.251 C 
ATOM      5  O   UNL     1       8.262   1.223   1.771  1.00  0.00    -0.269 OA
ATOM      6  H   UNL     1       7.268   3.266   1.292  1.00  0.00     0.163 HD
BRANCH   4   7
ATOM      7  C   UNL     1       6.329   0.030   1.174  1.00  0.00     0.041 A 
ATOM      8  C   UNL     1       4.307  -1.285   0.823  1.00  0.00     0.043 A 
ATOM      9  C   UNL     1       5.045  -2.464   0.886  1.00  0.00     0.026 A 
ATOM     10  C   UNL     1       4.943  -0.054   1.032  1.00  0.00     0.040 A 
ATOM     11  C   UNL     1       6.427  -2.406   1.054  1.00  0.00     0.003 A 
ATOM     12  C   UNL     1       7.063  -1.168   1.178  1.00  0.00     0.014 A 
BRANCH   8  13
ATOM     13  N   UNL     1       2.929  -1.375   0.562  1.00  0.00    -0.308 N 
ATOM     14  O   UNL     1       0.886  -0.668  -0.053  1.00  0.00    -0.248 OA
ATOM     15  C   UNL     1       2.098  -0.485  -0.078  1.00  0.00     0.323 C 
ATOM     16  N   UNL     1       2.735   0.441  -0.872  1.00  0.00    -0.306 N 
ATOM     17  H   UNL     1       2.494  -2.197   0.885  1.00  0.00     0.171 HD
ATOM     18  H   UNL     1       3.714   0.363  -0.949  1.00  0.00     0.171 HD
BRANCH  16  19
ATOM     19  C   UNL     1       2.118   1.492  -1.586  1.00  0.00     0.063 A 
ATOM     20  C   UNL     1       2.651   1.754  -2.857  1.00  0.00     0.049 A 
ATOM     21  C   UNL     1       1.061   2.289  -1.116  1.00  0.00     0.066 A 
ATOM     22  C   UNL     1       2.086   2.731  -3.684  1.00  0.00     0.061 A 
ATOM     23  C   UNL     1       0.501   3.271  -1.944  1.00  0.00     0.044 A 
ATOM     24  Cl  UNL     1       0.516   2.265   0.524  1.00  0.00    -0.082 Cl
ATOM     25  Cl  UNL     1       2.778   2.947  -5.253  1.00  0.00    -0.083 Cl
ATOM     26  C   UNL     1       0.999   3.482  -3.232  1.00  0.00     0.061 A 
ATOM     27  Cl  UNL     1       0.247   4.695  -4.204  1.00  0.00    -0.083 Cl
ENDBRANCH  16  19
ENDBRANCH   8  13
ENDBRANCH   4   7
ENDBRANCH   2   3
ENDBRANCH   1   2
BRANCH   1  28
ATOM     28  C   UNL     1       4.694   4.830   2.219  1.00  0.00     0.118 C 
BRANCH  28  29
ATOM     29  N   UNL     1       4.446   5.897   1.261  1.00  0.00    -0.352 N 
ATOM     30  C   UNL     1       3.640   7.004   1.348  1.00  0.00     0.251 C 
ATOM     31  H   UNL     1       4.936   5.811   0.411  1.00  0.00     0.163 HD
ATOM     32  O   UNL     1       3.394   7.631   0.321  1.00  0.00    -0.269 OA
BRANCH  30  33
ATOM     33  C   UNL     1       3.073   7.451   2.642  1.00  0.00     0.039 A 
ATOM     34  C   UNL     1       1.798   8.027   2.644  1.00  0.00     0.014 A 
ATOM     35  C   UNL     1       3.807   7.392   3.830  1.00  0.00     0.014 A 
ATOM     36  C   UNL     1       1.251   8.512   3.834  1.00  0.00     0.010 A 
ATOM     37  C   UNL     1       3.235   7.819   5.030  1.00  0.00     0.010 A 
ATOM     38  C   UNL     1       1.958   8.398   5.042  1.00  0.00    -0.014 A 
BRANCH  38  39
ATOM     39  C   UNL     1       1.368   8.888   6.314  1.00  0.00     0.031 A 
ATOM     40  C   UNL     1       1.981  10.054   7.043  1.00  0.00     0.074 A 
ATOM     41  C   UNL     1       0.294   8.260   6.830  1.00  0.00     0.049 A 
ATOM     42  N   UNL     1       1.601  10.618   8.162  1.00  0.00    -0.248 NA
ATOM     43  C   UNL     1       3.189  10.651   6.452  1.00  0.00     0.031 C 
ATOM     44  C   UNL     1      -0.364   7.089   6.244  1.00  0.00     0.029 A 
ATOM     45  N   UNL     1      -0.436   8.519   7.962  1.00  0.00    -0.354 N 
ATOM     46  C   UNL     1       2.529  11.623   8.416  1.00  0.00     0.074 A 
ATOM     47  C   UNL     1       3.514  11.562   7.358  1.00  0.00     0.031 C 
ATOM     48  C   UNL     1      -1.419   6.752   7.003  1.00  0.00     0.029 A 
ATOM     49  C   UNL     1      -1.496   7.662   8.142  1.00  0.00     0.049 A 
ATOM     50  H   UNL     1      -0.222   9.249   8.587  1.00  0.00     0.167 HD
ATOM     51  C   UNL     1       2.551  12.525   9.428  1.00  0.00     0.031 A 
ATOM     52  C   UNL     1      -2.431   7.617   9.110  1.00  0.00     0.031 A 
ATOM     53  C   UNL     1       1.562  12.593  10.472  1.00  0.00     0.049 A 
ATOM     54  C   UNL     1      -2.404   8.646  10.204  1.00  0.00     0.074 A 
ATOM     55  C   UNL     1       1.468  13.501  11.512  1.00  0.00     0.029 A 
ATOM     56  N   UNL     1       0.493  11.720  10.606  1.00  0.00    -0.354 N 
ATOM     57  N   UNL     1      -1.550   9.624  10.395  1.00  0.00    -0.248 NA
ATOM     58  C   UNL     1      -3.478   8.577  11.204  1.00  0.00     0.031 C 
ATOM     59  C   UNL     1       0.360  13.156  12.296  1.00  0.00     0.029 A 
ATOM     60  C   UNL     1      -0.260  12.060  11.718  1.00  0.00     0.049 A 
ATOM     61  H   UNL     1       0.298  10.969  10.000  1.00  0.00     0.167 HD
ATOM     62  C   UNL     1      -1.996  10.299  11.525  1.00  0.00     0.074 A 
ATOM     63  C   UNL     1      -3.204   9.630  11.962  1.00  0.00     0.031 C 
ATOM     64  C   UNL     1      -1.454  11.377  12.145  1.00  0.00     0.031 A 
BRANCH  51  65
ATOM     65  C   UNL     1       3.689  13.512   9.451  1.00  0.00    -0.014 A 
ATOM     66  C   UNL     1       3.766  14.551   8.505  1.00  0.00     0.010 A 
ATOM     67  C   UNL     1       4.680  13.418  10.445  1.00  0.00     0.010 A 
ATOM     68  C   UNL     1       4.837  15.449   8.525  1.00  0.00     0.020 A 
ATOM     69  C   UNL     1       5.739  14.330  10.484  1.00  0.00     0.020 A 
ATOM     70  C   UNL     1       5.822  15.328   9.510  1.00  0.00     0.054 A 
BRANCH  70  71
ATOM     71  S   UNL     1       7.197  16.511   9.520  1.00  0.00     0.124 S 
ATOM     72  O   UNL     1       8.017  16.027   8.412  1.00  0.00    -0.237 OA
ATOM     73  O   UNL     1       6.526  17.788   9.290  1.00  0.00    -0.237 OA
ATOM     74  O   UNL     1       7.784  16.349  10.847  1.00  0.00    -0.744 OA
ENDBRANCH  70  71
ENDBRANCH  51  65
BRANCH  52  75
ATOM     75  C   UNL     1      -3.494   6.578   9.063  1.00  0.00    -0.014 A 
ATOM     76  C   UNL     1      -4.812   6.924   8.715  1.00  0.00     0.010 A 
ATOM     77  C   UNL     1      -3.190   5.234   9.346  1.00  0.00     0.010 A 
ATOM     78  C   UNL     1      -5.811   5.948   8.667  1.00  0.00     0.020 A 
ATOM     79  C   UNL     1      -4.181   4.251   9.274  1.00  0.00     0.020 A 
ATOM     80  C   UNL     1      -5.489   4.617   8.946  1.00  0.00     0.054 A 
BRANCH  80  81
ATOM     81  S   UNL     1      -6.787   3.356   8.823  1.00  0.00     0.124 S 
ATOM     82  O   UNL     1      -7.535   3.570  10.058  1.00  0.00    -0.237 OA
ATOM     83  O   UNL     1      -7.478   3.729   7.591  1.00  0.00    -0.237 OA
ATOM     84  O   UNL     1      -6.039   2.103   8.752  1.00  0.00    -0.744 OA
ENDBRANCH  80  81
ENDBRANCH  52  75
BRANCH  64  85
ATOM     85  C   UNL     1      -2.182  11.908  13.349  1.00  0.00    -0.014 A 
ATOM     86  C   UNL     1      -2.165  11.215  14.573  1.00  0.00     0.010 A 
ATOM     87  C   UNL     1      -2.881  13.125  13.258  1.00  0.00     0.010 A 
ATOM     88  C   UNL     1      -2.873  11.708  15.672  1.00  0.00     0.020 A 
ATOM     89  C   UNL     1      -3.569  13.633  14.362  1.00  0.00     0.020 A 
ATOM     90  C   UNL     1      -3.578  12.910  15.557  1.00  0.00     0.054 A 
BRANCH  90  91
ATOM     91  S   UNL     1      -4.481  13.539  16.999  1.00  0.00     0.124 S 
ATOM     92  O   UNL     1      -5.681  12.707  16.991  1.00  0.00    -0.237 OA
ATOM     93  O   UNL     1      -3.551  13.291  18.098  1.00  0.00    -0.237 OA
ATOM     94  O   UNL     1      -4.697  14.949  16.682  1.00  0.00    -0.744 OA
ENDBRANCH  90  91
ENDBRANCH  64  85
ENDBRANCH  38  39
ENDBRANCH  30  33
ENDBRANCH  28  29
ENDBRANCH   1  28
TORSDOF 15
