REMARK SMILES O=C(Cc1ccc(F)cc1F)Nc1sccc1C(=O)NCCCNC(=O)c1ccc(-c2c3nc(c(-c4ccc(S(=O)(=O)[O-])cc4)c4ccc([nH]4)c(-c4ccc(S(=O)(=O)[O-])cc4)c4nc(c(-c5ccc(S(=O)(=O)[O-])cc5)c5ccc2[nH]5)C=C4)C=C3)cc1
REMARK SMILES IDX 22 1 21 2 20 3 18 4 19 5 17 7 13 8 14 9 15 10 16 11 12 12
REMARK SMILES IDX 1 13 2 14 3 16 4 17 5 18 10 19 6 20 9 21 11 22 7 23 8 24
REMARK SMILES IDX 23 25 24 26 25 27 26 29 27 30 28 31 86 32 29 33 85 34 30 35
REMARK SMILES IDX 31 36 32 37 79 38 33 39 84 40 78 41 80 42 34 43 83 44 77 45
REMARK SMILES IDX 76 46 35 48 65 49 46 50 64 51 47 52 50 53 63 54 81 55 48 56
REMARK SMILES IDX 49 57 62 59 82 60 51 61 36 62 37 63 45 64 38 65 44 66 39 67
REMARK SMILES IDX 40 68 41 69 42 70 43 71 66 72 67 73 75 74 68 75 74 76 69 77
REMARK SMILES IDX 70 78 71 79 72 80 73 81 52 82 53 83 61 84 54 85 60 86 55 87
REMARK SMILES IDX 56 88 57 89 58 90 59 91
REMARK H PARENT 20 6 12 15 24 28 80 47 50 58
REMARK Flexibility Score: inf
ROOT
ATOM      1  C   UNL     1       3.285  -2.947  -1.324  1.00  0.00     0.042 C 
ENDROOT
BRANCH   1   2
ATOM      2  C   UNL     1       2.540  -2.101  -0.312  1.00  0.00     0.118 C 
BRANCH   2   3
ATOM      3  N   UNL     1       1.228  -2.538   0.079  1.00  0.00    -0.352 N 
ATOM      4  C   UNL     1       0.507  -2.165   1.195  1.00  0.00     0.254 C 
ATOM      5  O   UNL     1      -0.659  -2.561   1.265  1.00  0.00    -0.269 OA
ATOM      6  H   UNL     1       0.789  -3.183  -0.522  1.00  0.00     0.163 HD
BRANCH   4   7
ATOM      7  C   UNL     1       1.151  -1.518   2.347  1.00  0.00     0.074 A 
ATOM      8  C   UNL     1       2.049  -0.462   2.433  1.00  0.00     0.108 A 
ATOM      9  S   UNL     1       2.704  -0.276   4.004  1.00  0.00    -0.126 S 
ATOM     10  C   UNL     1       1.642  -1.432   4.661  1.00  0.00     0.068 A 
ATOM     11  C   UNL     1       0.872  -2.013   3.683  1.00  0.00     0.028 A 
BRANCH   8  12
ATOM     12  N   UNL     1       2.600   0.465   1.568  1.00  0.00    -0.317 N 
ATOM     13  O   UNL     1       0.794   0.728   0.165  1.00  0.00    -0.274 OA
ATOM     14  C   UNL     1       1.990   0.886   0.407  1.00  0.00     0.229 C 
ATOM     15  H   UNL     1       3.479   0.847   1.794  1.00  0.00     0.170 HD
BRANCH  14  16
ATOM     16  C   UNL     1       2.950   1.364  -0.677  1.00  0.00     0.139 C 
BRANCH  16  17
ATOM     17  C   UNL     1       3.941   2.435  -0.327  1.00  0.00    -0.003 A 
ATOM     18  C   UNL     1       5.262   2.111   0.024  1.00  0.00     0.010 A 
ATOM     19  C   UNL     1       3.589   3.779  -0.476  1.00  0.00     0.129 A 
ATOM     20  C   UNL     1       6.207   3.124   0.193  1.00  0.00     0.040 A 
ATOM     21  C   UNL     1       4.526   4.790  -0.318  1.00  0.00     0.078 A 
ATOM     22  F   UNL     1       2.337   4.103  -0.825  1.00  0.00    -0.207 F 
ATOM     23  C   UNL     1       5.831   4.452   0.010  1.00  0.00     0.126 A 
ATOM     24  F   UNL     1       6.748   5.419   0.141  1.00  0.00    -0.207 F 
ENDBRANCH  16  17
ENDBRANCH  14  16
ENDBRANCH   8  12
ENDBRANCH   4   7
ENDBRANCH   2   3
ENDBRANCH   1   2
BRANCH   1  25
ATOM     25  C   UNL     1       2.724  -2.883  -2.743  1.00  0.00     0.118 C 
BRANCH  25  26
ATOM     26  N   UNL     1       2.651  -1.536  -3.313  1.00  0.00    -0.352 N 
ATOM     27  C   UNL     1       3.401  -0.860  -4.250  1.00  0.00     0.251 C 
ATOM     28  H   UNL     1       1.909  -1.000  -2.950  1.00  0.00     0.163 HD
ATOM     29  O   UNL     1       3.167   0.334  -4.433  1.00  0.00    -0.269 OA
BRANCH  27  30
ATOM     30  C   UNL     1       4.507  -1.507  -4.998  1.00  0.00     0.039 A 
ATOM     31  C   UNL     1       5.628  -0.745  -5.355  1.00  0.00     0.014 A 
ATOM     32  C   UNL     1       4.459  -2.846  -5.368  1.00  0.00     0.014 A 
ATOM     33  C   UNL     1       6.736  -1.359  -5.953  1.00  0.00     0.010 A 
ATOM     34  C   UNL     1       5.604  -3.482  -5.838  1.00  0.00     0.010 A 
ATOM     35  C   UNL     1       6.764  -2.751  -6.127  1.00  0.00    -0.014 A 
BRANCH  35  36
ATOM     36  C   UNL     1       7.984  -3.479  -6.578  1.00  0.00     0.031 A 
ATOM     37  C   UNL     1       7.921  -4.402  -7.771  1.00  0.00     0.074 A 
ATOM     38  C   UNL     1       9.112  -3.419  -5.838  1.00  0.00     0.049 A 
ATOM     39  N   UNL     1       8.808  -5.266  -8.194  1.00  0.00    -0.248 NA
ATOM     40  C   UNL     1       6.678  -4.386  -8.563  1.00  0.00     0.031 C 
ATOM     41  C   UNL     1       9.294  -2.619  -4.622  1.00  0.00     0.029 A 
ATOM     42  N   UNL     1      10.317  -4.062  -5.987  1.00  0.00    -0.354 N 
ATOM     43  C   UNL     1       8.213  -5.929  -9.263  1.00  0.00     0.074 A 
ATOM     44  C   UNL     1       6.875  -5.396  -9.398  1.00  0.00     0.031 C 
ATOM     45  C   UNL     1      10.538  -2.801  -4.153  1.00  0.00     0.029 A 
ATOM     46  C   UNL     1      11.229  -3.768  -4.999  1.00  0.00     0.049 A 
ATOM     47  H   UNL     1      10.510  -4.677  -6.731  1.00  0.00     0.167 HD
ATOM     48  C   UNL     1       8.736  -6.881 -10.071  1.00  0.00     0.031 A 
ATOM     49  C   UNL     1      12.474  -4.233  -4.782  1.00  0.00     0.031 A 
ATOM     50  C   UNL     1      10.088  -7.364  -9.976  1.00  0.00     0.049 A 
ATOM     51  C   UNL     1      13.053  -5.248  -5.728  1.00  0.00     0.074 A 
ATOM     52  C   UNL     1      10.742  -8.255 -10.810  1.00  0.00     0.029 A 
ATOM     53  N   UNL     1      10.997  -6.986  -9.002  1.00  0.00    -0.354 N 
ATOM     54  N   UNL     1      12.492  -5.814  -6.770  1.00  0.00    -0.248 NA
ATOM     55  C   UNL     1      14.434  -5.682  -5.474  1.00  0.00     0.031 C 
ATOM     56  C   UNL     1      12.036  -8.445 -10.316  1.00  0.00     0.029 A 
ATOM     57  C   UNL     1      12.202  -7.636  -9.204  1.00  0.00     0.049 A 
ATOM     58  H   UNL     1      10.813  -6.350  -8.273  1.00  0.00     0.167 HD
ATOM     59  C   UNL     1      13.460  -6.653  -7.309  1.00  0.00     0.074 A 
ATOM     60  C   UNL     1      14.646  -6.508  -6.490  1.00  0.00     0.031 C 
ATOM     61  C   UNL     1      13.374  -7.474  -8.384  1.00  0.00     0.031 A 
BRANCH  48  62
ATOM     62  C   UNL     1       7.851  -7.458 -11.144  1.00  0.00    -0.014 A 
ATOM     63  C   UNL     1       7.481  -6.697 -12.268  1.00  0.00     0.010 A 
ATOM     64  C   UNL     1       7.434  -8.799 -11.059  1.00  0.00     0.010 A 
ATOM     65  C   UNL     1       6.681  -7.255 -13.268  1.00  0.00     0.020 A 
ATOM     66  C   UNL     1       6.656  -9.370 -12.072  1.00  0.00     0.020 A 
ATOM     67  C   UNL     1       6.273  -8.588 -13.163  1.00  0.00     0.054 A 
BRANCH  67  68
ATOM     68  S   UNL     1       5.271  -9.297 -14.498  1.00  0.00     0.124 S 
ATOM     69  O   UNL     1       3.969  -8.681 -14.256  1.00  0.00    -0.237 OA
ATOM     70  O   UNL     1       5.967  -8.841 -15.699  1.00  0.00    -0.237 OA
ATOM     71  O   UNL     1       5.335 -10.736 -14.253  1.00  0.00    -0.744 OA
ENDBRANCH  67  68
ENDBRANCH  48  62
BRANCH  49  72
ATOM     72  C   UNL     1      13.266  -3.740  -3.622  1.00  0.00    -0.014 A 
ATOM     73  C   UNL     1      14.364  -2.885  -3.822  1.00  0.00     0.010 A 
ATOM     74  C   UNL     1      12.928  -4.123  -2.311  1.00  0.00     0.010 A 
ATOM     75  C   UNL     1      15.126  -2.444  -2.737  1.00  0.00     0.020 A 
ATOM     76  C   UNL     1      13.671  -3.662  -1.221  1.00  0.00     0.020 A 
ATOM     77  C   UNL     1      14.775  -2.837  -1.442  1.00  0.00     0.054 A 
BRANCH  77  78
ATOM     78  S   UNL     1      15.752  -2.220  -0.042  1.00  0.00     0.124 S 
ATOM     79  O   UNL     1      16.944  -3.058  -0.113  1.00  0.00    -0.237 OA
ATOM     80  O   UNL     1      15.943  -0.813  -0.384  1.00  0.00    -0.237 OA
ATOM     81  O   UNL     1      14.883  -2.459   1.108  1.00  0.00    -0.744 OA
ENDBRANCH  77  78
ENDBRANCH  49  72
BRANCH  61  82
ATOM     82  C   UNL     1      14.604  -8.253  -8.759  1.00  0.00    -0.014 A 
ATOM     83  C   UNL     1      15.018  -9.362  -8.002  1.00  0.00     0.010 A 
ATOM     84  C   UNL     1      15.319  -7.903  -9.918  1.00  0.00     0.010 A 
ATOM     85  C   UNL     1      16.146 -10.093  -8.384  1.00  0.00     0.020 A 
ATOM     86  C   UNL     1      16.432  -8.647 -10.317  1.00  0.00     0.020 A 
ATOM     87  C   UNL     1      16.846  -9.730  -9.539  1.00  0.00     0.054 A 
BRANCH  87  88
ATOM     88  S   UNL     1      18.278 -10.723 -10.041  1.00  0.00     0.124 S 
ATOM     89  O   UNL     1      19.299 -10.283  -9.094  1.00  0.00    -0.237 OA
ATOM     90  O   UNL     1      17.800 -12.092  -9.860  1.00  0.00    -0.237 OA
ATOM     91  O   UNL     1      18.503 -10.327 -11.430  1.00  0.00    -0.744 OA
ENDBRANCH  87  88
ENDBRANCH  61  82
ENDBRANCH  35  36
ENDBRANCH  27  30
ENDBRANCH  25  26
ENDBRANCH   1  25
TORSDOF 16
