REMARK SMILES Cn1cc(CCC(=O)N2CCCC2)cc1C(=O)NCCCNC(=O)c1ccc(-c2c3nc(c(-c4ccc(S(=O)(=O)[O-])cc4)c4ccc([nH]4)c(-c4ccc(S(=O)(=O)[O-])cc4)c4nc(c(-c5ccc(S(=O)(=O)[O-])cc5)c5ccc2[nH]5)C=C4)C=C3)cc1
REMARK SMILES IDX 20 1 19 2 18 3 16 4 17 5 15 7 1 8 2 9 3 10 4 11 14 12 5 13
REMARK SMILES IDX 6 14 7 15 8 16 9 17 10 18 13 19 11 20 12 21 21 22 22 23
REMARK SMILES IDX 23 24 24 26 25 27 26 28 84 29 27 30 83 31 28 32 29 33 30 34
REMARK SMILES IDX 77 35 31 36 82 37 76 38 78 39 32 40 81 41 75 42 74 43 33 45
REMARK SMILES IDX 63 46 44 47 62 48 45 49 48 50 61 51 79 52 46 53 47 54 60 56
REMARK SMILES IDX 80 57 49 58 34 59 35 60 43 61 36 62 42 63 37 64 38 65 39 66
REMARK SMILES IDX 40 67 41 68 64 69 65 70 73 71 66 72 72 73 67 74 68 75 69 76
REMARK SMILES IDX 70 77 71 78 50 79 51 80 59 81 52 82 58 83 53 84 54 85 55 86
REMARK SMILES IDX 56 87 57 88
REMARK H PARENT 18 6 22 25 78 44 48 55
REMARK Flexibility Score: inf
ROOT
ATOM      1  C   UNL     1       3.560  -1.981   1.539  1.00  0.00     0.042 C 
ENDROOT
BRANCH   1   2
ATOM      2  C   UNL     1       2.738  -1.640   0.304  1.00  0.00     0.118 C 
BRANCH   2   3
ATOM      3  N   UNL     1       1.693  -2.593  -0.005  1.00  0.00    -0.351 N 
ATOM      4  C   UNL     1       0.415  -2.405  -0.472  1.00  0.00     0.267 C 
ATOM      5  O   UNL     1      -0.284  -3.412  -0.565  1.00  0.00    -0.268 OA
ATOM      6  H   UNL     1       1.940  -3.534   0.146  1.00  0.00     0.163 HD
BRANCH   4   7
ATOM      7  C   UNL     1      -0.107  -1.078  -0.752  1.00  0.00     0.107 A 
ATOM      8  C   UNL     1       1.727   0.025  -2.132  1.00  0.00     0.150 C 
ATOM      9  N   UNL     1       0.439  -0.037  -1.478  1.00  0.00    -0.346 N 
ATOM     10  C   UNL     1      -0.415   1.041  -1.475  1.00  0.00     0.089 A 
ATOM     11  C   UNL     1      -1.513   0.733  -0.706  1.00  0.00    -0.029 A 
ATOM     12  C   UNL     1      -1.367  -0.635  -0.352  1.00  0.00     0.037 A 
BRANCH  11  13
ATOM     13  C   UNL     1      -2.599   1.672  -0.296  1.00  0.00     0.047 C 
BRANCH  13  14
ATOM     14  C   UNL     1      -2.479   2.140   1.152  1.00  0.00     0.105 C 
BRANCH  14  15
ATOM     15  C   UNL     1      -1.375   3.155   1.419  1.00  0.00     0.222 C 
ATOM     16  O   UNL     1      -1.599   4.358   1.257  1.00  0.00    -0.275 OA
ATOM     17  N   UNL     1      -0.174   2.704   1.922  1.00  0.00    -0.343 N 
ATOM     18  C   UNL     1       0.352   1.355   1.888  1.00  0.00     0.119 C 
ATOM     19  C   UNL     1       0.800   3.613   2.508  1.00  0.00     0.119 C 
ATOM     20  C   UNL     1       1.487   1.350   2.890  1.00  0.00     0.023 C 
ATOM     21  C   UNL     1       2.042   2.761   2.755  1.00  0.00     0.023 C 
ENDBRANCH  14  15
ENDBRANCH  13  14
ENDBRANCH  11  13
ENDBRANCH   4   7
ENDBRANCH   2   3
ENDBRANCH   1   2
BRANCH   1  22
ATOM     22  C   UNL     1       4.372  -3.268   1.457  1.00  0.00     0.118 C 
BRANCH  22  23
ATOM     23  N   UNL     1       5.372  -3.273   0.397  1.00  0.00    -0.352 N 
ATOM     24  C   UNL     1       6.748  -3.313   0.446  1.00  0.00     0.251 C 
ATOM     25  H   UNL     1       4.999  -3.241  -0.513  1.00  0.00     0.163 HD
ATOM     26  O   UNL     1       7.382  -3.185  -0.599  1.00  0.00    -0.269 OA
BRANCH  24  27
ATOM     27  C   UNL     1       7.470  -3.468   1.731  1.00  0.00     0.039 A 
ATOM     28  C   UNL     1       8.645  -2.738   1.941  1.00  0.00     0.014 A 
ATOM     29  C   UNL     1       7.011  -4.329   2.728  1.00  0.00     0.014 A 
ATOM     30  C   UNL     1       9.294  -2.799   3.179  1.00  0.00     0.010 A 
ATOM     31  C   UNL     1       7.591  -4.303   3.993  1.00  0.00     0.010 A 
ATOM     32  C   UNL     1       8.742  -3.540   4.236  1.00  0.00    -0.014 A 
BRANCH  32  33
ATOM     33  C   UNL     1       9.342  -3.531   5.599  1.00  0.00     0.031 A 
ATOM     34  C   UNL     1       9.805  -4.817   6.234  1.00  0.00     0.074 A 
ATOM     35  C   UNL     1       9.395  -2.379   6.300  1.00  0.00     0.049 A 
ATOM     36  N   UNL     1      10.271  -5.021   7.440  1.00  0.00    -0.248 NA
ATOM     37  C   UNL     1       9.701  -6.040   5.420  1.00  0.00     0.031 C 
ATOM     38  C   UNL     1       8.934  -1.072   5.824  1.00  0.00     0.029 A 
ATOM     39  N   UNL     1       9.852  -2.122   7.570  1.00  0.00    -0.354 N 
ATOM     40  C   UNL     1      10.489  -6.391   7.536  1.00  0.00     0.074 A 
ATOM     41  C   UNL     1      10.053  -6.976   6.288  1.00  0.00     0.031 C 
ATOM     42  C   UNL     1       9.163  -0.150   6.772  1.00  0.00     0.029 A 
ATOM     43  C   UNL     1       9.738  -0.803   7.944  1.00  0.00     0.049 A 
ATOM     44  H   UNL     1      10.225  -2.818   8.158  1.00  0.00     0.167 HD
ATOM     45  C   UNL     1      11.024  -7.098   8.561  1.00  0.00     0.031 A 
ATOM     46  C   UNL     1      10.053  -0.185   9.099  1.00  0.00     0.031 A 
ATOM     47  C   UNL     1      11.477  -6.511   9.793  1.00  0.00     0.049 A 
ATOM     48  C   UNL     1      10.646  -0.990  10.223  1.00  0.00     0.074 A 
ATOM     49  C   UNL     1      12.096  -7.132  10.864  1.00  0.00     0.029 A 
ATOM     50  N   UNL     1      11.360  -5.169  10.123  1.00  0.00    -0.354 N 
ATOM     51  N   UNL     1      10.908  -2.274  10.266  1.00  0.00    -0.248 NA
ATOM     52  C   UNL     1      10.996  -0.260  11.450  1.00  0.00     0.031 C 
ATOM     53  C   UNL     1      12.298  -6.177  11.865  1.00  0.00     0.029 A 
ATOM     54  C   UNL     1      11.869  -4.947  11.391  1.00  0.00     0.049 A 
ATOM     55  H   UNL     1      10.972  -4.476   9.541  1.00  0.00     0.167 HD
ATOM     56  C   UNL     1      11.481  -2.501  11.513  1.00  0.00     0.074 A 
ATOM     57  C   UNL     1      11.541  -1.220  12.185  1.00  0.00     0.031 C 
ATOM     58  C   UNL     1      11.921  -3.666  12.050  1.00  0.00     0.031 A 
BRANCH  45  59
ATOM     59  C   UNL     1      11.145  -8.591   8.393  1.00  0.00    -0.014 A 
ATOM     60  C   UNL     1      12.046  -9.152   7.469  1.00  0.00     0.010 A 
ATOM     61  C   UNL     1      10.376  -9.449   9.202  1.00  0.00     0.010 A 
ATOM     62  C   UNL     1      12.144 -10.539   7.326  1.00  0.00     0.020 A 
ATOM     63  C   UNL     1      10.495 -10.837   9.085  1.00  0.00     0.020 A 
ATOM     64  C   UNL     1      11.367 -11.373   8.135  1.00  0.00     0.054 A 
BRANCH  64  65
ATOM     65  S   UNL     1      11.536 -13.168   7.945  1.00  0.00     0.124 S 
ATOM     66  O   UNL     1      10.889 -13.396   6.655  1.00  0.00    -0.237 OA
ATOM     67  O   UNL     1      12.984 -13.356   7.963  1.00  0.00    -0.237 OA
ATOM     68  O   UNL     1      10.825 -13.709   9.101  1.00  0.00    -0.744 OA
ENDBRANCH  64  65
ENDBRANCH  45  59
BRANCH  46  69
ATOM     69  C   UNL     1       9.826   1.281   9.244  1.00  0.00    -0.014 A 
ATOM     70  C   UNL     1      10.915   2.170   9.303  1.00  0.00     0.010 A 
ATOM     71  C   UNL     1       8.519   1.798   9.303  1.00  0.00     0.010 A 
ATOM     72  C   UNL     1      10.701   3.545   9.432  1.00  0.00     0.020 A 
ATOM     73  C   UNL     1       8.301   3.176   9.402  1.00  0.00     0.020 A 
ATOM     74  C   UNL     1       9.395   4.040   9.476  1.00  0.00     0.054 A 
BRANCH  74  75
ATOM     75  S   UNL     1       9.143   5.834   9.580  1.00  0.00     0.124 S 
ATOM     76  O   UNL     1       9.542   6.118  10.955  1.00  0.00    -0.237 OA
ATOM     77  O   UNL     1      10.038   6.338   8.542  1.00  0.00    -0.237 OA
ATOM     78  O   UNL     1       7.718   5.995   9.294  1.00  0.00    -0.744 OA
ENDBRANCH  74  75
ENDBRANCH  46  69
BRANCH  58  79
ATOM     79  C   UNL     1      12.540  -3.610  13.422  1.00  0.00    -0.014 A 
ATOM     80  C   UNL     1      11.762  -3.376  14.569  1.00  0.00     0.010 A 
ATOM     81  C   UNL     1      13.919  -3.856  13.568  1.00  0.00     0.010 A 
ATOM     82  C   UNL     1      12.356  -3.357  15.833  1.00  0.00     0.020 A 
ATOM     83  C   UNL     1      14.510  -3.869  14.833  1.00  0.00     0.020 A 
ATOM     84  C   UNL     1      13.727  -3.606  15.957  1.00  0.00     0.054 A 
BRANCH  84  85
ATOM     85  S   UNL     1      14.464  -3.620  17.614  1.00  0.00     0.124 S 
ATOM     86  O   UNL     1      14.455  -2.202  17.963  1.00  0.00    -0.237 OA
ATOM     87  O   UNL     1      13.537  -4.459  18.369  1.00  0.00    -0.237 OA
ATOM     88  O   UNL     1      15.788  -4.201  17.400  1.00  0.00    -0.744 OA
ENDBRANCH  84  85
ENDBRANCH  58  79
ENDBRANCH  32  33
ENDBRANCH  24  27
ENDBRANCH  22  23
ENDBRANCH   1  22
TORSDOF 16
