REMARK SMILES O=C(C[C@@H]1CN(C(=O)NCc2cccs2)CCO1)NCCCNC(=O)c1ccc(-c2c3nc(c(-c4ccc(S(=O)(=O)[O-])cc4)c4ccc([nH]4)c(-c4ccc(S(=O)(=O)[O-])cc4)c4nc(c(-c5ccc(S(=O)(=O)[O-])cc5)c5ccc2[nH]5)C=C4)C=C3)cc1
REMARK SMILES IDX 20 1 19 2 1 3 2 4 3 6 4 7 5 8 18 9 6 10 17 11 16 12 7 13
REMARK SMILES IDX 8 14 9 15 10 17 11 18 12 19 15 20 13 21 14 22 21 23 22 24
REMARK SMILES IDX 23 25 24 26 25 28 26 29 27 30 85 31 28 32 84 33 29 34 30 35
REMARK SMILES IDX 31 36 78 37 32 38 83 39 77 40 79 41 33 42 82 43 76 44 75 45
REMARK SMILES IDX 34 47 64 48 45 49 63 50 46 51 49 52 62 53 80 54 47 55 48 56
REMARK SMILES IDX 61 58 81 59 50 60 35 61 36 62 44 63 37 64 43 65 38 66 39 67
REMARK SMILES IDX 40 68 41 69 42 70 65 71 66 72 74 73 67 74 73 75 68 76 69 77
REMARK SMILES IDX 70 78 71 79 72 80 51 81 52 82 60 83 53 84 59 85 54 86 55 87
REMARK SMILES IDX 56 88 57 89 58 90
REMARK H PARENT 19 5 9 16 23 27 79 46 49 57
REMARK Flexibility Score: inf
ROOT
ATOM      1  C   UNL     1       2.145   2.512  -0.514  1.00  0.00     0.117 C 
ENDROOT
BRANCH   1   2
ATOM      2  N   UNL     1       2.834   1.246  -0.402  1.00  0.00    -0.356 N 
ATOM      3  O   UNL     1       1.012  -0.012   0.210  1.00  0.00    -0.275 OA
ATOM      4  C   UNL     1       2.211   0.081  -0.028  1.00  0.00     0.222 C 
ATOM      5  H   UNL     1       3.798   1.218  -0.603  1.00  0.00     0.163 HD
BRANCH   4   6
ATOM      6  C   UNL     1       3.152  -1.089   0.141  1.00  0.00     0.133 C 
BRANCH   6   7
ATOM      7  C   UNL     1       3.949  -1.366  -1.131  1.00  0.00     0.147 C 
ATOM      8  C   UNL     1       4.542  -2.788  -1.070  1.00  0.00     0.154 C 
ATOM      9  O   UNL     1       5.011  -0.389  -1.238  1.00  0.00    -0.374 OA
ATOM     10  N   UNL     1       5.375  -3.052  -2.241  1.00  0.00    -0.320 N 
ATOM     11  C   UNL     1       5.796  -0.626  -2.424  1.00  0.00     0.182 C 
ATOM     12  C   UNL     1       6.419  -2.026  -2.401  1.00  0.00     0.150 C 
BRANCH  10  13
ATOM     13  C   UNL     1       5.239  -3.982  -3.224  1.00  0.00     0.317 C 
ATOM     14  O   UNL     1       5.928  -3.942  -4.250  1.00  0.00    -0.249 OA
ATOM     15  N   UNL     1       4.374  -5.004  -3.184  1.00  0.00    -0.333 N 
ATOM     16  H   UNL     1       4.353  -5.483  -4.044  1.00  0.00     0.165 HD
BRANCH  15  17
ATOM     17  C   UNL     1       3.462  -5.602  -2.235  1.00  0.00     0.164 C 
BRANCH  17  18
ATOM     18  C   UNL     1       2.046  -5.350  -2.667  1.00  0.00     0.024 A 
ATOM     19  C   UNL     1       1.085  -6.288  -3.000  1.00  0.00     0.017 A 
ATOM     20  S   UNL     1       1.417  -3.758  -2.803  1.00  0.00    -0.147 S 
ATOM     21  C   UNL     1      -0.152  -5.695  -3.389  1.00  0.00     0.012 A 
ATOM     22  C   UNL     1      -0.103  -4.322  -3.334  1.00  0.00     0.065 A 
ENDBRANCH  17  18
ENDBRANCH  15  17
ENDBRANCH  10  13
ENDBRANCH   6   7
ENDBRANCH   4   6
ENDBRANCH   1   2
BRANCH   1  23
ATOM     23  C   UNL     1       2.418   3.419   0.682  1.00  0.00     0.042 C 
BRANCH  23  24
ATOM     24  C   UNL     1       3.891   3.755   0.902  1.00  0.00     0.118 C 
BRANCH  24  25
ATOM     25  N   UNL     1       4.495   4.440  -0.231  1.00  0.00    -0.352 N 
ATOM     26  C   UNL     1       5.211   5.609  -0.293  1.00  0.00     0.251 C 
ATOM     27  H   UNL     1       4.370   3.989  -1.097  1.00  0.00     0.163 HD
ATOM     28  O   UNL     1       5.500   6.067  -1.396  1.00  0.00    -0.269 OA
BRANCH  26  29
ATOM     29  C   UNL     1       5.625   6.331   0.934  1.00  0.00     0.039 A 
ATOM     30  C   UNL     1       5.598   7.729   0.919  1.00  0.00     0.014 A 
ATOM     31  C   UNL     1       6.095   5.662   2.067  1.00  0.00     0.014 A 
ATOM     32  C   UNL     1       6.002   8.450   2.047  1.00  0.00     0.010 A 
ATOM     33  C   UNL     1       6.429   6.380   3.217  1.00  0.00     0.010 A 
ATOM     34  C   UNL     1       6.402   7.783   3.215  1.00  0.00    -0.014 A 
BRANCH  34  35
ATOM     35  C   UNL     1       6.811   8.546   4.424  1.00  0.00     0.031 A 
ATOM     36  C   UNL     1       8.228   8.476   4.931  1.00  0.00     0.074 A 
ATOM     37  C   UNL     1       5.900   9.288   5.086  1.00  0.00     0.049 A 
ATOM     38  N   UNL     1       8.767   9.078   5.962  1.00  0.00    -0.248 NA
ATOM     39  C   UNL     1       9.156   7.598   4.200  1.00  0.00     0.031 C 
ATOM     40  C   UNL     1       4.484   9.408   4.729  1.00  0.00     0.029 A 
ATOM     41  N   UNL     1       6.030  10.084   6.197  1.00  0.00    -0.354 N 
ATOM     42  C   UNL     1      10.087   8.643   6.010  1.00  0.00     0.074 A 
ATOM     43  C   UNL     1      10.253   7.688   4.937  1.00  0.00     0.031 C 
ATOM     44  C   UNL     1       3.886  10.254   5.583  1.00  0.00     0.029 A 
ATOM     45  C   UNL     1       4.864  10.714   6.564  1.00  0.00     0.049 A 
ATOM     46  H   UNL     1       6.878  10.194   6.684  1.00  0.00     0.167 HD
ATOM     47  C   UNL     1      11.078   9.018   6.856  1.00  0.00     0.031 A 
ATOM     48  C   UNL     1       4.610  11.573   7.571  1.00  0.00     0.031 A 
ATOM     49  C   UNL     1      10.918   9.978   7.916  1.00  0.00     0.049 A 
ATOM     50  C   UNL     1       5.731  11.992   8.481  1.00  0.00     0.074 A 
ATOM     51  C   UNL     1      11.873  10.458   8.796  1.00  0.00     0.029 A 
ATOM     52  N   UNL     1       9.727  10.610   8.239  1.00  0.00    -0.354 N 
ATOM     53  N   UNL     1       6.986  11.612   8.474  1.00  0.00    -0.248 NA
ATOM     54  C   UNL     1       5.403  12.976   9.522  1.00  0.00     0.031 C 
ATOM     55  C   UNL     1      11.251  11.350   9.676  1.00  0.00     0.029 A 
ATOM     56  C   UNL     1       9.920  11.467   9.310  1.00  0.00     0.049 A 
ATOM     57  H   UNL     1       8.869  10.470   7.776  1.00  0.00     0.167 HD
ATOM     58  C   UNL     1       7.606  12.336   9.487  1.00  0.00     0.074 A 
ATOM     59  C   UNL     1       6.590  13.185  10.076  1.00  0.00     0.031 C 
ATOM     60  C   UNL     1       8.901  12.305   9.889  1.00  0.00     0.031 A 
BRANCH  47  61
ATOM     61  C   UNL     1      12.429   8.379   6.665  1.00  0.00    -0.014 A 
ATOM     62  C   UNL     1      13.227   8.688   5.547  1.00  0.00     0.010 A 
ATOM     63  C   UNL     1      12.924   7.482   7.630  1.00  0.00     0.010 A 
ATOM     64  C   UNL     1      14.471   8.075   5.373  1.00  0.00     0.020 A 
ATOM     65  C   UNL     1      14.180   6.889   7.473  1.00  0.00     0.020 A 
ATOM     66  C   UNL     1      14.937   7.175   6.335  1.00  0.00     0.054 A 
BRANCH  66  67
ATOM     67  S   UNL     1      16.560   6.403   6.091  1.00  0.00     0.124 S 
ATOM     68  O   UNL     1      16.273   5.427   5.042  1.00  0.00    -0.237 OA
ATOM     69  O   UNL     1      17.396   7.530   5.687  1.00  0.00    -0.237 OA
ATOM     70  O   UNL     1      16.875   5.836   7.400  1.00  0.00    -0.744 OA
ENDBRANCH  66  67
ENDBRANCH  47  61
BRANCH  48  71
ATOM     71  C   UNL     1       3.239  12.125   7.746  1.00  0.00    -0.014 A 
ATOM     72  C   UNL     1       2.968  13.470   7.440  1.00  0.00     0.010 A 
ATOM     73  C   UNL     1       2.196  11.306   8.213  1.00  0.00     0.010 A 
ATOM     74  C   UNL     1       1.683  13.992   7.617  1.00  0.00     0.020 A 
ATOM     75  C   UNL     1       0.904  11.817   8.366  1.00  0.00     0.020 A 
ATOM     76  C   UNL     1       0.659  13.161   8.079  1.00  0.00     0.054 A 
BRANCH  76  77
ATOM     77  S   UNL     1      -1.012  13.846   8.255  1.00  0.00     0.124 S 
ATOM     78  O   UNL     1      -0.887  14.643   9.471  1.00  0.00    -0.237 OA
ATOM     79  O   UNL     1      -1.177  14.602   7.016  1.00  0.00    -0.237 OA
ATOM     80  O   UNL     1      -1.857  12.659   8.367  1.00  0.00    -0.744 OA
ENDBRANCH  76  77
ENDBRANCH  48  71
BRANCH  60  81
ATOM     81  C   UNL     1       9.301  13.250  10.991  1.00  0.00    -0.014 A 
ATOM     82  C   UNL     1       8.879  13.053  12.318  1.00  0.00     0.010 A 
ATOM     83  C   UNL     1      10.128  14.348  10.691  1.00  0.00     0.010 A 
ATOM     84  C   UNL     1       9.233  13.967  13.315  1.00  0.00     0.020 A 
ATOM     85  C   UNL     1      10.508  15.248  11.690  1.00  0.00     0.020 A 
ATOM     86  C   UNL     1      10.038  15.064  12.992  1.00  0.00     0.054 A 
BRANCH  86  87
ATOM     87  S   UNL     1      10.490  16.235  14.301  1.00  0.00     0.124 S 
ATOM     88  O   UNL     1       9.259  17.005  14.457  1.00  0.00    -0.237 OA
ATOM     89  O   UNL     1      10.828  15.357  15.419  1.00  0.00    -0.237 OA
ATOM     90  O   UNL     1      11.618  16.971  13.732  1.00  0.00    -0.744 OA
ENDBRANCH  86  87
ENDBRANCH  60  81
ENDBRANCH  34  35
ENDBRANCH  26  29
ENDBRANCH  24  25
ENDBRANCH  23  24
ENDBRANCH   1  23
TORSDOF 17
