REMARK SMILES COc1cc(OC(F)(F)F)cc2c1O[C@@H](C(F)(F)F)C(C(=O)NCCCNC(=O)c1ccc(-c3c4nc(c(-c5ccc(S(=O)(=O)[O-])cc5)c5ccc([nH]5)c(-c5ccc(S(=O)(=O)[O-])cc5)c5nc(c(-c6ccc(S(=O)(=O)[O-])cc6)c6ccc3[nH]6)C=C5)C=C4)cc1)=C2
REMARK SMILES IDX 25 1 24 2 23 3 21 4 22 5 20 7 3 8 4 9 13 10 5 11 12 12 14 13
REMARK SMILES IDX 11 14 90 15 15 16 2 17 1 18 6 19 7 20 8 21 9 22 10 23 16 24
REMARK SMILES IDX 17 25 18 26 19 27 26 28 27 29 28 30 29 32 30 33 31 34 89 35
REMARK SMILES IDX 32 36 88 37 33 38 34 39 35 40 82 41 36 42 87 43 81 44 83 45
REMARK SMILES IDX 37 46 86 47 80 48 79 49 38 51 68 52 49 53 67 54 50 55 53 56
REMARK SMILES IDX 66 57 84 58 51 59 52 60 65 62 85 63 54 64 39 65 40 66 48 67
REMARK SMILES IDX 41 68 47 69 42 70 43 71 44 72 45 73 46 74 69 75 70 76 78 77
REMARK SMILES IDX 71 78 77 79 72 80 73 81 74 82 75 83 76 84 55 85 56 86 64 87
REMARK SMILES IDX 57 88 63 89 58 90 59 91 60 92 61 93 62 94
REMARK H PARENT 23 6 27 31 83 50 53 61
REMARK Flexibility Score: inf
ROOT
ATOM      1  C   UNL     1       5.948  -1.373   7.129  1.00  0.00     0.042 C 
ENDROOT
BRANCH   1   2
ATOM      2  C   UNL     1       6.261  -0.364   6.020  1.00  0.00     0.118 C 
BRANCH   2   3
ATOM      3  N   UNL     1       6.688  -1.045   4.807  1.00  0.00    -0.352 N 
ATOM      4  C   UNL     1       6.031  -1.441   3.687  1.00  0.00     0.251 C 
ATOM      5  O   UNL     1       6.645  -2.113   2.862  1.00  0.00    -0.270 OA
ATOM      6  H   UNL     1       7.649  -1.262   4.796  1.00  0.00     0.163 HD
BRANCH   4   7
ATOM      7  C   UNL     1       4.635  -1.034   3.384  1.00  0.00     0.067 C 
ATOM      8  C   UNL     1       0.816   0.364   2.306  1.00  0.00     0.165 A 
ATOM      9  C   UNL     1      -0.179   0.465   3.288  1.00  0.00     0.097 A 
ATOM     10  C   UNL     1       2.088  -0.118   2.640  1.00  0.00     0.170 A 
ATOM     11  C   UNL     1       0.072   0.051   4.594  1.00  0.00     0.134 A 
ATOM     12  C   UNL     1       2.342  -0.543   3.945  1.00  0.00     0.025 A 
ATOM     13  O   UNL     1       3.082  -0.057   1.706  1.00  0.00    -0.471 OA
ATOM     14  C   UNL     1       1.331  -0.465   4.911  1.00  0.00     0.059 A 
ATOM     15  C   UNL     1       3.681  -0.972   4.323  1.00  0.00     0.026 C 
ATOM     16  C   UNL     1       4.280  -0.858   1.914  1.00  0.00     0.314 C 
BRANCH   8  17
ATOM     17  O   UNL     1       0.447   0.836   1.071  1.00  0.00    -0.493 OA
ATOM     18  C   UNL     1       0.855   0.016  -0.022  1.00  0.00     0.278 C 
ENDBRANCH   8  17
BRANCH  11  19
ATOM     19  O   UNL     1      -0.794   0.107   5.648  1.00  0.00    -0.406 OA
BRANCH  19  20
ATOM     20  C   UNL     1      -2.088   0.637   5.418  1.00  0.00     0.573 C 
ATOM     21  F   UNL     1      -2.021   1.914   4.981  1.00  0.00    -0.132 F 
ATOM     22  F   UNL     1      -2.765  -0.111   4.521  1.00  0.00    -0.132 F 
ATOM     23  F   UNL     1      -2.775   0.629   6.580  1.00  0.00    -0.132 F 
ENDBRANCH  19  20
ENDBRANCH  11  19
BRANCH  16  24
ATOM     24  C   UNL     1       5.374  -0.265   0.997  1.00  0.00     0.429 C 
ATOM     25  F   UNL     1       6.252  -1.190   0.553  1.00  0.00    -0.167 F 
ATOM     26  F   UNL     1       4.820   0.269  -0.128  1.00  0.00    -0.167 F 
ATOM     27  F   UNL     1       6.069   0.730   1.595  1.00  0.00    -0.167 F 
ENDBRANCH  16  24
ENDBRANCH   4   7
ENDBRANCH   2   3
ENDBRANCH   1   2
BRANCH   1  28
ATOM     28  C   UNL     1       7.191  -2.040   7.719  1.00  0.00     0.118 C 
BRANCH  28  29
ATOM     29  N   UNL     1       7.977  -1.111   8.513  1.00  0.00    -0.352 N 
ATOM     30  C   UNL     1       8.360  -1.178   9.829  1.00  0.00     0.251 C 
ATOM     31  H   UNL     1       8.283  -0.309   8.032  1.00  0.00     0.163 HD
ATOM     32  O   UNL     1       8.815  -0.171  10.365  1.00  0.00    -0.269 OA
BRANCH  30  33
ATOM     33  C   UNL     1       8.230  -2.433  10.607  1.00  0.00     0.039 A 
ATOM     34  C   UNL     1       7.855  -2.347  11.952  1.00  0.00     0.014 A 
ATOM     35  C   UNL     1       8.547  -3.677  10.053  1.00  0.00     0.014 A 
ATOM     36  C   UNL     1       7.767  -3.506  12.729  1.00  0.00     0.010 A 
ATOM     37  C   UNL     1       8.401  -4.839  10.813  1.00  0.00     0.010 A 
ATOM     38  C   UNL     1       8.023  -4.764  12.162  1.00  0.00    -0.014 A 
BRANCH  38  39
ATOM     39  C   UNL     1       7.909  -6.003  12.976  1.00  0.00     0.031 A 
ATOM     40  C   UNL     1       9.129  -6.830  13.283  1.00  0.00     0.074 A 
ATOM     41  C   UNL     1       6.698  -6.404  13.409  1.00  0.00     0.049 A 
ATOM     42  N   UNL     1       9.219  -7.947  13.959  1.00  0.00    -0.248 NA
ATOM     43  C   UNL     1      10.412  -6.351  12.744  1.00  0.00     0.031 C 
ATOM     44  C   UNL     1       5.433  -5.713  13.148  1.00  0.00     0.029 A 
ATOM     45  N   UNL     1       6.331  -7.493  14.160  1.00  0.00    -0.354 N 
ATOM     46  C   UNL     1      10.560  -8.313  13.914  1.00  0.00     0.074 A 
ATOM     47  C   UNL     1      11.239  -7.321  13.108  1.00  0.00     0.031 C 
ATOM     48  C   UNL     1       4.435  -6.380  13.749  1.00  0.00     0.029 A 
ATOM     49  C   UNL     1       4.981  -7.561  14.411  1.00  0.00     0.049 A 
ATOM     50  H   UNL     1       6.974  -8.163  14.488  1.00  0.00     0.167 HD
ATOM     51  C   UNL     1      11.175  -9.367  14.503  1.00  0.00     0.031 A 
ATOM     52  C   UNL     1       4.261  -8.470  15.096  1.00  0.00     0.031 A 
ATOM     53  C   UNL     1      10.501 -10.345  15.315  1.00  0.00     0.049 A 
ATOM     54  C   UNL     1       4.966  -9.629  15.745  1.00  0.00     0.074 A 
ATOM     55  C   UNL     1      11.046 -11.418  16.002  1.00  0.00     0.029 A 
ATOM     56  N   UNL     1       9.135 -10.373  15.552  1.00  0.00    -0.354 N 
ATOM     57  N   UNL     1       6.244  -9.921  15.742  1.00  0.00    -0.248 NA
ATOM     58  C   UNL     1       4.131 -10.573  16.500  1.00  0.00     0.031 C 
ATOM     59  C   UNL     1      10.003 -12.118  16.617  1.00  0.00     0.029 A 
ATOM     60  C   UNL     1       8.815 -11.455  16.355  1.00  0.00     0.049 A 
ATOM     61  H   UNL     1       8.488  -9.720  15.200  1.00  0.00     0.167 HD
ATOM     62  C   UNL     1       6.370 -11.072  16.510  1.00  0.00     0.074 A 
ATOM     63  C   UNL     1       5.041 -11.412  16.977  1.00  0.00     0.031 C 
ATOM     64  C   UNL     1       7.486 -11.785  16.803  1.00  0.00     0.031 A 
BRANCH  51  65
ATOM     65  C   UNL     1      12.657  -9.518  14.282  1.00  0.00    -0.014 A 
ATOM     66  C   UNL     1      13.574  -8.634  14.881  1.00  0.00     0.010 A 
ATOM     67  C   UNL     1      13.144 -10.576  13.494  1.00  0.00     0.010 A 
ATOM     68  C   UNL     1      14.946  -8.778  14.659  1.00  0.00     0.020 A 
ATOM     69  C   UNL     1      14.518 -10.739  13.290  1.00  0.00     0.020 A 
ATOM     70  C   UNL     1      15.409  -9.827  13.858  1.00  0.00     0.054 A 
BRANCH  70  71
ATOM     71  S   UNL     1      17.196  -9.998  13.595  1.00  0.00     0.124 S 
ATOM     72  O   UNL     1      17.464  -8.917  12.649  1.00  0.00    -0.237 OA
ATOM     73  O   UNL     1      17.739  -9.806  14.937  1.00  0.00    -0.237 OA
ATOM     74  O   UNL     1      17.339 -11.348  13.055  1.00  0.00    -0.744 OA
ENDBRANCH  70  71
ENDBRANCH  51  65
BRANCH  52  75
ATOM     75  C   UNL     1       2.788  -8.307  15.217  1.00  0.00    -0.014 A 
ATOM     76  C   UNL     1       2.212  -7.920  16.440  1.00  0.00     0.010 A 
ATOM     77  C   UNL     1       1.954  -8.518  14.103  1.00  0.00     0.010 A 
ATOM     78  C   UNL     1       0.828  -7.760  16.551  1.00  0.00     0.020 A 
ATOM     79  C   UNL     1       0.573  -8.334  14.204  1.00  0.00     0.020 A 
ATOM     80  C   UNL     1       0.017  -7.966  15.431  1.00  0.00     0.054 A 
BRANCH  80  81
ATOM     81  S   UNL     1      -1.771  -7.692  15.580  1.00  0.00     0.124 S 
ATOM     82  O   UNL     1      -2.203  -8.890  16.293  1.00  0.00    -0.237 OA
ATOM     83  O   UNL     1      -1.839  -6.445  16.337  1.00  0.00    -0.237 OA
ATOM     84  O   UNL     1      -2.216  -7.593  14.191  1.00  0.00    -0.744 OA
ENDBRANCH  80  81
ENDBRANCH  52  75
BRANCH  64  85
ATOM     85  C   UNL     1       7.319 -12.994  17.683  1.00  0.00    -0.014 A 
ATOM     86  C   UNL     1       6.727 -14.171  17.193  1.00  0.00     0.010 A 
ATOM     87  C   UNL     1       7.796 -12.963  19.006  1.00  0.00     0.010 A 
ATOM     88  C   UNL     1       6.584 -15.287  18.022  1.00  0.00     0.020 A 
ATOM     89  C   UNL     1       7.677 -14.085  19.830  1.00  0.00     0.020 A 
ATOM     90  C   UNL     1       7.057 -15.235  19.337  1.00  0.00     0.054 A 
BRANCH  90  91
ATOM     91  S   UNL     1       6.891 -16.707  20.385  1.00  0.00     0.124 S 
ATOM     92  O   UNL     1       5.475 -16.671  20.736  1.00  0.00    -0.237 OA
ATOM     93  O   UNL     1       7.289 -17.788  19.487  1.00  0.00    -0.237 OA
ATOM     94  O   UNL     1       7.814 -16.451  21.488  1.00  0.00    -0.744 OA
ENDBRANCH  90  91
ENDBRANCH  64  85
ENDBRANCH  38  39
ENDBRANCH  30  33
ENDBRANCH  28  29
ENDBRANCH   1  28
TORSDOF 17
