REMARK SMILES O=C(NCCCNC(=O)c1sc2ccccc2c1CSC[C@H](O)CO)c1ccc(-c2c3nc(c(-c4ccc(S(=O)(=O)[O-])cc4)c4ccc([nH]4)c(-c4ccc(S(=O)(=O)[O-])cc4)c4nc(c(-c5ccc(S(=O)(=O)[O-])cc5)c5ccc2[nH]5)C=C4)C=C3)cc1
REMARK SMILES IDX 7 1 8 2 9 3 6 5 5 6 4 7 3 8 1 9 2 10 26 12 27 13 85 14 28 15
REMARK SMILES IDX 84 16 29 17 30 18 31 19 78 20 32 21 83 22 77 23 79 24 33 25
REMARK SMILES IDX 82 26 76 27 75 28 34 30 64 31 45 32 63 33 46 34 49 35 62 36
REMARK SMILES IDX 80 37 47 38 48 39 61 41 81 42 50 43 35 44 36 45 44 46 37 47
REMARK SMILES IDX 43 48 38 49 39 50 40 51 41 52 42 53 65 54 66 55 74 56 67 57
REMARK SMILES IDX 73 58 68 59 69 60 70 61 71 62 72 63 51 64 52 65 60 66 53 67
REMARK SMILES IDX 59 68 54 69 55 70 56 71 57 72 58 73 10 74 11 75 18 76 12 77
REMARK SMILES IDX 17 78 13 79 16 80 14 81 15 82 19 83 20 84 21 85 22 86 24 87
REMARK SMILES IDX 25 88 23 90
REMARK H PARENT 7 4 3 11 79 29 49 40 25 89 23 91
REMARK Flexibility Score: inf
ROOT
ATOM      1  N   UNL     1       9.622   3.030   2.291  1.00  0.00    -0.351 N 
ATOM      2  C   UNL     1       9.844   3.000   3.648  1.00  0.00     0.261 C 
ATOM      3  O   UNL     1       9.565   4.022   4.275  1.00  0.00    -0.268 OA
ATOM      4  H   UNL     1       9.309   3.898   1.947  1.00  0.00     0.163 HD
ENDROOT
BRANCH   1   5
ATOM      5  C   UNL     1       9.773   1.999   1.278  1.00  0.00     0.118 C 
BRANCH   5   6
ATOM      6  C   UNL     1       8.451   1.349   0.878  1.00  0.00     0.042 C 
BRANCH   6   7
ATOM      7  C   UNL     1       7.395   2.308   0.329  1.00  0.00     0.118 C 
BRANCH   7   8
ATOM      8  N   UNL     1       7.870   3.089  -0.803  1.00  0.00    -0.352 N 
ATOM      9  O   UNL     1       8.229   3.720  -2.915  1.00  0.00    -0.269 OA
ATOM     10  C   UNL     1       7.529   3.080  -2.131  1.00  0.00     0.251 C 
ATOM     11  H   UNL     1       8.565   3.746  -0.572  1.00  0.00     0.163 HD
BRANCH  10  12
ATOM     12  C   UNL     1       6.362   2.326  -2.647  1.00  0.00     0.039 A 
ATOM     13  C   UNL     1       5.140   2.289  -1.972  1.00  0.00     0.014 A 
ATOM     14  C   UNL     1       6.468   1.727  -3.910  1.00  0.00     0.014 A 
ATOM     15  C   UNL     1       4.064   1.578  -2.509  1.00  0.00     0.010 A 
ATOM     16  C   UNL     1       5.375   1.057  -4.471  1.00  0.00     0.010 A 
ATOM     17  C   UNL     1       4.170   0.959  -3.764  1.00  0.00    -0.014 A 
BRANCH  17  18
ATOM     18  C   UNL     1       3.000   0.247  -4.338  1.00  0.00     0.031 A 
ATOM     19  C   UNL     1       2.978  -1.252  -4.431  1.00  0.00     0.074 A 
ATOM     20  C   UNL     1       1.933   0.956  -4.752  1.00  0.00     0.049 A 
ATOM     21  N   UNL     1       2.016  -2.035  -4.852  1.00  0.00    -0.248 NA
ATOM     22  C   UNL     1       4.191  -1.964  -4.000  1.00  0.00     0.031 C 
ATOM     23  C   UNL     1       1.829   2.416  -4.737  1.00  0.00     0.029 A 
ATOM     24  N   UNL     1       0.720   0.539  -5.240  1.00  0.00    -0.354 N 
ATOM     25  C   UNL     1       2.512  -3.328  -4.759  1.00  0.00     0.074 A 
ATOM     26  C   UNL     1       3.862  -3.226  -4.244  1.00  0.00     0.031 C 
ATOM     27  C   UNL     1       0.598   2.771  -5.141  1.00  0.00     0.029 A 
ATOM     28  C   UNL     1      -0.163   1.567  -5.462  1.00  0.00     0.049 A 
ATOM     29  H   UNL     1       0.504  -0.406  -5.414  1.00  0.00     0.167 HD
ATOM     30  C   UNL     1       1.904  -4.498  -5.072  1.00  0.00     0.031 A 
ATOM     31  C   UNL     1      -1.449   1.547  -5.860  1.00  0.00     0.031 A 
ATOM     32  C   UNL     1       0.559  -4.619  -5.564  1.00  0.00     0.049 A 
ATOM     33  C   UNL     1      -2.121   0.239  -6.151  1.00  0.00     0.074 A 
ATOM     34  C   UNL     1      -0.137  -5.766  -5.905  1.00  0.00     0.029 A 
ATOM     35  N   UNL     1      -0.301  -3.553  -5.775  1.00  0.00    -0.354 N 
ATOM     36  N   UNL     1      -1.630  -0.973  -6.062  1.00  0.00    -0.248 NA
ATOM     37  C   UNL     1      -3.519   0.299  -6.599  1.00  0.00     0.031 C 
ATOM     38  C   UNL     1      -1.421  -5.393  -6.324  1.00  0.00     0.029 A 
ATOM     39  C   UNL     1      -1.522  -4.014  -6.237  1.00  0.00     0.049 A 
ATOM     40  H   UNL     1      -0.076  -2.607  -5.620  1.00  0.00     0.167 HD
ATOM     41  C   UNL     1      -2.658  -1.822  -6.450  1.00  0.00     0.074 A 
ATOM     42  C   UNL     1      -3.801  -0.988  -6.761  1.00  0.00     0.031 C 
ATOM     43  C   UNL     1      -2.649  -3.174  -6.546  1.00  0.00     0.031 A 
BRANCH  30  44
ATOM     44  C   UNL     1       2.718  -5.745  -4.892  1.00  0.00    -0.014 A 
ATOM     45  C   UNL     1       2.799  -6.370  -3.636  1.00  0.00     0.010 A 
ATOM     46  C   UNL     1       3.425  -6.284  -5.981  1.00  0.00     0.010 A 
ATOM     47  C   UNL     1       3.610  -7.494  -3.460  1.00  0.00     0.020 A 
ATOM     48  C   UNL     1       4.231  -7.412  -5.809  1.00  0.00     0.020 A 
ATOM     49  C   UNL     1       4.336  -7.996  -4.544  1.00  0.00     0.054 A 
BRANCH  49  50
ATOM     50  S   UNL     1       5.410  -9.439  -4.309  1.00  0.00     0.124 S 
ATOM     51  O   UNL     1       6.677  -8.809  -3.945  1.00  0.00    -0.237 OA
ATOM     52  O   UNL     1       4.749 -10.179  -3.237  1.00  0.00    -0.237 OA
ATOM     53  O   UNL     1       5.388 -10.092  -5.615  1.00  0.00    -0.744 OA
ENDBRANCH  49  50
ENDBRANCH  30  44
BRANCH  31  54
ATOM     54  C   UNL     1      -2.191   2.826  -5.963  1.00  0.00    -0.014 A 
ATOM     55  C   UNL     1      -2.955   3.280  -4.875  1.00  0.00     0.010 A 
ATOM     56  C   UNL     1      -2.079   3.623  -7.114  1.00  0.00     0.010 A 
ATOM     57  C   UNL     1      -3.590   4.522  -4.929  1.00  0.00     0.020 A 
ATOM     58  C   UNL     1      -2.709   4.869  -7.168  1.00  0.00     0.020 A 
ATOM     59  C   UNL     1      -3.461   5.311  -6.076  1.00  0.00     0.054 A 
BRANCH  59  60
ATOM     60  S   UNL     1      -4.198   6.969  -6.114  1.00  0.00     0.124 S 
ATOM     61  O   UNL     1      -5.483   6.714  -6.756  1.00  0.00    -0.237 OA
ATOM     62  O   UNL     1      -4.260   7.338  -4.702  1.00  0.00    -0.237 OA
ATOM     63  O   UNL     1      -3.237   7.735  -6.905  1.00  0.00    -0.744 OA
ENDBRANCH  59  60
ENDBRANCH  31  54
BRANCH  43  64
ATOM     64  C   UNL     1      -3.915  -3.827  -7.014  1.00  0.00    -0.014 A 
ATOM     65  C   UNL     1      -4.174  -3.966  -8.388  1.00  0.00     0.010 A 
ATOM     66  C   UNL     1      -4.841  -4.322  -6.080  1.00  0.00     0.010 A 
ATOM     67  C   UNL     1      -5.354  -4.573  -8.825  1.00  0.00     0.020 A 
ATOM     68  C   UNL     1      -6.021  -4.933  -6.514  1.00  0.00     0.020 A 
ATOM     69  C   UNL     1      -6.276  -5.043  -7.884  1.00  0.00     0.054 A 
BRANCH  69  70
ATOM     70  S   UNL     1      -7.796  -5.857  -8.450  1.00  0.00     0.124 S 
ATOM     71  O   UNL     1      -8.722  -4.732  -8.547  1.00  0.00    -0.237 OA
ATOM     72  O   UNL     1      -7.402  -6.455  -9.724  1.00  0.00    -0.237 OA
ATOM     73  O   UNL     1      -8.081  -6.814  -7.384  1.00  0.00    -0.744 OA
ENDBRANCH  69  70
ENDBRANCH  43  64
ENDBRANCH  17  18
ENDBRANCH  10  12
ENDBRANCH   7   8
ENDBRANCH   6   7
ENDBRANCH   5   6
ENDBRANCH   1   5
BRANCH   2  74
ATOM     74  C   UNL     1      10.358   1.796   4.273  1.00  0.00     0.097 A 
ATOM     75  S   UNL     1      11.945   1.286   3.899  1.00  0.00    -0.130 S 
ATOM     76  C   UNL     1       9.797   1.035   5.293  1.00  0.00    -0.007 A 
ATOM     77  C   UNL     1      11.813  -0.122   4.867  1.00  0.00     0.035 A 
ATOM     78  C   UNL     1      10.605  -0.146   5.566  1.00  0.00    -0.003 A 
ATOM     79  C   UNL     1      12.770  -1.148   4.995  1.00  0.00     0.019 A 
ATOM     80  C   UNL     1      10.372  -1.256   6.421  1.00  0.00     0.010 A 
ATOM     81  C   UNL     1      12.502  -2.227   5.839  1.00  0.00     0.001 A 
ATOM     82  C   UNL     1      11.313  -2.282   6.546  1.00  0.00     0.001 A 
BRANCH  76  83
ATOM     83  C   UNL     1       8.494   1.334   5.990  1.00  0.00     0.107 C 
BRANCH  83  84
ATOM     84  S   UNL     1       8.579   2.739   7.158  1.00  0.00    -0.154 SA
BRANCH  84  85
ATOM     85  C   UNL     1       9.954   2.230   8.253  1.00  0.00     0.104 C 
BRANCH  85  86
ATOM     86  C   UNL     1       9.557   1.380   9.464  1.00  0.00     0.149 C 
BRANCH  86  87
ATOM     87  C   UNL     1       8.592   2.084  10.423  1.00  0.00     0.188 C 
BRANCH  87  88
ATOM     88  O   UNL     1       8.407   1.239  11.566  1.00  0.00    -0.394 OA
ATOM     89  H   UNL     1       8.046   0.385  11.281  1.00  0.00     0.210 HD
ENDBRANCH  87  88
ENDBRANCH  86  87
BRANCH  86  90
ATOM     90  O   UNL     1       8.987   0.128   9.068  1.00  0.00    -0.390 OA
ATOM     91  H   UNL     1       8.157   0.286   8.592  1.00  0.00     0.211 HD
ENDBRANCH  86  90
ENDBRANCH  85  86
ENDBRANCH  84  85
ENDBRANCH  83  84
ENDBRANCH  76  83
ENDBRANCH   2  74
TORSDOF 20
