REMARK SMILES C[NH+]1CCC(C(=O)N2C[C@@H](C(=O)NCCCNC(=O)c3ccc(-c4c5nc(c(-c6ccc(S(=O)(=O)[O-])cc6)c6ccc([nH]6)c(-c6ccc(S(=O)(=O)[O-])cc6)c6nc(c(-c7ccc(S(=O)(=O)[O-])cc7)c7ccc4[nH]7)C=C6)C=C5)cc3)[C@H](c3ccc4c(c3)OCO4)C2)CC1
REMARK SMILES IDX 15 1 14 2 13 3 11 4 12 5 10 7 8 8 9 9 90 10 80 11 6 12 7 13
REMARK SMILES IDX 5 14 1 15 2 16 3 17 92 18 4 20 91 21 81 22 82 23 86 24 83 25
REMARK SMILES IDX 85 26 84 27 87 28 89 29 88 30 16 31 17 32 18 33 19 35 20 36
REMARK SMILES IDX 21 37 79 38 22 39 78 40 23 41 24 42 25 43 72 44 26 45 77 46
REMARK SMILES IDX 71 47 73 48 27 49 76 50 70 51 69 52 28 54 58 55 39 56 57 57
REMARK SMILES IDX 40 58 43 59 56 60 74 61 41 62 42 63 55 65 75 66 44 67 29 68
REMARK SMILES IDX 30 69 38 70 31 71 37 72 32 73 33 74 34 75 35 76 36 77 59 78
REMARK SMILES IDX 60 79 68 80 61 81 67 82 62 83 63 84 64 85 65 86 66 87 45 88
REMARK SMILES IDX 46 89 54 90 47 91 53 92 48 93 49 94 50 95 51 96 52 97
REMARK H PARENT 13 6 2 19 17 34 73 53 43 64
REMARK Flexibility Score: inf
ROOT
ATOM      1  C   UNL     1       0.345   0.726   6.935  1.00  0.00     0.042 C 
ENDROOT
BRANCH   1   2
ATOM      2  C   UNL     1       1.714   0.767   6.285  1.00  0.00     0.117 C 
BRANCH   2   3
ATOM      3  N   UNL     1       2.292  -0.545   6.044  1.00  0.00    -0.356 N 
ATOM      4  C   UNL     1       3.055  -0.966   4.995  1.00  0.00     0.225 C 
ATOM      5  O   UNL     1       3.618  -2.057   5.081  1.00  0.00    -0.275 OA
ATOM      6  H   UNL     1       2.108  -1.223   6.733  1.00  0.00     0.163 HD
BRANCH   4   7
ATOM      7  C   UNL     1       3.179  -0.094   3.769  1.00  0.00     0.107 C 
ATOM      8  N   UNL     1       3.676  -0.022   1.524  1.00  0.00    -0.341 N 
ATOM      9  C   UNL     1       3.224  -0.957   2.526  1.00  0.00     0.133 C 
ATOM     10  C   UNL     1       4.674   0.866   2.121  1.00  0.00     0.128 C 
ATOM     11  C   UNL     1       4.507   0.694   3.655  1.00  0.00     0.053 C 
BRANCH   8  12
ATOM     12  C   UNL     1       3.317   0.107   0.207  1.00  0.00     0.226 C 
ATOM     13  O   UNL     1       4.124   0.586  -0.601  1.00  0.00    -0.275 OA
BRANCH  12  14
ATOM     14  C   UNL     1       1.853  -0.046  -0.234  1.00  0.00     0.090 C 
ATOM     15  C   UNL     1      -2.448   0.015  -0.252  1.00  0.00     0.332 C 
ATOM     16  N   UNL     1      -1.036  -0.039   0.124  1.00  0.00    -0.337 N 
ATOM     17  C   UNL     1      -0.352   1.202  -0.258  1.00  0.00     0.262 C 
ATOM     18  C   UNL     1      -0.374  -1.210  -0.467  1.00  0.00     0.262 C 
ATOM     19  H   UNL     1      -0.982  -0.133   1.138  1.00  0.00     0.347 HD
ATOM     20  C   UNL     1       1.087   1.194   0.253  1.00  0.00     0.075 C 
ATOM     21  C   UNL     1       1.057  -1.313   0.074  1.00  0.00     0.075 C 
ENDBRANCH  12  14
ENDBRANCH   8  12
BRANCH  11  22
ATOM     22  C   UNL     1       4.464   1.936   4.531  1.00  0.00    -0.038 A 
ATOM     23  C   UNL     1       3.875   3.151   4.108  1.00  0.00     0.008 A 
ATOM     24  C   UNL     1       4.849   1.802   5.881  1.00  0.00     0.054 A 
ATOM     25  C   UNL     1       3.612   4.186   5.018  1.00  0.00     0.051 A 
ATOM     26  C   UNL     1       4.522   2.813   6.762  1.00  0.00     0.166 A 
ATOM     27  C   UNL     1       3.908   3.967   6.345  1.00  0.00     0.165 A 
ATOM     28  O   UNL     1       4.617   2.741   8.119  1.00  0.00    -0.454 OA
ATOM     29  O   UNL     1       3.567   4.775   7.385  1.00  0.00    -0.454 OA
ATOM     30  C   UNL     1       3.828   3.891   8.498  1.00  0.00     0.468 C 
ENDBRANCH  11  22
ENDBRANCH   4   7
ENDBRANCH   2   3
ENDBRANCH   1   2
BRANCH   1  31
ATOM     31  C   UNL     1       0.348   0.084   8.315  1.00  0.00     0.118 C 
BRANCH  31  32
ATOM     32  N   UNL     1       1.200   0.782   9.277  1.00  0.00    -0.352 N 
ATOM     33  C   UNL     1       0.861   1.520  10.387  1.00  0.00     0.251 C 
ATOM     34  H   UNL     1       2.167   0.714   9.102  1.00  0.00     0.163 HD
ATOM     35  O   UNL     1       1.713   2.192  10.963  1.00  0.00    -0.269 OA
BRANCH  33  36
ATOM     36  C   UNL     1      -0.540   1.530  10.855  1.00  0.00     0.039 A 
ATOM     37  C   UNL     1      -1.148   2.744  11.189  1.00  0.00     0.014 A 
ATOM     38  C   UNL     1      -1.266   0.341  10.919  1.00  0.00     0.014 A 
ATOM     39  C   UNL     1      -2.517   2.776  11.473  1.00  0.00     0.010 A 
ATOM     40  C   UNL     1      -2.641   0.388  11.100  1.00  0.00     0.010 A 
ATOM     41  C   UNL     1      -3.285   1.606  11.371  1.00  0.00    -0.014 A 
BRANCH  41  42
ATOM     42  C   UNL     1      -4.761   1.593  11.534  1.00  0.00     0.031 A 
ATOM     43  C   UNL     1      -5.374   0.709  12.587  1.00  0.00     0.074 A 
ATOM     44  C   UNL     1      -5.548   2.246  10.655  1.00  0.00     0.049 A 
ATOM     45  N   UNL     1      -6.618   0.337  12.732  1.00  0.00    -0.248 NA
ATOM     46  C   UNL     1      -4.451   0.130  13.578  1.00  0.00     0.031 C 
ATOM     47  C   UNL     1      -5.081   3.115   9.572  1.00  0.00     0.029 A 
ATOM     48  N   UNL     1      -6.914   2.252  10.516  1.00  0.00    -0.354 N 
ATOM     49  C   UNL     1      -6.619  -0.560  13.794  1.00  0.00     0.074 A 
ATOM     50  C   UNL     1      -5.248  -0.699  14.235  1.00  0.00     0.031 C 
ATOM     51  C   UNL     1      -6.141   3.576   8.888  1.00  0.00     0.029 A 
ATOM     52  C   UNL     1      -7.357   2.992   9.444  1.00  0.00     0.049 A 
ATOM     53  H   UNL     1      -7.520   1.773  11.126  1.00  0.00     0.167 HD
ATOM     54  C   UNL     1      -7.669  -1.202  14.358  1.00  0.00     0.031 A 
ATOM     55  C   UNL     1      -8.598   3.160   8.946  1.00  0.00     0.031 A 
ATOM     56  C   UNL     1      -9.033  -1.026  13.943  1.00  0.00     0.049 A 
ATOM     57  C   UNL     1      -9.754   2.455   9.602  1.00  0.00     0.074 A 
ATOM     58  C   UNL     1     -10.176  -1.584  14.486  1.00  0.00     0.029 A 
ATOM     59  N   UNL     1      -9.439  -0.218  12.892  1.00  0.00    -0.354 N 
ATOM     60  N   UNL     1      -9.740   1.630  10.622  1.00  0.00    -0.248 NA
ATOM     61  C   UNL     1     -11.091   2.704   9.046  1.00  0.00     0.031 C 
ATOM     62  C   UNL     1     -11.273  -1.137  13.743  1.00  0.00     0.029 A 
ATOM     63  C   UNL     1     -10.816  -0.264  12.768  1.00  0.00     0.049 A 
ATOM     64  H   UNL     1      -8.837   0.311  12.319  1.00  0.00     0.167 HD
ATOM     65  C   UNL     1     -11.068   1.290  10.850  1.00  0.00     0.074 A 
ATOM     66  C   UNL     1     -11.859   1.996   9.864  1.00  0.00     0.031 C 
ATOM     67  C   UNL     1     -11.586   0.469  11.796  1.00  0.00     0.031 A 
BRANCH  54  68
ATOM     68  C   UNL     1      -7.376  -2.159  15.482  1.00  0.00    -0.014 A 
ATOM     69  C   UNL     1      -6.952  -1.695  16.740  1.00  0.00     0.010 A 
ATOM     70  C   UNL     1      -7.551  -3.541  15.285  1.00  0.00     0.010 A 
ATOM     71  C   UNL     1      -6.659  -2.599  17.765  1.00  0.00     0.020 A 
ATOM     72  C   UNL     1      -7.287  -4.446  16.317  1.00  0.00     0.020 A 
ATOM     73  C   UNL     1      -6.822  -3.969  17.544  1.00  0.00     0.054 A 
BRANCH  73  74
ATOM     74  S   UNL     1      -6.445  -5.119  18.895  1.00  0.00     0.124 S 
ATOM     75  O   UNL     1      -4.984  -5.122  18.886  1.00  0.00    -0.237 OA
ATOM     76  O   UNL     1      -7.064  -4.474  20.050  1.00  0.00    -0.237 OA
ATOM     77  O   UNL     1      -7.074  -6.368  18.472  1.00  0.00    -0.744 OA
ENDBRANCH  73  74
ENDBRANCH  54  68
BRANCH  55  78
ATOM     78  C   UNL     1      -8.813   4.041   7.766  1.00  0.00    -0.014 A 
ATOM     79  C   UNL     1      -9.425   5.297   7.923  1.00  0.00     0.010 A 
ATOM     80  C   UNL     1      -8.389   3.642   6.485  1.00  0.00     0.010 A 
ATOM     81  C   UNL     1      -9.623   6.132   6.819  1.00  0.00     0.020 A 
ATOM     82  C   UNL     1      -8.564   4.485   5.383  1.00  0.00     0.020 A 
ATOM     83  C   UNL     1      -9.190   5.721   5.556  1.00  0.00     0.054 A 
BRANCH  83  84
ATOM     84  S   UNL     1      -9.406   6.845   4.147  1.00  0.00     0.124 S 
ATOM     85  O   UNL     1     -10.834   6.718   3.875  1.00  0.00    -0.237 OA
ATOM     86  O   UNL     1      -8.977   8.128   4.697  1.00  0.00    -0.237 OA
ATOM     87  O   UNL     1      -8.521   6.286   3.128  1.00  0.00    -0.744 OA
ENDBRANCH  83  84
ENDBRANCH  55  78
BRANCH  67  88
ATOM     88  C   UNL     1     -13.081   0.329  11.863  1.00  0.00    -0.014 A 
ATOM     89  C   UNL     1     -13.779  -0.476  10.948  1.00  0.00     0.010 A 
ATOM     90  C   UNL     1     -13.777   0.926  12.930  1.00  0.00     0.010 A 
ATOM     91  C   UNL     1     -15.153  -0.681  11.099  1.00  0.00     0.020 A 
ATOM     92  C   UNL     1     -15.146   0.706  13.096  1.00  0.00     0.020 A 
ATOM     93  C   UNL     1     -15.827  -0.094  12.176  1.00  0.00     0.054 A 
BRANCH  93  94
ATOM     94  S   UNL     1     -17.590  -0.452  12.406  1.00  0.00     0.124 S 
ATOM     95  O   UNL     1     -18.204   0.366  11.364  1.00  0.00    -0.237 OA
ATOM     96  O   UNL     1     -17.655  -1.896  12.191  1.00  0.00    -0.237 OA
ATOM     97  O   UNL     1     -17.856  -0.021  13.776  1.00  0.00    -0.744 OA
ENDBRANCH  93  94
ENDBRANCH  67  88
ENDBRANCH  41  42
ENDBRANCH  33  36
ENDBRANCH  31  32
ENDBRANCH   1  31
TORSDOF 16
