REMARK SMILES O=C(NCCCNC(=O)c1oc2cccc3c2c1CCC3)c1ccc(-c2c3nc(c(-c4ccc(S(=O)(=O)[O-])cc4)c4ccc([nH]4)c(-c4ccc(S(=O)(=O)[O-])cc4)c4nc(c(-c5ccc(S(=O)(=O)[O-])cc5)c5ccc2[nH]5)C=C4)C=C3)cc1
REMARK SMILES IDX 1 1 2 2 3 3 22 5 23 6 81 7 24 8 80 9 25 10 26 11 27 12 74 13
REMARK SMILES IDX 28 14 79 15 73 16 75 17 29 18 78 19 72 20 71 21 30 23 60 24
REMARK SMILES IDX 41 25 59 26 42 27 45 28 58 29 76 30 43 31 44 32 57 34 77 35
REMARK SMILES IDX 46 36 31 37 32 38 40 39 33 40 39 41 34 42 35 43 36 44 37 45
REMARK SMILES IDX 38 46 61 47 62 48 70 49 63 50 69 51 64 52 65 53 66 54 67 55
REMARK SMILES IDX 68 56 47 57 48 58 56 59 49 60 55 61 50 62 51 63 52 64 53 65
REMARK SMILES IDX 54 66 4 67 5 68 6 69 7 70 8 71 9 73 10 74 11 75 18 76 12 77
REMARK SMILES IDX 17 78 19 79 13 80 16 81 20 82 14 83 15 84 21 85
REMARK H PARENT 3 4 75 22 45 33 7 72
REMARK Flexibility Score: inf
ROOT
ATOM      1  O   UNL     1       1.224   1.014   0.219  1.00  0.00    -0.269 OA
ATOM      2  C   UNL     1       2.308   0.459   0.033  1.00  0.00     0.251 C 
ATOM      3  N   UNL     1       3.261   1.154  -0.665  1.00  0.00    -0.352 N 
ATOM      4  H   UNL     1       2.920   1.986  -1.067  1.00  0.00     0.163 HD
ENDROOT
BRANCH   2   5
ATOM      5  C   UNL     1       2.480  -0.950   0.458  1.00  0.00     0.039 A 
ATOM      6  C   UNL     1       3.704  -1.540   0.776  1.00  0.00     0.014 A 
ATOM      7  C   UNL     1       1.312  -1.730   0.487  1.00  0.00     0.014 A 
ATOM      8  C   UNL     1       3.788  -2.914   0.951  1.00  0.00     0.010 A 
ATOM      9  C   UNL     1       1.385  -3.099   0.701  1.00  0.00     0.010 A 
ATOM     10  C   UNL     1       2.633  -3.693   0.875  1.00  0.00    -0.014 A 
BRANCH  10  11
ATOM     11  C   UNL     1       2.761  -5.127   1.105  1.00  0.00     0.031 A 
ATOM     12  C   UNL     1       3.122  -5.517   2.501  1.00  0.00     0.074 A 
ATOM     13  C   UNL     1       2.428  -6.041   0.174  1.00  0.00     0.049 A 
ATOM     14  N   UNL     1       4.122  -6.228   2.912  1.00  0.00    -0.248 NA
ATOM     15  C   UNL     1       2.294  -4.962   3.587  1.00  0.00     0.031 C 
ATOM     16  C   UNL     1       1.772  -5.819  -1.118  1.00  0.00     0.029 A 
ATOM     17  N   UNL     1       2.492  -7.397   0.257  1.00  0.00    -0.354 N 
ATOM     18  C   UNL     1       3.977  -6.334   4.295  1.00  0.00     0.074 A 
ATOM     19  C   UNL     1       2.899  -5.452   4.667  1.00  0.00     0.031 C 
ATOM     20  C   UNL     1       1.279  -6.995  -1.569  1.00  0.00     0.029 A 
ATOM     21  C   UNL     1       1.696  -8.059  -0.671  1.00  0.00     0.049 A 
ATOM     22  H   UNL     1       3.051  -7.868   0.915  1.00  0.00     0.167 HD
ATOM     23  C   UNL     1       4.633  -7.253   5.055  1.00  0.00     0.031 A 
ATOM     24  C   UNL     1       1.333  -9.366  -0.627  1.00  0.00     0.031 A 
ATOM     25  C   UNL     1       5.735  -7.862   4.372  1.00  0.00     0.049 A 
ATOM     26  C   UNL     1       2.295 -10.054   0.271  1.00  0.00     0.074 A 
ATOM     27  C   UNL     1       6.943  -7.407   3.886  1.00  0.00     0.029 A 
ATOM     28  N   UNL     1       5.516  -9.075   3.764  1.00  0.00    -0.354 N 
ATOM     29  N   UNL     1       3.565 -10.187   0.009  1.00  0.00    -0.248 NA
ATOM     30  C   UNL     1       1.927 -10.223   1.669  1.00  0.00     0.031 C 
ATOM     31  C   UNL     1       7.138  -8.117   2.666  1.00  0.00     0.029 A 
ATOM     32  C   UNL     1       6.061  -8.993   2.507  1.00  0.00     0.049 A 
ATOM     33  H   UNL     1       5.057  -9.853   4.155  1.00  0.00     0.167 HD
ATOM     34  C   UNL     1       4.202 -10.052   1.234  1.00  0.00     0.074 A 
ATOM     35  C   UNL     1       3.138 -10.164   2.229  1.00  0.00     0.031 C 
ATOM     36  C   UNL     1       5.486  -9.597   1.324  1.00  0.00     0.031 A 
BRANCH  23  37
ATOM     37  C   UNL     1       4.063  -7.801   6.332  1.00  0.00    -0.014 A 
ATOM     38  C   UNL     1       4.889  -8.444   7.270  1.00  0.00     0.010 A 
ATOM     39  C   UNL     1       2.667  -7.899   6.518  1.00  0.00     0.010 A 
ATOM     40  C   UNL     1       4.338  -9.158   8.345  1.00  0.00     0.020 A 
ATOM     41  C   UNL     1       2.110  -8.574   7.604  1.00  0.00     0.020 A 
ATOM     42  C   UNL     1       2.950  -9.217   8.503  1.00  0.00     0.054 A 
BRANCH  42  43
ATOM     43  S   UNL     1       2.248 -10.216   9.842  1.00  0.00     0.124 S 
ATOM     44  O   UNL     1       2.817 -11.534   9.574  1.00  0.00    -0.237 OA
ATOM     45  O   UNL     1       2.756  -9.537  11.030  1.00  0.00    -0.237 OA
ATOM     46  O   UNL     1       0.806 -10.107   9.634  1.00  0.00    -0.744 OA
ENDBRANCH  42  43
ENDBRANCH  23  37
BRANCH  24  47
ATOM     47  C   UNL     1       0.004  -9.947  -0.968  1.00  0.00    -0.014 A 
ATOM     48  C   UNL     1      -0.188 -11.342  -0.975  1.00  0.00     0.010 A 
ATOM     49  C   UNL     1      -1.146  -9.132  -0.998  1.00  0.00     0.010 A 
ATOM     50  C   UNL     1      -1.479 -11.897  -0.928  1.00  0.00     0.020 A 
ATOM     51  C   UNL     1      -2.436  -9.676  -0.964  1.00  0.00     0.020 A 
ATOM     52  C   UNL     1      -2.595 -11.057  -0.891  1.00  0.00     0.054 A 
BRANCH  52  53
ATOM     53  S   UNL     1      -4.245 -11.774  -0.637  1.00  0.00     0.124 S 
ATOM     54  O   UNL     1      -4.379 -12.669  -1.782  1.00  0.00    -0.237 OA
ATOM     55  O   UNL     1      -4.102 -12.424   0.662  1.00  0.00    -0.237 OA
ATOM     56  O   UNL     1      -5.132 -10.612  -0.654  1.00  0.00    -0.744 OA
ENDBRANCH  52  53
ENDBRANCH  24  47
BRANCH  36  57
ATOM     57  C   UNL     1       6.290  -9.462   0.051  1.00  0.00    -0.014 A 
ATOM     58  C   UNL     1       5.990  -8.519  -0.953  1.00  0.00     0.010 A 
ATOM     59  C   UNL     1       7.492 -10.182  -0.041  1.00  0.00     0.010 A 
ATOM     60  C   UNL     1       6.875  -8.305  -2.021  1.00  0.00     0.020 A 
ATOM     61  C   UNL     1       8.383  -9.964  -1.095  1.00  0.00     0.020 A 
ATOM     62  C   UNL     1       8.073  -9.022  -2.078  1.00  0.00     0.054 A 
BRANCH  62  63
ATOM     63  S   UNL     1       9.247  -8.690  -3.424  1.00  0.00     0.124 S 
ATOM     64  O   UNL     1       8.455  -8.966  -4.619  1.00  0.00    -0.237 OA
ATOM     65  O   UNL     1       9.589  -7.286  -3.207  1.00  0.00    -0.237 OA
ATOM     66  O   UNL     1      10.338  -9.632  -3.177  1.00  0.00    -0.744 OA
ENDBRANCH  62  63
ENDBRANCH  36  57
ENDBRANCH  10  11
ENDBRANCH   2   5
BRANCH   3  67
ATOM     67  C   UNL     1       4.668   0.919  -0.937  1.00  0.00     0.118 C 
BRANCH  67  68
ATOM     68  C   UNL     1       4.973  -0.121  -2.010  1.00  0.00     0.042 C 
BRANCH  68  69
ATOM     69  C   UNL     1       4.485   0.249  -3.406  1.00  0.00     0.118 C 
BRANCH  69  70
ATOM     70  N   UNL     1       5.027   1.512  -3.884  1.00  0.00    -0.349 N 
ATOM     71  C   UNL     1       5.822   1.764  -4.979  1.00  0.00     0.287 C 
ATOM     72  H   UNL     1       4.792   2.302  -3.345  1.00  0.00     0.163 HD
ATOM     73  O   UNL     1       6.314   2.891  -5.075  1.00  0.00    -0.266 OA
BRANCH  71  74
ATOM     74  C   UNL     1       6.027   0.712  -5.943  1.00  0.00     0.195 A 
ATOM     75  O   UNL     1       7.327   0.404  -6.303  1.00  0.00    -0.451 OA
ATOM     76  C   UNL     1       5.151  -0.123  -6.615  1.00  0.00     0.012 A 
ATOM     77  C   UNL     1       7.274  -0.697  -7.113  1.00  0.00     0.135 A 
ATOM     78  C   UNL     1       5.959  -1.036  -7.311  1.00  0.00     0.028 A 
ATOM     79  C   UNL     1       3.669  -0.275  -6.678  1.00  0.00     0.041 C 
ATOM     80  C   UNL     1       8.320  -1.426  -7.658  1.00  0.00     0.048 A 
ATOM     81  C   UNL     1       5.566  -2.141  -8.064  1.00  0.00    -0.037 A 
ATOM     82  C   UNL     1       3.256  -1.129  -7.915  1.00  0.00     0.010 C 
ATOM     83  C   UNL     1       7.943  -2.564  -8.399  1.00  0.00     0.004 A 
ATOM     84  C   UNL     1       6.594  -2.924  -8.594  1.00  0.00     0.004 A 
ATOM     85  C   UNL     1       4.091  -2.433  -8.118  1.00  0.00     0.036 C 
ENDBRANCH  71  74
ENDBRANCH  69  70
ENDBRANCH  68  69
ENDBRANCH  67  68
ENDBRANCH   3  67
TORSDOF 13
