REMARK SMILES COc1ccc(C(=O)C2=C(NCCCNC(=O)c3ccc(-c4c5nc(c(-c6ccc(S(=O)(=O)[O-])cc6)c6ccc([nH]6)c(-c6ccc(S(=O)(=O)[O-])cc6)c6nc(c(-c7ccc(S(=O)(=O)[O-])cc7)c7ccc4[nH]7)C=C6)C=C5)cc3)C(=O)N(CC(=O)[O-])[C@H]2c2ccccc2)cc1
REMARK SMILES IDX 13 1 12 2 11 3 10 5 9 6 85 7 78 8 80 9 79 10 7 11 8 12 6 13
REMARK SMILES IDX 3 14 4 15 93 16 5 17 92 18 2 19 1 20 86 21 87 22 91 23 88 24
REMARK SMILES IDX 90 25 89 26 81 27 82 28 83 29 84 30 14 31 15 32 16 33 17 35
REMARK SMILES IDX 18 36 19 37 77 38 20 39 76 40 21 41 22 42 23 43 70 44 24 45
REMARK SMILES IDX 75 46 69 47 71 48 25 49 74 50 68 51 67 52 26 54 56 55 37 56
REMARK SMILES IDX 55 57 38 58 41 59 54 60 72 61 39 62 40 63 53 65 73 66 42 67
REMARK SMILES IDX 27 68 28 69 36 70 29 71 35 72 30 73 31 74 32 75 33 76 34 77
REMARK SMILES IDX 57 78 58 79 66 80 59 81 65 82 60 83 61 84 62 85 63 86 64 87
REMARK SMILES IDX 43 88 44 89 52 90 45 91 51 92 46 93 47 94 48 95 49 96 50 97
REMARK H PARENT 11 4 15 34 71 53 41 64
REMARK Flexibility Score: inf
ROOT
ATOM      1  C   UNL     1       0.335  -2.262  -7.265  1.00  0.00     0.042 C 
ENDROOT
BRANCH   1   2
ATOM      2  C   UNL     1       0.821  -3.702  -7.156  1.00  0.00     0.115 C 
BRANCH   2   3
ATOM      3  N   UNL     1       2.265  -3.753  -7.201  1.00  0.00    -0.380 N 
ATOM      4  H   UNL     1       2.669  -3.383  -8.019  1.00  0.00     0.160 HD
BRANCH   3   5
ATOM      5  C   UNL     1       3.159  -4.237  -6.282  1.00  0.00     0.110 C 
ATOM      6  C   UNL     1       3.117  -4.698  -5.026  1.00  0.00     0.056 C 
ATOM      7  C   UNL     1       4.421  -5.237  -4.516  1.00  0.00     0.153 C 
ATOM      8  C   UNL     1       4.594  -4.406  -6.693  1.00  0.00     0.271 C 
ATOM      9  N   UNL     1       5.268  -5.005  -5.660  1.00  0.00    -0.320 N 
ATOM     10  O   UNL     1       5.045  -4.078  -7.779  1.00  0.00    -0.267 OA
BRANCH   6  11
ATOM     11  C   UNL     1       1.879  -4.895  -4.256  1.00  0.00     0.193 C 
ATOM     12  O   UNL     1       1.288  -5.968  -4.342  1.00  0.00    -0.289 OA
BRANCH  11  13
ATOM     13  C   UNL     1       1.387  -3.826  -3.336  1.00  0.00     0.023 A 
ATOM     14  C   UNL     1       0.497  -2.006  -1.371  1.00  0.00     0.118 A 
ATOM     15  C   UNL     1      -0.264  -3.131  -1.694  1.00  0.00     0.047 A 
ATOM     16  C   UNL     1       1.677  -1.766  -2.071  1.00  0.00     0.047 A 
ATOM     17  C   UNL     1       0.177  -4.038  -2.663  1.00  0.00     0.016 A 
ATOM     18  C   UNL     1       2.102  -2.655  -3.068  1.00  0.00     0.016 A 
BRANCH  14  19
ATOM     19  O   UNL     1      -0.008  -1.241  -0.359  1.00  0.00    -0.497 OA
ATOM     20  C   UNL     1       0.674  -0.028  -0.063  1.00  0.00     0.278 C 
ENDBRANCH  14  19
ENDBRANCH  11  13
ENDBRANCH   6  11
BRANCH   7  21
ATOM     21  C   UNL     1       4.939  -4.532  -3.273  1.00  0.00    -0.021 A 
ATOM     22  C   UNL     1       5.520  -3.250  -3.339  1.00  0.00     0.006 A 
ATOM     23  C   UNL     1       4.807  -5.141  -2.017  1.00  0.00     0.006 A 
ATOM     24  C   UNL     1       5.939  -2.592  -2.183  1.00  0.00     0.000 A 
ATOM     25  C   UNL     1       5.237  -4.484  -0.861  1.00  0.00     0.000 A 
ATOM     26  C   UNL     1       5.796  -3.209  -0.944  1.00  0.00     0.000 A 
ENDBRANCH   7  21
BRANCH   9  27
ATOM     27  C   UNL     1       6.667  -5.398  -5.740  1.00  0.00     0.173 C 
BRANCH  27  28
ATOM     28  C   UNL     1       6.931  -6.661  -6.545  1.00  0.00     0.061 C 
ATOM     29  O   UNL     1       8.039  -7.096  -6.826  1.00  0.00    -0.548 OA
ATOM     30  O   UNL     1       5.830  -7.350  -6.902  1.00  0.00    -0.548 OA
ENDBRANCH  27  28
ENDBRANCH   9  27
ENDBRANCH   3   5
ENDBRANCH   2   3
ENDBRANCH   1   2
BRANCH   1  31
ATOM     31  C   UNL     1       0.652  -1.595  -8.601  1.00  0.00     0.118 C 
BRANCH  31  32
ATOM     32  N   UNL     1      -0.060  -2.198  -9.721  1.00  0.00    -0.352 N 
ATOM     33  C   UNL     1      -0.975  -1.653 -10.589  1.00  0.00     0.251 C 
ATOM     34  H   UNL     1       0.147  -3.147  -9.880  1.00  0.00     0.163 HD
ATOM     35  O   UNL     1      -1.589  -2.386 -11.360  1.00  0.00    -0.269 OA
BRANCH  33  36
ATOM     36  C   UNL     1      -1.242  -0.197 -10.586  1.00  0.00     0.039 A 
ATOM     37  C   UNL     1      -2.565   0.246 -10.684  1.00  0.00     0.014 A 
ATOM     38  C   UNL     1      -0.202   0.732 -10.508  1.00  0.00     0.014 A 
ATOM     39  C   UNL     1      -2.847   1.614 -10.627  1.00  0.00     0.010 A 
ATOM     40  C   UNL     1      -0.489   2.089 -10.373  1.00  0.00     0.010 A 
ATOM     41  C   UNL     1      -1.815   2.546 -10.428  1.00  0.00    -0.014 A 
BRANCH  41  42
ATOM     42  C   UNL     1      -2.104   3.994 -10.256  1.00  0.00     0.031 A 
ATOM     43  C   UNL     1      -1.577   5.000 -11.245  1.00  0.00     0.074 A 
ATOM     44  C   UNL     1      -2.783   4.412  -9.169  1.00  0.00     0.049 A 
ATOM     45  N   UNL     1      -1.672   6.305 -11.222  1.00  0.00    -0.248 NA
ATOM     46  C   UNL     1      -0.827   4.474 -12.397  1.00  0.00     0.031 C 
ATOM     47  C   UNL     1      -3.308   3.543  -8.111  1.00  0.00     0.029 A 
ATOM     48  N   UNL     1      -3.143   5.674  -8.766  1.00  0.00    -0.354 N 
ATOM     49  C   UNL     1      -0.978   6.756 -12.339  1.00  0.00     0.074 A 
ATOM     50  C   UNL     1      -0.430   5.589 -12.995  1.00  0.00     0.031 C 
ATOM     51  C   UNL     1      -3.941   4.296  -7.197  1.00  0.00     0.029 A 
ATOM     52  C   UNL     1      -3.835   5.700  -7.578  1.00  0.00     0.049 A 
ATOM     53  H   UNL     1      -2.925   6.485  -9.280  1.00  0.00     0.167 HD
ATOM     54  C   UNL     1      -0.824   8.025 -12.789  1.00  0.00     0.031 A 
ATOM     55  C   UNL     1      -4.323   6.736  -6.868  1.00  0.00     0.031 A 
ATOM     56  C   UNL     1      -1.385   9.184 -12.146  1.00  0.00     0.049 A 
ATOM     57  C   UNL     1      -4.144   8.135  -7.391  1.00  0.00     0.074 A 
ATOM     58  C   UNL     1      -1.337  10.504 -12.559  1.00  0.00     0.029 A 
ATOM     59  N   UNL     1      -2.097   9.164 -10.956  1.00  0.00    -0.354 N 
ATOM     60  N   UNL     1      -3.540   8.533  -8.485  1.00  0.00    -0.248 NA
ATOM     61  C   UNL     1      -4.722   9.223  -6.589  1.00  0.00     0.031 C 
ATOM     62  C   UNL     1      -1.979  11.288 -11.595  1.00  0.00     0.029 A 
ATOM     63  C   UNL     1      -2.475  10.450 -10.610  1.00  0.00     0.049 A 
ATOM     64  H   UNL     1      -2.304   8.354 -10.435  1.00  0.00     0.167 HD
ATOM     65  C   UNL     1      -3.689   9.915  -8.516  1.00  0.00     0.074 A 
ATOM     66  C   UNL     1      -4.452  10.281  -7.340  1.00  0.00     0.031 C 
ATOM     67  C   UNL     1      -3.236  10.800  -9.438  1.00  0.00     0.031 A 
BRANCH  54  68
ATOM     68  C   UNL     1      -0.014   8.229 -14.042  1.00  0.00    -0.014 A 
ATOM     69  C   UNL     1      -0.506   7.829 -15.297  1.00  0.00     0.010 A 
ATOM     70  C   UNL     1       1.233   8.876 -13.971  1.00  0.00     0.010 A 
ATOM     71  C   UNL     1       0.249   8.038 -16.454  1.00  0.00     0.020 A 
ATOM     72  C   UNL     1       1.980   9.112 -15.129  1.00  0.00     0.020 A 
ATOM     73  C   UNL     1       1.490   8.677 -16.362  1.00  0.00     0.054 A 
BRANCH  73  74
ATOM     74  S   UNL     1       2.435   8.963 -17.883  1.00  0.00     0.124 S 
ATOM     75  O   UNL     1       2.916   7.619 -18.195  1.00  0.00    -0.237 OA
ATOM     76  O   UNL     1       1.425   9.495 -18.794  1.00  0.00    -0.237 OA
ATOM     77  O   UNL     1       3.467   9.914 -17.477  1.00  0.00    -0.744 OA
ENDBRANCH  73  74
ENDBRANCH  54  68
BRANCH  55  78
ATOM     78  C   UNL     1      -5.041   6.488  -5.587  1.00  0.00    -0.014 A 
ATOM     79  C   UNL     1      -6.430   6.682  -5.498  1.00  0.00     0.010 A 
ATOM     80  C   UNL     1      -4.337   6.049  -4.451  1.00  0.00     0.010 A 
ATOM     81  C   UNL     1      -7.101   6.463  -4.291  1.00  0.00     0.020 A 
ATOM     82  C   UNL     1      -5.008   5.803  -3.249  1.00  0.00     0.020 A 
ATOM     83  C   UNL     1      -6.384   6.026  -3.174  1.00  0.00     0.054 A 
BRANCH  83  84
ATOM     84  S   UNL     1      -7.279   5.707  -1.628  1.00  0.00     0.124 S 
ATOM     85  O   UNL     1      -7.541   7.059  -1.145  1.00  0.00    -0.237 OA
ATOM     86  O   UNL     1      -8.448   4.960  -2.086  1.00  0.00    -0.237 OA
ATOM     87  O   UNL     1      -6.326   4.932  -0.836  1.00  0.00    -0.744 OA
ENDBRANCH  83  84
ENDBRANCH  55  78
BRANCH  67  88
ATOM     88  C   UNL     1      -3.581  12.251  -9.234  1.00  0.00    -0.014 A 
ATOM     89  C   UNL     1      -2.954  13.016  -8.235  1.00  0.00     0.010 A 
ATOM     90  C   UNL     1      -4.506  12.870 -10.094  1.00  0.00     0.010 A 
ATOM     91  C   UNL     1      -3.268  14.368  -8.081  1.00  0.00     0.020 A 
ATOM     92  C   UNL     1      -4.803  14.229  -9.960  1.00  0.00     0.020 A 
ATOM     93  C   UNL     1      -4.191  14.967  -8.944  1.00  0.00     0.054 A 
BRANCH  93  94
ATOM     94  S   UNL     1      -4.547  16.735  -8.755  1.00  0.00     0.124 S 
ATOM     95  O   UNL     1      -5.386  16.749  -7.560  1.00  0.00    -0.237 OA
ATOM     96  O   UNL     1      -3.216  17.316  -8.595  1.00  0.00    -0.237 OA
ATOM     97  O   UNL     1      -5.228  17.087  -9.999  1.00  0.00    -0.744 OA
ENDBRANCH  93  94
ENDBRANCH  67  88
ENDBRANCH  41  42
ENDBRANCH  33  36
ENDBRANCH  31  32
ENDBRANCH   1  31
TORSDOF 19
