REMARK SMILES O=CN[C@@H](CCS[C@@H]1CCO[C@]2(CCOC2)C1)C(=O)NCCCNC(=O)c1ccc(-c2c3nc(c(-c4ccc(S(=O)(=O)[O-])cc4)c4ccc([nH]4)c(-c4ccc(S(=O)(=O)[O-])cc4)c4nc(c(-c5ccc(S(=O)(=O)[O-])cc5)c5ccc2[nH]5)C=C4)C=C3)cc1
REMARK SMILES IDX 21 1 20 2 18 3 19 4 4 6 3 7 1 8 2 9 5 11 6 12 7 13 8 14 9 15
REMARK SMILES IDX 17 16 10 17 12 18 11 19 13 20 16 21 14 22 15 23 22 24 23 25
REMARK SMILES IDX 24 26 25 27 26 29 27 30 28 31 86 32 29 33 85 34 30 35 31 36
REMARK SMILES IDX 32 37 79 38 33 39 84 40 78 41 80 42 34 43 83 44 77 45 76 46
REMARK SMILES IDX 35 48 65 49 46 50 64 51 47 52 50 53 63 54 81 55 48 56 49 57
REMARK SMILES IDX 62 59 82 60 51 61 36 62 37 63 45 64 38 65 44 66 39 67 40 68
REMARK SMILES IDX 41 69 42 70 43 71 66 72 67 73 75 74 68 75 74 76 69 77 70 78
REMARK SMILES IDX 71 79 72 80 73 81 52 82 53 83 61 84 54 85 60 86 55 87 56 88
REMARK SMILES IDX 57 89 58 90 59 91
REMARK H PARENT 20 5 3 10 24 28 80 47 50 58
REMARK Flexibility Score: inf
ROOT
ATOM      1  C   UNL     1       3.486   2.665   1.992  1.00  0.00     0.117 C 
ENDROOT
BRANCH   1   2
ATOM      2  N   UNL     1       4.194   1.374   1.106  1.00  0.00    -0.354 N 
ATOM      3  C   UNL     1       4.579   0.639   0.063  1.00  0.00     0.242 C 
ATOM      4  O   UNL     1       5.120  -0.449   0.280  1.00  0.00    -0.273 OA
ATOM      5  H   UNL     1       4.535   0.821   1.845  1.00  0.00     0.163 HD
BRANCH   3   6
ATOM      6  C   UNL     1       4.595   1.243  -1.255  1.00  0.00     0.171 C 
BRANCH   6   7
ATOM      7  N   UNL     1       3.171   1.464  -1.414  1.00  0.00    -0.347 N 
ATOM      8  O   UNL     1       1.158   0.394  -1.059  1.00  0.00    -0.279 OA
ATOM      9  C   UNL     1       2.338   0.349  -1.373  1.00  0.00     0.337 C 
ATOM     10  H   UNL     1       2.807   2.369  -1.545  1.00  0.00     0.164 HD
ENDBRANCH   6   7
BRANCH   6  11
ATOM     11  C   UNL     1       5.667   2.348  -1.067  1.00  0.00     0.046 C 
BRANCH  11  12
ATOM     12  C   UNL     1       6.187   2.854   0.372  1.00  0.00     0.072 C 
BRANCH  12  13
ATOM     13  S   UNL     1       6.611   1.687   2.044  1.00  0.00    -0.158 SA
BRANCH  13  14
ATOM     14  C   UNL     1       4.858   1.660   3.274  1.00  0.00     0.052 C 
ATOM     15  C   UNL     1       3.081   0.775   2.881  1.00  0.00     0.043 C 
ATOM     16  C   UNL     1       4.839   3.548   3.428  1.00  0.00     0.052 C 
ATOM     17  C   UNL     1       1.553   1.998   2.638  1.00  0.00     0.162 C 
ATOM     18  C   UNL     1       3.112   4.502   3.700  1.00  0.00     0.095 C 
ATOM     19  O   UNL     1       1.879   3.825   2.716  1.00  0.00    -0.372 OA
ATOM     20  C   UNL     1       4.290   6.101   3.775  1.00  0.00     0.066 C 
ATOM     21  C   UNL     1       2.212   4.442   5.565  1.00  0.00     0.195 C 
ATOM     22  C   UNL     1       4.577   6.598   5.678  1.00  0.00     0.163 C 
ATOM     23  O   UNL     1       3.399   5.482   6.747  1.00  0.00    -0.378 OA
ENDBRANCH  13  14
ENDBRANCH  12  13
ENDBRANCH  11  12
ENDBRANCH   6  11
ENDBRANCH   3   6
ENDBRANCH   1   2
BRANCH   1  24
ATOM     24  C   UNL     1       3.087   2.474   4.059  1.00  0.00     0.042 C 
BRANCH  24  25
ATOM     25  C   UNL     1       3.950   3.078   5.393  1.00  0.00     0.118 C 
BRANCH  25  26
ATOM     26  N   UNL     1       4.032   4.791   5.300  1.00  0.00    -0.352 N 
ATOM     27  C   UNL     1       2.687   6.215   5.146  1.00  0.00     0.251 C 
ATOM     28  H   UNL     1       4.954   5.134   5.330  1.00  0.00     0.163 HD
ATOM     29  O   UNL     1       2.123   6.605   4.091  1.00  0.00    -0.269 OA
BRANCH  27  30
ATOM     30  C   UNL     1       1.734   6.915   6.513  1.00  0.00     0.039 A 
ATOM     31  C   UNL     1       0.631   7.713   6.196  1.00  0.00     0.014 A 
ATOM     32  C   UNL     1       1.631   6.300   7.786  1.00  0.00     0.014 A 
ATOM     33  C   UNL     1      -0.544   7.636   6.990  1.00  0.00     0.010 A 
ATOM     34  C   UNL     1       0.411   5.861   8.224  1.00  0.00     0.010 A 
ATOM     35  C   UNL     1      -0.704   6.601   7.934  1.00  0.00    -0.014 A 
BRANCH  35  36
ATOM     36  C   UNL     1      -1.962   6.198   8.621  1.00  0.00     0.031 A 
ATOM     37  C   UNL     1      -1.983   5.847  10.111  1.00  0.00     0.074 A 
ATOM     38  C   UNL     1      -3.062   5.987   7.869  1.00  0.00     0.049 A 
ATOM     39  N   UNL     1      -2.995   5.462  10.851  1.00  0.00    -0.248 NA
ATOM     40  C   UNL     1      -0.706   5.850  10.858  1.00  0.00     0.031 C 
ATOM     41  C   UNL     1      -3.123   6.084   6.406  1.00  0.00     0.029 A 
ATOM     42  N   UNL     1      -4.345   5.668   8.227  1.00  0.00    -0.354 N 
ATOM     43  C   UNL     1      -2.463   5.165  12.106  1.00  0.00     0.074 A 
ATOM     44  C   UNL     1      -1.034   5.268  11.999  1.00  0.00     0.031 C 
ATOM     45  C   UNL     1      -4.396   5.961   6.007  1.00  0.00     0.029 A 
ATOM     46  C   UNL     1      -5.231   5.713   7.174  1.00  0.00     0.049 A 
ATOM     47  H   UNL     1      -4.607   5.430   9.145  1.00  0.00     0.167 HD
ATOM     48  C   UNL     1      -3.102   4.908  13.273  1.00  0.00     0.031 A 
ATOM     49  C   UNL     1      -6.571   5.601   7.160  1.00  0.00     0.031 A 
ATOM     50  C   UNL     1      -4.532   4.865  13.377  1.00  0.00     0.049 A 
ATOM     51  C   UNL     1      -7.278   5.396   8.470  1.00  0.00     0.074 A 
ATOM     52  C   UNL     1      -5.313   4.722  14.507  1.00  0.00     0.029 A 
ATOM     53  N   UNL     1      -5.393   4.975  12.296  1.00  0.00    -0.354 N 
ATOM     54  N   UNL     1      -6.765   5.272   9.672  1.00  0.00    -0.248 NA
ATOM     55  C   UNL     1      -8.743   5.336   8.426  1.00  0.00     0.031 C 
ATOM     56  C   UNL     1      -6.649   4.679  14.099  1.00  0.00     0.029 A 
ATOM     57  C   UNL     1      -6.700   4.874  12.726  1.00  0.00     0.049 A 
ATOM     58  H   UNL     1      -5.113   5.105  11.361  1.00  0.00     0.167 HD
ATOM     59  C   UNL     1      -7.848   5.144  10.533  1.00  0.00     0.074 A 
ATOM     60  C   UNL     1      -9.041   5.232   9.713  1.00  0.00     0.031 C 
ATOM     61  C   UNL     1      -7.861   4.966  11.878  1.00  0.00     0.031 A 
BRANCH  48  62
ATOM     62  C   UNL     1      -2.265   4.706  14.517  1.00  0.00    -0.014 A 
ATOM     63  C   UNL     1      -1.465   5.744  15.037  1.00  0.00     0.010 A 
ATOM     64  C   UNL     1      -2.293   3.475  15.197  1.00  0.00     0.010 A 
ATOM     65  C   UNL     1      -0.671   5.539  16.169  1.00  0.00     0.020 A 
ATOM     66  C   UNL     1      -1.531   3.277  16.354  1.00  0.00     0.020 A 
ATOM     67  C   UNL     1      -0.710   4.305  16.822  1.00  0.00     0.054 A 
BRANCH  67  68
ATOM     68  S   UNL     1       0.309   4.079  18.306  1.00  0.00     0.124 S 
ATOM     69  O   UNL     1       1.659   4.065  17.747  1.00  0.00    -0.237 OA
ATOM     70  O   UNL     1      -0.026   5.255  19.105  1.00  0.00    -0.237 OA
ATOM     71  O   UNL     1      -0.150   2.804  18.853  1.00  0.00    -0.744 OA
ENDBRANCH  67  68
ENDBRANCH  48  62
BRANCH  49  72
ATOM     72  C   UNL     1      -7.317   5.755   5.879  1.00  0.00    -0.014 A 
ATOM     73  C   UNL     1      -8.136   6.877   5.656  1.00  0.00     0.010 A 
ATOM     74  C   UNL     1      -7.183   4.798   4.856  1.00  0.00     0.010 A 
ATOM     75  C   UNL     1      -8.829   7.023   4.450  1.00  0.00     0.020 A 
ATOM     76  C   UNL     1      -7.845   4.959   3.635  1.00  0.00     0.020 A 
ATOM     77  C   UNL     1      -8.677   6.064   3.446  1.00  0.00     0.054 A 
BRANCH  77  78
ATOM     78  S   UNL     1      -9.558   6.293   1.876  1.00  0.00     0.124 S 
ATOM     79  O   UNL     1     -10.946   6.078   2.273  1.00  0.00    -0.237 OA
ATOM     80  O   UNL     1      -9.208   7.665   1.517  1.00  0.00    -0.237 OA
ATOM     81  O   UNL     1      -8.989   5.264   1.009  1.00  0.00    -0.744 OA
ENDBRANCH  77  78
ENDBRANCH  49  72
BRANCH  61  82
ATOM     82  C   UNL     1      -9.204   4.885  12.547  1.00  0.00    -0.014 A 
ATOM     83  C   UNL     1     -10.041   3.772  12.367  1.00  0.00     0.010 A 
ATOM     84  C   UNL     1      -9.596   5.912  13.425  1.00  0.00     0.010 A 
ATOM     85  C   UNL     1     -11.268   3.703  13.028  1.00  0.00     0.020 A 
ATOM     86  C   UNL     1     -10.803   5.828  14.118  1.00  0.00     0.020 A 
ATOM     87  C   UNL     1     -11.638   4.730  13.903  1.00  0.00     0.054 A 
BRANCH  87  88
ATOM     88  S   UNL     1     -13.213   4.590  14.786  1.00  0.00     0.124 S 
ATOM     89  O   UNL     1     -14.182   4.792  13.712  1.00  0.00    -0.237 OA
ATOM     90  O   UNL     1     -13.151   3.237  15.333  1.00  0.00    -0.237 OA
ATOM     91  O   UNL     1     -13.151   5.661  15.778  1.00  0.00    -0.744 OA
ENDBRANCH  87  88
ENDBRANCH  61  82
ENDBRANCH  35  36
ENDBRANCH  27  30
ENDBRANCH  25  26
ENDBRANCH  24  25
ENDBRANCH   1  24
TORSDOF 18
