REMARK SMILES O=C(NCCCNC(=O)[C@H](CO)NC(=O)[C@H](CS)NC(=O)c1ccc(F)cc1)c1ccc(-c2c3nc(c(-c4ccc(S(=O)(=O)[O-])cc4)c4ccc([nH]4)c(-c4ccc(S(=O)(=O)[O-])cc4)c4nc(c(-c5ccc(S(=O)(=O)[O-])cc5)c5ccc2[nH]5)C=C4)C=C3)cc1
REMARK SMILES IDX 5 1 4 2 3 3 1 4 2 5 29 7 30 8 88 9 31 10 87 11 32 12 33 13
REMARK SMILES IDX 34 14 81 15 35 16 86 17 80 18 82 19 36 20 85 21 79 22 78 23
REMARK SMILES IDX 37 25 67 26 48 27 66 28 49 29 52 30 65 31 83 32 50 33 51 34
REMARK SMILES IDX 64 36 84 37 53 38 38 39 39 40 47 41 40 42 46 43 41 44 42 45
REMARK SMILES IDX 43 46 44 47 45 48 68 49 69 50 77 51 70 52 76 53 71 54 72 55
REMARK SMILES IDX 73 56 74 57 75 58 54 59 55 60 63 61 56 62 62 63 57 64 58 65
REMARK SMILES IDX 59 66 60 67 61 68 6 69 7 70 8 71 9 73 10 74 13 75 14 76
REMARK SMILES IDX 15 78 16 79 19 80 20 81 21 83 22 84 23 85 28 86 24 87 27 88
REMARK SMILES IDX 25 89 26 90 17 91 18 92 11 94 12 95
REMARK H PARENT 3 6 82 24 52 35 7 72 13 77 19 82 18 93 12 96
REMARK Flexibility Score: inf
ROOT
ATOM      1  C   UNL     1       6.314  -0.726 -14.107  1.00  0.00     0.042 C 
ENDROOT
BRANCH   1   2
ATOM      2  C   UNL     1       7.647  -0.563 -14.823  1.00  0.00     0.118 C 
BRANCH   2   3
ATOM      3  N   UNL     1       7.522  -0.805 -16.253  1.00  0.00    -0.352 N 
ATOM      4  O   UNL     1       7.086  -0.253 -18.389  1.00  0.00    -0.269 OA
ATOM      5  C   UNL     1       7.497   0.098 -17.288  1.00  0.00     0.251 C 
ATOM      6  H   UNL     1       7.443  -1.750 -16.516  1.00  0.00     0.163 HD
BRANCH   5   7
ATOM      7  C   UNL     1       7.964   1.484 -17.069  1.00  0.00     0.039 A 
ATOM      8  C   UNL     1       9.102   1.730 -16.298  1.00  0.00     0.014 A 
ATOM      9  C   UNL     1       7.288   2.546 -17.676  1.00  0.00     0.014 A 
ATOM     10  C   UNL     1       9.480   3.035 -16.016  1.00  0.00     0.010 A 
ATOM     11  C   UNL     1       7.736   3.856 -17.480  1.00  0.00     0.010 A 
ATOM     12  C   UNL     1       8.826   4.112 -16.634  1.00  0.00    -0.014 A 
BRANCH  12  13
ATOM     13  C   UNL     1       9.372   5.481 -16.454  1.00  0.00     0.031 A 
ATOM     14  C   UNL     1       8.571   6.561 -15.784  1.00  0.00     0.074 A 
ATOM     15  C   UNL     1      10.625   5.728 -16.887  1.00  0.00     0.049 A 
ATOM     16  N   UNL     1       8.916   7.799 -15.535  1.00  0.00    -0.248 NA
ATOM     17  C   UNL     1       7.210   6.218 -15.345  1.00  0.00     0.031 C 
ATOM     18  C   UNL     1      11.492   4.753 -17.559  1.00  0.00     0.029 A 
ATOM     19  N   UNL     1      11.399   6.856 -16.810  1.00  0.00    -0.354 N 
ATOM     20  C   UNL     1       7.812   8.388 -14.929  1.00  0.00     0.074 A 
ATOM     21  C   UNL     1       6.777   7.379 -14.871  1.00  0.00     0.031 C 
ATOM     22  C   UNL     1      12.691   5.307 -17.782  1.00  0.00     0.029 A 
ATOM     23  C   UNL     1      12.656   6.696 -17.343  1.00  0.00     0.049 A 
ATOM     24  H   UNL     1      11.085   7.700 -16.412  1.00  0.00     0.167 HD
ATOM     25  C   UNL     1       7.679   9.654 -14.464  1.00  0.00     0.031 A 
ATOM     26  C   UNL     1      13.668   7.572 -17.486  1.00  0.00     0.031 A 
ATOM     27  C   UNL     1       8.718  10.651 -14.535  1.00  0.00     0.049 A 
ATOM     28  C   UNL     1      13.480   8.976 -16.993  1.00  0.00     0.074 A 
ATOM     29  C   UNL     1       8.693  11.954 -14.068  1.00  0.00     0.029 A 
ATOM     30  N   UNL     1       9.965  10.461 -15.115  1.00  0.00    -0.354 N 
ATOM     31  N   UNL     1      12.439   9.504 -16.394  1.00  0.00    -0.248 NA
ATOM     32  C   UNL     1      14.601   9.902 -17.191  1.00  0.00     0.031 C 
ATOM     33  C   UNL     1       9.899  12.569 -14.419  1.00  0.00     0.029 A 
ATOM     34  C   UNL     1      10.705  11.630 -15.043  1.00  0.00     0.049 A 
ATOM     35  H   UNL     1      10.277   9.619 -15.518  1.00  0.00     0.167 HD
ATOM     36  C   UNL     1      12.787  10.821 -16.126  1.00  0.00     0.074 A 
ATOM     37  C   UNL     1      14.142  11.001 -16.608  1.00  0.00     0.031 C 
ATOM     38  C   UNL     1      12.050  11.794 -15.535  1.00  0.00     0.031 A 
BRANCH  25  39
ATOM     39  C   UNL     1       6.353  10.049 -13.866  1.00  0.00    -0.014 A 
ATOM     40  C   UNL     1       5.928   9.541 -12.625  1.00  0.00     0.010 A 
ATOM     41  C   UNL     1       5.541  10.987 -14.531  1.00  0.00     0.010 A 
ATOM     42  C   UNL     1       4.702   9.936 -12.079  1.00  0.00     0.020 A 
ATOM     43  C   UNL     1       4.328  11.406 -13.976  1.00  0.00     0.020 A 
ATOM     44  C   UNL     1       3.909  10.865 -12.760  1.00  0.00     0.054 A 
BRANCH  44  45
ATOM     45  S   UNL     1       2.335  11.375 -12.016  1.00  0.00     0.124 S 
ATOM     46  O   UNL     1       1.521  10.173 -12.180  1.00  0.00    -0.237 OA
ATOM     47  O   UNL     1       2.718  11.690 -10.642  1.00  0.00    -0.237 OA
ATOM     48  O   UNL     1       1.923  12.521 -12.823  1.00  0.00    -0.744 OA
ENDBRANCH  44  45
ENDBRANCH  25  39
BRANCH  26  49
ATOM     49  C   UNL     1      14.929   7.141 -18.148  1.00  0.00    -0.014 A 
ATOM     50  C   UNL     1      16.125   7.034 -17.418  1.00  0.00     0.010 A 
ATOM     51  C   UNL     1      14.930   6.805 -19.515  1.00  0.00     0.010 A 
ATOM     52  C   UNL     1      17.301   6.612 -18.047  1.00  0.00     0.020 A 
ATOM     53  C   UNL     1      16.094   6.351 -20.139  1.00  0.00     0.020 A 
ATOM     54  C   UNL     1      17.276   6.270 -19.402  1.00  0.00     0.054 A 
BRANCH  54  55
ATOM     55  S   UNL     1      18.802   5.678 -20.184  1.00  0.00     0.124 S 
ATOM     56  O   UNL     1      19.588   6.903 -20.282  1.00  0.00    -0.237 OA
ATOM     57  O   UNL     1      19.284   4.689 -19.224  1.00  0.00    -0.237 OA
ATOM     58  O   UNL     1      18.342   5.125 -21.457  1.00  0.00    -0.744 OA
ENDBRANCH  54  55
ENDBRANCH  26  49
BRANCH  38  59
ATOM     59  C   UNL     1      12.710  13.134 -15.348  1.00  0.00    -0.014 A 
ATOM     60  C   UNL     1      12.973  13.980 -16.442  1.00  0.00     0.010 A 
ATOM     61  C   UNL     1      13.039  13.568 -14.051  1.00  0.00     0.010 A 
ATOM     62  C   UNL     1      13.586  15.219 -16.243  1.00  0.00     0.020 A 
ATOM     63  C   UNL     1      13.623  14.820 -13.846  1.00  0.00     0.020 A 
ATOM     64  C   UNL     1      13.908  15.631 -14.946  1.00  0.00     0.054 A 
BRANCH  64  65
ATOM     65  S   UNL     1      14.670  17.259 -14.712  1.00  0.00     0.124 S 
ATOM     66  O   UNL     1      16.023  17.036 -15.213  1.00  0.00    -0.237 OA
ATOM     67  O   UNL     1      13.830  18.127 -15.534  1.00  0.00    -0.237 OA
ATOM     68  O   UNL     1      14.569  17.486 -13.272  1.00  0.00    -0.744 OA
ENDBRANCH  64  65
ENDBRANCH  38  59
ENDBRANCH  12  13
ENDBRANCH   5   7
ENDBRANCH   2   3
ENDBRANCH   1   2
BRANCH   1  69
ATOM     69  C   UNL     1       5.863  -2.181 -14.029  1.00  0.00     0.117 C 
BRANCH  69  70
ATOM     70  N   UNL     1       6.719  -2.938 -13.134  1.00  0.00    -0.354 N 
ATOM     71  C   UNL     1       6.835  -2.832 -11.785  1.00  0.00     0.244 C 
ATOM     72  H   UNL     1       7.290  -3.616 -13.560  1.00  0.00     0.163 HD
ATOM     73  O   UNL     1       7.979  -3.013 -11.346  1.00  0.00    -0.273 OA
BRANCH  71  74
ATOM     74  C   UNL     1       5.635  -2.739 -10.802  1.00  0.00     0.197 C 
BRANCH  74  75
ATOM     75  N   UNL     1       6.139  -2.139  -9.552  1.00  0.00    -0.340 N 
ATOM     76  C   UNL     1       6.407  -2.690  -8.334  1.00  0.00     0.244 C 
ATOM     77  H   UNL     1       6.312  -1.172  -9.606  1.00  0.00     0.164 HD
ATOM     78  O   UNL     1       7.010  -1.988  -7.519  1.00  0.00    -0.273 OA
BRANCH  76  79
ATOM     79  C   UNL     1       5.999  -4.137  -7.998  1.00  0.00     0.181 C 
BRANCH  79  80
ATOM     80  N   UNL     1       7.207  -4.890  -7.631  1.00  0.00    -0.339 N 
ATOM     81  C   UNL     1       7.646  -6.127  -8.027  1.00  0.00     0.251 C 
ATOM     82  H   UNL     1       7.800  -4.429  -6.994  1.00  0.00     0.164 HD
ATOM     83  O   UNL     1       8.541  -6.700  -7.416  1.00  0.00    -0.269 OA
BRANCH  81  84
ATOM     84  C   UNL     1       7.031  -6.792  -9.197  1.00  0.00     0.040 A 
ATOM     85  C   UNL     1       6.937  -6.117 -10.416  1.00  0.00     0.017 A 
ATOM     86  C   UNL     1       6.607  -8.120  -9.105  1.00  0.00     0.017 A 
ATOM     87  C   UNL     1       6.302  -6.708 -11.507  1.00  0.00     0.040 A 
ATOM     88  C   UNL     1       6.001  -8.729 -10.208  1.00  0.00     0.040 A 
ATOM     89  C   UNL     1       5.830  -8.009 -11.388  1.00  0.00     0.123 A 
ATOM     90  F   UNL     1       5.215  -8.583 -12.431  1.00  0.00    -0.207 F 
ENDBRANCH  81  84
ENDBRANCH  79  80
BRANCH  79  91
ATOM     91  C   UNL     1       4.931  -4.166  -6.885  1.00  0.00     0.101 C 
BRANCH  91  92
ATOM     92  S   UNL     1       5.519  -3.855  -5.185  1.00  0.00    -0.177 SA
ATOM     93  H   UNL     1       6.376  -4.843  -4.813  1.00  0.00     0.102 HD
ENDBRANCH  91  92
ENDBRANCH  79  91
ENDBRANCH  76  79
ENDBRANCH  74  75
BRANCH  74  94
ATOM     94  C   UNL     1       4.335  -2.056 -11.204  1.00  0.00     0.191 C 
BRANCH  94  95
ATOM     95  O   UNL     1       4.518  -0.696 -11.563  1.00  0.00    -0.394 OA
ATOM     96  H   UNL     1       4.865  -0.205 -10.802  1.00  0.00     0.210 HD
ENDBRANCH  94  95
ENDBRANCH  74  94
ENDBRANCH  71  74
ENDBRANCH  69  70
ENDBRANCH   1  69
TORSDOF 21
