REMARK SMILES O=C(NCCCNC(=O)[C@@H]1c2ccccc2C[C@H]1P(O)(O)=S)c1ccc(-c2c3nc(c(-c4ccc(S(=O)(=O)[O-])cc4)c4ccc([nH]4)c(-c4ccc(S(=O)(=O)[O-])cc4)c4nc(c(-c5ccc(S(=O)(=O)[O-])cc5)c5ccc2[nH]5)C=C4)C=C3)cc1
REMARK SMILES IDX 4 1 3 2 1 3 2 4 23 6 24 7 82 8 25 9 81 10 26 11 27 12 28 13
REMARK SMILES IDX 75 14 29 15 80 16 74 17 76 18 30 19 79 20 73 21 72 22 31 24
REMARK SMILES IDX 61 25 42 26 60 27 43 28 46 29 59 30 77 31 44 32 45 33 58 35
REMARK SMILES IDX 78 36 47 37 32 38 33 39 41 40 34 41 40 42 35 43 36 44 37 45
REMARK SMILES IDX 38 46 39 47 62 48 63 49 71 50 64 51 70 52 65 53 66 54 67 55
REMARK SMILES IDX 68 56 69 57 48 58 49 59 57 60 50 61 56 62 51 63 52 64 53 65
REMARK SMILES IDX 54 66 55 67 5 68 6 69 7 70 8 71 9 73 10 74 11 75 18 76 12 77
REMARK SMILES IDX 16 78 17 79 13 80 15 81 14 82 19 83 22 84 20 85 21 87
REMARK H PARENT 3 5 76 23 46 34 7 72 20 86 21 88
REMARK Flexibility Score: inf
ROOT
ATOM      1  C   UNL     1       9.510  -4.996   7.169  1.00  0.00     0.118 C 
ENDROOT
BRANCH   1   2
ATOM      2  N   UNL     1       9.900  -3.849   7.979  1.00  0.00    -0.352 N 
ATOM      3  O   UNL     1      10.416  -2.709   9.847  1.00  0.00    -0.269 OA
ATOM      4  C   UNL     1      10.358  -3.796   9.272  1.00  0.00     0.251 C 
ATOM      5  H   UNL     1       9.823  -2.977   7.528  1.00  0.00     0.163 HD
BRANCH   4   6
ATOM      6  C   UNL     1      10.757  -5.032   9.980  1.00  0.00     0.039 A 
ATOM      7  C   UNL     1      11.481  -6.030   9.326  1.00  0.00     0.014 A 
ATOM      8  C   UNL     1      10.428  -5.183  11.330  1.00  0.00     0.014 A 
ATOM      9  C   UNL     1      11.729  -7.240   9.963  1.00  0.00     0.010 A 
ATOM     10  C   UNL     1      10.773  -6.359  12.002  1.00  0.00     0.010 A 
ATOM     11  C   UNL     1      11.398  -7.412  11.315  1.00  0.00    -0.014 A 
BRANCH  11  12
ATOM     12  C   UNL     1      11.772  -8.671  12.008  1.00  0.00     0.031 A 
ATOM     13  C   UNL     1      10.722  -9.581  12.584  1.00  0.00     0.074 A 
ATOM     14  C   UNL     1      13.077  -8.992  12.111  1.00  0.00     0.049 A 
ATOM     15  N   UNL     1      10.877 -10.702  13.241  1.00  0.00    -0.248 NA
ATOM     16  C   UNL     1       9.318  -9.179  12.407  1.00  0.00     0.031 C 
ATOM     17  C   UNL     1      14.187  -8.190  11.588  1.00  0.00     0.029 A 
ATOM     18  N   UNL     1      13.693 -10.078  12.679  1.00  0.00    -0.354 N 
ATOM     19  C   UNL     1       9.597 -11.128  13.578  1.00  0.00     0.074 A 
ATOM     20  C   UNL     1       8.678 -10.130  13.074  1.00  0.00     0.031 C 
ATOM     21  C   UNL     1      15.341  -8.828  11.825  1.00  0.00     0.029 A 
ATOM     22  C   UNL     1      15.063 -10.044  12.579  1.00  0.00     0.049 A 
ATOM     23  H   UNL     1      13.201 -10.810  13.116  1.00  0.00     0.167 HD
ATOM     24  C   UNL     1       9.225 -12.249  14.243  1.00  0.00     0.031 A 
ATOM     25  C   UNL     1      16.000 -10.881  13.063  1.00  0.00     0.031 A 
ATOM     26  C   UNL     1      10.150 -13.232  14.748  1.00  0.00     0.049 A 
ATOM     27  C   UNL     1      15.565 -12.091  13.836  1.00  0.00     0.074 A 
ATOM     28  C   UNL     1       9.871 -14.414  15.412  1.00  0.00     0.029 A 
ATOM     29  N   UNL     1      11.532 -13.145  14.652  1.00  0.00    -0.354 N 
ATOM     30  N   UNL     1      14.348 -12.490  14.121  1.00  0.00    -0.248 NA
ATOM     31  C   UNL     1      16.626 -12.966  14.348  1.00  0.00     0.031 C 
ATOM     32  C   UNL     1      11.085 -15.010  15.771  1.00  0.00     0.029 A 
ATOM     33  C   UNL     1      12.120 -14.237  15.268  1.00  0.00     0.049 A 
ATOM     34  H   UNL     1      12.022 -12.414  14.210  1.00  0.00     0.167 HD
ATOM     35  C   UNL     1      14.497 -13.678  14.826  1.00  0.00     0.074 A 
ATOM     36  C   UNL     1      15.920 -13.937  14.912  1.00  0.00     0.031 C 
ATOM     37  C   UNL     1      13.539 -14.482  15.350  1.00  0.00     0.031 A 
BRANCH  24  38
ATOM     38  C   UNL     1       7.752 -12.452  14.498  1.00  0.00    -0.014 A 
ATOM     39  C   UNL     1       6.859 -12.744  13.451  1.00  0.00     0.010 A 
ATOM     40  C   UNL     1       7.258 -12.379  15.814  1.00  0.00     0.010 A 
ATOM     41  C   UNL     1       5.494 -12.905  13.709  1.00  0.00     0.020 A 
ATOM     42  C   UNL     1       5.898 -12.569  16.080  1.00  0.00     0.020 A 
ATOM     43  C   UNL     1       5.021 -12.810  15.021  1.00  0.00     0.054 A 
BRANCH  43  44
ATOM     44  S   UNL     1       3.245 -13.019  15.324  1.00  0.00     0.124 S 
ATOM     45  O   UNL     1       2.700 -11.777  14.781  1.00  0.00    -0.237 OA
ATOM     46  O   UNL     1       2.929 -14.226  14.565  1.00  0.00    -0.237 OA
ATOM     47  O   UNL     1       3.152 -13.156  16.776  1.00  0.00    -0.744 OA
ENDBRANCH  43  44
ENDBRANCH  24  38
BRANCH  25  48
ATOM     48  C   UNL     1      17.439 -10.579  12.834  1.00  0.00    -0.014 A 
ATOM     49  C   UNL     1      18.207 -11.366  11.960  1.00  0.00     0.010 A 
ATOM     50  C   UNL     1      18.035  -9.464  13.455  1.00  0.00     0.010 A 
ATOM     51  C   UNL     1      19.546 -11.049  11.716  1.00  0.00     0.020 A 
ATOM     52  C   UNL     1      19.363  -9.126  13.189  1.00  0.00     0.020 A 
ATOM     53  C   UNL     1      20.114  -9.926  12.327  1.00  0.00     0.054 A 
BRANCH  53  54
ATOM     54  S   UNL     1      21.833  -9.496  11.941  1.00  0.00     0.124 S 
ATOM     55  O   UNL     1      22.573 -10.535  12.650  1.00  0.00    -0.237 OA
ATOM     56  O   UNL     1      21.859  -9.582  10.483  1.00  0.00    -0.237 OA
ATOM     57  O   UNL     1      21.977  -8.145  12.480  1.00  0.00    -0.744 OA
ENDBRANCH  53  54
ENDBRANCH  25  48
BRANCH  37  58
ATOM     58  C   UNL     1      13.994 -15.745  16.031  1.00  0.00    -0.014 A 
ATOM     59  C   UNL     1      14.635 -15.715  17.282  1.00  0.00     0.010 A 
ATOM     60  C   UNL     1      13.723 -16.988  15.429  1.00  0.00     0.010 A 
ATOM     61  C   UNL     1      15.021 -16.905  17.906  1.00  0.00     0.020 A 
ATOM     62  C   UNL     1      14.080 -18.180  16.063  1.00  0.00     0.020 A 
ATOM     63  C   UNL     1      14.738 -18.130  17.293  1.00  0.00     0.054 A 
BRANCH  63  64
ATOM     64  S   UNL     1      15.201 -19.661  18.148  1.00  0.00     0.124 S 
ATOM     65  O   UNL     1      16.653 -19.670  17.994  1.00  0.00    -0.237 OA
ATOM     66  O   UNL     1      14.715 -19.429  19.506  1.00  0.00    -0.237 OA
ATOM     67  O   UNL     1      14.489 -20.701  17.408  1.00  0.00    -0.744 OA
ENDBRANCH  63  64
ENDBRANCH  37  58
ENDBRANCH  11  12
ENDBRANCH   4   6
ENDBRANCH   1   2
BRANCH   1  68
ATOM     68  C   UNL     1       8.004  -5.091   6.995  1.00  0.00     0.042 C 
BRANCH  68  69
ATOM     69  C   UNL     1       7.421  -3.979   6.139  1.00  0.00     0.117 C 
BRANCH  69  70
ATOM     70  N   UNL     1       7.945  -3.958   4.780  1.00  0.00    -0.355 N 
ATOM     71  C   UNL     1       7.404  -4.298   3.581  1.00  0.00     0.228 C 
ATOM     72  H   UNL     1       8.872  -3.633   4.718  1.00  0.00     0.163 HD
ATOM     73  O   UNL     1       8.081  -4.069   2.573  1.00  0.00    -0.274 OA
BRANCH  71  74
ATOM     74  C   UNL     1       6.067  -4.997   3.426  1.00  0.00     0.122 C 
ATOM     75  C   UNL     1       4.909  -4.459   4.216  1.00  0.00    -0.031 A 
ATOM     76  C   UNL     1       6.130  -6.465   3.889  1.00  0.00     0.096 C 
ATOM     77  C   UNL     1       4.547  -3.138   4.435  1.00  0.00     0.005 A 
ATOM     78  C   UNL     1       4.181  -5.510   4.785  1.00  0.00    -0.043 A 
ATOM     79  C   UNL     1       4.707  -6.835   4.332  1.00  0.00     0.050 C 
ATOM     80  C   UNL     1       3.488  -2.880   5.307  1.00  0.00     0.000 A 
ATOM     81  C   UNL     1       3.122  -5.263   5.640  1.00  0.00     0.004 A 
ATOM     82  C   UNL     1       2.790  -3.935   5.916  1.00  0.00     0.000 A 
BRANCH  76  83
ATOM     83  P   UNL     1       6.910  -7.583   2.736  1.00  0.00     0.188 P 
ATOM     84  S   UNL     1       8.769  -8.025   2.935  1.00  0.00    -0.037 S 
BRANCH  83  85
ATOM     85  O   UNL     1       5.992  -8.906   2.797  1.00  0.00    -0.345 OA
ATOM     86  H   UNL     1       5.060  -8.659   2.694  1.00  0.00     0.219 HD
ENDBRANCH  83  85
BRANCH  83  87
ATOM     87  O   UNL     1       6.471  -7.112   1.264  1.00  0.00    -0.345 OA
ATOM     88  H   UNL     1       5.522  -6.912   1.259  1.00  0.00     0.219 HD
ENDBRANCH  83  87
ENDBRANCH  76  83
ENDBRANCH  71  74
ENDBRANCH  69  70
ENDBRANCH  68  69
ENDBRANCH   1  68
TORSDOF 16
