REMARK SMILES COc1ccc(Nc2cc(C(=O)NCCCNC(=O)c3ccc(-c4c5nc(c(-c6ccc(S(=O)(=O)[O-])cc6)c6ccc([nH]6)c(-c6ccc(S(=O)(=O)[O-])cc6)c6nc(c(-c7ccc(S(=O)(=O)[O-])cc7)c7ccc4[nH]7)C=C6)C=C5)cc3)ccn2)cc1
REMARK SMILES IDX 15 1 14 2 13 3 11 4 12 5 10 7 8 8 9 9 82 10 81 11 80 12 7 13
REMARK SMILES IDX 6 15 3 16 4 17 84 18 5 19 83 20 2 21 1 22 16 23 17 24 18 25
REMARK SMILES IDX 19 27 20 28 21 29 79 30 22 31 78 32 23 33 24 34 25 35 72 36
REMARK SMILES IDX 26 37 77 38 71 39 73 40 27 41 76 42 70 43 69 44 28 46 58 47
REMARK SMILES IDX 39 48 57 49 40 50 43 51 56 52 74 53 41 54 42 55 55 57 75 58
REMARK SMILES IDX 44 59 29 60 30 61 38 62 31 63 37 64 32 65 33 66 34 67 35 68
REMARK SMILES IDX 36 69 59 70 60 71 68 72 61 73 67 74 62 75 63 76 64 77 65 78
REMARK SMILES IDX 66 79 45 80 46 81 54 82 47 83 53 84 48 85 49 86 50 87 51 88
REMARK SMILES IDX 52 89
REMARK H PARENT 13 6 7 14 17 26 73 45 43 56
REMARK Flexibility Score: inf
ROOT
ATOM      1  C   UNL     1      -1.366   6.926   0.444  1.00  0.00     0.042 C 
ENDROOT
BRANCH   1   2
ATOM      2  C   UNL     1      -2.154   6.570  -0.818  1.00  0.00     0.118 C 
BRANCH   2   3
ATOM      3  N   UNL     1      -2.490   7.755  -1.588  1.00  0.00    -0.352 N 
ATOM      4  C   UNL     1      -1.909   8.376  -2.663  1.00  0.00     0.251 C 
ATOM      5  O   UNL     1      -2.492   9.360  -3.123  1.00  0.00    -0.269 OA
ATOM      6  H   UNL     1      -3.305   8.207  -1.271  1.00  0.00     0.163 HD
BRANCH   4   7
ATOM      7  C   UNL     1      -0.663   7.913  -3.335  1.00  0.00     0.044 A 
ATOM      8  C   UNL     1       1.344   6.605  -3.542  1.00  0.00     0.131 A 
ATOM      9  C   UNL     1       0.279   7.063  -2.772  1.00  0.00     0.061 A 
ATOM     10  N   UNL     1       1.591   7.073  -4.779  1.00  0.00    -0.239 NA
ATOM     11  C   UNL     1       0.704   7.948  -5.297  1.00  0.00     0.114 A 
ATOM     12  C   UNL     1      -0.433   8.372  -4.634  1.00  0.00     0.034 A 
BRANCH   8  13
ATOM     13  N   UNL     1       2.150   5.554  -3.079  1.00  0.00    -0.340 N 
ATOM     14  H   UNL     1       3.123   5.694  -3.128  1.00  0.00     0.168 HD
BRANCH  13  15
ATOM     15  C   UNL     1       1.717   4.319  -2.550  1.00  0.00     0.040 A 
ATOM     16  C   UNL     1       0.912   1.818  -1.515  1.00  0.00     0.119 A 
ATOM     17  C   UNL     1       0.016   2.603  -2.234  1.00  0.00     0.048 A 
ATOM     18  C   UNL     1       2.217   2.272  -1.324  1.00  0.00     0.048 A 
ATOM     19  C   UNL     1       0.412   3.842  -2.740  1.00  0.00     0.030 A 
ATOM     20  C   UNL     1       2.615   3.514  -1.841  1.00  0.00     0.030 A 
BRANCH  16  21
ATOM     21  O   UNL     1       0.415   0.615  -1.098  1.00  0.00    -0.497 OA
ATOM     22  C   UNL     1       1.026   0.063   0.062  1.00  0.00     0.278 C 
ENDBRANCH  16  21
ENDBRANCH  13  15
ENDBRANCH   8  13
ENDBRANCH   4   7
ENDBRANCH   2   3
ENDBRANCH   1   2
BRANCH   1  23
ATOM     23  C   UNL     1      -2.244   7.463   1.573  1.00  0.00     0.118 C 
BRANCH  23  24
ATOM     24  N   UNL     1      -3.098   6.424   2.128  1.00  0.00    -0.352 N 
ATOM     25  C   UNL     1      -3.304   6.040   3.428  1.00  0.00     0.251 C 
ATOM     26  H   UNL     1      -3.612   5.914   1.462  1.00  0.00     0.163 HD
ATOM     27  O   UNL     1      -3.903   4.988   3.640  1.00  0.00    -0.269 OA
BRANCH  25  28
ATOM     28  C   UNL     1      -2.826   6.857   4.568  1.00  0.00     0.039 A 
ATOM     29  C   UNL     1      -2.410   6.192   5.727  1.00  0.00     0.014 A 
ATOM     30  C   UNL     1      -2.874   8.254   4.553  1.00  0.00     0.014 A 
ATOM     31  C   UNL     1      -2.035   6.920   6.858  1.00  0.00     0.010 A 
ATOM     32  C   UNL     1      -2.439   8.983   5.662  1.00  0.00     0.010 A 
ATOM     33  C   UNL     1      -2.042   8.324   6.834  1.00  0.00    -0.014 A 
BRANCH  33  34
ATOM     34  C   UNL     1      -1.683   9.101   8.048  1.00  0.00     0.031 A 
ATOM     35  C   UNL     1      -2.727   9.923   8.759  1.00  0.00     0.074 A 
ATOM     36  C   UNL     1      -0.416   9.081   8.504  1.00  0.00     0.049 A 
ATOM     37  N   UNL     1      -2.607  10.657   9.837  1.00  0.00    -0.248 NA
ATOM     38  C   UNL     1      -4.077   9.940   8.171  1.00  0.00     0.031 C 
ATOM     39  C   UNL     1       0.696   8.357   7.883  1.00  0.00     0.029 A 
ATOM     40  N   UNL     1       0.150   9.683   9.600  1.00  0.00    -0.354 N 
ATOM     41  C   UNL     1      -3.855  11.235  10.044  1.00  0.00     0.074 A 
ATOM     42  C   UNL     1      -4.705  10.803   8.956  1.00  0.00     0.031 C 
ATOM     43  C   UNL     1       1.802   8.533   8.624  1.00  0.00     0.029 A 
ATOM     44  C   UNL     1       1.486   9.399   9.756  1.00  0.00     0.049 A 
ATOM     45  H   UNL     1      -0.353  10.263  10.216  1.00  0.00     0.167 HD
ATOM     46  C   UNL     1      -4.265  12.036  11.057  1.00  0.00     0.031 A 
ATOM     47  C   UNL     1       2.357   9.786  10.707  1.00  0.00     0.031 A 
ATOM     48  C   UNL     1      -3.424  12.450  12.150  1.00  0.00     0.049 A 
ATOM     49  C   UNL     1       1.871  10.647  11.840  1.00  0.00     0.074 A 
ATOM     50  C   UNL     1      -3.757  13.220  13.251  1.00  0.00     0.029 A 
ATOM     51  N   UNL     1      -2.084  12.121  12.283  1.00  0.00    -0.354 N 
ATOM     52  N   UNL     1       0.672  11.138  12.047  1.00  0.00    -0.248 NA
ATOM     53  C   UNL     1       2.853  10.987  12.879  1.00  0.00     0.031 C 
ATOM     54  C   UNL     1      -2.607  13.385  14.032  1.00  0.00     0.029 A 
ATOM     55  C   UNL     1      -1.572  12.679  13.442  1.00  0.00     0.049 A 
ATOM     56  H   UNL     1      -1.572  11.571  11.646  1.00  0.00     0.167 HD
ATOM     57  C   UNL     1       0.749  11.825  13.254  1.00  0.00     0.074 A 
ATOM     58  C   UNL     1       2.107  11.670  13.737  1.00  0.00     0.031 C 
ATOM     59  C   UNL     1      -0.217  12.520  13.904  1.00  0.00     0.031 A 
BRANCH  46  60
ATOM     60  C   UNL     1      -5.692  12.519  11.024  1.00  0.00    -0.014 A 
ATOM     61  C   UNL     1      -6.762  11.637  11.262  1.00  0.00     0.010 A 
ATOM     62  C   UNL     1      -5.968  13.876  10.774  1.00  0.00     0.010 A 
ATOM     63  C   UNL     1      -8.082  12.091  11.201  1.00  0.00     0.020 A 
ATOM     64  C   UNL     1      -7.286  14.340  10.739  1.00  0.00     0.020 A 
ATOM     65  C   UNL     1      -8.336  13.440  10.933  1.00  0.00     0.054 A 
BRANCH  65  66
ATOM     66  S   UNL     1     -10.058  14.006  10.868  1.00  0.00     0.124 S 
ATOM     67  O   UNL     1     -10.494  13.495   9.571  1.00  0.00    -0.237 OA
ATOM     68  O   UNL     1     -10.656  13.356  12.031  1.00  0.00    -0.237 OA
ATOM     69  O   UNL     1      -9.948  15.460  10.960  1.00  0.00    -0.744 OA
ENDBRANCH  65  66
ENDBRANCH  46  60
BRANCH  47  70
ATOM     70  C   UNL     1       3.770   9.325  10.649  1.00  0.00    -0.014 A 
ATOM     71  C   UNL     1       4.240   8.352  11.547  1.00  0.00     0.010 A 
ATOM     72  C   UNL     1       4.649   9.846   9.682  1.00  0.00     0.010 A 
ATOM     73  C   UNL     1       5.568   7.919  11.492  1.00  0.00     0.020 A 
ATOM     74  C   UNL     1       5.971   9.398   9.607  1.00  0.00     0.020 A 
ATOM     75  C   UNL     1       6.425   8.445  10.521  1.00  0.00     0.054 A 
BRANCH  75  76
ATOM     76  S   UNL     1       8.129   7.828  10.429  1.00  0.00     0.124 S 
ATOM     77  O   UNL     1       8.760   8.511  11.554  1.00  0.00    -0.237 OA
ATOM     78  O   UNL     1       7.954   6.386  10.580  1.00  0.00    -0.237 OA
ATOM     79  O   UNL     1       8.575   8.257   9.105  1.00  0.00    -0.744 OA
ENDBRANCH  75  76
ENDBRANCH  47  70
BRANCH  59  80
ATOM     80  C   UNL     1       0.157  13.137  15.225  1.00  0.00    -0.014 A 
ATOM     81  C   UNL     1       0.997  14.262  15.292  1.00  0.00     0.010 A 
ATOM     82  C   UNL     1      -0.355  12.589  16.415  1.00  0.00     0.010 A 
ATOM     83  C   UNL     1       1.357  14.800  16.530  1.00  0.00     0.020 A 
ATOM     84  C   UNL     1      -0.017  13.140  17.653  1.00  0.00     0.020 A 
ATOM     85  C   UNL     1       0.855  14.230  17.703  1.00  0.00     0.054 A 
BRANCH  85  86
ATOM     86  S   UNL     1       1.327  14.949  19.300  1.00  0.00     0.124 S 
ATOM     87  O   UNL     1       2.676  14.420  19.483  1.00  0.00    -0.237 OA
ATOM     88  O   UNL     1       1.244  16.385  19.047  1.00  0.00    -0.237 OA
ATOM     89  O   UNL     1       0.322  14.427  20.224  1.00  0.00    -0.744 OA
ENDBRANCH  85  86
ENDBRANCH  59  80
ENDBRANCH  33  34
ENDBRANCH  25  28
ENDBRANCH  23  24
ENDBRANCH   1  23
TORSDOF 16
