REMARK SMILES CC(C)CSc1cc2c(cc1Cl)C=C(C(=O)NCCCNC(=O)c1ccc(-c3c4nc(c(-c5ccc(S(=O)(=O)[O-])cc5)c5ccc([nH]5)c(-c5ccc(S(=O)(=O)[O-])cc5)c5nc(c(-c6ccc(S(=O)(=O)[O-])cc6)c6ccc3[nH]6)C=C5)C=C4)cc1)[C@@H](C(F)(F)F)O2
REMARK SMILES IDX 19 1 18 2 17 3 15 4 16 5 14 7 6 8 7 9 11 10 8 11 10 12 12 13
REMARK SMILES IDX 9 14 89 15 13 16 84 17 5 18 4 19 2 20 1 21 3 22 85 23 86 24
REMARK SMILES IDX 87 25 88 26 20 27 21 28 22 29 23 31 24 32 25 33 83 34 26 35
REMARK SMILES IDX 82 36 27 37 28 38 29 39 76 40 30 41 81 42 75 43 77 44 31 45
REMARK SMILES IDX 80 46 74 47 73 48 32 50 62 51 43 52 61 53 44 54 47 55 60 56
REMARK SMILES IDX 78 57 45 58 46 59 59 61 79 62 48 63 33 64 34 65 42 66 35 67
REMARK SMILES IDX 41 68 36 69 37 70 38 71 39 72 40 73 63 74 64 75 72 76 65 77
REMARK SMILES IDX 71 78 66 79 67 80 68 81 69 82 70 83 49 84 50 85 58 86 51 87
REMARK SMILES IDX 57 88 52 89 53 90 54 91 55 92 56 93
REMARK H PARENT 17 6 21 30 77 49 47 60
REMARK Flexibility Score: inf
ROOT
ATOM      1  C   UNL     1      -1.618   8.793  -0.607  1.00  0.00     0.042 C 
ENDROOT
BRANCH   1   2
ATOM      2  C   UNL     1      -2.040   8.147  -1.917  1.00  0.00     0.118 C 
BRANCH   2   3
ATOM      3  N   UNL     1      -0.895   7.746  -2.720  1.00  0.00    -0.352 N 
ATOM      4  C   UNL     1      -0.295   6.590  -3.084  1.00  0.00     0.251 C 
ATOM      5  O   UNL     1       0.684   6.719  -3.826  1.00  0.00    -0.270 OA
ATOM      6  H   UNL     1      -0.433   8.527  -3.102  1.00  0.00     0.163 HD
BRANCH   4   7
ATOM      7  C   UNL     1      -0.727   5.226  -2.666  1.00  0.00     0.067 C 
ATOM      8  C   UNL     1      -0.998   0.242  -1.934  1.00  0.00     0.030 A 
ATOM      9  C   UNL     1      -1.579   1.357  -1.318  1.00  0.00     0.063 A 
ATOM     10  C   UNL     1      -0.124   0.448  -3.019  1.00  0.00     0.055 A 
ATOM     11  C   UNL     1      -1.257   2.643  -1.743  1.00  0.00     0.129 A 
ATOM     12  C   UNL     1       0.207   1.745  -3.430  1.00  0.00     0.033 A 
ATOM     13  Cl  UNL     1       0.627  -0.860  -3.868  1.00  0.00    -0.083 Cl
ATOM     14  C   UNL     1      -0.352   2.847  -2.783  1.00  0.00     0.019 A 
ATOM     15  O   UNL     1      -1.832   3.678  -1.062  1.00  0.00    -0.475 OA
ATOM     16  C   UNL     1       0.017   4.210  -3.142  1.00  0.00     0.025 C 
ATOM     17  C   UNL     1      -1.916   4.935  -1.793  1.00  0.00     0.314 C 
BRANCH   8  18
ATOM     18  S   UNL     1      -1.382  -1.388  -1.302  1.00  0.00    -0.124 SA
BRANCH  18  19
ATOM     19  C   UNL     1      -0.868  -1.231   0.453  1.00  0.00     0.078 C 
BRANCH  19  20
ATOM     20  C   UNL     1       0.653  -1.322   0.685  1.00  0.00    -0.007 C 
ATOM     21  C   UNL     1       1.391  -0.015   0.385  1.00  0.00     0.008 C 
ATOM     22  C   UNL     1       0.919  -1.709   2.144  1.00  0.00     0.008 C 
ENDBRANCH  19  20
ENDBRANCH  18  19
ENDBRANCH   8  18
BRANCH  17  23
ATOM     23  C   UNL     1      -3.245   4.981  -2.573  1.00  0.00     0.429 C 
ATOM     24  F   UNL     1      -4.293   5.098  -1.721  1.00  0.00    -0.167 F 
ATOM     25  F   UNL     1      -3.317   6.035  -3.420  1.00  0.00    -0.167 F 
ATOM     26  F   UNL     1      -3.452   3.872  -3.319  1.00  0.00    -0.167 F 
ENDBRANCH  17  23
ENDBRANCH   4   7
ENDBRANCH   2   3
ENDBRANCH   1   2
BRANCH   1  27
ATOM     27  C   UNL     1      -1.179  10.240  -0.784  1.00  0.00     0.118 C 
BRANCH  27  28
ATOM     28  N   UNL     1      -2.287  11.111  -1.174  1.00  0.00    -0.352 N 
ATOM     29  C   UNL     1      -2.861  12.171  -0.513  1.00  0.00     0.251 C 
ATOM     30  H   UNL     1      -2.684  10.906  -2.051  1.00  0.00     0.163 HD
ATOM     31  O   UNL     1      -3.920  12.640  -0.925  1.00  0.00    -0.269 OA
BRANCH  29  32
ATOM     32  C   UNL     1      -2.223  12.724   0.699  1.00  0.00     0.039 A 
ATOM     33  C   UNL     1      -0.837  12.861   0.763  1.00  0.00     0.014 A 
ATOM     34  C   UNL     1      -3.014  13.104   1.787  1.00  0.00     0.014 A 
ATOM     35  C   UNL     1      -0.234  13.175   1.972  1.00  0.00     0.010 A 
ATOM     36  C   UNL     1      -2.407  13.537   2.970  1.00  0.00     0.010 A 
ATOM     37  C   UNL     1      -1.009  13.524   3.091  1.00  0.00    -0.014 A 
BRANCH  37  38
ATOM     38  C   UNL     1      -0.317  13.885   4.355  1.00  0.00     0.031 A 
ATOM     39  C   UNL     1      -0.500  13.066   5.604  1.00  0.00     0.074 A 
ATOM     40  C   UNL     1       0.547  14.920   4.346  1.00  0.00     0.049 A 
ATOM     41  N   UNL     1       0.097  13.198   6.761  1.00  0.00    -0.248 NA
ATOM     42  C   UNL     1      -1.475  11.964   5.558  1.00  0.00     0.031 C 
ATOM     43  C   UNL     1       0.806  15.783   3.190  1.00  0.00     0.029 A 
ATOM     44  N   UNL     1       1.402  15.392   5.309  1.00  0.00    -0.354 N 
ATOM     45  C   UNL     1      -0.450  12.223   7.587  1.00  0.00     0.074 A 
ATOM     46  C   UNL     1      -1.442  11.517   6.807  1.00  0.00     0.031 C 
ATOM     47  C   UNL     1       1.815  16.614   3.481  1.00  0.00     0.029 A 
ATOM     48  C   UNL     1       2.221  16.404   4.867  1.00  0.00     0.049 A 
ATOM     49  H   UNL     1       1.427  15.040   6.229  1.00  0.00     0.167 HD
ATOM     50  C   UNL     1      -0.146  11.941   8.875  1.00  0.00     0.031 A 
ATOM     51  C   UNL     1       3.192  17.095   5.495  1.00  0.00     0.031 A 
ATOM     52  C   UNL     1       0.865  12.631   9.634  1.00  0.00     0.049 A 
ATOM     53  C   UNL     1       3.513  16.764   6.921  1.00  0.00     0.074 A 
ATOM     54  C   UNL     1       1.272  12.387  10.933  1.00  0.00     0.029 A 
ATOM     55  N   UNL     1       1.626  13.693   9.168  1.00  0.00    -0.354 N 
ATOM     56  N   UNL     1       2.994  15.828   7.678  1.00  0.00    -0.248 NA
ATOM     57  C   UNL     1       4.540  17.579   7.582  1.00  0.00     0.031 C 
ATOM     58  C   UNL     1       2.236  13.339  11.274  1.00  0.00     0.029 A 
ATOM     59  C   UNL     1       2.479  14.135  10.165  1.00  0.00     0.049 A 
ATOM     60  H   UNL     1       1.569  14.075   8.262  1.00  0.00     0.167 HD
ATOM     61  C   UNL     1       3.625  15.944   8.909  1.00  0.00     0.074 A 
ATOM     62  C   UNL     1       4.586  17.022   8.787  1.00  0.00     0.031 C 
ATOM     63  C   UNL     1       3.418  15.223  10.038  1.00  0.00     0.031 A 
BRANCH  50  64
ATOM     64  C   UNL     1      -0.920  10.850   9.570  1.00  0.00    -0.014 A 
ATOM     65  C   UNL     1      -1.799  11.184  10.617  1.00  0.00     0.010 A 
ATOM     66  C   UNL     1      -0.708   9.494   9.263  1.00  0.00     0.010 A 
ATOM     67  C   UNL     1      -2.438  10.185  11.357  1.00  0.00     0.020 A 
ATOM     68  C   UNL     1      -1.366   8.492   9.984  1.00  0.00     0.020 A 
ATOM     69  C   UNL     1      -2.212   8.844  11.040  1.00  0.00     0.054 A 
BRANCH  69  70
ATOM     70  S   UNL     1      -3.049   7.558  12.009  1.00  0.00     0.124 S 
ATOM     71  O   UNL     1      -2.239   7.510  13.222  1.00  0.00    -0.237 OA
ATOM     72  O   UNL     1      -4.396   8.101  12.168  1.00  0.00    -0.237 OA
ATOM     73  O   UNL     1      -2.963   6.378  11.150  1.00  0.00    -0.744 OA
ENDBRANCH  69  70
ENDBRANCH  50  64
BRANCH  51  74
ATOM     74  C   UNL     1       3.922  18.145   4.734  1.00  0.00    -0.014 A 
ATOM     75  C   UNL     1       3.250  19.312   4.321  1.00  0.00     0.010 A 
ATOM     76  C   UNL     1       5.233  17.914   4.285  1.00  0.00     0.010 A 
ATOM     77  C   UNL     1       3.841  20.183   3.404  1.00  0.00     0.020 A 
ATOM     78  C   UNL     1       5.840  18.801   3.390  1.00  0.00     0.020 A 
ATOM     79  C   UNL     1       5.124  19.907   2.924  1.00  0.00     0.054 A 
BRANCH  79  80
ATOM     80  S   UNL     1       5.828  20.988   1.649  1.00  0.00     0.124 S 
ATOM     81  O   UNL     1       5.128  20.529   0.452  1.00  0.00    -0.237 OA
ATOM     82  O   UNL     1       5.462  22.321   2.119  1.00  0.00    -0.237 OA
ATOM     83  O   UNL     1       7.256  20.683   1.694  1.00  0.00    -0.744 OA
ENDBRANCH  79  80
ENDBRANCH  51  74
BRANCH  63  84
ATOM     84  C   UNL     1       4.224  15.576  11.259  1.00  0.00    -0.014 A 
ATOM     85  C   UNL     1       5.195  14.679  11.739  1.00  0.00     0.010 A 
ATOM     86  C   UNL     1       3.925  16.730  12.004  1.00  0.00     0.010 A 
ATOM     87  C   UNL     1       5.827  14.909  12.963  1.00  0.00     0.020 A 
ATOM     88  C   UNL     1       4.576  16.978  13.216  1.00  0.00     0.020 A 
ATOM     89  C   UNL     1       5.504  16.051  13.700  1.00  0.00     0.054 A 
BRANCH  89  90
ATOM     90  S   UNL     1       6.308  16.317  15.303  1.00  0.00     0.124 S 
ATOM     91  O   UNL     1       5.567  15.408  16.172  1.00  0.00    -0.237 OA
ATOM     92  O   UNL     1       7.695  15.941  15.035  1.00  0.00    -0.237 OA
ATOM     93  O   UNL     1       6.097  17.739  15.560  1.00  0.00    -0.744 OA
ENDBRANCH  89  90
ENDBRANCH  63  84
ENDBRANCH  37  38
ENDBRANCH  29  32
ENDBRANCH  27  28
ENDBRANCH   1  27
TORSDOF 17
