REMARK SMILES CCC(CC)(NC(=O)c1cc([N+](=O)[O-])c[nH]1)C(=O)NCCCNC(=O)c1ccc(-c2c3nc(c(-c4ccc(S(=O)(=O)[O-])cc4)c4ccc([nH]4)c(-c4ccc(S(=O)(=O)[O-])cc4)c4nc(c(-c5ccc(S(=O)(=O)[O-])cc5)c5ccc2[nH]5)C=C4)C=C3)cc1
REMARK SMILES IDX 21 1 20 2 19 3 17 4 18 5 3 7 2 8 1 9 4 10 5 11 6 12 7 13
REMARK SMILES IDX 8 15 9 16 10 17 16 18 11 19 15 20 12 22 13 23 14 24 22 25
REMARK SMILES IDX 23 26 24 27 25 29 26 30 27 31 85 32 28 33 84 34 29 35 30 36
REMARK SMILES IDX 31 37 78 38 32 39 83 40 77 41 79 42 33 43 82 44 76 45 75 46
REMARK SMILES IDX 34 48 64 49 45 50 63 51 46 52 49 53 62 54 80 55 47 56 48 57
REMARK SMILES IDX 61 59 81 60 50 61 35 62 36 63 44 64 37 65 43 66 38 67 39 68
REMARK SMILES IDX 40 69 41 70 42 71 65 72 66 73 74 74 67 75 73 76 68 77 69 78
REMARK SMILES IDX 70 79 71 80 72 81 51 82 52 83 60 84 53 85 59 86 54 87 55 88
REMARK SMILES IDX 56 89 57 90 58 91
REMARK H PARENT 19 6 6 14 16 21 23 28 79 47 49 58
REMARK Flexibility Score: inf
ROOT
ATOM      1  C   UNL     1       2.406   5.336  -3.103  1.00  0.00     0.042 C 
ENDROOT
BRANCH   1   2
ATOM      2  C   UNL     1       1.982   3.943  -3.580  1.00  0.00     0.117 C 
BRANCH   2   3
ATOM      3  N   UNL     1       2.621   2.785  -2.958  1.00  0.00    -0.354 N 
ATOM      4  C   UNL     1       2.289   1.958  -1.908  1.00  0.00     0.245 C 
ATOM      5  O   UNL     1       2.955   0.924  -1.798  1.00  0.00    -0.272 OA
ATOM      6  H   UNL     1       3.475   2.543  -3.383  1.00  0.00     0.163 HD
BRANCH   4   7
ATOM      7  C   UNL     1       1.054   2.222  -1.007  1.00  0.00     0.118 C 
BRANCH   7   8
ATOM      8  C   UNL     1       0.995   1.395   0.314  1.00  0.00     0.035 C 
ATOM      9  C   UNL     1       1.013  -0.126   0.231  1.00  0.00     0.007 C 
ENDBRANCH   7   8
BRANCH   7  10
ATOM     10  C   UNL     1      -0.133   1.809  -1.949  1.00  0.00     0.035 C 
ATOM     11  C   UNL     1      -1.551   2.017  -1.450  1.00  0.00     0.007 C 
ENDBRANCH   7  10
BRANCH   7  12
ATOM     12  N   UNL     1       0.998   3.654  -0.604  1.00  0.00    -0.336 N 
ATOM     13  C   UNL     1       1.786   4.364   0.295  1.00  0.00     0.268 C 
ATOM     14  H   UNL     1       0.293   4.182  -1.044  1.00  0.00     0.165 HD
ATOM     15  O   UNL     1       1.202   5.259   0.905  1.00  0.00    -0.268 OA
BRANCH  13  16
ATOM     16  C   UNL     1       3.214   4.142   0.501  1.00  0.00     0.111 A 
ATOM     17  C   UNL     1       4.218   3.570  -0.257  1.00  0.00     0.119 A 
ATOM     18  N   UNL     1       3.883   4.671   1.605  1.00  0.00    -0.351 N 
ATOM     19  C   UNL     1       5.478   3.740   0.369  1.00  0.00     0.287 A 
ATOM     20  C   UNL     1       5.237   4.437   1.529  1.00  0.00     0.169 A 
ATOM     21  H   UNL     1       3.443   5.151   2.343  1.00  0.00     0.166 HD
BRANCH  19  22
ATOM     22  N   UNL     1       6.747   3.325  -0.174  1.00  0.00     0.064 N 
ATOM     23  O   UNL     1       7.769   3.700   0.398  1.00  0.00    -0.258 OA
ATOM     24  O   UNL     1       6.701   2.708  -1.252  1.00  0.00    -0.258 OA
ENDBRANCH  19  22
ENDBRANCH  13  16
ENDBRANCH   7  12
ENDBRANCH   4   7
ENDBRANCH   2   3
ENDBRANCH   1   2
BRANCH   1  25
ATOM     25  C   UNL     1       3.894   5.639  -3.204  1.00  0.00     0.118 C 
BRANCH  25  26
ATOM     26  N   UNL     1       4.357   5.778  -4.570  1.00  0.00    -0.352 N 
ATOM     27  C   UNL     1       5.560   6.230  -5.061  1.00  0.00     0.251 C 
ATOM     28  H   UNL     1       3.706   5.505  -5.256  1.00  0.00     0.163 HD
ATOM     29  O   UNL     1       5.625   6.467  -6.265  1.00  0.00    -0.269 OA
BRANCH  27  30
ATOM     30  C   UNL     1       6.759   6.457  -4.205  1.00  0.00     0.039 A 
ATOM     31  C   UNL     1       7.712   7.387  -4.653  1.00  0.00     0.014 A 
ATOM     32  C   UNL     1       7.027   5.731  -3.042  1.00  0.00     0.014 A 
ATOM     33  C   UNL     1       8.883   7.612  -3.928  1.00  0.00     0.010 A 
ATOM     34  C   UNL     1       8.187   5.962  -2.307  1.00  0.00     0.010 A 
ATOM     35  C   UNL     1       9.112   6.909  -2.741  1.00  0.00    -0.014 A 
BRANCH  35  36
ATOM     36  C   UNL     1      10.252   7.271  -1.867  1.00  0.00     0.031 A 
ATOM     37  C   UNL     1       9.913   8.464  -0.955  1.00  0.00     0.074 A 
ATOM     38  C   UNL     1      11.406   6.548  -2.007  1.00  0.00     0.049 A 
ATOM     39  N   UNL     1      10.696   9.366  -0.453  1.00  0.00    -0.248 NA
ATOM     40  C   UNL     1       8.491   8.748  -0.606  1.00  0.00     0.031 C 
ATOM     41  C   UNL     1      11.556   5.366  -2.889  1.00  0.00     0.029 A 
ATOM     42  N   UNL     1      12.672   6.631  -1.456  1.00  0.00    -0.354 N 
ATOM     43  C   UNL     1       9.919  10.214   0.371  1.00  0.00     0.074 A 
ATOM     44  C   UNL     1       8.554   9.838   0.164  1.00  0.00     0.031 C 
ATOM     45  C   UNL     1      12.829   4.910  -2.881  1.00  0.00     0.029 A 
ATOM     46  C   UNL     1      13.631   5.725  -1.990  1.00  0.00     0.049 A 
ATOM     47  H   UNL     1      12.895   7.273  -0.744  1.00  0.00     0.167 HD
ATOM     48  C   UNL     1      10.463  11.096   1.261  1.00  0.00     0.031 A 
ATOM     49  C   UNL     1      14.982   5.658  -1.767  1.00  0.00     0.031 A 
ATOM     50  C   UNL     1      11.883  11.035   1.191  1.00  0.00     0.049 A 
ATOM     51  C   UNL     1      15.263   6.621  -0.694  1.00  0.00     0.074 A 
ATOM     52  C   UNL     1      12.780  11.444   0.240  1.00  0.00     0.029 A 
ATOM     53  N   UNL     1      12.489  10.136   2.038  1.00  0.00    -0.354 N 
ATOM     54  N   UNL     1      14.972   6.446   0.557  1.00  0.00    -0.248 NA
ATOM     55  C   UNL     1      15.892   7.904  -1.037  1.00  0.00     0.031 C 
ATOM     56  C   UNL     1      13.727  10.400   0.233  1.00  0.00     0.029 A 
ATOM     57  C   UNL     1      13.492   9.543   1.317  1.00  0.00     0.049 A 
ATOM     58  H   UNL     1      12.249   9.955   2.975  1.00  0.00     0.167 HD
ATOM     59  C   UNL     1      14.996   7.729   1.038  1.00  0.00     0.074 A 
ATOM     60  C   UNL     1      15.872   8.480   0.162  1.00  0.00     0.031 C 
ATOM     61  C   UNL     1      13.901   8.208   1.684  1.00  0.00     0.031 A 
BRANCH  48  62
ATOM     62  C   UNL     1       9.884  11.884   2.406  1.00  0.00    -0.014 A 
ATOM     63  C   UNL     1      10.691  12.926   2.936  1.00  0.00     0.010 A 
ATOM     64  C   UNL     1       8.803  11.445   3.180  1.00  0.00     0.010 A 
ATOM     65  C   UNL     1      10.522  13.402   4.237  1.00  0.00     0.020 A 
ATOM     66  C   UNL     1       8.602  11.949   4.479  1.00  0.00     0.020 A 
ATOM     67  C   UNL     1       9.496  12.881   5.016  1.00  0.00     0.054 A 
BRANCH  67  68
ATOM     68  S   UNL     1       9.410  13.379   6.758  1.00  0.00     0.124 S 
ATOM     69  O   UNL     1      10.579  12.715   7.327  1.00  0.00    -0.237 OA
ATOM     70  O   UNL     1       9.497  14.836   6.676  1.00  0.00    -0.237 OA
ATOM     71  O   UNL     1       8.116  12.864   7.198  1.00  0.00    -0.744 OA
ENDBRANCH  67  68
ENDBRANCH  48  62
BRANCH  49  72
ATOM     72  C   UNL     1      16.207   4.989  -2.358  1.00  0.00    -0.014 A 
ATOM     73  C   UNL     1      16.231   4.064  -3.406  1.00  0.00     0.010 A 
ATOM     74  C   UNL     1      17.486   5.439  -1.911  1.00  0.00     0.010 A 
ATOM     75  C   UNL     1      17.445   3.743  -4.068  1.00  0.00     0.020 A 
ATOM     76  C   UNL     1      18.679   5.178  -2.586  1.00  0.00     0.020 A 
ATOM     77  C   UNL     1      18.649   4.350  -3.691  1.00  0.00     0.054 A 
BRANCH  77  78
ATOM     78  S   UNL     1      20.144   4.199  -4.712  1.00  0.00     0.124 S 
ATOM     79  O   UNL     1      20.737   2.958  -4.223  1.00  0.00    -0.237 OA
ATOM     80  O   UNL     1      19.606   4.151  -6.070  1.00  0.00    -0.237 OA
ATOM     81  O   UNL     1      20.894   5.415  -4.399  1.00  0.00    -0.744 OA
ENDBRANCH  77  78
ENDBRANCH  49  72
BRANCH  61  82
ATOM     82  C   UNL     1      13.024   7.153   2.355  1.00  0.00    -0.014 A 
ATOM     83  C   UNL     1      13.596   6.266   3.288  1.00  0.00     0.010 A 
ATOM     84  C   UNL     1      11.671   6.939   2.019  1.00  0.00     0.010 A 
ATOM     85  C   UNL     1      12.862   5.210   3.851  1.00  0.00     0.020 A 
ATOM     86  C   UNL     1      10.922   5.882   2.580  1.00  0.00     0.020 A 
ATOM     87  C   UNL     1      11.526   5.023   3.497  1.00  0.00     0.054 A 
BRANCH  87  88
ATOM     88  S   UNL     1      10.604   3.659   4.272  1.00  0.00     0.124 S 
ATOM     89  O   UNL     1      11.308   2.473   3.789  1.00  0.00    -0.237 OA
ATOM     90  O   UNL     1      10.766   3.937   5.698  1.00  0.00    -0.237 OA
ATOM     91  O   UNL     1       9.239   3.818   3.773  1.00  0.00    -0.744 OA
ENDBRANCH  87  88
ENDBRANCH  61  82
ENDBRANCH  35  36
ENDBRANCH  27  30
ENDBRANCH  25  26
ENDBRANCH   1  25
TORSDOF 18
