REMARK SMILES O=C(C[C@H]1CN(S(=O)(=O)c2cc(F)cc(F)c2)CCO1)NCCCNC(=O)c1ccc(-c2c3nc(c(-c4ccc(S(=O)(=O)[O-])cc4)c4ccc([nH]4)c(-c4ccc(S(=O)(=O)[O-])cc4)c4nc(c(-c5ccc(S(=O)(=O)[O-])cc5)c5ccc2[nH]5)C=C4)C=C3)cc1
REMARK SMILES IDX 23 1 22 2 21 3 1 4 2 5 3 7 4 8 5 9 20 10 6 11 19 12 18 13
REMARK SMILES IDX 7 14 8 15 9 16 10 17 11 18 17 19 12 20 15 21 13 22 14 23
REMARK SMILES IDX 16 24 24 25 25 26 26 27 27 29 28 30 29 31 87 32 30 33 86 34
REMARK SMILES IDX 31 35 32 36 33 37 80 38 34 39 85 40 79 41 81 42 35 43 84 44
REMARK SMILES IDX 78 45 77 46 36 48 66 49 47 50 65 51 48 52 51 53 64 54 82 55
REMARK SMILES IDX 49 56 50 57 63 59 83 60 52 61 37 62 38 63 46 64 39 65 45 66
REMARK SMILES IDX 40 67 41 68 42 69 43 70 44 71 67 72 68 73 76 74 69 75 75 76
REMARK SMILES IDX 70 77 71 78 72 79 73 80 74 81 53 82 54 83 62 84 55 85 61 86
REMARK SMILES IDX 56 87 57 88 58 89 59 90 60 91
REMARK H PARENT 21 6 25 28 81 47 51 58
REMARK Flexibility Score: inf
ROOT
ATOM      1  C   UNL     1       8.843   1.388   0.659  1.00  0.00     0.042 C 
ENDROOT
BRANCH   1   2
ATOM      2  C   UNL     1       7.686   0.359   0.846  1.00  0.00     0.117 C 
BRANCH   2   3
ATOM      3  N   UNL     1       6.603   0.542  -0.113  1.00  0.00    -0.356 N 
ATOM      4  O   UNL     1       5.270  -1.304   0.150  1.00  0.00    -0.275 OA
ATOM      5  C   UNL     1       5.437  -0.180  -0.306  1.00  0.00     0.222 C 
ATOM      6  H   UNL     1       6.720   1.305  -0.723  1.00  0.00     0.163 HD
BRANCH   5   7
ATOM      7  C   UNL     1       4.356   0.513  -1.193  1.00  0.00     0.133 C 
BRANCH   7   8
ATOM      8  C   UNL     1       3.979   1.935  -0.744  1.00  0.00     0.142 C 
ATOM      9  C   UNL     1       5.147   2.686  -0.175  1.00  0.00     0.135 C 
ATOM     10  O   UNL     1       3.301   2.745  -1.724  1.00  0.00    -0.375 OA
ATOM     11  N   UNL     1       6.139   3.174  -1.273  1.00  0.00    -0.193 NA
ATOM     12  C   UNL     1       3.952   3.930  -2.264  1.00  0.00     0.177 C 
ATOM     13  C   UNL     1       5.336   4.391  -1.721  1.00  0.00     0.131 C 
BRANCH  11  14
ATOM     14  S   UNL     1       6.772   2.456  -2.830  1.00  0.00     0.243 S 
ATOM     15  O   UNL     1       5.652   1.977  -3.612  1.00  0.00    -0.207 OA
ATOM     16  O   UNL     1       7.603   3.514  -3.363  1.00  0.00    -0.207 OA
BRANCH  14  17
ATOM     17  C   UNL     1       7.914   1.050  -2.689  1.00  0.00     0.088 A 
ATOM     18  C   UNL     1       7.470  -0.283  -2.717  1.00  0.00     0.061 A 
ATOM     19  C   UNL     1       9.300   1.267  -2.751  1.00  0.00     0.061 A 
ATOM     20  C   UNL     1       8.375  -1.336  -2.527  1.00  0.00     0.127 A 
ATOM     21  C   UNL     1      10.190   0.190  -2.604  1.00  0.00     0.127 A 
ATOM     22  F   UNL     1       7.915  -2.589  -2.405  1.00  0.00    -0.207 F 
ATOM     23  C   UNL     1       9.737  -1.109  -2.436  1.00  0.00     0.078 A 
ATOM     24  F   UNL     1      11.507   0.425  -2.570  1.00  0.00    -0.207 F 
ENDBRANCH  14  17
ENDBRANCH  11  14
ENDBRANCH   7   8
ENDBRANCH   5   7
ENDBRANCH   2   3
ENDBRANCH   1   2
BRANCH   1  25
ATOM     25  C   UNL     1       8.626   2.898   0.915  1.00  0.00     0.118 C 
BRANCH  25  26
ATOM     26  N   UNL     1       8.993   3.279   2.261  1.00  0.00    -0.352 N 
ATOM     27  C   UNL     1       9.966   4.106   2.763  1.00  0.00     0.251 C 
ATOM     28  H   UNL     1       8.433   2.861   2.955  1.00  0.00     0.163 HD
ATOM     29  O   UNL     1      10.180   4.022   3.974  1.00  0.00    -0.269 OA
BRANCH  27  30
ATOM     30  C   UNL     1      10.768   5.089   1.971  1.00  0.00     0.039 A 
ATOM     31  C   UNL     1      12.087   5.308   2.399  1.00  0.00     0.014 A 
ATOM     32  C   UNL     1      10.250   5.930   0.980  1.00  0.00     0.014 A 
ATOM     33  C   UNL     1      12.866   6.347   1.866  1.00  0.00     0.010 A 
ATOM     34  C   UNL     1      11.051   6.956   0.418  1.00  0.00     0.010 A 
ATOM     35  C   UNL     1      12.365   7.191   0.863  1.00  0.00    -0.014 A 
BRANCH  35  36
ATOM     36  C   UNL     1      13.237   8.285   0.313  1.00  0.00     0.031 A 
ATOM     37  C   UNL     1      12.920   9.750   0.532  1.00  0.00     0.074 A 
ATOM     38  C   UNL     1      14.364   7.969  -0.363  1.00  0.00     0.049 A 
ATOM     39  N   UNL     1      13.618  10.809   0.193  1.00  0.00    -0.248 NA
ATOM     40  C   UNL     1      11.654  10.067   1.207  1.00  0.00     0.031 C 
ATOM     41  C   UNL     1      14.802   6.607  -0.675  1.00  0.00     0.029 A 
ATOM     42  N   UNL     1      15.356   8.762  -0.895  1.00  0.00    -0.354 N 
ATOM     43  C   UNL     1      12.876  11.915   0.603  1.00  0.00     0.074 A 
ATOM     44  C   UNL     1      11.654  11.394   1.181  1.00  0.00     0.031 C 
ATOM     45  C   UNL     1      15.985   6.657  -1.308  1.00  0.00     0.029 A 
ATOM     46  C   UNL     1      16.381   8.053  -1.481  1.00  0.00     0.049 A 
ATOM     47  H   UNL     1      15.335   9.746  -0.860  1.00  0.00     0.167 HD
ATOM     48  C   UNL     1      13.181  13.237   0.523  1.00  0.00     0.031 A 
ATOM     49  C   UNL     1      17.515   8.462  -2.086  1.00  0.00     0.031 A 
ATOM     50  C   UNL     1      14.395  13.768  -0.048  1.00  0.00     0.049 A 
ATOM     51  C   UNL     1      17.831   9.932  -2.166  1.00  0.00     0.074 A 
ATOM     52  C   UNL     1      14.804  15.091  -0.128  1.00  0.00     0.029 A 
ATOM     53  N   UNL     1      15.395  13.012  -0.641  1.00  0.00    -0.354 N 
ATOM     54  N   UNL     1      17.138  10.950  -1.716  1.00  0.00    -0.248 NA
ATOM     55  C   UNL     1      19.094  10.306  -2.821  1.00  0.00     0.031 C 
ATOM     56  C   UNL     1      16.022  15.138  -0.816  1.00  0.00     0.029 A 
ATOM     57  C   UNL     1      16.406  13.840  -1.108  1.00  0.00     0.049 A 
ATOM     58  H   UNL     1      15.389  12.030  -0.719  1.00  0.00     0.167 HD
ATOM     59  C   UNL     1      17.894  12.082  -2.009  1.00  0.00     0.074 A 
ATOM     60  C   UNL     1      19.105  11.621  -2.655  1.00  0.00     0.031 C 
ATOM     61  C   UNL     1      17.607  13.384  -1.762  1.00  0.00     0.031 A 
BRANCH  48  62
ATOM     62  C   UNL     1      12.170  14.225   1.062  1.00  0.00    -0.014 A 
ATOM     63  C   UNL     1      11.925  14.338   2.443  1.00  0.00     0.010 A 
ATOM     64  C   UNL     1      11.498  15.094   0.181  1.00  0.00     0.010 A 
ATOM     65  C   UNL     1      10.992  15.262   2.927  1.00  0.00     0.020 A 
ATOM     66  C   UNL     1      10.587  16.041   0.663  1.00  0.00     0.020 A 
ATOM     67  C   UNL     1      10.325  16.104   2.033  1.00  0.00     0.054 A 
BRANCH  67  68
ATOM     68  S   UNL     1       9.125  17.297   2.690  1.00  0.00     0.124 S 
ATOM     69  O   UNL     1       8.015  16.427   3.072  1.00  0.00    -0.237 OA
ATOM     70  O   UNL     1       9.854  17.907   3.799  1.00  0.00    -0.237 OA
ATOM     71  O   UNL     1       8.860  18.183   1.559  1.00  0.00    -0.744 OA
ENDBRANCH  67  68
ENDBRANCH  48  62
BRANCH  49  72
ATOM     72  C   UNL     1      18.458   7.456  -2.656  1.00  0.00    -0.014 A 
ATOM     73  C   UNL     1      19.716   7.234  -2.068  1.00  0.00     0.010 A 
ATOM     74  C   UNL     1      18.096   6.710  -3.793  1.00  0.00     0.010 A 
ATOM     75  C   UNL     1      20.599   6.296  -2.614  1.00  0.00     0.020 A 
ATOM     76  C   UNL     1      18.963   5.750  -4.323  1.00  0.00     0.020 A 
ATOM     77  C   UNL     1      20.215   5.557  -3.736  1.00  0.00     0.054 A 
BRANCH  77  78
ATOM     78  S   UNL     1      21.352   4.304  -4.391  1.00  0.00     0.124 S 
ATOM     79  O   UNL     1      22.375   5.125  -5.031  1.00  0.00    -0.237 OA
ATOM     80  O   UNL     1      21.771   3.596  -3.184  1.00  0.00    -0.237 OA
ATOM     81  O   UNL     1      20.515   3.525  -5.301  1.00  0.00    -0.744 OA
ENDBRANCH  77  78
ENDBRANCH  49  72
BRANCH  61  82
ATOM     82  C   UNL     1      18.640  14.409  -2.162  1.00  0.00    -0.014 A 
ATOM     83  C   UNL     1      18.907  14.695  -3.513  1.00  0.00     0.010 A 
ATOM     84  C   UNL     1      19.346  15.110  -1.165  1.00  0.00     0.010 A 
ATOM     85  C   UNL     1      19.896  15.622  -3.860  1.00  0.00     0.020 A 
ATOM     86  C   UNL     1      20.313  16.059  -1.508  1.00  0.00     0.020 A 
ATOM     87  C   UNL     1      20.597  16.294  -2.854  1.00  0.00     0.054 A 
BRANCH  87  88
ATOM     88  S   UNL     1      21.870  17.497  -3.328  1.00  0.00     0.124 S 
ATOM     89  O   UNL     1      22.957  16.631  -3.774  1.00  0.00    -0.237 OA
ATOM     90  O   UNL     1      21.209  18.268  -4.378  1.00  0.00    -0.237 OA
ATOM     91  O   UNL     1      22.128  18.234  -2.092  1.00  0.00    -0.744 OA
ENDBRANCH  87  88
ENDBRANCH  61  82
ENDBRANCH  35  36
ENDBRANCH  27  30
ENDBRANCH  25  26
ENDBRANCH   1  25
TORSDOF 16
