REMARK SMILES N#CCOc1ccc2[nH]cc([C@H](C(=O)NCCCNC(=O)c3ccc(-c4c5nc(c(-c6ccc(S(=O)(=O)[O-])cc6)c6ccc([nH]6)c(-c6ccc(S(=O)(=O)[O-])cc6)c6nc(c(-c7ccc(S(=O)(=O)[O-])cc7)c7ccc4[nH]7)C=C6)C=C5)cc3)[NH+]3CC[NH+]([C@@H]4CCS(=O)(=O)C4)CC3)c2c1
REMARK SMILES IDX 16 1 15 2 13 3 14 4 12 6 11 7 5 8 6 9 96 10 7 11 95 12 8 13
REMARK SMILES IDX 9 14 10 15 4 17 3 18 2 19 1 20 82 21 83 22 94 23 84 25 93 26
REMARK SMILES IDX 85 27 86 29 87 30 92 31 88 32 89 33 90 34 91 35 17 36 18 37
REMARK SMILES IDX 19 38 20 39 21 41 22 42 23 43 81 44 24 45 80 46 25 47 26 48
REMARK SMILES IDX 27 49 74 50 28 51 79 52 73 53 75 54 29 55 78 56 72 57 71 58
REMARK SMILES IDX 30 60 60 61 41 62 59 63 42 64 45 65 58 66 76 67 43 68 44 69
REMARK SMILES IDX 57 71 77 72 46 73 31 74 32 75 40 76 33 77 39 78 34 79 35 80
REMARK SMILES IDX 36 81 37 82 38 83 61 84 62 85 70 86 63 87 69 88 64 89 65 90
REMARK SMILES IDX 66 91 67 92 68 93 47 94 48 95 56 96 49 97 55 98 50 99 51 100
REMARK SMILES IDX 52 101 53 102 54 103
REMARK H PARENT 15 5 9 16 82 24 85 28 19 40 75 59 45 70
REMARK Flexibility Score: inf
ROOT
ATOM      1  C   UNL     1       5.427  -1.109   3.063  1.00  0.00     0.118 C 
ENDROOT
BRANCH   1   2
ATOM      2  N   UNL     1       4.796  -0.278   4.081  1.00  0.00    -0.351 N 
ATOM      3  C   UNL     1       5.166   0.106   5.344  1.00  0.00     0.283 C 
ATOM      4  O   UNL     1       4.251   0.597   6.011  1.00  0.00    -0.268 OA
ATOM      5  H   UNL     1       3.922   0.082   3.804  1.00  0.00     0.163 HD
BRANCH   3   6
ATOM      6  C   UNL     1       6.583  -0.174   5.895  1.00  0.00     0.308 C 
BRANCH   6   7
ATOM      7  C   UNL     1       7.344   0.983   6.531  1.00  0.00     0.045 A 
ATOM      8  C   UNL     1       5.547   3.950   8.201  1.00  0.00     0.121 A 
ATOM      9  C   UNL     1       6.677   4.523   8.764  1.00  0.00     0.048 A 
ATOM     10  C   UNL     1       5.639   2.802   7.413  1.00  0.00     0.057 A 
ATOM     11  C   UNL     1       7.937   3.974   8.521  1.00  0.00     0.030 A 
ATOM     12  C   UNL     1       6.890   2.193   7.175  1.00  0.00     0.013 A 
ATOM     13  C   UNL     1       8.012   2.814   7.737  1.00  0.00     0.046 A 
ATOM     14  N   UNL     1       9.108   2.056   7.410  1.00  0.00    -0.361 N 
ATOM     15  C   UNL     1       8.725   0.963   6.693  1.00  0.00     0.094 A 
ATOM     16  H   UNL     1      10.037   2.271   7.658  1.00  0.00     0.166 HD
BRANCH   8  17
ATOM     17  O   UNL     1       4.294   4.404   8.516  1.00  0.00    -0.479 OA
BRANCH  17  18
ATOM     18  C   UNL     1       3.943   5.578   7.769  1.00  0.00     0.349 C 
BRANCH  18  19
ATOM     19  C   UNL     1       4.277   6.802   8.512  1.00  0.00     0.104 C 
ATOM     20  N   UNL     1       4.558   7.766   9.101  1.00  0.00    -0.195 NA
ENDBRANCH  18  19
ENDBRANCH  17  18
ENDBRANCH   8  17
ENDBRANCH   6   7
BRANCH   6  21
ATOM     21  N   UNL     1       6.652  -1.349   6.804  1.00  0.00    -0.312 N 
ATOM     22  C   UNL     1       6.207  -1.205   8.201  1.00  0.00     0.325 C 
ATOM     23  C   UNL     1       6.111  -2.562   6.206  1.00  0.00     0.325 C 
ATOM     24  H   UNL     1       7.664  -1.426   6.908  1.00  0.00     0.349 HD
ATOM     25  C   UNL     1       4.778  -1.687   8.574  1.00  0.00     0.324 C 
ATOM     26  C   UNL     1       4.606  -2.777   6.453  1.00  0.00     0.324 C 
ATOM     27  N   UNL     1       4.269  -2.876   7.866  1.00  0.00    -0.322 N 
ATOM     28  H   UNL     1       3.251  -2.854   7.929  1.00  0.00     0.348 HD
BRANCH  27  29
ATOM     29  C   UNL     1       4.423  -4.179   8.523  1.00  0.00     0.200 C 
ATOM     30  C   UNL     1       5.818  -4.810   8.708  1.00  0.00     0.082 C 
ATOM     31  C   UNL     1       3.534  -5.267   7.889  1.00  0.00     0.201 C 
ATOM     32  C   UNL     1       6.136  -5.778   7.572  1.00  0.00     0.143 C 
ATOM     33  S   UNL     1       4.587  -6.295   6.882  1.00  0.00     0.156 S 
ATOM     34  O   UNL     1       4.538  -5.845   5.505  1.00  0.00    -0.229 OA
ATOM     35  O   UNL     1       4.365  -7.679   7.241  1.00  0.00    -0.229 OA
ENDBRANCH  27  29
ENDBRANCH   6  21
ENDBRANCH   3   6
ENDBRANCH   1   2
BRANCH   1  36
ATOM     36  C   UNL     1       4.768  -2.489   2.902  1.00  0.00     0.042 C 
BRANCH  36  37
ATOM     37  C   UNL     1       3.245  -2.486   2.834  1.00  0.00     0.118 C 
BRANCH  37  38
ATOM     38  N   UNL     1       2.766  -1.804   1.646  1.00  0.00    -0.352 N 
ATOM     39  C   UNL     1       2.155  -2.325   0.532  1.00  0.00     0.251 C 
ATOM     40  H   UNL     1       2.897  -0.829   1.637  1.00  0.00     0.163 HD
ATOM     41  O   UNL     1       2.095  -1.643  -0.488  1.00  0.00    -0.269 OA
BRANCH  39  42
ATOM     42  C   UNL     1       1.583  -3.691   0.549  1.00  0.00     0.039 A 
ATOM     43  C   UNL     1       1.736  -4.494  -0.584  1.00  0.00     0.014 A 
ATOM     44  C   UNL     1       0.860  -4.167   1.647  1.00  0.00     0.014 A 
ATOM     45  C   UNL     1       1.202  -5.785  -0.598  1.00  0.00     0.010 A 
ATOM     46  C   UNL     1       0.398  -5.483   1.662  1.00  0.00     0.010 A 
ATOM     47  C   UNL     1       0.554  -6.305   0.536  1.00  0.00    -0.014 A 
BRANCH  47  48
ATOM     48  C   UNL     1       0.057  -7.707   0.552  1.00  0.00     0.031 A 
ATOM     49  C   UNL     1      -1.411  -8.003   0.709  1.00  0.00     0.074 A 
ATOM     50  C   UNL     1       0.940  -8.722   0.469  1.00  0.00     0.049 A 
ATOM     51  N   UNL     1      -2.017  -9.163   0.750  1.00  0.00    -0.248 NA
ATOM     52  C   UNL     1      -2.312  -6.851   0.860  1.00  0.00     0.031 C 
ATOM     53  C   UNL     1       2.393  -8.569   0.362  1.00  0.00     0.029 A 
ATOM     54  N   UNL     1       0.750 -10.082   0.466  1.00  0.00    -0.354 N 
ATOM     55  C   UNL     1      -3.364  -8.882   0.951  1.00  0.00     0.074 A 
ATOM     56  C   UNL     1      -3.479  -7.445   1.069  1.00  0.00     0.031 C 
ATOM     57  C   UNL     1       2.958  -9.782   0.276  1.00  0.00     0.029 A 
ATOM     58  C   UNL     1       1.918 -10.801   0.375  1.00  0.00     0.049 A 
ATOM     59  H   UNL     1      -0.139 -10.502   0.523  1.00  0.00     0.167 HD
ATOM     60  C   UNL     1      -4.410  -9.741   1.022  1.00  0.00     0.031 A 
ATOM     61  C   UNL     1       2.138 -12.131   0.390  1.00  0.00     0.031 A 
ATOM     62  C   UNL     1      -4.285 -11.173   0.916  1.00  0.00     0.049 A 
ATOM     63  C   UNL     1       0.965 -13.066   0.485  1.00  0.00     0.074 A 
ATOM     64  C   UNL     1      -5.291 -12.124   0.907  1.00  0.00     0.029 A 
ATOM     65  N   UNL     1      -3.085 -11.863   0.824  1.00  0.00    -0.354 N 
ATOM     66  N   UNL     1      -0.311 -12.779   0.580  1.00  0.00    -0.248 NA
ATOM     67  C   UNL     1       1.261 -14.505   0.461  1.00  0.00     0.031 C 
ATOM     68  C   UNL     1      -4.696 -13.389   0.896  1.00  0.00     0.029 A 
ATOM     69  C   UNL     1      -3.322 -13.229   0.805  1.00  0.00     0.049 A 
ATOM     70  H   UNL     1      -2.195 -11.444   0.779  1.00  0.00     0.167 HD
ATOM     71  C   UNL     1      -0.974 -14.002   0.606  1.00  0.00     0.074 A 
ATOM     72  C   UNL     1       0.042 -15.028   0.494  1.00  0.00     0.031 C 
ATOM     73  C   UNL     1      -2.304 -14.248   0.710  1.00  0.00     0.031 A 
BRANCH  60  74
ATOM     74  C   UNL     1      -5.781  -9.156   1.265  1.00  0.00    -0.014 A 
ATOM     75  C   UNL     1      -6.416  -8.336   0.313  1.00  0.00     0.010 A 
ATOM     76  C   UNL     1      -6.461  -9.459   2.460  1.00  0.00     0.010 A 
ATOM     77  C   UNL     1      -7.673  -7.784   0.576  1.00  0.00     0.020 A 
ATOM     78  C   UNL     1      -7.735  -8.940   2.711  1.00  0.00     0.020 A 
ATOM     79  C   UNL     1      -8.323  -8.087   1.777  1.00  0.00     0.054 A 
BRANCH  79  80
ATOM     80  S   UNL     1      -9.954  -7.358   2.091  1.00  0.00     0.124 S 
ATOM     81  O   UNL     1      -9.621  -5.949   2.286  1.00  0.00    -0.237 OA
ATOM     82  O   UNL     1     -10.683  -7.666   0.863  1.00  0.00    -0.237 OA
ATOM     83  O   UNL     1     -10.424  -8.056   3.285  1.00  0.00    -0.744 OA
ENDBRANCH  79  80
ENDBRANCH  60  74
BRANCH  61  84
ATOM     84  C   UNL     1       3.535 -12.642   0.319  1.00  0.00    -0.014 A 
ATOM     85  C   UNL     1       4.005 -13.309  -0.826  1.00  0.00     0.010 A 
ATOM     86  C   UNL     1       4.422 -12.415   1.388  1.00  0.00     0.010 A 
ATOM     87  C   UNL     1       5.335 -13.738  -0.899  1.00  0.00     0.020 A 
ATOM     88  C   UNL     1       5.759 -12.812   1.305  1.00  0.00     0.020 A 
ATOM     89  C   UNL     1       6.206 -13.476   0.162  1.00  0.00     0.054 A 
BRANCH  89  90
ATOM     90  S   UNL     1       7.947 -13.963   0.005  1.00  0.00     0.124 S 
ATOM     91  O   UNL     1       7.864 -15.419   0.065  1.00  0.00    -0.237 OA
ATOM     92  O   UNL     1       8.313 -13.403  -1.293  1.00  0.00    -0.237 OA
ATOM     93  O   UNL     1       8.588 -13.325   1.153  1.00  0.00    -0.744 OA
ENDBRANCH  89  90
ENDBRANCH  61  84
BRANCH  73  94
ATOM     94  C   UNL     1      -2.750 -15.689   0.680  1.00  0.00    -0.014 A 
ATOM     95  C   UNL     1      -2.465 -16.572   1.737  1.00  0.00     0.010 A 
ATOM     96  C   UNL     1      -3.516 -16.152  -0.407  1.00  0.00     0.010 A 
ATOM     97  C   UNL     1      -2.904 -17.898   1.690  1.00  0.00     0.020 A 
ATOM     98  C   UNL     1      -3.989 -17.466  -0.441  1.00  0.00     0.020 A 
ATOM     99  C   UNL     1      -3.666 -18.336   0.602  1.00  0.00     0.054 A 
BRANCH  99 100
ATOM    100  S   UNL     1      -4.258 -20.050   0.586  1.00  0.00     0.124 S 
ATOM    101  O   UNL     1      -3.021 -20.798   0.381  1.00  0.00    -0.237 OA
ATOM    102  O   UNL     1      -4.866 -20.190   1.907  1.00  0.00    -0.237 OA
ATOM    103  O   UNL     1      -5.197 -20.084  -0.533  1.00  0.00    -0.744 OA
ENDBRANCH  99 100
ENDBRANCH  73  94
ENDBRANCH  47  48
ENDBRANCH  39  42
ENDBRANCH  37  38
ENDBRANCH  36  37
ENDBRANCH   1  36
TORSDOF 19
