REMARK SMILES [NH3+][C@](CCCP(=O)([O-])[O-])(Cc1ccccc1)C(=O)NCCCNC(=O)c1ccc(-c2c3nc(c(-c4ccc(S(=O)(=O)[O-])cc4)c4ccc([nH]4)c(-c4ccc(S(=O)(=O)[O-])cc4)c4nc(c(-c5ccc(S(=O)(=O)[O-])cc5)c5ccc2[nH]5)C=C4)C=C3)cc1
REMARK SMILES IDX 20 1 19 2 17 3 18 4 2 6 1 7 10 11 11 12 12 13 16 14 13 15
REMARK SMILES IDX 15 16 14 17 3 18 4 19 5 20 6 21 7 22 8 23 9 24 21 25 22 26
REMARK SMILES IDX 23 27 24 28 25 30 26 31 27 32 85 33 28 34 84 35 29 36 30 37
REMARK SMILES IDX 31 38 78 39 32 40 83 41 77 42 79 43 33 44 82 45 76 46 75 47
REMARK SMILES IDX 34 49 64 50 45 51 63 52 46 53 49 54 62 55 80 56 47 57 48 58
REMARK SMILES IDX 61 60 81 61 50 62 35 63 36 64 44 65 37 66 43 67 38 68 39 69
REMARK SMILES IDX 40 70 41 71 42 72 65 73 66 74 74 75 67 76 73 77 68 78 69 79
REMARK SMILES IDX 70 80 71 81 72 82 51 83 52 84 60 85 53 86 59 87 54 88 55 89
REMARK SMILES IDX 56 90 57 91 58 92
REMARK H PARENT 19 5 1 8 1 9 1 10 23 29 79 48 49 59
REMARK Flexibility Score: inf
ROOT
ATOM      1  C   UNL     1      -0.113   3.993   2.130  1.00  0.00     0.118 C 
ENDROOT
BRANCH   1   2
ATOM      2  N   UNL     1       0.647   2.825   2.546  1.00  0.00    -0.351 N 
ATOM      3  C   UNL     1       0.970   1.663   1.907  1.00  0.00     0.281 C 
ATOM      4  O   UNL     1       1.650   0.870   2.566  1.00  0.00    -0.268 OA
ATOM      5  H   UNL     1       0.995   2.883   3.465  1.00  0.00     0.163 HD
BRANCH   3   6
ATOM      6  C   UNL     1       0.498   1.349   0.440  1.00  0.00     0.178 C 
BRANCH   6   7
ATOM      7  N   UNL     1       0.669   2.583  -0.370  1.00  0.00    -0.345 N 
ATOM      8  H   UNL     1       0.092   3.328   0.019  1.00  0.00     0.345 HD
ATOM      9  H   UNL     1       0.384   2.400  -1.332  1.00  0.00     0.345 HD
ATOM     10  H   UNL     1       1.648   2.867  -0.354  1.00  0.00     0.345 HD
ENDBRANCH   6   7
BRANCH   6  11
ATOM     11  C   UNL     1      -1.024   0.995   0.448  1.00  0.00     0.114 C 
BRANCH  11  12
ATOM     12  C   UNL     1      -1.448  -0.154   1.345  1.00  0.00    -0.041 A 
ATOM     13  C   UNL     1      -1.743   0.065   2.698  1.00  0.00     0.004 A 
ATOM     14  C   UNL     1      -1.537  -1.461   0.846  1.00  0.00     0.004 A 
ATOM     15  C   UNL     1      -2.070  -0.999   3.541  1.00  0.00     0.000 A 
ATOM     16  C   UNL     1      -1.852  -2.527   1.691  1.00  0.00     0.000 A 
ATOM     17  C   UNL     1      -2.111  -2.297   3.040  1.00  0.00     0.000 A 
ENDBRANCH  11  12
ENDBRANCH   6  11
BRANCH   6  18
ATOM     18  C   UNL     1       1.378   0.181  -0.140  1.00  0.00     0.080 C 
BRANCH  18  19
ATOM     19  C   UNL     1       1.878   0.259  -1.596  1.00  0.00     0.012 C 
BRANCH  19  20
ATOM     20  C   UNL     1       3.098   1.153  -1.832  1.00  0.00     0.040 C 
BRANCH  20  21
ATOM     21  P   UNL     1       4.650   0.592  -1.157  1.00  0.00    -0.067 P 
ATOM     22  O   UNL     1       5.178  -0.707  -1.659  1.00  0.00    -0.357 OA
ATOM     23  O   UNL     1       5.659   1.823  -1.356  1.00  0.00    -0.811 OA
ATOM     24  O   UNL     1       4.515   0.644   0.432  1.00  0.00    -0.811 OA
ENDBRANCH  20  21
ENDBRANCH  19  20
ENDBRANCH  18  19
ENDBRANCH   6  18
ENDBRANCH   3   6
ENDBRANCH   1   2
BRANCH   1  25
ATOM     25  C   UNL     1      -1.368   4.196   2.964  1.00  0.00     0.042 C 
BRANCH  25  26
ATOM     26  C   UNL     1      -1.100   4.366   4.451  1.00  0.00     0.118 C 
BRANCH  26  27
ATOM     27  N   UNL     1      -0.366   5.590   4.743  1.00  0.00    -0.352 N 
ATOM     28  C   UNL     1      -0.771   6.705   5.437  1.00  0.00     0.251 C 
ATOM     29  H   UNL     1       0.554   5.623   4.393  1.00  0.00     0.163 HD
ATOM     30  O   UNL     1      -0.103   7.732   5.385  1.00  0.00    -0.269 OA
BRANCH  28  31
ATOM     31  C   UNL     1      -2.020   6.664   6.228  1.00  0.00     0.039 A 
ATOM     32  C   UNL     1      -2.898   7.748   6.172  1.00  0.00     0.014 A 
ATOM     33  C   UNL     1      -2.322   5.556   7.025  1.00  0.00     0.014 A 
ATOM     34  C   UNL     1      -4.109   7.691   6.866  1.00  0.00     0.010 A 
ATOM     35  C   UNL     1      -3.565   5.463   7.639  1.00  0.00     0.010 A 
ATOM     36  C   UNL     1      -4.468   6.534   7.577  1.00  0.00    -0.014 A 
BRANCH  36  37
ATOM     37  C   UNL     1      -5.775   6.426   8.274  1.00  0.00     0.031 A 
ATOM     38  C   UNL     1      -5.819   6.252   9.769  1.00  0.00     0.074 A 
ATOM     39  C   UNL     1      -6.917   6.418   7.558  1.00  0.00     0.049 A 
ATOM     40  N   UNL     1      -6.854   6.077  10.549  1.00  0.00    -0.248 NA
ATOM     41  C   UNL     1      -4.528   6.246  10.478  1.00  0.00     0.031 C 
ATOM     42  C   UNL     1      -7.005   6.533   6.100  1.00  0.00     0.029 A 
ATOM     43  N   UNL     1      -8.224   6.300   7.959  1.00  0.00    -0.354 N 
ATOM     44  C   UNL     1      -6.340   5.921  11.831  1.00  0.00     0.074 A 
ATOM     45  C   UNL     1      -4.900   5.968  11.719  1.00  0.00     0.031 C 
ATOM     46  C   UNL     1      -8.297   6.511   5.734  1.00  0.00     0.029 A 
ATOM     47  C   UNL     1      -9.126   6.336   6.922  1.00  0.00     0.049 A 
ATOM     48  H   UNL     1      -8.491   6.199   8.902  1.00  0.00     0.167 HD
ATOM     49  C   UNL     1      -7.007   5.773  13.001  1.00  0.00     0.031 A 
ATOM     50  C   UNL     1     -10.470   6.234   6.925  1.00  0.00     0.031 A 
ATOM     51  C   UNL     1      -8.441   5.742  13.111  1.00  0.00     0.049 A 
ATOM     52  C   UNL     1     -11.188   6.066   8.236  1.00  0.00     0.074 A 
ATOM     53  C   UNL     1      -9.214   5.655  14.255  1.00  0.00     0.029 A 
ATOM     54  N   UNL     1      -9.318   5.795  12.038  1.00  0.00    -0.354 N 
ATOM     55  N   UNL     1     -10.686   5.987   9.445  1.00  0.00    -0.248 NA
ATOM     56  C   UNL     1     -12.654   5.986   8.183  1.00  0.00     0.031 C 
ATOM     57  C   UNL     1     -10.557   5.603  13.871  1.00  0.00     0.029 A 
ATOM     58  C   UNL     1     -10.624   5.719  12.491  1.00  0.00     0.049 A 
ATOM     59  H   UNL     1      -9.051   5.875  11.094  1.00  0.00     0.167 HD
ATOM     60  C   UNL     1     -11.777   5.876  10.300  1.00  0.00     0.074 A 
ATOM     61  C   UNL     1     -12.964   5.913   9.470  1.00  0.00     0.031 C 
ATOM     62  C   UNL     1     -11.795   5.756  11.651  1.00  0.00     0.031 A 
BRANCH  49  63
ATOM     63  C   UNL     1      -6.186   5.631  14.257  1.00  0.00    -0.014 A 
ATOM     64  C   UNL     1      -5.442   6.711  14.767  1.00  0.00     0.010 A 
ATOM     65  C   UNL     1      -6.185   4.411  14.957  1.00  0.00     0.010 A 
ATOM     66  C   UNL     1      -4.678   6.561  15.926  1.00  0.00     0.020 A 
ATOM     67  C   UNL     1      -5.446   4.266  16.135  1.00  0.00     0.020 A 
ATOM     68  C   UNL     1      -4.682   5.337  16.602  1.00  0.00     0.054 A 
BRANCH  68  69
ATOM     69  S   UNL     1      -3.696   5.178  18.116  1.00  0.00     0.124 S 
ATOM     70  O   UNL     1      -2.335   5.140  17.585  1.00  0.00    -0.237 OA
ATOM     71  O   UNL     1      -4.047   6.387  18.856  1.00  0.00    -0.237 OA
ATOM     72  O   UNL     1      -4.168   3.929  18.708  1.00  0.00    -0.744 OA
ENDBRANCH  68  69
ENDBRANCH  49  63
BRANCH  50  73
ATOM     73  C   UNL     1     -11.223   6.307   5.643  1.00  0.00    -0.014 A 
ATOM     74  C   UNL     1     -12.013   7.430   5.343  1.00  0.00     0.010 A 
ATOM     75  C   UNL     1     -11.139   5.261   4.706  1.00  0.00     0.010 A 
ATOM     76  C   UNL     1     -12.720   7.499   4.138  1.00  0.00     0.020 A 
ATOM     77  C   UNL     1     -11.822   5.338   3.488  1.00  0.00     0.020 A 
ATOM     78  C   UNL     1     -12.617   6.452   3.217  1.00  0.00     0.054 A 
BRANCH  78  79
ATOM     79  S   UNL     1     -13.500   6.588   1.637  1.00  0.00     0.124 S 
ATOM     80  O   UNL     1     -14.884   6.370   2.043  1.00  0.00    -0.237 OA
ATOM     81  O   UNL     1     -13.171   7.945   1.208  1.00  0.00    -0.237 OA
ATOM     82  O   UNL     1     -12.909   5.527   0.824  1.00  0.00    -0.744 OA
ENDBRANCH  78  79
ENDBRANCH  50  73
BRANCH  62  83
ATOM     83  C   UNL     1     -13.140   5.691  12.324  1.00  0.00    -0.014 A 
ATOM     84  C   UNL     1     -13.951   4.548  12.225  1.00  0.00     0.010 A 
ATOM     85  C   UNL     1     -13.571   6.772  13.115  1.00  0.00     0.010 A 
ATOM     86  C   UNL     1     -15.185   4.500  12.880  1.00  0.00     0.020 A 
ATOM     87  C   UNL     1     -14.790   6.716  13.794  1.00  0.00     0.020 A 
ATOM     88  C   UNL     1     -15.596   5.585  13.661  1.00  0.00     0.054 A 
BRANCH  88  89
ATOM     89  S   UNL     1     -17.181   5.480  14.537  1.00  0.00     0.124 S 
ATOM     90  O   UNL     1     -18.141   5.637  13.447  1.00  0.00    -0.237 OA
ATOM     91  O   UNL     1     -17.127   4.150  15.139  1.00  0.00    -0.237 OA
ATOM     92  O   UNL     1     -17.127   6.590  15.485  1.00  0.00    -0.744 OA
ENDBRANCH  88  89
ENDBRANCH  62  83
ENDBRANCH  36  37
ENDBRANCH  28  31
ENDBRANCH  26  27
ENDBRANCH  25  26
ENDBRANCH   1  25
TORSDOF 20
