REMARK SMILES CC1(C)[C@H](C(=O)N(Cc2ccccc2)Cc2ccccc2)CC[C@@]1(C)C(=O)NCCCNC(=O)c1ccc(-c2c3nc(c(-c4ccc(S(=O)(=O)[O-])cc4)c4ccc([nH]4)c(-c4ccc(S(=O)(=O)[O-])cc4)c4nc(c(-c5ccc(S(=O)(=O)[O-])cc5)c5ccc2[nH]5)C=C4)C=C3)cc1
REMARK SMILES IDX 30 1 29 2 28 3 26 4 27 5 24 7 1 8 2 9 3 10 4 11 22 12 23 13
REMARK SMILES IDX 25 14 5 15 6 16 7 17 8 18 9 19 10 20 14 21 11 22 13 23 12 24
REMARK SMILES IDX 15 25 16 26 17 27 21 28 18 29 20 30 19 31 31 32 32 33 33 34
REMARK SMILES IDX 34 36 35 37 36 38 94 39 37 40 93 41 38 42 39 43 40 44 87 45
REMARK SMILES IDX 41 46 92 47 86 48 88 49 42 50 91 51 85 52 84 53 43 55 73 56
REMARK SMILES IDX 54 57 72 58 55 59 58 60 71 61 89 62 56 63 57 64 70 66 90 67
REMARK SMILES IDX 59 68 44 69 45 70 53 71 46 72 52 73 47 74 48 75 49 76 50 77
REMARK SMILES IDX 51 78 74 79 75 80 83 81 76 82 82 83 77 84 78 85 79 86 80 87
REMARK SMILES IDX 81 88 60 89 61 90 69 91 62 92 68 93 63 94 64 95 65 96 66 97
REMARK SMILES IDX 67 98
REMARK H PARENT 28 6 32 35 88 54 58 65
REMARK Flexibility Score: inf
ROOT
ATOM      1  C   UNL     1       3.644  -2.583  -1.303  1.00  0.00     0.042 C 
ENDROOT
BRANCH   1   2
ATOM      2  C   UNL     1       3.594  -3.083   0.139  1.00  0.00     0.117 C 
BRANCH   2   3
ATOM      3  N   UNL     1       3.680  -2.005   1.107  1.00  0.00    -0.356 N 
ATOM      4  C   UNL     1       2.829  -1.426   1.984  1.00  0.00     0.226 C 
ATOM      5  O   UNL     1       3.337  -0.505   2.640  1.00  0.00    -0.274 OA
ATOM      6  H   UNL     1       4.575  -1.595   1.131  1.00  0.00     0.163 HD
BRANCH   4   7
ATOM      7  C   UNL     1       1.321  -1.774   2.168  1.00  0.00     0.052 C 
ATOM      8  C   UNL     1       1.018  -0.055   0.197  1.00  0.00     0.013 C 
ATOM      9  C   UNL     1       0.380  -1.196   1.022  1.00  0.00    -0.010 C 
ATOM     10  C   UNL     1      -0.899  -0.590   1.597  1.00  0.00     0.013 C 
ATOM     11  C   UNL     1       0.126  -2.440   0.131  1.00  0.00     0.085 C 
ATOM     12  C   UNL     1       0.095  -3.644   1.062  1.00  0.00     0.015 C 
ATOM     13  C   UNL     1       1.026  -3.296   2.226  1.00  0.00     0.018 C 
ATOM     14  C   UNL     1       0.968  -1.217   3.581  1.00  0.00     0.022 C 
BRANCH  11  15
ATOM     15  C   UNL     1      -0.808  -2.500  -1.102  1.00  0.00     0.226 C 
ATOM     16  O   UNL     1      -0.220  -2.708  -2.177  1.00  0.00    -0.275 OA
ATOM     17  N   UNL     1      -2.193  -2.422  -1.088  1.00  0.00    -0.334 N 
BRANCH  17  18
ATOM     18  C   UNL     1      -3.048  -2.553   0.090  1.00  0.00     0.155 C 
BRANCH  18  19
ATOM     19  C   UNL     1      -3.943  -1.387   0.463  1.00  0.00    -0.029 A 
ATOM     20  C   UNL     1      -3.756  -0.084  -0.013  1.00  0.00     0.005 A 
ATOM     21  C   UNL     1      -4.921  -1.588   1.452  1.00  0.00     0.005 A 
ATOM     22  C   UNL     1      -4.496   0.989   0.489  1.00  0.00     0.000 A 
ATOM     23  C   UNL     1      -5.665  -0.517   1.956  1.00  0.00     0.000 A 
ATOM     24  C   UNL     1      -5.446   0.773   1.480  1.00  0.00     0.000 A 
ENDBRANCH  18  19
ENDBRANCH  17  18
BRANCH  17  25
ATOM     25  C   UNL     1      -2.883  -2.560  -2.393  1.00  0.00     0.155 C 
BRANCH  25  26
ATOM     26  C   UNL     1      -2.896  -1.305  -3.239  1.00  0.00    -0.029 A 
ATOM     27  C   UNL     1      -1.820  -0.997  -4.084  1.00  0.00     0.005 A 
ATOM     28  C   UNL     1      -3.981  -0.417  -3.196  1.00  0.00     0.005 A 
ATOM     29  C   UNL     1      -1.797   0.193  -4.812  1.00  0.00     0.000 A 
ATOM     30  C   UNL     1      -3.950   0.783  -3.908  1.00  0.00     0.000 A 
ATOM     31  C   UNL     1      -2.854   1.092  -4.709  1.00  0.00     0.000 A 
ENDBRANCH  25  26
ENDBRANCH  17  25
ENDBRANCH  11  15
ENDBRANCH   4   7
ENDBRANCH   2   3
ENDBRANCH   1   2
BRANCH   1  32
ATOM     32  C   UNL     1       5.000  -2.020  -1.704  1.00  0.00     0.118 C 
BRANCH  32  33
ATOM     33  N   UNL     1       6.005  -3.069  -1.796  1.00  0.00    -0.352 N 
ATOM     34  C   UNL     1       6.627  -3.583  -2.907  1.00  0.00     0.251 C 
ATOM     35  H   UNL     1       6.279  -3.466  -0.938  1.00  0.00     0.163 HD
ATOM     36  O   UNL     1       7.208  -4.661  -2.830  1.00  0.00    -0.269 OA
BRANCH  34  37
ATOM     37  C   UNL     1       6.603  -2.840  -4.186  1.00  0.00     0.039 A 
ATOM     38  C   UNL     1       6.456  -3.547  -5.383  1.00  0.00     0.014 A 
ATOM     39  C   UNL     1       6.777  -1.453  -4.210  1.00  0.00     0.014 A 
ATOM     40  C   UNL     1       6.442  -2.858  -6.598  1.00  0.00     0.010 A 
ATOM     41  C   UNL     1       6.685  -0.761  -5.413  1.00  0.00     0.010 A 
ATOM     42  C   UNL     1       6.535  -1.457  -6.621  1.00  0.00    -0.014 A 
BRANCH  42  43
ATOM     43  C   UNL     1       6.503  -0.697  -7.896  1.00  0.00     0.031 A 
ATOM     44  C   UNL     1       7.707   0.098  -8.326  1.00  0.00     0.074 A 
ATOM     45  C   UNL     1       5.372  -0.666  -8.626  1.00  0.00     0.049 A 
ATOM     46  N   UNL     1       7.849   0.887  -9.360  1.00  0.00    -0.248 NA
ATOM     47  C   UNL     1       8.900   0.017  -7.466  1.00  0.00     0.031 C 
ATOM     48  C   UNL     1       4.127  -1.362  -8.290  1.00  0.00     0.029 A 
ATOM     49  N   UNL     1       5.082  -0.015  -9.798  1.00  0.00    -0.354 N 
ATOM     50  C   UNL     1       9.131   1.415  -9.259  1.00  0.00     0.074 A 
ATOM     51  C   UNL     1       9.710   0.893  -8.041  1.00  0.00     0.031 C 
ATOM     52  C   UNL     1       3.217  -1.120  -9.248  1.00  0.00     0.029 A 
ATOM     53  C   UNL     1       3.798  -0.224 -10.242  1.00  0.00     0.049 A 
ATOM     54  H   UNL     1       5.733   0.548 -10.276  1.00  0.00     0.167 HD
ATOM     55  C   UNL     1       9.776   2.247 -10.113  1.00  0.00     0.031 A 
ATOM     56  C   UNL     1       3.158   0.258 -11.324  1.00  0.00     0.031 A 
ATOM     57  C   UNL     1       9.202   2.747 -11.333  1.00  0.00     0.049 A 
ATOM     58  C   UNL     1       3.896   1.173 -12.262  1.00  0.00     0.074 A 
ATOM     59  C   UNL     1       9.791   3.543 -12.299  1.00  0.00     0.029 A 
ATOM     60  N   UNL     1       7.905   2.496 -11.755  1.00  0.00    -0.354 N 
ATOM     61  N   UNL     1       5.129   1.613 -12.182  1.00  0.00    -0.248 NA
ATOM     62  C   UNL     1       3.159   1.648 -13.441  1.00  0.00     0.031 C 
ATOM     63  C   UNL     1       8.835   3.810 -13.286  1.00  0.00     0.029 A 
ATOM     64  C   UNL     1       7.667   3.139 -12.958  1.00  0.00     0.049 A 
ATOM     65  H   UNL     1       7.250   1.943 -11.271  1.00  0.00     0.167 HD
ATOM     66  C   UNL     1       5.323   2.401 -13.311  1.00  0.00     0.074 A 
ATOM     67  C   UNL     1       4.085   2.364 -14.064  1.00  0.00     0.031 C 
ATOM     68  C   UNL     1       6.426   3.093 -13.690  1.00  0.00     0.031 A 
BRANCH  55  69
ATOM     69  C   UNL     1      11.175   2.668  -9.747  1.00  0.00    -0.014 A 
ATOM     70  C   UNL     1      12.243   1.752  -9.784  1.00  0.00     0.010 A 
ATOM     71  C   UNL     1      11.432   4.001  -9.379  1.00  0.00     0.010 A 
ATOM     72  C   UNL     1      13.530   2.149  -9.412  1.00  0.00     0.020 A 
ATOM     73  C   UNL     1      12.724   4.409  -9.033  1.00  0.00     0.020 A 
ATOM     74  C   UNL     1      13.761   3.474  -9.031  1.00  0.00     0.054 A 
BRANCH  74  75
ATOM     75  S   UNL     1      15.443   3.965  -8.560  1.00  0.00     0.124 S 
ATOM     76  O   UNL     1      15.566   3.373  -7.230  1.00  0.00    -0.237 OA
ATOM     77  O   UNL     1      16.262   3.348  -9.599  1.00  0.00    -0.237 OA
ATOM     78  O   UNL     1      15.399   5.425  -8.590  1.00  0.00    -0.744 OA
ENDBRANCH  74  75
ENDBRANCH  55  69
BRANCH  56  79
ATOM     79  C   UNL     1       1.748  -0.138 -11.587  1.00  0.00    -0.014 A 
ATOM     80  C   UNL     1       1.445  -1.032 -12.628  1.00  0.00     0.010 A 
ATOM     81  C   UNL     1       0.705   0.350 -10.778  1.00  0.00     0.010 A 
ATOM     82  C   UNL     1       0.123  -1.422 -12.865  1.00  0.00     0.020 A 
ATOM     83  C   UNL     1      -0.615  -0.057 -10.996  1.00  0.00     0.020 A 
ATOM     84  C   UNL     1      -0.898  -0.933 -12.046  1.00  0.00     0.054 A 
BRANCH  84  85
ATOM     85  S   UNL     1      -2.598  -1.500 -12.336  1.00  0.00     0.124 S 
ATOM     86  O   UNL     1      -2.962  -0.760 -13.540  1.00  0.00    -0.237 OA
ATOM     87  O   UNL     1      -2.427  -2.941 -12.506  1.00  0.00    -0.237 OA
ATOM     88  O   UNL     1      -3.303  -1.103 -11.119  1.00  0.00    -0.744 OA
ENDBRANCH  84  85
ENDBRANCH  56  79
BRANCH  68  89
ATOM     89  C   UNL     1       6.353   3.849 -14.988  1.00  0.00    -0.014 A 
ATOM     90  C   UNL     1       5.622   5.045 -15.089  1.00  0.00     0.010 A 
ATOM     91  C   UNL     1       7.075   3.386 -16.103  1.00  0.00     0.010 A 
ATOM     92  C   UNL     1       5.592   5.753 -16.294  1.00  0.00     0.020 A 
ATOM     93  C   UNL     1       7.068   4.104 -17.301  1.00  0.00     0.020 A 
ATOM     94  C   UNL     1       6.316   5.277 -17.392  1.00  0.00     0.054 A 
BRANCH  94  95
ATOM     95  S   UNL     1       6.303   6.239 -18.930  1.00  0.00     0.124 S 
ATOM     96  O   UNL     1       4.978   5.937 -19.466  1.00  0.00    -0.237 OA
ATOM     97  O   UNL     1       6.492   7.607 -18.456  1.00  0.00    -0.237 OA
ATOM     98  O   UNL     1       7.423   5.690 -19.691  1.00  0.00    -0.744 OA
ENDBRANCH  94  95
ENDBRANCH  68  89
ENDBRANCH  42  43
ENDBRANCH  34  37
ENDBRANCH  32  33
ENDBRANCH   1  32
TORSDOF 18
