REMARK SMILES CC[C@H](C)[C@@H](C(=O)NCCCNC(=O)c1ccc(-c2c3nc(c(-c4ccc(S(=O)(=O)[O-])cc4)c4ccc([nH]4)c(-c4ccc(S(=O)(=O)[O-])cc4)c4nc(c(-c5ccc(S(=O)(=O)[O-])cc5)c5ccc2[nH]5)C=C4)C=C3)cc1)[NH+]1CC(C)(C)C1
REMARK SMILES IDX 10 1 9 2 8 3 6 4 7 5 5 7 3 8 4 9 2 10 1 11 75 12 76 13 80 14
REMARK SMILES IDX 77 16 78 17 79 18 11 19 12 20 13 21 14 23 15 24 16 25 74 26
REMARK SMILES IDX 17 27 73 28 18 29 19 30 20 31 67 32 21 33 72 34 66 35 68 36
REMARK SMILES IDX 22 37 71 38 65 39 64 40 23 42 53 43 34 44 52 45 35 46 38 47
REMARK SMILES IDX 51 48 69 49 36 50 37 51 50 53 70 54 39 55 24 56 25 57 33 58
REMARK SMILES IDX 26 59 32 60 27 61 28 62 29 63 30 64 31 65 54 66 55 67 63 68
REMARK SMILES IDX 56 69 62 70 57 71 58 72 59 73 60 74 61 75 40 76 41 77 49 78
REMARK SMILES IDX 42 79 48 80 43 81 44 82 45 83 46 84 47 85
REMARK H PARENT 8 6 75 15 12 22 68 41 38 52
REMARK Flexibility Score: inf
ROOT
ATOM      1  C   UNL     1      -0.113   1.288   2.812  1.00  0.00     0.042 C 
ENDROOT
BRANCH   1   2
ATOM      2  C   UNL     1      -0.486   2.596   2.102  1.00  0.00     0.118 C 
BRANCH   2   3
ATOM      3  N   UNL     1       0.652   3.482   1.901  1.00  0.00    -0.351 N 
ATOM      4  C   UNL     1       1.313   3.924   0.787  1.00  0.00     0.278 C 
ATOM      5  O   UNL     1       2.278   4.656   1.021  1.00  0.00    -0.268 OA
ATOM      6  H   UNL     1       1.022   3.838   2.741  1.00  0.00     0.163 HD
BRANCH   4   7
ATOM      7  C   UNL     1       0.834   3.545  -0.648  1.00  0.00     0.277 C 
BRANCH   7   8
ATOM      8  C   UNL     1       1.416   2.208  -1.225  1.00  0.00     0.054 C 
ATOM      9  C   UNL     1       1.459   1.061  -0.225  1.00  0.00     0.014 C 
BRANCH   8  10
ATOM     10  C   UNL     1       0.628   1.806  -2.506  1.00  0.00     0.006 C 
ATOM     11  C   UNL     1       0.903   0.404  -3.030  1.00  0.00     0.004 C 
ENDBRANCH   8  10
ENDBRANCH   7   8
BRANCH   7  12
ATOM     12  N   UNL     1       1.051   4.589  -1.691  1.00  0.00    -0.323 N 
ATOM     13  C   UNL     1       0.657   5.961  -1.345  1.00  0.00     0.275 C 
ATOM     14  C   UNL     1       2.456   5.011  -1.875  1.00  0.00     0.275 C 
ATOM     15  H   UNL     1       0.554   4.109  -2.441  1.00  0.00     0.348 HD
ATOM     16  C   UNL     1       1.934   6.457  -2.102  1.00  0.00     0.063 C 
ATOM     17  C   UNL     1       2.708   7.552  -1.378  1.00  0.00     0.023 C 
ATOM     18  C   UNL     1       1.758   6.782  -3.588  1.00  0.00     0.023 C 
ENDBRANCH   7  12
ENDBRANCH   4   7
ENDBRANCH   2   3
ENDBRANCH   1   2
BRANCH   1  19
ATOM     19  C   UNL     1       0.595   1.440   4.156  1.00  0.00     0.118 C 
BRANCH  19  20
ATOM     20  N   UNL     1      -0.337   1.567   5.263  1.00  0.00    -0.352 N 
ATOM     21  C   UNL     1      -0.557   0.718   6.320  1.00  0.00     0.251 C 
ATOM     22  H   UNL     1      -0.892   2.380   5.253  1.00  0.00     0.163 HD
ATOM     23  O   UNL     1      -1.545   0.906   7.036  1.00  0.00    -0.269 OA
BRANCH  21  24
ATOM     24  C   UNL     1       0.349  -0.422   6.607  1.00  0.00     0.039 A 
ATOM     25  C   UNL     1      -0.212  -1.638   7.013  1.00  0.00     0.014 A 
ATOM     26  C   UNL     1       1.740  -0.296   6.542  1.00  0.00     0.014 A 
ATOM     27  C   UNL     1       0.612  -2.730   7.310  1.00  0.00     0.010 A 
ATOM     28  C   UNL     1       2.559  -1.406   6.773  1.00  0.00     0.010 A 
ATOM     29  C   UNL     1       2.006  -2.632   7.173  1.00  0.00    -0.014 A 
BRANCH  29  30
ATOM     30  C   UNL     1       2.888  -3.798   7.455  1.00  0.00     0.031 A 
ATOM     31  C   UNL     1       3.871  -3.763   8.595  1.00  0.00     0.074 A 
ATOM     32  C   UNL     1       2.844  -4.881   6.653  1.00  0.00     0.049 A 
ATOM     33  N   UNL     1       4.724  -4.680   8.980  1.00  0.00    -0.248 NA
ATOM     34  C   UNL     1       3.920  -2.527   9.392  1.00  0.00     0.031 C 
ATOM     35  C   UNL     1       1.980  -5.030   5.480  1.00  0.00     0.029 A 
ATOM     36  N   UNL     1       3.549  -6.059   6.699  1.00  0.00    -0.354 N 
ATOM     37  C   UNL     1       5.426  -4.126  10.044  1.00  0.00     0.074 A 
ATOM     38  C   UNL     1       4.926  -2.778  10.218  1.00  0.00     0.031 C 
ATOM     39  C   UNL     1       2.193  -6.236   4.930  1.00  0.00     0.029 A 
ATOM     40  C   UNL     1       3.226  -6.935   5.691  1.00  0.00     0.049 A 
ATOM     41  H   UNL     1       4.223  -6.256   7.389  1.00  0.00     0.167 HD
ATOM     42  C   UNL     1       6.388  -4.686  10.818  1.00  0.00     0.031 A 
ATOM     43  C   UNL     1       3.702  -8.163   5.403  1.00  0.00     0.031 A 
ATOM     44  C   UNL     1       6.878  -6.030  10.658  1.00  0.00     0.049 A 
ATOM     45  C   UNL     1       4.746  -8.780   6.289  1.00  0.00     0.074 A 
ATOM     46  C   UNL     1       7.792  -6.712  11.443  1.00  0.00     0.029 A 
ATOM     47  N   UNL     1       6.504  -6.894   9.640  1.00  0.00    -0.354 N 
ATOM     48  N   UNL     1       5.334  -8.271   7.345  1.00  0.00    -0.248 NA
ATOM     49  C   UNL     1       5.179 -10.144   5.953  1.00  0.00     0.031 C 
ATOM     50  C   UNL     1       8.005  -7.973  10.873  1.00  0.00     0.029 A 
ATOM     51  C   UNL     1       7.188  -8.093   9.760  1.00  0.00     0.049 A 
ATOM     52  H   UNL     1       5.849  -6.686   8.936  1.00  0.00     0.167 HD
ATOM     53  C   UNL     1       6.199  -9.256   7.808  1.00  0.00     0.074 A 
ATOM     54  C   UNL     1       6.044 -10.397   6.927  1.00  0.00     0.031 C 
ATOM     55  C   UNL     1       7.043  -9.217   8.868  1.00  0.00     0.031 A 
BRANCH  42  56
ATOM     56  C   UNL     1       6.986  -3.826  11.901  1.00  0.00    -0.014 A 
ATOM     57  C   UNL     1       6.242  -3.465  13.039  1.00  0.00     0.010 A 
ATOM     58  C   UNL     1       8.311  -3.370  11.777  1.00  0.00     0.010 A 
ATOM     59  C   UNL     1       6.788  -2.610  14.000  1.00  0.00     0.020 A 
ATOM     60  C   UNL     1       8.871  -2.537  12.750  1.00  0.00     0.020 A 
ATOM     61  C   UNL     1       8.095  -2.140  13.842  1.00  0.00     0.054 A 
BRANCH  61  62
ATOM     62  S   UNL     1       8.776  -1.012  15.089  1.00  0.00     0.124 S 
ATOM     63  O   UNL     1       8.135   0.251  14.730  1.00  0.00    -0.237 OA
ATOM     64  O   UNL     1       8.327  -1.608  16.345  1.00  0.00    -0.237 OA
ATOM     65  O   UNL     1      10.217  -1.068  14.857  1.00  0.00    -0.744 OA
ENDBRANCH  61  62
ENDBRANCH  42  56
BRANCH  43  66
ATOM     66  C   UNL     1       3.162  -8.891   4.225  1.00  0.00    -0.014 A 
ATOM     67  C   UNL     1       2.239  -9.937   4.396  1.00  0.00     0.010 A 
ATOM     68  C   UNL     1       3.514  -8.492   2.923  1.00  0.00     0.010 A 
ATOM     69  C   UNL     1       1.669 -10.565   3.285  1.00  0.00     0.020 A 
ATOM     70  C   UNL     1       2.930  -9.104   1.810  1.00  0.00     0.020 A 
ATOM     71  C   UNL     1       2.011 -10.137   1.999  1.00  0.00     0.054 A 
BRANCH  71  72
ATOM     72  S   UNL     1       1.175 -10.889   0.574  1.00  0.00     0.124 S 
ATOM     73  O   UNL     1       1.854 -12.176   0.467  1.00  0.00    -0.237 OA
ATOM     74  O   UNL     1      -0.217 -10.942   1.014  1.00  0.00    -0.237 OA
ATOM     75  O   UNL     1       1.439  -9.947  -0.511  1.00  0.00    -0.744 OA
ENDBRANCH  71  72
ENDBRANCH  43  66
BRANCH  55  76
ATOM     76  C   UNL     1       7.865 -10.447   9.142  1.00  0.00    -0.014 A 
ATOM     77  C   UNL     1       8.964 -10.780   8.330  1.00  0.00     0.010 A 
ATOM     78  C   UNL     1       7.564 -11.256  10.253  1.00  0.00     0.010 A 
ATOM     79  C   UNL     1       9.728 -11.918   8.606  1.00  0.00     0.020 A 
ATOM     80  C   UNL     1       8.339 -12.381  10.545  1.00  0.00     0.020 A 
ATOM     81  C   UNL     1       9.408 -12.713   9.710  1.00  0.00     0.054 A 
BRANCH  81  82
ATOM     82  S   UNL     1      10.435 -14.165  10.071  1.00  0.00     0.124 S 
ATOM     83  O   UNL     1       9.967 -15.123   9.074  1.00  0.00    -0.237 OA
ATOM     84  O   UNL     1      11.791 -13.660   9.869  1.00  0.00    -0.237 OA
ATOM     85  O   UNL     1      10.099 -14.490  11.456  1.00  0.00    -0.744 OA
ENDBRANCH  81  82
ENDBRANCH  55  76
ENDBRANCH  29  30
ENDBRANCH  21  24
ENDBRANCH  19  20
ENDBRANCH   1  19
TORSDOF 16
