REMARK SMILES O=C(NCCCNC(=O)c1ccc(-c2c3nc(c(-c4ccc(S(=O)(=O)[O-])cc4)c4ccc([nH]4)c(-c4ccc(S(=O)(=O)[O-])cc4)c4nc(c(-c5ccc(S(=O)(=O)[O-])cc5)c5ccc2[nH]5)C=C4)C=C3)cc1)c1ccc(CN2CCCCC2=O)cc1
REMARK SMILES IDX 5 1 4 2 3 3 1 4 2 5 70 7 71 8 83 9 72 10 82 11 73 12 74 13
REMARK SMILES IDX 75 14 76 15 80 16 77 17 79 18 81 19 78 20 6 21 7 22 8 23
REMARK SMILES IDX 9 25 10 26 11 27 69 28 12 29 68 30 13 31 14 32 15 33 62 34
REMARK SMILES IDX 16 35 67 36 61 37 63 38 17 39 66 40 60 41 59 42 18 44 48 45
REMARK SMILES IDX 29 46 47 47 30 48 33 49 46 50 64 51 31 52 32 53 45 55 65 56
REMARK SMILES IDX 34 57 19 58 20 59 28 60 21 61 27 62 22 63 23 64 24 65 25 66
REMARK SMILES IDX 26 67 49 68 50 69 58 70 51 71 57 72 52 73 53 74 54 75 55 76
REMARK SMILES IDX 56 77 35 78 36 79 44 80 37 81 43 82 38 83 39 84 40 85 41 86
REMARK SMILES IDX 42 87
REMARK H PARENT 3 6 7 24 63 43 33 54
REMARK Flexibility Score: inf
ROOT
ATOM      1  C   UNL     1       4.887  -1.616   1.476  1.00  0.00     0.042 C 
ENDROOT
BRANCH   1   2
ATOM      2  C   UNL     1       4.405  -1.190   0.095  1.00  0.00     0.118 C 
BRANCH   2   3
ATOM      3  N   UNL     1       2.961  -1.003   0.041  1.00  0.00    -0.352 N 
ATOM      4  O   UNL     1       1.022   0.159   0.051  1.00  0.00    -0.269 OA
ATOM      5  C   UNL     1       2.242   0.160  -0.093  1.00  0.00     0.251 C 
ATOM      6  H   UNL     1       2.426  -1.826   0.110  1.00  0.00     0.163 HD
BRANCH   5   7
ATOM      7  C   UNL     1       2.943   1.420  -0.407  1.00  0.00     0.039 A 
ATOM      8  C   UNL     1       3.781   1.495  -1.519  1.00  0.00     0.014 A 
ATOM      9  C   UNL     1       2.754   2.538   0.408  1.00  0.00     0.014 A 
ATOM     10  C   UNL     1       4.501   2.661  -1.761  1.00  0.00     0.006 A 
ATOM     11  C   UNL     1       3.479   3.710   0.161  1.00  0.00     0.006 A 
ATOM     12  C   UNL     1       4.379   3.776  -0.915  1.00  0.00    -0.029 A 
BRANCH  12  13
ATOM     13  C   UNL     1       5.210   5.015  -1.183  1.00  0.00     0.155 C 
BRANCH  13  14
ATOM     14  N   UNL     1       6.567   4.934  -0.639  1.00  0.00    -0.338 N 
ATOM     15  C   UNL     1       6.843   5.629   0.612  1.00  0.00     0.120 C 
ATOM     16  C   UNL     1       7.522   4.182  -1.304  1.00  0.00     0.222 C 
ATOM     17  C   UNL     1       8.326   5.905   0.803  1.00  0.00     0.022 C 
ATOM     18  C   UNL     1       8.855   3.928  -0.618  1.00  0.00     0.100 C 
ATOM     19  O   UNL     1       7.336   3.719  -2.432  1.00  0.00    -0.275 OA
ATOM     20  C   UNL     1       9.066   4.587   0.734  1.00  0.00     0.012 C 
ENDBRANCH  13  14
ENDBRANCH  12  13
ENDBRANCH   5   7
ENDBRANCH   2   3
ENDBRANCH   1   2
BRANCH   1  21
ATOM     21  C   UNL     1       4.391  -2.985   1.922  1.00  0.00     0.118 C 
BRANCH  21  22
ATOM     22  N   UNL     1       4.847  -4.065   1.058  1.00  0.00    -0.352 N 
ATOM     23  C   UNL     1       5.604  -5.176   1.338  1.00  0.00     0.251 C 
ATOM     24  H   UNL     1       4.565  -3.986   0.117  1.00  0.00     0.163 HD
ATOM     25  O   UNL     1       6.006  -5.875   0.411  1.00  0.00    -0.269 OA
BRANCH  23  26
ATOM     26  C   UNL     1       5.960  -5.524   2.733  1.00  0.00     0.039 A 
ATOM     27  C   UNL     1       7.243  -6.013   2.998  1.00  0.00     0.014 A 
ATOM     28  C   UNL     1       5.038  -5.400   3.775  1.00  0.00     0.014 A 
ATOM     29  C   UNL     1       7.620  -6.307   4.311  1.00  0.00     0.010 A 
ATOM     30  C   UNL     1       5.442  -5.608   5.092  1.00  0.00     0.010 A 
ATOM     31  C   UNL     1       6.735  -6.069   5.375  1.00  0.00    -0.014 A 
BRANCH  31  32
ATOM     32  C   UNL     1       7.147  -6.295   6.786  1.00  0.00     0.031 A 
ATOM     33  C   UNL     1       6.437  -7.317   7.634  1.00  0.00     0.074 A 
ATOM     34  C   UNL     1       8.124  -5.536   7.324  1.00  0.00     0.049 A 
ATOM     35  N   UNL     1       6.626  -7.619   8.893  1.00  0.00    -0.248 NA
ATOM     36  C   UNL     1       5.356  -8.083   6.991  1.00  0.00     0.031 C 
ATOM     37  C   UNL     1       8.859  -4.479   6.625  1.00  0.00     0.029 A 
ATOM     38  N   UNL     1       8.664  -5.535   8.586  1.00  0.00    -0.354 N 
ATOM     39  C   UNL     1       5.681  -8.592   9.197  1.00  0.00     0.074 A 
ATOM     40  C   UNL     1       4.885  -8.793   8.005  1.00  0.00     0.031 C 
ATOM     41  C   UNL     1       9.774  -3.955   7.457  1.00  0.00     0.029 A 
ATOM     42  C   UNL     1       9.665  -4.608   8.758  1.00  0.00     0.049 A 
ATOM     43  H   UNL     1       8.364  -6.141   9.301  1.00  0.00     0.167 HD
ATOM     44  C   UNL     1       5.502  -9.273  10.354  1.00  0.00     0.031 A 
ATOM     45  C   UNL     1      10.412  -4.311   9.839  1.00  0.00     0.031 A 
ATOM     46  C   UNL     1       6.302  -9.082  11.535  1.00  0.00     0.049 A 
ATOM     47  C   UNL     1      10.197  -5.082  11.112  1.00  0.00     0.074 A 
ATOM     48  C   UNL     1       6.236  -9.762  12.739  1.00  0.00     0.029 A 
ATOM     49  N   UNL     1       7.315  -8.143  11.662  1.00  0.00    -0.354 N 
ATOM     50  N   UNL     1       9.339  -6.043  11.359  1.00  0.00    -0.248 NA
ATOM     51  C   UNL     1      11.062  -4.738  12.249  1.00  0.00     0.031 C 
ATOM     52  C   UNL     1       7.176  -9.201  13.611  1.00  0.00     0.029 A 
ATOM     53  C   UNL     1       7.867  -8.211  12.931  1.00  0.00     0.049 A 
ATOM     54  H   UNL     1       7.599  -7.519  10.956  1.00  0.00     0.167 HD
ATOM     55  C   UNL     1       9.580  -6.438  12.670  1.00  0.00     0.074 A 
ATOM     56  C   UNL     1      10.674  -5.622  13.158  1.00  0.00     0.031 C 
ATOM     57  C   UNL     1       8.953  -7.390  13.404  1.00  0.00     0.031 A 
BRANCH  44  58
ATOM     58  C   UNL     1       4.391 -10.290  10.399  1.00  0.00    -0.014 A 
ATOM     59  C   UNL     1       4.473 -11.488   9.664  1.00  0.00     0.010 A 
ATOM     60  C   UNL     1       3.267 -10.065  11.213  1.00  0.00     0.010 A 
ATOM     61  C   UNL     1       3.432 -12.419   9.708  1.00  0.00     0.020 A 
ATOM     62  C   UNL     1       2.237 -11.008  11.284  1.00  0.00     0.020 A 
ATOM     63  C   UNL     1       2.318 -12.171  10.515  1.00  0.00     0.054 A 
BRANCH  63  64
ATOM     64  S   UNL     1       0.992 -13.407  10.568  1.00  0.00     0.124 S 
ATOM     65  O   UNL     1       0.358 -13.224   9.265  1.00  0.00    -0.237 OA
ATOM     66  O   UNL     1       1.725 -14.658  10.740  1.00  0.00    -0.237 OA
ATOM     67  O   UNL     1       0.184 -13.000  11.715  1.00  0.00    -0.744 OA
ENDBRANCH  63  64
ENDBRANCH  44  58
BRANCH  45  68
ATOM     68  C   UNL     1      11.448  -3.246   9.757  1.00  0.00    -0.014 A 
ATOM     69  C   UNL     1      12.815  -3.576   9.774  1.00  0.00     0.010 A 
ATOM     70  C   UNL     1      11.073  -1.894   9.648  1.00  0.00     0.010 A 
ATOM     71  C   UNL     1      13.787  -2.575   9.702  1.00  0.00     0.020 A 
ATOM     72  C   UNL     1      12.043  -0.892   9.547  1.00  0.00     0.020 A 
ATOM     73  C   UNL     1      13.395  -1.238   9.587  1.00  0.00     0.054 A 
BRANCH  73  74
ATOM     74  S   UNL     1      14.673   0.041   9.440  1.00  0.00     0.124 S 
ATOM     75  O   UNL     1      15.187   0.115  10.804  1.00  0.00    -0.237 OA
ATOM     76  O   UNL     1      15.581  -0.531   8.450  1.00  0.00    -0.237 OA
ATOM     77  O   UNL     1      13.930   1.215   8.985  1.00  0.00    -0.744 OA
ENDBRANCH  73  74
ENDBRANCH  45  68
BRANCH  57  78
ATOM     78  C   UNL     1       9.458  -7.628  14.803  1.00  0.00    -0.014 A 
ATOM     79  C   UNL     1       9.236  -6.692  15.829  1.00  0.00     0.010 A 
ATOM     80  C   UNL     1      10.134  -8.825  15.101  1.00  0.00     0.010 A 
ATOM     81  C   UNL     1       9.718  -6.932  17.119  1.00  0.00     0.020 A 
ATOM     82  C   UNL     1      10.591  -9.082  16.396  1.00  0.00     0.020 A 
ATOM     83  C   UNL     1      10.396  -8.124  17.393  1.00  0.00     0.054 A 
BRANCH  83  84
ATOM     84  S   UNL     1      10.988  -8.425  19.081  1.00  0.00     0.124 S 
ATOM     85  O   UNL     1      12.142  -7.534  19.160  1.00  0.00    -0.237 OA
ATOM     86  O   UNL     1       9.839  -8.040  19.898  1.00  0.00    -0.237 OA
ATOM     87  O   UNL     1      11.300  -9.852  19.089  1.00  0.00    -0.744 OA
ENDBRANCH  83  84
ENDBRANCH  57  78
ENDBRANCH  31  32
ENDBRANCH  23  26
ENDBRANCH  21  22
ENDBRANCH   1  21
TORSDOF 15
