REMARK SMILES Cc1ccc(C(=O)NC2CC2)cc1NC(=O)[C@@H]1[C@@H](C(=O)NCCCNC(=O)c2ccc(-c3c4nc(c(-c5ccc(S(=O)(=O)[O-])cc5)c5ccc([nH]5)c(-c5ccc(S(=O)(=O)[O-])cc5)c5nc(c(-c6ccc(S(=O)(=O)[O-])cc6)c6ccc3[nH]6)C=C5)C=C4)cc2)[C@H]2C=C[C@@H]1C2
REMARK SMILES IDX 22 1 21 2 19 3 20 4 18 6 17 7 91 8 88 9 90 10 92 11 89 12
REMARK SMILES IDX 15 13 14 14 16 16 13 17 1 18 2 19 3 20 4 21 12 22 5 23 6 24
REMARK SMILES IDX 7 25 8 26 9 28 10 29 11 30 23 31 24 32 25 33 26 34 27 36
REMARK SMILES IDX 28 37 29 38 87 39 30 40 86 41 31 42 32 43 33 44 80 45 34 46
REMARK SMILES IDX 85 47 79 48 81 49 35 50 84 51 78 52 77 53 36 55 66 56 47 57
REMARK SMILES IDX 65 58 48 59 51 60 64 61 82 62 49 63 50 64 63 66 83 67 52 68
REMARK SMILES IDX 37 69 38 70 46 71 39 72 45 73 40 74 41 75 42 76 43 77 44 78
REMARK SMILES IDX 67 79 68 80 76 81 69 82 75 83 70 84 71 85 72 86 73 87 74 88
REMARK SMILES IDX 53 89 54 90 62 91 55 92 61 93 56 94 57 95 58 96 59 97 60 98
REMARK H PARENT 21 5 14 15 8 27 25 35 81 54 51 65
REMARK Flexibility Score: inf
ROOT
ATOM      1  C   UNL     1      -4.046   7.246   0.748  1.00  0.00     0.117 C 
ENDROOT
BRANCH   1   2
ATOM      2  N   UNL     1      -3.360   6.545  -0.328  1.00  0.00    -0.356 N 
ATOM      3  C   UNL     1      -2.279   5.734  -0.364  1.00  0.00     0.224 C 
ATOM      4  O   UNL     1      -1.928   5.342  -1.486  1.00  0.00    -0.275 OA
ATOM      5  H   UNL     1      -3.767   6.693  -1.212  1.00  0.00     0.163 HD
BRANCH   3   6
ATOM      6  C   UNL     1      -1.425   5.351   0.843  1.00  0.00     0.098 C 
ATOM      7  C   UNL     1      -0.967   3.847   0.668  1.00  0.00     0.099 C 
ATOM      8  C   UNL     1      -1.181   3.248   2.081  1.00  0.00     0.025 C 
ATOM      9  C   UNL     1      -2.005   5.323   2.272  1.00  0.00     0.025 C 
ATOM     10  C   UNL     1      -2.667   3.110   2.292  1.00  0.00    -0.027 C 
ATOM     11  C   UNL     1      -0.944   4.466   2.978  1.00  0.00     0.017 C 
ATOM     12  C   UNL     1      -3.164   4.350   2.387  1.00  0.00    -0.027 C 
BRANCH   7  13
ATOM     13  C   UNL     1       0.457   3.624   0.192  1.00  0.00     0.228 C 
ATOM     14  N   UNL     1       0.902   2.368  -0.155  1.00  0.00    -0.326 N 
ATOM     15  H   UNL     1       1.856   2.341  -0.397  1.00  0.00     0.169 HD
ATOM     16  O   UNL     1       1.293   4.532   0.211  1.00  0.00    -0.274 OA
BRANCH  14  17
ATOM     17  C   UNL     1       0.263   1.108  -0.232  1.00  0.00     0.044 A 
ATOM     18  C   UNL     1       2.492  -0.093   0.267  1.00  0.00     0.046 C 
ATOM     19  C   UNL     1       1.003  -0.058   0.042  1.00  0.00    -0.027 A 
ATOM     20  C   UNL     1       0.333  -1.293   0.085  1.00  0.00     0.006 A 
ATOM     21  C   UNL     1      -1.042  -1.373  -0.137  1.00  0.00     0.014 A 
ATOM     22  C   UNL     1      -1.091   0.974  -0.591  1.00  0.00     0.040 A 
ATOM     23  C   UNL     1      -1.781  -0.239  -0.491  1.00  0.00     0.041 A 
BRANCH  23  24
ATOM     24  C   UNL     1      -3.248  -0.444  -0.744  1.00  0.00     0.251 C 
ATOM     25  O   UNL     1      -3.688  -1.597  -0.734  1.00  0.00    -0.269 OA
ATOM     26  N   UNL     1      -4.159   0.570  -0.951  1.00  0.00    -0.349 N 
ATOM     27  H   UNL     1      -5.085   0.260  -1.079  1.00  0.00     0.164 HD
BRANCH  26  28
ATOM     28  C   UNL     1      -4.003   1.978  -1.012  1.00  0.00     0.082 C 
ATOM     29  C   UNL     1      -3.901   2.657  -2.350  1.00  0.00     0.027 C 
ATOM     30  C   UNL     1      -5.102   2.888  -1.486  1.00  0.00     0.027 C 
ENDBRANCH  26  28
ENDBRANCH  23  24
ENDBRANCH  14  17
ENDBRANCH   7  13
ENDBRANCH   3   6
ENDBRANCH   1   2
BRANCH   1  31
ATOM     31  C   UNL     1      -3.403   8.591   1.048  1.00  0.00     0.042 C 
BRANCH  31  32
ATOM     32  C   UNL     1      -4.113   9.721   0.317  1.00  0.00     0.118 C 
BRANCH  32  33
ATOM     33  N   UNL     1      -4.982  10.510   1.183  1.00  0.00    -0.352 N 
ATOM     34  C   UNL     1      -5.647  11.681   0.867  1.00  0.00     0.251 C 
ATOM     35  H   UNL     1      -5.109  10.171   2.099  1.00  0.00     0.163 HD
ATOM     36  O   UNL     1      -6.153  12.405   1.707  1.00  0.00    -0.269 OA
BRANCH  34  37
ATOM     37  C   UNL     1      -5.842  11.949  -0.572  1.00  0.00     0.039 A 
ATOM     38  C   UNL     1      -7.133  11.765  -1.080  1.00  0.00     0.014 A 
ATOM     39  C   UNL     1      -4.736  12.049  -1.411  1.00  0.00     0.014 A 
ATOM     40  C   UNL     1      -7.296  11.510  -2.437  1.00  0.00     0.010 A 
ATOM     41  C   UNL     1      -4.889  11.690  -2.734  1.00  0.00     0.010 A 
ATOM     42  C   UNL     1      -6.161  11.382  -3.238  1.00  0.00    -0.014 A 
BRANCH  42  43
ATOM     43  C   UNL     1      -6.199  10.876  -4.604  1.00  0.00     0.031 A 
ATOM     44  C   UNL     1      -6.042  11.823  -5.732  1.00  0.00     0.074 A 
ATOM     45  C   UNL     1      -6.321   9.550  -4.841  1.00  0.00     0.049 A 
ATOM     46  N   UNL     1      -6.505  11.626  -6.921  1.00  0.00    -0.248 NA
ATOM     47  C   UNL     1      -5.375  13.114  -5.581  1.00  0.00     0.031 C 
ATOM     48  C   UNL     1      -6.126   8.870  -6.119  1.00  0.00     0.029 A 
ATOM     49  N   UNL     1      -6.862   8.562  -4.015  1.00  0.00    -0.354 N 
ATOM     50  C   UNL     1      -5.957  12.591  -7.737  1.00  0.00     0.074 A 
ATOM     51  C   UNL     1      -5.321  13.533  -6.848  1.00  0.00     0.031 C 
ATOM     52  C   UNL     1      -6.807   7.714  -6.096  1.00  0.00     0.029 A 
ATOM     53  C   UNL     1      -7.568   7.688  -4.857  1.00  0.00     0.049 A 
ATOM     54  H   UNL     1      -6.769   8.493  -3.037  1.00  0.00     0.167 HD
ATOM     55  C   UNL     1      -5.961  12.429  -9.089  1.00  0.00     0.031 A 
ATOM     56  C   UNL     1      -8.910   7.457  -4.762  1.00  0.00     0.031 A 
ATOM     57  C   UNL     1      -6.659  11.213  -9.487  1.00  0.00     0.049 A 
ATOM     58  C   UNL     1      -9.657   7.814  -6.033  1.00  0.00     0.074 A 
ATOM     59  C   UNL     1      -6.219   9.938  -9.806  1.00  0.00     0.029 A 
ATOM     60  N   UNL     1      -8.029  11.119  -9.281  1.00  0.00    -0.354 N 
ATOM     61  N   UNL     1      -9.149   8.527  -7.000  1.00  0.00    -0.248 NA
ATOM     62  C   UNL     1     -11.045   7.439  -6.296  1.00  0.00     0.031 C 
ATOM     63  C   UNL     1      -7.323   9.055  -9.686  1.00  0.00     0.029 A 
ATOM     64  C   UNL     1      -8.434   9.799  -9.332  1.00  0.00     0.049 A 
ATOM     65  H   UNL     1      -8.626  11.885  -9.121  1.00  0.00     0.167 HD
ATOM     66  C   UNL     1     -10.087   8.719  -7.979  1.00  0.00     0.074 A 
ATOM     67  C   UNL     1     -11.257   8.007  -7.497  1.00  0.00     0.031 C 
ATOM     68  C   UNL     1      -9.829   9.453  -9.100  1.00  0.00     0.031 A 
BRANCH  55  69
ATOM     69  C   UNL     1      -5.051  13.224  -9.992  1.00  0.00    -0.014 A 
ATOM     70  C   UNL     1      -4.435  12.591 -11.091  1.00  0.00     0.010 A 
ATOM     71  C   UNL     1      -4.715  14.574  -9.774  1.00  0.00     0.010 A 
ATOM     72  C   UNL     1      -3.459  13.234 -11.865  1.00  0.00     0.020 A 
ATOM     73  C   UNL     1      -3.710  15.217 -10.515  1.00  0.00     0.020 A 
ATOM     74  C   UNL     1      -3.079  14.537 -11.553  1.00  0.00     0.054 A 
BRANCH  74  75
ATOM     75  S   UNL     1      -1.744  15.314 -12.502  1.00  0.00     0.124 S 
ATOM     76  O   UNL     1      -0.669  14.329 -12.403  1.00  0.00    -0.237 OA
ATOM     77  O   UNL     1      -2.345  15.459 -13.824  1.00  0.00    -0.237 OA
ATOM     78  O   UNL     1      -1.497  16.566 -11.790  1.00  0.00    -0.744 OA
ENDBRANCH  74  75
ENDBRANCH  55  69
BRANCH  56  79
ATOM     79  C   UNL     1      -9.459   7.575  -3.382  1.00  0.00    -0.014 A 
ATOM     80  C   UNL     1      -9.085   6.584  -2.449  1.00  0.00     0.010 A 
ATOM     81  C   UNL     1      -9.943   8.806  -2.908  1.00  0.00     0.010 A 
ATOM     82  C   UNL     1      -9.028   6.877  -1.083  1.00  0.00     0.020 A 
ATOM     83  C   UNL     1      -9.889   9.100  -1.536  1.00  0.00     0.020 A 
ATOM     84  C   UNL     1      -9.368   8.156  -0.646  1.00  0.00     0.054 A 
BRANCH  84  85
ATOM     85  S   UNL     1      -8.937   8.617   1.061  1.00  0.00     0.124 S 
ATOM     86  O   UNL     1      -9.703   7.656   1.847  1.00  0.00    -0.237 OA
ATOM     87  O   UNL     1      -7.486   8.424   1.075  1.00  0.00    -0.237 OA
ATOM     88  O   UNL     1      -9.378  10.004   1.155  1.00  0.00    -0.744 OA
ENDBRANCH  84  85
ENDBRANCH  56  79
BRANCH  68  89
ATOM     89  C   UNL     1     -10.843   9.866 -10.137  1.00  0.00    -0.014 A 
ATOM     90  C   UNL     1     -12.206  10.058  -9.868  1.00  0.00     0.010 A 
ATOM     91  C   UNL     1     -10.384  10.219 -11.430  1.00  0.00     0.010 A 
ATOM     92  C   UNL     1     -13.082  10.526 -10.859  1.00  0.00     0.020 A 
ATOM     93  C   UNL     1     -11.240  10.726 -12.411  1.00  0.00     0.020 A 
ATOM     94  C   UNL     1     -12.594  10.854 -12.125  1.00  0.00     0.054 A 
BRANCH  94  95
ATOM     95  S   UNL     1     -13.717  11.521 -13.379  1.00  0.00     0.124 S 
ATOM     96  O   UNL     1     -14.203  10.304 -14.024  1.00  0.00    -0.237 OA
ATOM     97  O   UNL     1     -14.706  12.245 -12.584  1.00  0.00    -0.237 OA
ATOM     98  O   UNL     1     -12.851  12.363 -14.200  1.00  0.00    -0.744 OA
ENDBRANCH  94  95
ENDBRANCH  68  89
ENDBRANCH  42  43
ENDBRANCH  34  37
ENDBRANCH  32  33
ENDBRANCH  31  32
ENDBRANCH   1  31
TORSDOF 17
