REMARK SMILES O=C(Cn1ncc2ccccc2c1=O)N[C@@H]1C[NH2+][C@H](C(=O)NCCCNC(=O)c2ccc(-c3c4nc(c(-c5ccc(S(=O)(=O)[O-])cc5)c5ccc([nH]5)c(-c5ccc(S(=O)(=O)[O-])cc5)c5nc(c(-c6ccc(S(=O)(=O)[O-])cc6)c6ccc3[nH]6)C=C5)C=C4)cc2)C1
REMARK SMILES IDX 24 1 23 2 22 3 20 4 21 5 19 7 16 8 17 9 89 10 18 11 15 14
REMARK SMILES IDX 1 15 2 16 3 18 4 19 5 20 13 21 6 22 12 23 14 24 7 25 11 26
REMARK SMILES IDX 8 27 10 28 9 29 25 30 26 31 27 32 28 34 29 35 30 36 88 37
REMARK SMILES IDX 31 38 87 39 32 40 33 41 34 42 81 43 35 44 86 45 80 46 82 47
REMARK SMILES IDX 36 48 85 49 79 50 78 51 37 53 67 54 48 55 66 56 49 57 52 58
REMARK SMILES IDX 65 59 83 60 50 61 51 62 64 64 84 65 53 66 38 67 39 68 47 69
REMARK SMILES IDX 40 70 46 71 41 72 42 73 43 74 44 75 45 76 68 77 69 78 77 79
REMARK SMILES IDX 70 80 76 81 71 82 72 83 73 84 74 85 75 86 54 87 55 88 63 89
REMARK SMILES IDX 56 90 62 91 57 92 58 93 59 94 60 95 61 96
REMARK H PARENT 22 6 18 12 18 13 15 17 26 33 82 52 52 63
REMARK Flexibility Score: inf
ROOT
ATOM      1  C   UNL     1       4.014   7.270   1.585  1.00  0.00     0.042 C 
ENDROOT
BRANCH   1   2
ATOM      2  C   UNL     1       3.015   7.283   0.435  1.00  0.00     0.118 C 
BRANCH   2   3
ATOM      3  N   UNL     1       3.593   6.782  -0.799  1.00  0.00    -0.351 N 
ATOM      4  C   UNL     1       3.321   5.638  -1.498  1.00  0.00     0.278 C 
ATOM      5  O   UNL     1       4.003   5.410  -2.499  1.00  0.00    -0.268 OA
ATOM      6  H   UNL     1       4.289   7.355  -1.194  1.00  0.00     0.163 HD
BRANCH   4   7
ATOM      7  C   UNL     1       2.213   4.698  -0.988  1.00  0.00     0.274 C 
ATOM      8  C   UNL     1       2.085   2.382  -0.388  1.00  0.00     0.143 C 
ATOM      9  C   UNL     1       1.982   2.533  -1.903  1.00  0.00     0.286 C 
ATOM     10  C   UNL     1       2.771   3.680   0.005  1.00  0.00     0.106 C 
ATOM     11  N   UNL     1       1.597   3.936  -2.111  1.00  0.00    -0.334 N 
ATOM     12  H   UNL     1       0.582   4.033  -2.091  1.00  0.00     0.347 HD
ATOM     13  H   UNL     1       1.915   4.281  -3.017  1.00  0.00     0.347 HD
BRANCH   8  14
ATOM     14  N   UNL     1       2.817   1.210   0.027  1.00  0.00    -0.346 N 
ATOM     15  O   UNL     1       1.090  -0.268  -0.275  1.00  0.00    -0.273 OA
ATOM     16  C   UNL     1       2.263  -0.056   0.024  1.00  0.00     0.242 C 
ATOM     17  H   UNL     1       3.749   1.317   0.326  1.00  0.00     0.164 HD
BRANCH  16  18
ATOM     18  C   UNL     1       3.271  -1.171   0.337  1.00  0.00     0.248 C 
BRANCH  18  19
ATOM     19  N   UNL     1       4.009  -1.546  -0.868  1.00  0.00    -0.220 N 
ATOM     20  N   UNL     1       3.925  -2.867  -1.264  1.00  0.00    -0.177 NA
ATOM     21  C   UNL     1       4.888  -0.626  -1.442  1.00  0.00     0.275 A 
ATOM     22  C   UNL     1       4.587  -3.233  -2.317  1.00  0.00     0.142 A 
ATOM     23  C   UNL     1       5.492  -1.012  -2.724  1.00  0.00     0.050 A 
ATOM     24  O   UNL     1       5.145   0.476  -0.959  1.00  0.00    -0.267 OA
ATOM     25  C   UNL     1       5.370  -2.325  -3.147  1.00  0.00     0.007 A 
ATOM     26  C   UNL     1       6.154  -0.077  -3.525  1.00  0.00     0.014 A 
ATOM     27  C   UNL     1       5.938  -2.747  -4.349  1.00  0.00     0.010 A 
ATOM     28  C   UNL     1       6.701  -0.481  -4.743  1.00  0.00     0.001 A 
ATOM     29  C   UNL     1       6.605  -1.815  -5.149  1.00  0.00     0.001 A 
ENDBRANCH  18  19
ENDBRANCH  16  18
ENDBRANCH   8  14
ENDBRANCH   4   7
ENDBRANCH   2   3
ENDBRANCH   1   2
BRANCH   1  30
ATOM     30  C   UNL     1       5.218   8.185   1.386  1.00  0.00     0.118 C 
BRANCH  30  31
ATOM     31  N   UNL     1       4.871   9.601   1.335  1.00  0.00    -0.352 N 
ATOM     32  C   UNL     1       5.312  10.658   2.099  1.00  0.00     0.251 C 
ATOM     33  H   UNL     1       4.215   9.839   0.640  1.00  0.00     0.163 HD
ATOM     34  O   UNL     1       4.784  11.759   1.962  1.00  0.00    -0.269 OA
BRANCH  32  35
ATOM     35  C   UNL     1       6.382  10.472   3.107  1.00  0.00     0.039 A 
ATOM     36  C   UNL     1       7.489   9.666   2.845  1.00  0.00     0.014 A 
ATOM     37  C   UNL     1       6.276  11.117   4.344  1.00  0.00     0.014 A 
ATOM     38  C   UNL     1       8.367   9.342   3.873  1.00  0.00     0.010 A 
ATOM     39  C   UNL     1       7.225  10.875   5.346  1.00  0.00     0.010 A 
ATOM     40  C   UNL     1       8.249   9.938   5.140  1.00  0.00    -0.014 A 
BRANCH  40  41
ATOM     41  C   UNL     1       9.209   9.556   6.215  1.00  0.00     0.031 A 
ATOM     42  C   UNL     1       8.734   8.869   7.472  1.00  0.00     0.074 A 
ATOM     43  C   UNL     1      10.530   9.741   6.010  1.00  0.00     0.049 A 
ATOM     44  N   UNL     1       9.447   8.373   8.452  1.00  0.00    -0.248 NA
ATOM     45  C   UNL     1       7.282   8.715   7.659  1.00  0.00     0.031 C 
ATOM     46  C   UNL     1      11.114  10.377   4.825  1.00  0.00     0.029 A 
ATOM     47  N   UNL     1      11.622   9.367   6.754  1.00  0.00    -0.354 N 
ATOM     48  C   UNL     1       8.537   7.849   9.364  1.00  0.00     0.074 A 
ATOM     49  C   UNL     1       7.216   8.129   8.848  1.00  0.00     0.031 C 
ATOM     50  C   UNL     1      12.448  10.263   4.878  1.00  0.00     0.029 A 
ATOM     51  C   UNL     1      12.825   9.617   6.131  1.00  0.00     0.049 A 
ATOM     52  H   UNL     1      11.552   8.960   7.647  1.00  0.00     0.167 HD
ATOM     53  C   UNL     1       8.780   7.173  10.511  1.00  0.00     0.031 A 
ATOM     54  C   UNL     1      14.091   9.353   6.512  1.00  0.00     0.031 A 
ATOM     55  C   UNL     1      10.098   6.880  11.015  1.00  0.00     0.049 A 
ATOM     56  C   UNL     1      14.328   8.658   7.824  1.00  0.00     0.074 A 
ATOM     57  C   UNL     1      10.438   6.194  12.169  1.00  0.00     0.029 A 
ATOM     58  N   UNL     1      11.288   7.236  10.399  1.00  0.00    -0.354 N 
ATOM     59  N   UNL     1      13.450   8.164   8.664  1.00  0.00    -0.248 NA
ATOM     60  C   UNL     1      15.726   8.481   8.239  1.00  0.00     0.031 C 
ATOM     61  C   UNL     1      11.829   6.194  12.286  1.00  0.00     0.029 A 
ATOM     62  C   UNL     1      12.361   6.808  11.164  1.00  0.00     0.049 A 
ATOM     63  H   UNL     1      11.360   7.721   9.546  1.00  0.00     0.167 HD
ATOM     64  C   UNL     1      14.191   7.602   9.698  1.00  0.00     0.074 A 
ATOM     65  C   UNL     1      15.587   7.790   9.363  1.00  0.00     0.031 C 
ATOM     66  C   UNL     1      13.750   6.994  10.826  1.00  0.00     0.031 A 
BRANCH  53  67
ATOM     67  C   UNL     1       7.609   6.660  11.313  1.00  0.00    -0.014 A 
ATOM     68  C   UNL     1       7.367   7.165  12.605  1.00  0.00     0.010 A 
ATOM     69  C   UNL     1       6.858   5.561  10.859  1.00  0.00     0.010 A 
ATOM     70  C   UNL     1       6.438   6.548  13.448  1.00  0.00     0.020 A 
ATOM     71  C   UNL     1       5.906   4.959  11.688  1.00  0.00     0.020 A 
ATOM     72  C   UNL     1       5.725   5.437  12.988  1.00  0.00     0.054 A 
BRANCH  72  73
ATOM     73  S   UNL     1       4.585   4.599  14.124  1.00  0.00     0.124 S 
ATOM     74  O   UNL     1       5.500   3.949  15.057  1.00  0.00    -0.237 OA
ATOM     75  O   UNL     1       3.808   5.710  14.669  1.00  0.00    -0.237 OA
ATOM     76  O   UNL     1       3.836   3.696  13.252  1.00  0.00    -0.744 OA
ENDBRANCH  72  73
ENDBRANCH  53  67
BRANCH  54  77
ATOM     77  C   UNL     1      15.226   9.716   5.616  1.00  0.00    -0.014 A 
ATOM     78  C   UNL     1      15.495  11.062   5.306  1.00  0.00     0.010 A 
ATOM     79  C   UNL     1      16.017   8.713   5.029  1.00  0.00     0.010 A 
ATOM     80  C   UNL     1      16.494  11.396   4.388  1.00  0.00     0.020 A 
ATOM     81  C   UNL     1      17.045   9.044   4.140  1.00  0.00     0.020 A 
ATOM     82  C   UNL     1      17.258  10.383   3.804  1.00  0.00     0.054 A 
BRANCH  82  83
ATOM     83  S   UNL     1      18.534  10.840   2.599  1.00  0.00     0.124 S 
ATOM     84  O   UNL     1      17.732  11.161   1.422  1.00  0.00    -0.237 OA
ATOM     85  O   UNL     1      19.188  11.976   3.244  1.00  0.00    -0.237 OA
ATOM     86  O   UNL     1      19.350   9.634   2.491  1.00  0.00    -0.744 OA
ENDBRANCH  82  83
ENDBRANCH  54  77
BRANCH  66  87
ATOM     87  C   UNL     1      14.777   6.474  11.800  1.00  0.00    -0.014 A 
ATOM     88  C   UNL     1      14.874   5.091  12.043  1.00  0.00     0.010 A 
ATOM     89  C   UNL     1      15.567   7.357  12.557  1.00  0.00     0.010 A 
ATOM     90  C   UNL     1      15.717   4.602  13.045  1.00  0.00     0.020 A 
ATOM     91  C   UNL     1      16.438   6.870  13.536  1.00  0.00     0.020 A 
ATOM     92  C   UNL     1      16.489   5.497  13.790  1.00  0.00     0.054 A 
BRANCH  92  93
ATOM     93  S   UNL     1      17.564   4.847  15.098  1.00  0.00     0.124 S 
ATOM     94  O   UNL     1      16.607   4.533  16.155  1.00  0.00    -0.237 OA
ATOM     95  O   UNL     1      18.193   3.696  14.454  1.00  0.00    -0.237 OA
ATOM     96  O   UNL     1      18.467   5.960  15.384  1.00  0.00    -0.744 OA
ENDBRANCH  92  93
ENDBRANCH  66  87
ENDBRANCH  40  41
ENDBRANCH  32  35
ENDBRANCH  30  31
ENDBRANCH   1  30
TORSDOF 16
