REMARK SMILES Cc1ccc(-c2cccc(F)c2C(=O)NCCCNC(=O)c2ccc(-c3c4nc(c(-c5ccc(S(=O)(=O)[O-])cc5)c5ccc([nH]5)c(-c5ccc(S(=O)(=O)[O-])cc5)c5nc(c(-c6ccc(S(=O)(=O)[O-])cc6)c6ccc3[nH]6)C=C5)C=C4)cc2)c(C)c1
REMARK SMILES IDX 18 1 17 2 16 3 15 4 13 5 14 6 12 8 6 9 7 10 8 11 10 12 9 13
REMARK SMILES IDX 11 14 5 15 1 16 2 17 3 18 84 19 4 20 82 21 83 22 19 23 20 24
REMARK SMILES IDX 21 26 22 27 23 28 81 29 24 30 80 31 25 32 26 33 27 34 74 35
REMARK SMILES IDX 28 36 79 37 73 38 75 39 29 40 78 41 72 42 71 43 30 45 60 46
REMARK SMILES IDX 41 47 59 48 42 49 45 50 58 51 76 52 43 53 44 54 57 56 77 57
REMARK SMILES IDX 46 58 31 59 32 60 40 61 33 62 39 63 34 64 35 65 36 66 37 67
REMARK SMILES IDX 38 68 61 69 62 70 70 71 63 72 69 73 64 74 65 75 66 76 67 77
REMARK SMILES IDX 68 78 47 79 48 80 56 81 49 82 55 83 50 84 51 85 52 86 53 87
REMARK SMILES IDX 54 88
REMARK H PARENT 15 7 19 25 75 44 45 55
REMARK Flexibility Score: inf
ROOT
ATOM      1  C   UNL     1      -6.239   0.794  -4.608  1.00  0.00     0.118 C 
ENDROOT
BRANCH   1   2
ATOM      2  C   UNL     1      -6.428  -0.094  -3.388  1.00  0.00     0.042 C 
BRANCH   2   3
ATOM      3  C   UNL     1      -5.488  -1.285  -3.268  1.00  0.00     0.118 C 
BRANCH   3   4
ATOM      4  N   UNL     1      -4.073  -0.951  -3.178  1.00  0.00    -0.352 N 
ATOM      5  C   UNL     1      -3.053  -1.406  -2.367  1.00  0.00     0.254 C 
ATOM      6  O   UNL     1      -1.908  -1.134  -2.730  1.00  0.00    -0.269 OA
ATOM      7  H   UNL     1      -3.788  -0.266  -3.825  1.00  0.00     0.163 HD
BRANCH   5   8
ATOM      8  C   UNL     1      -3.274  -2.129  -1.081  1.00  0.00     0.083 A 
ATOM      9  C   UNL     1      -2.473  -1.854   0.059  1.00  0.00    -0.002 A 
ATOM     10  C   UNL     1      -2.785  -2.495   1.283  1.00  0.00     0.010 A 
ATOM     11  C   UNL     1      -3.829  -3.411   1.382  1.00  0.00     0.004 A 
ATOM     12  C   UNL     1      -4.227  -3.148  -0.980  1.00  0.00     0.136 A 
ATOM     13  C   UNL     1      -4.535  -3.754   0.240  1.00  0.00     0.040 A 
ATOM     14  F   UNL     1      -4.832  -3.646  -2.069  1.00  0.00    -0.206 F 
BRANCH   9  15
ATOM     15  C   UNL     1      -1.248  -1.027   0.046  1.00  0.00    -0.015 A 
ATOM     16  C   UNL     1       2.509   1.138   0.039  1.00  0.00     0.044 C 
ATOM     17  C   UNL     1       1.217   0.378   0.064  1.00  0.00    -0.051 A 
ATOM     18  C   UNL     1       1.205  -1.013  -0.010  1.00  0.00     0.004 A 
ATOM     19  C   UNL     1      -0.005   1.061   0.134  1.00  0.00     0.007 A 
ATOM     20  C   UNL     1      -0.009  -1.701  -0.018  1.00  0.00     0.009 A 
ATOM     21  C   UNL     1      -1.239   0.378   0.137  1.00  0.00    -0.043 A 
ATOM     22  C   UNL     1      -2.495   1.203   0.188  1.00  0.00     0.045 C 
ENDBRANCH   9  15
ENDBRANCH   5   8
ENDBRANCH   3   4
ENDBRANCH   2   3
ENDBRANCH   1   2
BRANCH   1  23
ATOM     23  N   UNL     1      -6.460   0.106  -5.874  1.00  0.00    -0.352 N 
ATOM     24  C   UNL     1      -7.484   0.188  -6.790  1.00  0.00     0.251 C 
ATOM     25  H   UNL     1      -5.749  -0.530  -6.117  1.00  0.00     0.163 HD
ATOM     26  O   UNL     1      -7.522  -0.619  -7.715  1.00  0.00    -0.269 OA
BRANCH  24  27
ATOM     27  C   UNL     1      -8.552   1.210  -6.667  1.00  0.00     0.039 A 
ATOM     28  C   UNL     1      -9.868   0.854  -6.982  1.00  0.00     0.014 A 
ATOM     29  C   UNL     1      -8.271   2.520  -6.281  1.00  0.00     0.014 A 
ATOM     30  C   UNL     1     -10.902   1.784  -6.828  1.00  0.00     0.010 A 
ATOM     31  C   UNL     1      -9.310   3.414  -6.030  1.00  0.00     0.010 A 
ATOM     32  C   UNL     1     -10.639   3.060  -6.304  1.00  0.00    -0.014 A 
BRANCH  32  33
ATOM     33  C   UNL     1     -11.732   4.033  -6.034  1.00  0.00     0.031 A 
ATOM     34  C   UNL     1     -11.745   5.373  -6.726  1.00  0.00     0.074 A 
ATOM     35  C   UNL     1     -12.670   3.742  -5.107  1.00  0.00     0.049 A 
ATOM     36  N   UNL     1     -12.569   6.376  -6.561  1.00  0.00    -0.248 NA
ATOM     37  C   UNL     1     -10.679   5.635  -7.708  1.00  0.00     0.031 C 
ATOM     38  C   UNL     1     -12.735   2.504  -4.325  1.00  0.00     0.029 A 
ATOM     39  N   UNL     1     -13.742   4.472  -4.653  1.00  0.00    -0.354 N 
ATOM     40  C   UNL     1     -12.104   7.391  -7.390  1.00  0.00     0.074 A 
ATOM     41  C   UNL     1     -10.905   6.901  -8.029  1.00  0.00     0.031 C 
ATOM     42  C   UNL     1     -13.799   2.551  -3.508  1.00  0.00     0.029 A 
ATOM     43  C   UNL     1     -14.467   3.838  -3.669  1.00  0.00     0.049 A 
ATOM     44  H   UNL     1     -13.970   5.365  -4.999  1.00  0.00     0.167 HD
ATOM     45  C   UNL     1     -12.638   8.616  -7.611  1.00  0.00     0.031 A 
ATOM     46  C   UNL     1     -15.539   4.250  -2.963  1.00  0.00     0.031 A 
ATOM     47  C   UNL     1     -13.853   9.086  -7.002  1.00  0.00     0.049 A 
ATOM     48  C   UNL     1     -16.120   5.610  -3.246  1.00  0.00     0.074 A 
ATOM     49  C   UNL     1     -14.523  10.275  -7.234  1.00  0.00     0.029 A 
ATOM     50  N   UNL     1     -14.577   8.399  -6.041  1.00  0.00    -0.354 N 
ATOM     51  N   UNL     1     -15.719   6.514  -4.109  1.00  0.00    -0.248 NA
ATOM     52  C   UNL     1     -17.307   6.001  -2.472  1.00  0.00     0.031 C 
ATOM     53  C   UNL     1     -15.616  10.336  -6.366  1.00  0.00     0.029 A 
ATOM     54  C   UNL     1     -15.668   9.154  -5.645  1.00  0.00     0.049 A 
ATOM     55  H   UNL     1     -14.350   7.507  -5.692  1.00  0.00     0.167 HD
ATOM     56  C   UNL     1     -16.623   7.566  -4.001  1.00  0.00     0.074 A 
ATOM     57  C   UNL     1     -17.602   7.178  -3.007  1.00  0.00     0.031 C 
ATOM     58  C   UNL     1     -16.639   8.749  -4.662  1.00  0.00     0.031 A 
BRANCH  45  59
ATOM     59  C   UNL     1     -11.921   9.549  -8.553  1.00  0.00    -0.014 A 
ATOM     60  C   UNL     1     -11.906   9.318  -9.940  1.00  0.00     0.010 A 
ATOM     61  C   UNL     1     -11.343  10.730  -8.050  1.00  0.00     0.010 A 
ATOM     62  C   UNL     1     -11.317  10.245 -10.804  1.00  0.00     0.020 A 
ATOM     63  C   UNL     1     -10.777  11.672  -8.913  1.00  0.00     0.020 A 
ATOM     64  C   UNL     1     -10.763  11.420 -10.286  1.00  0.00     0.054 A 
BRANCH  64  65
ATOM     65  S   UNL     1     -10.078  12.640 -11.441  1.00  0.00     0.124 S 
ATOM     66  O   UNL     1      -8.870  11.967 -11.909  1.00  0.00    -0.237 OA
ATOM     67  O   UNL     1     -11.145  12.776 -12.429  1.00  0.00    -0.237 OA
ATOM     68  O   UNL     1      -9.851  13.818 -10.607  1.00  0.00    -0.744 OA
ENDBRANCH  64  65
ENDBRANCH  45  59
BRANCH  46  69
ATOM     69  C   UNL     1     -16.127   3.380  -1.905  1.00  0.00    -0.014 A 
ATOM     70  C   UNL     1     -17.418   2.841  -2.048  1.00  0.00     0.010 A 
ATOM     71  C   UNL     1     -15.405   3.111  -0.727  1.00  0.00     0.010 A 
ATOM     72  C   UNL     1     -17.993   2.090  -1.017  1.00  0.00     0.020 A 
ATOM     73  C   UNL     1     -15.962   2.332   0.291  1.00  0.00     0.020 A 
ATOM     74  C   UNL     1     -17.262   1.845   0.148  1.00  0.00     0.054 A 
BRANCH  74  75
ATOM     75  S   UNL     1     -18.022   0.865   1.472  1.00  0.00     0.124 S 
ATOM     76  O   UNL     1     -18.993   1.804   2.025  1.00  0.00    -0.237 OA
ATOM     77  O   UNL     1     -18.582  -0.271   0.744  1.00  0.00    -0.237 OA
ATOM     78  O   UNL     1     -16.897   0.540   2.346  1.00  0.00    -0.744 OA
ENDBRANCH  74  75
ENDBRANCH  46  69
BRANCH  58  79
ATOM     79  C   UNL     1     -17.773   9.695  -4.369  1.00  0.00    -0.014 A 
ATOM     80  C   UNL     1     -17.863  10.373  -3.141  1.00  0.00     0.010 A 
ATOM     81  C   UNL     1     -18.734   9.950  -5.365  1.00  0.00     0.010 A 
ATOM     82  C   UNL     1     -18.915  11.261  -2.901  1.00  0.00     0.020 A 
ATOM     83  C   UNL     1     -19.767  10.863  -5.142  1.00  0.00     0.020 A 
ATOM     84  C   UNL     1     -19.859  11.502  -3.904  1.00  0.00     0.054 A 
BRANCH  84  85
ATOM     85  S   UNL     1     -21.190  12.690  -3.582  1.00  0.00     0.124 S 
ATOM     86  O   UNL     1     -22.035  11.954  -2.645  1.00  0.00    -0.237 OA
ATOM     87  O   UNL     1     -20.471  13.830  -3.018  1.00  0.00    -0.237 OA
ATOM     88  O   UNL     1     -21.776  12.921  -4.900  1.00  0.00    -0.744 OA
ENDBRANCH  84  85
ENDBRANCH  58  79
ENDBRANCH  32  33
ENDBRANCH  24  27
ENDBRANCH   1  23
TORSDOF 14
