REMARK SMILES C[C@@H](C(=O)NCCCNC(=O)c1ccc(-c2c3nc(c(-c4ccc(S(=O)(=O)[O-])cc4)c4ccc([nH]4)c(-c4ccc(S(=O)(=O)[O-])cc4)c4nc(c(-c5ccc(S(=O)(=O)[O-])cc5)c5ccc2[nH]5)C=C4)C=C3)cc1)c1ccc(C[C@H]2CCCC2=O)cc1F
REMARK SMILES IDX 7 1 6 2 5 3 3 4 4 5 2 7 1 8 72 9 73 10 84 11 74 12 83 13
REMARK SMILES IDX 85 14 75 15 76 16 77 17 78 18 81 19 79 20 80 21 82 22 8 23
REMARK SMILES IDX 9 24 10 25 11 27 12 28 13 29 71 30 14 31 70 32 15 33 16 34
REMARK SMILES IDX 17 35 64 36 18 37 69 38 63 39 65 40 19 41 68 42 62 43 61 44
REMARK SMILES IDX 20 46 50 47 31 48 49 49 32 50 35 51 48 52 66 53 33 54 34 55
REMARK SMILES IDX 47 57 67 58 36 59 21 60 22 61 30 62 23 63 29 64 24 65 25 66
REMARK SMILES IDX 26 67 27 68 28 69 51 70 52 71 60 72 53 73 59 74 54 75 55 76
REMARK SMILES IDX 56 77 57 78 58 79 37 80 38 81 46 82 39 83 45 84 40 85 41 86
REMARK SMILES IDX 42 87 43 88 44 89
REMARK H PARENT 5 6 9 26 65 45 35 56
REMARK Flexibility Score: inf
ROOT
ATOM      1  C   UNL     1       4.374  -1.122   0.495  1.00  0.00     0.042 C 
ENDROOT
BRANCH   1   2
ATOM      2  C   UNL     1       3.403  -2.030  -0.262  1.00  0.00     0.117 C 
BRANCH   2   3
ATOM      3  N   UNL     1       2.320  -2.477   0.596  1.00  0.00    -0.356 N 
ATOM      4  C   UNL     1       1.043  -2.003   0.718  1.00  0.00     0.227 C 
ATOM      5  O   UNL     1       0.404  -2.360   1.709  1.00  0.00    -0.274 OA
ATOM      6  H   UNL     1       2.538  -3.239   1.180  1.00  0.00     0.163 HD
BRANCH   4   7
ATOM      7  C   UNL     1       0.474  -1.052  -0.354  1.00  0.00     0.108 C 
ATOM      8  C   UNL     1       1.005   0.358  -0.060  1.00  0.00     0.023 C 
BRANCH   7   9
ATOM      9  C   UNL     1      -1.052  -1.109  -0.446  1.00  0.00    -0.000 A 
ATOM     10  C   UNL     1      -1.840   0.045  -0.573  1.00  0.00     0.008 A 
ATOM     11  C   UNL     1      -1.723  -2.339  -0.428  1.00  0.00     0.127 A 
ATOM     12  C   UNL     1      -3.234  -0.027  -0.568  1.00  0.00     0.004 A 
ATOM     13  C   UNL     1      -3.116  -2.417  -0.373  1.00  0.00     0.043 A 
ATOM     14  F   UNL     1      -1.028  -3.486  -0.451  1.00  0.00    -0.207 F 
ATOM     15  C   UNL     1      -3.887  -1.251  -0.396  1.00  0.00    -0.044 A 
BRANCH  15  16
ATOM     16  C   UNL     1      -5.384  -1.297  -0.216  1.00  0.00     0.047 C 
BRANCH  16  17
ATOM     17  C   UNL     1      -5.920  -0.778   1.128  1.00  0.00     0.060 C 
ATOM     18  C   UNL     1      -5.361  -1.446   2.389  1.00  0.00     0.012 C 
ATOM     19  C   UNL     1      -5.595   0.678   1.377  1.00  0.00     0.136 C 
ATOM     20  C   UNL     1      -4.250  -0.535   2.900  1.00  0.00     0.009 C 
ATOM     21  C   UNL     1      -4.705   0.881   2.576  1.00  0.00     0.076 C 
ATOM     22  O   UNL     1      -6.021   1.597   0.686  1.00  0.00    -0.299 OA
ENDBRANCH  16  17
ENDBRANCH  15  16
ENDBRANCH   7   9
ENDBRANCH   4   7
ENDBRANCH   2   3
ENDBRANCH   1   2
BRANCH   1  23
ATOM     23  C   UNL     1       5.139  -1.816   1.616  1.00  0.00     0.118 C 
BRANCH  23  24
ATOM     24  N   UNL     1       6.097  -2.783   1.113  1.00  0.00    -0.352 N 
ATOM     25  C   UNL     1       7.440  -2.897   1.363  1.00  0.00     0.251 C 
ATOM     26  H   UNL     1       5.727  -3.460   0.501  1.00  0.00     0.163 HD
ATOM     27  O   UNL     1       8.108  -3.671   0.675  1.00  0.00    -0.269 OA
BRANCH  25  28
ATOM     28  C   UNL     1       8.097  -2.104   2.429  1.00  0.00     0.039 A 
ATOM     29  C   UNL     1       9.396  -1.636   2.206  1.00  0.00     0.014 A 
ATOM     30  C   UNL     1       7.482  -1.873   3.664  1.00  0.00     0.014 A 
ATOM     31  C   UNL     1      10.066  -0.927   3.205  1.00  0.00     0.010 A 
ATOM     32  C   UNL     1       8.123  -1.100   4.632  1.00  0.00     0.010 A 
ATOM     33  C   UNL     1       9.432  -0.643   4.425  1.00  0.00    -0.014 A 
BRANCH  33  34
ATOM     34  C   UNL     1      10.150   0.078   5.508  1.00  0.00     0.031 A 
ATOM     35  C   UNL     1      10.466  -0.625   6.803  1.00  0.00     0.074 A 
ATOM     36  C   UNL     1      10.498   1.368   5.342  1.00  0.00     0.049 A 
ATOM     37  N   UNL     1      11.075  -0.164   7.866  1.00  0.00    -0.248 NA
ATOM     38  C   UNL     1      10.018  -2.022   6.929  1.00  0.00     0.031 C 
ATOM     39  C   UNL     1      10.212   2.177   4.155  1.00  0.00     0.029 A 
ATOM     40  N   UNL     1      11.169   2.227   6.176  1.00  0.00    -0.354 N 
ATOM     41  C   UNL     1      11.070  -1.205   8.788  1.00  0.00     0.074 A 
ATOM     42  C   UNL     1      10.348  -2.302   8.181  1.00  0.00     0.031 C 
ATOM     43  C   UNL     1      10.724   3.407   4.328  1.00  0.00     0.029 A 
ATOM     44  C   UNL     1      11.352   3.482   5.644  1.00  0.00     0.049 A 
ATOM     45  H   UNL     1      11.490   1.969   7.070  1.00  0.00     0.167 HD
ATOM     46  C   UNL     1      11.634  -1.258  10.019  1.00  0.00     0.031 A 
ATOM     47  C   UNL     1      11.959   4.570   6.156  1.00  0.00     0.031 A 
ATOM     48  C   UNL     1      12.362  -0.172  10.619  1.00  0.00     0.049 A 
ATOM     49  C   UNL     1      12.605   4.483   7.511  1.00  0.00     0.074 A 
ATOM     50  C   UNL     1      13.002  -0.136  11.846  1.00  0.00     0.029 A 
ATOM     51  N   UNL     1      12.555   1.069  10.031  1.00  0.00    -0.354 N 
ATOM     52  N   UNL     1      12.632   3.472   8.347  1.00  0.00    -0.248 NA
ATOM     53  C   UNL     1      13.323   5.675   7.981  1.00  0.00     0.031 C 
ATOM     54  C   UNL     1      13.553   1.140  12.014  1.00  0.00     0.029 A 
ATOM     55  C   UNL     1      13.299   1.881  10.871  1.00  0.00     0.049 A 
ATOM     56  H   UNL     1      12.212   1.335   9.147  1.00  0.00     0.167 HD
ATOM     57  C   UNL     1      13.392   3.898   9.430  1.00  0.00     0.074 A 
ATOM     58  C   UNL     1      13.817   5.252   9.136  1.00  0.00     0.031 C 
ATOM     59  C   UNL     1      13.712   3.227  10.565  1.00  0.00     0.031 A 
BRANCH  46  60
ATOM     60  C   UNL     1      11.479  -2.541  10.793  1.00  0.00    -0.014 A 
ATOM     61  C   UNL     1      12.146  -3.714  10.390  1.00  0.00     0.010 A 
ATOM     62  C   UNL     1      10.665  -2.578  11.939  1.00  0.00     0.010 A 
ATOM     63  C   UNL     1      11.957  -4.911  11.085  1.00  0.00     0.020 A 
ATOM     64  C   UNL     1      10.497  -3.768  12.654  1.00  0.00     0.020 A 
ATOM     65  C   UNL     1      11.126  -4.932  12.208  1.00  0.00     0.054 A 
BRANCH  65  66
ATOM     66  S   UNL     1      10.895  -6.500  13.091  1.00  0.00     0.124 S 
ATOM     67  O   UNL     1       9.988  -7.216  12.197  1.00  0.00    -0.237 OA
ATOM     68  O   UNL     1      12.253  -7.032  13.164  1.00  0.00    -0.237 OA
ATOM     69  O   UNL     1      10.318  -6.095  14.371  1.00  0.00    -0.744 OA
ENDBRANCH  65  66
ENDBRANCH  46  60
BRANCH  47  70
ATOM     70  C   UNL     1      12.012   5.826   5.359  1.00  0.00    -0.014 A 
ATOM     71  C   UNL     1      13.213   6.242   4.758  1.00  0.00     0.010 A 
ATOM     72  C   UNL     1      10.849   6.594   5.170  1.00  0.00     0.010 A 
ATOM     73  C   UNL     1      13.252   7.411   3.993  1.00  0.00     0.020 A 
ATOM     74  C   UNL     1      10.879   7.750   4.385  1.00  0.00     0.020 A 
ATOM     75  C   UNL     1      12.084   8.156   3.808  1.00  0.00     0.054 A 
BRANCH  75  76
ATOM     76  S   UNL     1      12.142   9.632   2.753  1.00  0.00     0.124 S 
ATOM     77  O   UNL     1      12.803  10.600   3.622  1.00  0.00    -0.237 OA
ATOM     78  O   UNL     1      12.923   9.172   1.608  1.00  0.00    -0.237 OA
ATOM     79  O   UNL     1      10.734   9.902   2.468  1.00  0.00    -0.744 OA
ENDBRANCH  75  76
ENDBRANCH  47  70
BRANCH  59  80
ATOM     80  C   UNL     1      14.596   3.933  11.557  1.00  0.00    -0.014 A 
ATOM     81  C   UNL     1      14.110   4.991  12.346  1.00  0.00     0.010 A 
ATOM     82  C   UNL     1      15.925   3.505  11.727  1.00  0.00     0.010 A 
ATOM     83  C   UNL     1      14.950   5.635  13.258  1.00  0.00     0.020 A 
ATOM     84  C   UNL     1      16.761   4.129  12.656  1.00  0.00     0.020 A 
ATOM     85  C   UNL     1      16.273   5.203  13.403  1.00  0.00     0.054 A 
BRANCH  85  86
ATOM     86  S   UNL     1      17.339   6.036  14.611  1.00  0.00     0.124 S 
ATOM     87  O   UNL     1      17.669   7.278  13.917  1.00  0.00    -0.237 OA
ATOM     88  O   UNL     1      16.463   6.179  15.771  1.00  0.00    -0.237 OA
ATOM     89  O   UNL     1      18.452   5.106  14.789  1.00  0.00    -0.744 OA
ENDBRANCH  85  86
ENDBRANCH  59  80
ENDBRANCH  33  34
ENDBRANCH  25  28
ENDBRANCH  23  24
ENDBRANCH   1  23
TORSDOF 16
