REMARK SMILES O=C(NCCCNC(=O)[C@H]1Cc2cc(O)ccc2C[NH2+]1)c1ccc(-c2c3nc(c(-c4ccc(S(=O)(=O)[O-])cc4)c4ccc([nH]4)c(-c4ccc(S(=O)(=O)[O-])cc4)c4nc(c(-c5ccc(S(=O)(=O)[O-])cc5)c5ccc2[nH]5)C=C4)C=C3)cc1
REMARK SMILES IDX 4 1 3 2 1 3 2 4 21 6 22 7 80 8 23 9 79 10 24 11 25 12 26 13
REMARK SMILES IDX 73 14 27 15 78 16 72 17 74 18 28 19 77 20 71 21 70 22 29 24
REMARK SMILES IDX 59 25 40 26 58 27 41 28 44 29 57 30 75 31 42 32 43 33 56 35
REMARK SMILES IDX 76 36 45 37 30 38 31 39 39 40 32 41 38 42 33 43 34 44 35 45
REMARK SMILES IDX 36 46 37 47 60 48 61 49 69 50 62 51 68 52 63 53 64 54 65 55
REMARK SMILES IDX 66 56 67 57 46 58 47 59 55 60 48 61 54 62 49 63 50 64 51 65
REMARK SMILES IDX 52 66 53 67 5 68 6 69 7 70 8 71 9 73 10 74 11 75 20 76 12 77
REMARK SMILES IDX 19 78 13 81 18 82 14 83 17 84 16 85 15 86
REMARK H PARENT 3 5 74 23 44 34 7 72 20 79 20 80 15 87
REMARK Flexibility Score: inf
ROOT
ATOM      1  C   UNL     1       4.579  -1.046  -0.792  1.00  0.00     0.118 C 
ENDROOT
BRANCH   1   2
ATOM      2  N   UNL     1       3.186  -0.628  -0.890  1.00  0.00    -0.352 N 
ATOM      3  O   UNL     1       1.236   0.179  -0.161  1.00  0.00    -0.269 OA
ATOM      4  C   UNL     1       2.462   0.269  -0.151  1.00  0.00     0.251 C 
ATOM      5  H   UNL     1       2.679  -1.066  -1.611  1.00  0.00     0.163 HD
BRANCH   4   6
ATOM      6  C   UNL     1       3.115   1.358   0.612  1.00  0.00     0.039 A 
ATOM      7  C   UNL     1       2.450   1.886   1.726  1.00  0.00     0.014 A 
ATOM      8  C   UNL     1       4.287   1.967   0.158  1.00  0.00     0.014 A 
ATOM      9  C   UNL     1       2.944   3.028   2.361  1.00  0.00     0.010 A 
ATOM     10  C   UNL     1       4.830   3.049   0.846  1.00  0.00     0.010 A 
ATOM     11  C   UNL     1       4.133   3.625   1.916  1.00  0.00    -0.014 A 
BRANCH  11  12
ATOM     12  C   UNL     1       4.592   4.930   2.454  1.00  0.00     0.031 A 
ATOM     13  C   UNL     1       4.611   6.132   1.542  1.00  0.00     0.074 A 
ATOM     14  C   UNL     1       5.000   5.039   3.732  1.00  0.00     0.049 A 
ATOM     15  N   UNL     1       5.064   7.337   1.774  1.00  0.00    -0.248 NA
ATOM     16  C   UNL     1       4.075   5.950   0.179  1.00  0.00     0.031 C 
ATOM     17  C   UNL     1       5.022   3.949   4.709  1.00  0.00     0.029 A 
ATOM     18  N   UNL     1       5.466   6.123   4.432  1.00  0.00    -0.354 N 
ATOM     19  C   UNL     1       4.895   8.039   0.585  1.00  0.00     0.074 A 
ATOM     20  C   UNL     1       4.346   7.119  -0.382  1.00  0.00     0.031 C 
ATOM     21  C   UNL     1       5.438   4.430   5.893  1.00  0.00     0.029 A 
ATOM     22  C   UNL     1       5.751   5.850   5.750  1.00  0.00     0.049 A 
ATOM     23  H   UNL     1       5.586   7.013   4.029  1.00  0.00     0.167 HD
ATOM     24  C   UNL     1       5.146   9.344   0.332  1.00  0.00     0.031 A 
ATOM     25  C   UNL     1       6.204   6.654   6.732  1.00  0.00     0.031 A 
ATOM     26  C   UNL     1       5.631  10.270   1.318  1.00  0.00     0.049 A 
ATOM     27  C   UNL     1       6.457   8.107   6.431  1.00  0.00     0.074 A 
ATOM     28  C   UNL     1       5.890  11.620   1.170  1.00  0.00     0.029 A 
ATOM     29  N   UNL     1       5.893   9.950   2.641  1.00  0.00    -0.354 N 
ATOM     30  N   UNL     1       6.301   8.749   5.298  1.00  0.00    -0.248 NA
ATOM     31  C   UNL     1       6.936   8.947   7.539  1.00  0.00     0.031 C 
ATOM     32  C   UNL     1       6.340  12.113   2.396  1.00  0.00     0.029 A 
ATOM     33  C   UNL     1       6.307  11.080   3.321  1.00  0.00     0.049 A 
ATOM     34  H   UNL     1       5.799   9.054   3.037  1.00  0.00     0.167 HD
ATOM     35  C   UNL     1       6.628  10.074   5.565  1.00  0.00     0.074 A 
ATOM     36  C   UNL     1       6.988  10.143   6.966  1.00  0.00     0.031 C 
ATOM     37  C   UNL     1       6.631  11.135   4.724  1.00  0.00     0.031 A 
BRANCH  24  38
ATOM     38  C   UNL     1       4.869   9.873  -1.050  1.00  0.00    -0.014 A 
ATOM     39  C   UNL     1       5.934  10.300  -1.864  1.00  0.00     0.010 A 
ATOM     40  C   UNL     1       3.548  10.061  -1.496  1.00  0.00     0.010 A 
ATOM     41  C   UNL     1       5.685  10.935  -3.083  1.00  0.00     0.020 A 
ATOM     42  C   UNL     1       3.295  10.672  -2.727  1.00  0.00     0.020 A 
ATOM     43  C   UNL     1       4.365  11.129  -3.501  1.00  0.00     0.054 A 
BRANCH  43  44
ATOM     44  S   UNL     1       4.057  11.988  -5.068  1.00  0.00     0.124 S 
ATOM     45  O   UNL     1       4.294  13.382  -4.706  1.00  0.00    -0.237 OA
ATOM     46  O   UNL     1       5.047  11.391  -5.961  1.00  0.00    -0.237 OA
ATOM     47  O   UNL     1       2.670  11.647  -5.376  1.00  0.00    -0.744 OA
ENDBRANCH  43  44
ENDBRANCH  24  38
BRANCH  25  48
ATOM     48  C   UNL     1       6.383   6.107   8.105  1.00  0.00    -0.014 A 
ATOM     49  C   UNL     1       7.408   5.185   8.385  1.00  0.00     0.010 A 
ATOM     50  C   UNL     1       5.489   6.466   9.129  1.00  0.00     0.010 A 
ATOM     51  C   UNL     1       7.513   4.606   9.653  1.00  0.00     0.020 A 
ATOM     52  C   UNL     1       5.607   5.909  10.406  1.00  0.00     0.020 A 
ATOM     53  C   UNL     1       6.605   4.964  10.653  1.00  0.00     0.054 A 
BRANCH  53  54
ATOM     54  S   UNL     1       6.745   4.188  12.287  1.00  0.00     0.124 S 
ATOM     55  O   UNL     1       6.120   2.889  12.055  1.00  0.00    -0.237 OA
ATOM     56  O   UNL     1       8.190   4.161  12.507  1.00  0.00    -0.237 OA
ATOM     57  O   UNL     1       6.004   5.094  13.159  1.00  0.00    -0.744 OA
ENDBRANCH  53  54
ENDBRANCH  25  48
BRANCH  37  58
ATOM     58  C   UNL     1       6.993  12.487   5.275  1.00  0.00    -0.014 A 
ATOM     59  C   UNL     1       6.000  13.479   5.373  1.00  0.00     0.010 A 
ATOM     60  C   UNL     1       8.332  12.822   5.540  1.00  0.00     0.010 A 
ATOM     61  C   UNL     1       6.343  14.795   5.687  1.00  0.00     0.020 A 
ATOM     62  C   UNL     1       8.675  14.133   5.879  1.00  0.00     0.020 A 
ATOM     63  C   UNL     1       7.683  15.117   5.923  1.00  0.00     0.054 A 
BRANCH  63  64
ATOM     64  S   UNL     1       8.120  16.840   6.282  1.00  0.00     0.124 S 
ATOM     65  O   UNL     1       8.116  17.440   4.951  1.00  0.00    -0.237 OA
ATOM     66  O   UNL     1       7.043  17.270   7.170  1.00  0.00    -0.237 OA
ATOM     67  O   UNL     1       9.433  16.732   6.915  1.00  0.00    -0.744 OA
ENDBRANCH  63  64
ENDBRANCH  37  58
ENDBRANCH  11  12
ENDBRANCH   4   6
ENDBRANCH   1   2
BRANCH   1  68
ATOM     68  C   UNL     1       4.700  -2.407  -0.111  1.00  0.00     0.042 C 
BRANCH  68  69
ATOM     69  C   UNL     1       4.050  -3.521  -0.924  1.00  0.00     0.118 C 
BRANCH  69  70
ATOM     70  N   UNL     1       4.929  -4.027  -1.962  1.00  0.00    -0.351 N 
ATOM     71  C   UNL     1       5.778  -5.078  -2.053  1.00  0.00     0.278 C 
ATOM     72  H   UNL     1       4.902  -3.486  -2.783  1.00  0.00     0.163 HD
ATOM     73  O   UNL     1       6.344  -5.206  -3.152  1.00  0.00    -0.268 OA
BRANCH  71  74
ATOM     74  C   UNL     1       6.065  -6.136  -0.957  1.00  0.00     0.277 C 
ATOM     75  C   UNL     1       5.502  -5.926   0.442  1.00  0.00     0.111 C 
ATOM     76  N   UNL     1       5.609  -7.452  -1.483  1.00  0.00    -0.332 N 
ATOM     77  C   UNL     1       5.725  -7.100   1.360  1.00  0.00    -0.029 A 
ATOM     78  C   UNL     1       6.162  -8.544  -0.674  1.00  0.00     0.298 C 
ATOM     79  H   UNL     1       5.923  -7.556  -2.448  1.00  0.00     0.347 HD
ATOM     80  H   UNL     1       4.590  -7.492  -1.440  1.00  0.00     0.347 HD
ATOM     81  C   UNL     1       5.540  -6.943   2.739  1.00  0.00     0.050 A 
ATOM     82  C   UNL     1       5.929  -8.378   0.811  1.00  0.00     0.010 A 
ATOM     83  C   UNL     1       5.547  -8.057   3.565  1.00  0.00     0.115 A 
ATOM     84  C   UNL     1       5.956  -9.488   1.667  1.00  0.00     0.013 A 
ATOM     85  C   UNL     1       5.751  -9.330   3.042  1.00  0.00     0.046 A 
BRANCH  83  86
ATOM     86  O   UNL     1       5.319  -7.856   4.893  1.00  0.00    -0.508 OA
ATOM     87  H   UNL     1       5.184  -6.988   5.220  1.00  0.00     0.293 HD
ENDBRANCH  83  86
ENDBRANCH  71  74
ENDBRANCH  69  70
ENDBRANCH  68  69
ENDBRANCH   1  68
TORSDOF 14
