REMARK SMILES C#Cc1cccc(NS(=O)(=O)c2ccc(F)c(C(=O)NCCCNC(=O)c3ccc(-c4c5nc(c(-c6ccc(S(=O)(=O)[O-])cc6)c6ccc([nH]6)c(-c6ccc(S(=O)(=O)[O-])cc6)c6nc(c(-c7ccc(S(=O)(=O)[O-])cc7)c7ccc4[nH]7)C=C6)C=C5)cc3)c2)c1
REMARK SMILES IDX 21 1 20 2 18 3 19 4 17 6 12 7 13 8 87 9 14 10 15 11 16 12
REMARK SMILES IDX 9 13 10 14 11 15 8 16 7 18 3 19 4 20 88 21 5 22 6 23 2 24
REMARK SMILES IDX 1 25 22 26 23 27 24 28 25 29 26 31 27 32 28 33 86 34 29 35
REMARK SMILES IDX 85 36 30 37 31 38 32 39 79 40 33 41 84 42 78 43 80 44 34 45
REMARK SMILES IDX 83 46 77 47 76 48 35 50 65 51 46 52 64 53 47 54 50 55 63 56
REMARK SMILES IDX 81 57 48 58 49 59 62 61 82 62 51 63 36 64 37 65 45 66 38 67
REMARK SMILES IDX 44 68 39 69 40 70 41 71 42 72 43 73 66 74 67 75 75 76 68 77
REMARK SMILES IDX 74 78 69 79 70 80 71 81 72 82 73 83 52 84 53 85 61 86 54 87
REMARK SMILES IDX 60 88 55 89 56 90 57 91 58 92 59 93
REMARK H PARENT 20 5 8 17 24 30 80 49 50 60
REMARK Flexibility Score: inf
ROOT
ATOM      1  C   UNL     1       7.942   3.577   0.056  1.00  0.00     0.118 C 
ENDROOT
BRANCH   1   2
ATOM      2  N   UNL     1       8.363   2.261   0.495  1.00  0.00    -0.352 N 
ATOM      3  C   UNL     1       7.691   1.085   0.696  1.00  0.00     0.254 C 
ATOM      4  O   UNL     1       8.343   0.148   1.163  1.00  0.00    -0.269 OA
ATOM      5  H   UNL     1       9.327   2.200   0.689  1.00  0.00     0.163 HD
BRANCH   3   6
ATOM      6  C   UNL     1       6.289   0.835   0.264  1.00  0.00     0.076 A 
ATOM      7  C   UNL     1       4.649  -0.830  -0.433  1.00  0.00     0.088 A 
ATOM      8  C   UNL     1       3.889   0.157  -1.050  1.00  0.00     0.025 A 
ATOM      9  C   UNL     1       5.891  -0.505   0.136  1.00  0.00     0.039 A 
ATOM     10  C   UNL     1       4.198   1.486  -0.775  1.00  0.00     0.041 A 
ATOM     11  C   UNL     1       5.338   1.802  -0.037  1.00  0.00     0.136 A 
ATOM     12  F   UNL     1       5.404   3.043   0.458  1.00  0.00    -0.206 F 
BRANCH   7  13
ATOM     13  S   UNL     1       3.965  -2.426  -0.033  1.00  0.00     0.261 S 
ATOM     14  O   UNL     1       4.410  -2.753   1.304  1.00  0.00    -0.201 OA
ATOM     15  O   UNL     1       4.271  -3.289  -1.156  1.00  0.00    -0.201 OA
BRANCH  13  16
ATOM     16  N   UNL     1       2.288  -2.346   0.011  1.00  0.00    -0.280 N 
ATOM     17  H   UNL     1       1.814  -3.165  -0.263  1.00  0.00     0.180 HD
BRANCH  16  18
ATOM     18  C   UNL     1       1.456  -1.249   0.392  1.00  0.00     0.050 A 
ATOM     19  C   UNL     1      -0.703  -0.180   0.078  1.00  0.00     0.026 A 
ATOM     20  C   UNL     1      -0.175   1.020   0.545  1.00  0.00     0.017 A 
ATOM     21  C   UNL     1       0.119  -1.306  -0.026  1.00  0.00     0.044 A 
ATOM     22  C   UNL     1       1.109   1.040   1.082  1.00  0.00     0.003 A 
ATOM     23  C   UNL     1       1.889  -0.123   1.088  1.00  0.00     0.027 A 
BRANCH  19  24
ATOM     24  C   UNL     1      -2.097  -0.252  -0.224  1.00  0.00    -0.070 C 
ATOM     25  C   UNL     1      -3.294  -0.270  -0.347  1.00  0.00     0.010 C 
ENDBRANCH  19  24
ENDBRANCH  16  18
ENDBRANCH  13  16
ENDBRANCH   7  13
ENDBRANCH   3   6
ENDBRANCH   1   2
BRANCH   1  26
ATOM     26  C   UNL     1       7.669   4.472   1.264  1.00  0.00     0.042 C 
BRANCH  26  27
ATOM     27  C   UNL     1       8.944   5.133   1.774  1.00  0.00     0.118 C 
BRANCH  27  28
ATOM     28  N   UNL     1       9.476   6.074   0.794  1.00  0.00    -0.352 N 
ATOM     29  C   UNL     1       9.723   7.417   0.907  1.00  0.00     0.251 C 
ATOM     30  H   UNL     1       9.691   5.684  -0.084  1.00  0.00     0.163 HD
ATOM     31  O   UNL     1       9.905   8.085  -0.107  1.00  0.00    -0.269 OA
BRANCH  29  32
ATOM     32  C   UNL     1       9.766   8.048   2.239  1.00  0.00     0.039 A 
ATOM     33  C   UNL     1       9.226   9.326   2.399  1.00  0.00     0.014 A 
ATOM     34  C   UNL     1      10.359   7.391   3.320  1.00  0.00     0.014 A 
ATOM     35  C   UNL     1       9.239   9.923   3.658  1.00  0.00     0.010 A 
ATOM     36  C   UNL     1      10.285   7.946   4.590  1.00  0.00     0.010 A 
ATOM     37  C   UNL     1       9.736   9.223   4.770  1.00  0.00    -0.014 A 
BRANCH  37  38
ATOM     38  C   UNL     1       9.694   9.814   6.130  1.00  0.00     0.031 A 
ATOM     39  C   UNL     1      10.972  10.071   6.881  1.00  0.00     0.074 A 
ATOM     40  C   UNL     1       8.502  10.069   6.702  1.00  0.00     0.049 A 
ATOM     41  N   UNL     1      11.134  10.542   8.090  1.00  0.00    -0.248 NA
ATOM     42  C   UNL     1      12.232   9.731   6.197  1.00  0.00     0.031 C 
ATOM     43  C   UNL     1       7.196   9.825   6.083  1.00  0.00     0.029 A 
ATOM     44  N   UNL     1       8.192  10.588   7.933  1.00  0.00    -0.354 N 
ATOM     45  C   UNL     1      12.506  10.543   8.315  1.00  0.00     0.074 A 
ATOM     46  C   UNL     1      13.128   9.969   7.144  1.00  0.00     0.031 C 
ATOM     47  C   UNL     1       6.229  10.230   6.921  1.00  0.00     0.029 A 
ATOM     48  C   UNL     1       6.840  10.708   8.157  1.00  0.00     0.049 A 
ATOM     49  H   UNL     1       8.872  10.850   8.595  1.00  0.00     0.167 HD
ATOM     50  C   UNL     1      13.186  11.000   9.393  1.00  0.00     0.031 A 
ATOM     51  C   UNL     1       6.167  11.142   9.239  1.00  0.00     0.031 A 
ATOM     52  C   UNL     1      12.556  11.566  10.556  1.00  0.00     0.049 A 
ATOM     53  C   UNL     1       6.946  11.609  10.438  1.00  0.00     0.074 A 
ATOM     54  C   UNL     1      13.155  12.103  11.681  1.00  0.00     0.029 A 
ATOM     55  N   UNL     1      11.185  11.660  10.748  1.00  0.00    -0.354 N 
ATOM     56  N   UNL     1       8.246  11.669  10.605  1.00  0.00    -0.248 NA
ATOM     57  C   UNL     1       6.167  12.078  11.592  1.00  0.00     0.031 C 
ATOM     58  C   UNL     1      12.148  12.451  12.586  1.00  0.00     0.029 A 
ATOM     59  C   UNL     1      10.919  12.213  11.989  1.00  0.00     0.049 A 
ATOM     60  H   UNL     1      10.502  11.376  10.098  1.00  0.00     0.167 HD
ATOM     61  C   UNL     1       8.441  12.215  11.869  1.00  0.00     0.074 A 
ATOM     62  C   UNL     1       7.125  12.483  12.414  1.00  0.00     0.031 C 
ATOM     63  C   UNL     1       9.603  12.472  12.519  1.00  0.00     0.031 A 
BRANCH  50  64
ATOM     64  C   UNL     1      14.690  10.892   9.370  1.00  0.00    -0.014 A 
ATOM     65  C   UNL     1      15.465  11.646   8.470  1.00  0.00     0.010 A 
ATOM     66  C   UNL     1      15.343  10.056  10.295  1.00  0.00     0.010 A 
ATOM     67  C   UNL     1      16.858  11.537   8.468  1.00  0.00     0.020 A 
ATOM     68  C   UNL     1      16.738   9.971  10.321  1.00  0.00     0.020 A 
ATOM     69  C   UNL     1      17.486  10.701   9.396  1.00  0.00     0.054 A 
BRANCH  69  70
ATOM     70  S   UNL     1      19.297  10.607   9.391  1.00  0.00     0.124 S 
ATOM     71  O   UNL     1      19.559   9.914   8.132  1.00  0.00    -0.237 OA
ATOM     72  O   UNL     1      19.688  12.014   9.427  1.00  0.00    -0.237 OA
ATOM     73  O   UNL     1      19.610   9.844  10.598  1.00  0.00    -0.744 OA
ENDBRANCH  69  70
ENDBRANCH  50  64
BRANCH  51  74
ATOM     74  C   UNL     1       4.677  11.156   9.235  1.00  0.00    -0.014 A 
ATOM     75  C   UNL     1       3.970  12.371   9.267  1.00  0.00     0.010 A 
ATOM     76  C   UNL     1       3.955   9.949   9.191  1.00  0.00     0.010 A 
ATOM     77  C   UNL     1       2.571  12.377   9.279  1.00  0.00     0.020 A 
ATOM     78  C   UNL     1       2.558   9.952   9.165  1.00  0.00     0.020 A 
ATOM     79  C   UNL     1       1.875  11.167   9.222  1.00  0.00     0.054 A 
BRANCH  79  80
ATOM     80  S   UNL     1       0.062  11.204   9.190  1.00  0.00     0.124 S 
ATOM     81  O   UNL     1      -0.258  11.658  10.540  1.00  0.00    -0.237 OA
ATOM     82  O   UNL     1      -0.213  12.157   8.118  1.00  0.00    -0.237 OA
ATOM     83  O   UNL     1      -0.304   9.820   8.892  1.00  0.00    -0.744 OA
ENDBRANCH  79  80
ENDBRANCH  51  74
BRANCH  63  84
ATOM     84  C   UNL     1       9.511  13.117  13.878  1.00  0.00    -0.014 A 
ATOM     85  C   UNL     1       9.002  12.424  14.991  1.00  0.00     0.010 A 
ATOM     86  C   UNL     1       9.998  14.427  14.053  1.00  0.00     0.010 A 
ATOM     87  C   UNL     1       8.949  13.041  16.243  1.00  0.00     0.020 A 
ATOM     88  C   UNL     1       9.982  15.033  15.311  1.00  0.00     0.020 A 
ATOM     89  C   UNL     1       9.444  14.340  16.396  1.00  0.00     0.054 A 
BRANCH  89  90
ATOM     90  S   UNL     1       9.406  15.098  18.042  1.00  0.00     0.124 S 
ATOM     91  O   UNL     1       7.976  15.312  18.246  1.00  0.00    -0.237 OA
ATOM     92  O   UNL     1      10.013  14.067  18.881  1.00  0.00    -0.237 OA
ATOM     93  O   UNL     1      10.201  16.314  17.884  1.00  0.00    -0.744 OA
ENDBRANCH  89  90
ENDBRANCH  63  84
ENDBRANCH  37  38
ENDBRANCH  29  32
ENDBRANCH  27  28
ENDBRANCH  26  27
ENDBRANCH   1  26
TORSDOF 17
