REMARK SMILES COc1cccc([C@H]2CC(c3ccc(S(C)(=O)=O)cc3)=NN2c2ccc(C(=O)NCCCNC(=O)c3ccc(-c4c5nc(c(-c6ccc(S(=O)(=O)[O-])cc6)c6ccc([nH]6)c(-c6ccc(S(=O)(=O)[O-])cc6)c6nc(c(-c7ccc(S(=O)(=O)[O-])cc7)c7ccc4[nH]7)C=C6)C=C5)cc3)cc2)c1
REMARK SMILES IDX 31 1 30 2 29 3 27 4 28 5 26 7 23 8 24 9 97 10 25 11 96 12
REMARK SMILES IDX 22 13 8 14 9 15 10 16 21 17 7 18 3 19 4 20 98 21 5 22 6 23
REMARK SMILES IDX 2 24 1 25 11 26 12 27 20 28 13 29 19 30 14 31 15 32 16 33
REMARK SMILES IDX 17 34 18 35 32 36 33 37 34 38 35 40 36 41 37 42 95 43 38 44
REMARK SMILES IDX 94 45 39 46 40 47 41 48 88 49 42 50 93 51 87 52 89 53 43 54
REMARK SMILES IDX 92 55 86 56 85 57 44 59 74 60 55 61 73 62 56 63 59 64 72 65
REMARK SMILES IDX 90 66 57 67 58 68 71 70 91 71 60 72 45 73 46 74 54 75 47 76
REMARK SMILES IDX 53 77 48 78 49 79 50 80 51 81 52 82 75 83 76 84 84 85 77 86
REMARK SMILES IDX 83 87 78 88 79 89 80 90 81 91 82 92 61 93 62 94 70 95 63 96
REMARK SMILES IDX 69 97 64 98 65 99 66 100 67 101 68 102
REMARK H PARENT 29 6 33 39 89 58 59 69
REMARK Flexibility Score: inf
ROOT
ATOM      1  C   UNL     1       5.170   8.303   6.510  1.00  0.00     0.042 C 
ENDROOT
BRANCH   1   2
ATOM      2  C   UNL     1       3.970   8.021   5.606  1.00  0.00     0.118 C 
BRANCH   2   3
ATOM      3  N   UNL     1       4.274   8.330   4.221  1.00  0.00    -0.352 N 
ATOM      4  C   UNL     1       4.619   7.543   3.153  1.00  0.00     0.251 C 
ATOM      5  O   UNL     1       4.760   8.101   2.064  1.00  0.00    -0.269 OA
ATOM      6  H   UNL     1       4.222   9.289   4.008  1.00  0.00     0.163 HD
BRANCH   4   7
ATOM      7  C   UNL     1       4.770   6.063   3.235  1.00  0.00     0.039 A 
ATOM      8  C   UNL     1       4.936   3.238   3.214  1.00  0.00     0.060 A 
ATOM      9  C   UNL     1       4.639   3.946   2.046  1.00  0.00     0.029 A 
ATOM     10  C   UNL     1       5.209   3.963   4.375  1.00  0.00     0.029 A 
ATOM     11  C   UNL     1       4.537   5.339   2.058  1.00  0.00     0.016 A 
ATOM     12  C   UNL     1       5.162   5.363   4.377  1.00  0.00     0.016 A 
BRANCH   8  13
ATOM     13  N   UNL     1       4.954   1.854   3.194  1.00  0.00    -0.257 N 
ATOM     14  C   UNL     1       4.146   1.012   4.074  1.00  0.00     0.144 C 
ATOM     15  C   UNL     1       4.698  -0.392   3.794  1.00  0.00     0.091 C 
ATOM     16  C   UNL     1       5.843  -0.043   2.886  1.00  0.00     0.071 C 
ATOM     17  N   UNL     1       5.962   1.205   2.562  1.00  0.00    -0.176 NA
BRANCH  14  18
ATOM     18  C   UNL     1       2.667   1.156   3.750  1.00  0.00    -0.019 A 
ATOM     19  C   UNL     1       0.830   1.104   2.143  1.00  0.00     0.119 A 
ATOM     20  C   UNL     1      -0.037   1.570   3.131  1.00  0.00     0.046 A 
ATOM     21  C   UNL     1       2.178   0.912   2.450  1.00  0.00     0.052 A 
ATOM     22  C   UNL     1       0.428   1.812   4.424  1.00  0.00     0.004 A 
ATOM     23  C   UNL     1       1.772   1.603   4.734  1.00  0.00     0.006 A 
BRANCH  19  24
ATOM     24  O   UNL     1       0.260   0.913   0.914  1.00  0.00    -0.497 OA
ATOM     25  C   UNL     1       0.955   0.039   0.033  1.00  0.00     0.278 C 
ENDBRANCH  19  24
ENDBRANCH  14  18
BRANCH  16  26
ATOM     26  C   UNL     1       6.785  -1.065   2.429  1.00  0.00    -0.002 A 
ATOM     27  C   UNL     1       8.138  -0.918   2.752  1.00  0.00     0.011 A 
ATOM     28  C   UNL     1       6.339  -2.139   1.657  1.00  0.00     0.011 A 
ATOM     29  C   UNL     1       9.059  -1.867   2.310  1.00  0.00     0.021 A 
ATOM     30  C   UNL     1       7.263  -3.076   1.191  1.00  0.00     0.021 A 
ATOM     31  C   UNL     1       8.617  -2.932   1.517  1.00  0.00     0.067 A 
BRANCH  31  32
ATOM     32  S   UNL     1       9.801  -4.119   0.924  1.00  0.00     0.175 S 
ATOM     33  C   UNL     1      10.941  -3.159  -0.038  1.00  0.00     0.163 C 
ATOM     34  O   UNL     1      10.495  -4.635   2.087  1.00  0.00    -0.224 OA
ATOM     35  O   UNL     1       9.106  -5.010   0.013  1.00  0.00    -0.224 OA
ENDBRANCH  31  32
ENDBRANCH  16  26
ENDBRANCH   8  13
ENDBRANCH   4   7
ENDBRANCH   2   3
ENDBRANCH   1   2
BRANCH   1  36
ATOM     36  C   UNL     1       5.419   9.792   6.737  1.00  0.00     0.118 C 
BRANCH  36  37
ATOM     37  N   UNL     1       4.386  10.393   7.569  1.00  0.00    -0.352 N 
ATOM     38  C   UNL     1       4.498  11.082   8.749  1.00  0.00     0.251 C 
ATOM     39  H   UNL     1       3.467  10.288   7.232  1.00  0.00     0.163 HD
ATOM     40  O   UNL     1       3.488  11.304   9.411  1.00  0.00    -0.269 OA
BRANCH  38  41
ATOM     41  C   UNL     1       5.817  11.550   9.233  1.00  0.00     0.039 A 
ATOM     42  C   UNL     1       6.097  11.471  10.601  1.00  0.00     0.014 A 
ATOM     43  C   UNL     1       6.753  12.116   8.362  1.00  0.00     0.014 A 
ATOM     44  C   UNL     1       7.328  11.918  11.087  1.00  0.00     0.010 A 
ATOM     45  C   UNL     1       8.004  12.504   8.838  1.00  0.00     0.010 A 
ATOM     46  C   UNL     1       8.301  12.418  10.207  1.00  0.00    -0.014 A 
BRANCH  46  47
ATOM     47  C   UNL     1       9.627  12.869  10.701  1.00  0.00     0.031 A 
ATOM     48  C   UNL     1      10.018  14.319  10.598  1.00  0.00     0.074 A 
ATOM     49  C   UNL     1      10.496  11.967  11.197  1.00  0.00     0.049 A 
ATOM     50  N   UNL     1      11.153  14.891  10.910  1.00  0.00    -0.248 NA
ATOM     51  C   UNL     1       9.009  15.243  10.054  1.00  0.00     0.031 C 
ATOM     52  C   UNL     1      10.246  10.529  11.325  1.00  0.00     0.029 A 
ATOM     53  N   UNL     1      11.771  12.126  11.680  1.00  0.00    -0.354 N 
ATOM     54  C   UNL     1      11.000  16.236  10.591  1.00  0.00     0.074 A 
ATOM     55  C   UNL     1       9.680  16.386  10.017  1.00  0.00     0.031 C 
ATOM     56  C   UNL     1      11.325   9.942  11.869  1.00  0.00     0.029 A 
ATOM     57  C   UNL     1      12.355  10.951  12.093  1.00  0.00     0.049 A 
ATOM     58  H   UNL     1      12.225  12.998  11.726  1.00  0.00     0.167 HD
ATOM     59  C   UNL     1      11.870  17.258  10.777  1.00  0.00     0.031 A 
ATOM     60  C   UNL     1      13.585  10.712  12.588  1.00  0.00     0.031 A 
ATOM     61  C   UNL     1      13.180  17.108  11.353  1.00  0.00     0.049 A 
ATOM     62  C   UNL     1      14.539  11.861  12.770  1.00  0.00     0.074 A 
ATOM     63  C   UNL     1      14.126  18.086  11.609  1.00  0.00     0.029 A 
ATOM     64  N   UNL     1      13.727  15.904  11.770  1.00  0.00    -0.354 N 
ATOM     65  N   UNL     1      14.359  13.131  12.498  1.00  0.00    -0.248 NA
ATOM     66  C   UNL     1      15.857  11.544  13.336  1.00  0.00     0.031 C 
ATOM     67  C   UNL     1      15.260  17.467  12.147  1.00  0.00     0.029 A 
ATOM     68  C   UNL     1      15.001  16.112  12.272  1.00  0.00     0.049 A 
ATOM     69  H   UNL     1      13.277  15.031  11.717  1.00  0.00     0.167 HD
ATOM     70  C   UNL     1      15.531  13.770  12.888  1.00  0.00     0.074 A 
ATOM     71  C   UNL     1      16.407  12.748  13.425  1.00  0.00     0.031 C 
ATOM     72  C   UNL     1      15.854  15.084  12.809  1.00  0.00     0.031 A 
BRANCH  59  73
ATOM     73  C   UNL     1      11.426  18.633  10.351  1.00  0.00    -0.014 A 
ATOM     74  C   UNL     1      10.432  19.324  11.069  1.00  0.00     0.010 A 
ATOM     75  C   UNL     1      12.030  19.258   9.245  1.00  0.00     0.010 A 
ATOM     76  C   UNL     1      10.020  20.595  10.664  1.00  0.00     0.020 A 
ATOM     77  C   UNL     1      11.639  20.542   8.852  1.00  0.00     0.020 A 
ATOM     78  C   UNL     1      10.623  21.195   9.554  1.00  0.00     0.054 A 
BRANCH  78  79
ATOM     79  S   UNL     1      10.080  22.854   9.060  1.00  0.00     0.124 S 
ATOM     80  O   UNL     1       8.783  22.575   8.447  1.00  0.00    -0.237 OA
ATOM     81  O   UNL     1      10.031  23.569  10.333  1.00  0.00    -0.237 OA
ATOM     82  O   UNL     1      11.122  23.300   8.139  1.00  0.00    -0.744 OA
ENDBRANCH  78  79
ENDBRANCH  59  73
BRANCH  60  83
ATOM     83  C   UNL     1      13.983   9.327  12.958  1.00  0.00    -0.014 A 
ATOM     84  C   UNL     1      14.142   8.966  14.308  1.00  0.00     0.010 A 
ATOM     85  C   UNL     1      14.211   8.361  11.961  1.00  0.00     0.010 A 
ATOM     86  C   UNL     1      14.547   7.674  14.654  1.00  0.00     0.020 A 
ATOM     87  C   UNL     1      14.591   7.060  12.304  1.00  0.00     0.020 A 
ATOM     88  C   UNL     1      14.772   6.729  13.648  1.00  0.00     0.054 A 
BRANCH  88  89
ATOM     89  S   UNL     1      15.263   5.047  14.118  1.00  0.00     0.124 S 
ATOM     90  O   UNL     1      16.670   5.228  14.461  1.00  0.00    -0.237 OA
ATOM     91  O   UNL     1      14.370   4.756  15.237  1.00  0.00    -0.237 OA
ATOM     92  O   UNL     1      15.007   4.268  12.909  1.00  0.00    -0.744 OA
ENDBRANCH  88  89
ENDBRANCH  60  83
BRANCH  72  93
ATOM     93  C   UNL     1      17.194  15.499  13.355  1.00  0.00    -0.014 A 
ATOM     94  C   UNL     1      18.384  15.203  12.670  1.00  0.00     0.010 A 
ATOM     95  C   UNL     1      17.254  16.239  14.550  1.00  0.00     0.010 A 
ATOM     96  C   UNL     1      19.616  15.613  13.187  1.00  0.00     0.020 A 
ATOM     97  C   UNL     1      18.481  16.673  15.057  1.00  0.00     0.020 A 
ATOM     98  C   UNL     1      19.657  16.344  14.379  1.00  0.00     0.054 A 
BRANCH  98  99
ATOM     99  S   UNL     1      21.263  16.901  15.009  1.00  0.00     0.124 S 
ATOM    100  O   UNL     1      21.817  15.669  15.562  1.00  0.00    -0.237 OA
ATOM    101  O   UNL     1      21.924  17.404  13.807  1.00  0.00    -0.237 OA
ATOM    102  O   UNL     1      20.913  17.924  15.992  1.00  0.00    -0.744 OA
ENDBRANCH  98  99
ENDBRANCH  72  93
ENDBRANCH  46  47
ENDBRANCH  38  41
ENDBRANCH  36  37
ENDBRANCH   1  36
TORSDOF 18
