REMARK SMILES N#Cc1ccc(/C=C/C(=O)N2C[C@@H](O)C[C@H]2C(=O)NCCCNC(=O)c2ccc(-c3c4nc(c(-c5ccc(S(=O)(=O)[O-])cc5)c5ccc([nH]5)c(-c5ccc(S(=O)(=O)[O-])cc5)c5nc(c(-c6ccc(S(=O)(=O)[O-])cc6)c6ccc3[nH]6)C=C5)C=C4)cc2)cc1
REMARK SMILES IDX 20 1 19 2 17 3 18 4 16 6 11 7 12 8 13 9 15 10 9 11 10 12
REMARK SMILES IDX 8 13 7 14 6 15 3 16 4 17 87 18 5 19 86 20 2 21 1 22 14 23
REMARK SMILES IDX 21 25 22 26 23 27 24 28 25 30 26 31 27 32 85 33 28 34 84 35
REMARK SMILES IDX 29 36 30 37 31 38 78 39 32 40 83 41 77 42 79 43 33 44 82 45
REMARK SMILES IDX 76 46 75 47 34 49 64 50 45 51 63 52 46 53 49 54 62 55 80 56
REMARK SMILES IDX 47 57 48 58 61 60 81 61 50 62 35 63 36 64 44 65 37 66 43 67
REMARK SMILES IDX 38 68 39 69 40 70 41 71 42 72 65 73 66 74 74 75 67 76 73 77
REMARK SMILES IDX 68 78 69 79 70 80 71 81 72 82 51 83 52 84 60 85 53 86 59 87
REMARK SMILES IDX 54 88 55 89 56 90 57 91 58 92
REMARK H PARENT 19 5 14 24 23 29 79 48 49 59
REMARK Flexibility Score: inf
ROOT
ATOM      1  C   UNL     1       9.561  -0.520  -1.287  1.00  0.00     0.117 C 
ENDROOT
BRANCH   1   2
ATOM      2  N   UNL     1       9.775   0.254  -0.086  1.00  0.00    -0.354 N 
ATOM      3  C   UNL     1       9.083   0.277   1.088  1.00  0.00     0.242 C 
ATOM      4  O   UNL     1       9.639   0.828   2.045  1.00  0.00    -0.273 OA
ATOM      5  H   UNL     1      10.546   0.865  -0.121  1.00  0.00     0.163 HD
BRANCH   3   6
ATOM      6  C   UNL     1       7.771  -0.511   1.294  1.00  0.00     0.177 C 
ATOM      7  N   UNL     1       6.683  -0.270   0.341  1.00  0.00    -0.324 N 
ATOM      8  C   UNL     1       6.319  -1.479  -0.379  1.00  0.00     0.152 C 
ATOM      9  C   UNL     1       6.827  -2.611   0.509  1.00  0.00     0.136 C 
ATOM     10  C   UNL     1       8.018  -2.024   1.267  1.00  0.00     0.069 C 
BRANCH   7  11
ATOM     11  C   UNL     1       5.998   0.922   0.420  1.00  0.00     0.247 C 
ATOM     12  O   UNL     1       6.488   1.935   0.913  1.00  0.00    -0.270 OA
BRANCH  11  13
ATOM     13  C   UNL     1       4.592   0.981  -0.051  1.00  0.00     0.072 C 
ATOM     14  C   UNL     1       3.688   0.103   0.413  1.00  0.00     0.014 C 
BRANCH  14  15
ATOM     15  C   UNL     1       2.245   0.120   0.146  1.00  0.00    -0.025 A 
ATOM     16  C   UNL     1      -0.560   0.044  -0.074  1.00  0.00     0.052 A 
ATOM     17  C   UNL     1       0.113   1.270  -0.036  1.00  0.00     0.020 A 
ATOM     18  C   UNL     1       0.172  -1.145  -0.033  1.00  0.00     0.020 A 
ATOM     19  C   UNL     1       1.508   1.307   0.075  1.00  0.00     0.009 A 
ATOM     20  C   UNL     1       1.565  -1.105   0.081  1.00  0.00     0.009 A 
BRANCH  16  21
ATOM     21  C   UNL     1      -1.994   0.004  -0.097  1.00  0.00     0.099 C 
ATOM     22  N   UNL     1      -3.152  -0.038  -0.062  1.00  0.00    -0.192 NA
ENDBRANCH  16  21
ENDBRANCH  14  15
ENDBRANCH  11  13
ENDBRANCH   7  11
BRANCH   9  23
ATOM     23  O   UNL     1       7.205  -3.763  -0.226  1.00  0.00    -0.391 OA
ATOM     24  H   UNL     1       7.911  -3.530  -0.850  1.00  0.00     0.211 HD
ENDBRANCH   9  23
ENDBRANCH   3   6
ENDBRANCH   1   2
BRANCH   1  25
ATOM     25  C   UNL     1       9.070   0.321  -2.452  1.00  0.00     0.042 C 
BRANCH  25  26
ATOM     26  C   UNL     1      10.157   1.223  -3.024  1.00  0.00     0.118 C 
BRANCH  26  27
ATOM     27  N   UNL     1      11.291   0.459  -3.540  1.00  0.00    -0.352 N 
ATOM     28  C   UNL     1      11.743   0.300  -4.826  1.00  0.00     0.251 C 
ATOM     29  H   UNL     1      11.814  -0.018  -2.856  1.00  0.00     0.163 HD
ATOM     30  O   UNL     1      12.557  -0.583  -5.079  1.00  0.00    -0.269 OA
BRANCH  28  31
ATOM     31  C   UNL     1      11.236   1.177  -5.899  1.00  0.00     0.039 A 
ATOM     32  C   UNL     1      10.906   0.619  -7.136  1.00  0.00     0.014 A 
ATOM     33  C   UNL     1      11.076   2.547  -5.678  1.00  0.00     0.014 A 
ATOM     34  C   UNL     1      10.319   1.420  -8.116  1.00  0.00     0.010 A 
ATOM     35  C   UNL     1      10.414   3.324  -6.621  1.00  0.00     0.010 A 
ATOM     36  C   UNL     1      10.013   2.764  -7.842  1.00  0.00    -0.014 A 
BRANCH  36  37
ATOM     37  C   UNL     1       9.212   3.580  -8.788  1.00  0.00     0.031 A 
ATOM     38  C   UNL     1       9.791   4.820  -9.408  1.00  0.00     0.074 A 
ATOM     39  C   UNL     1       7.927   3.241  -9.015  1.00  0.00     0.049 A 
ATOM     40  N   UNL     1       9.211   5.693 -10.190  1.00  0.00    -0.248 NA
ATOM     41  C   UNL     1      11.195   5.130  -9.094  1.00  0.00     0.031 C 
ATOM     42  C   UNL     1       7.244   2.078  -8.441  1.00  0.00     0.029 A 
ATOM     43  N   UNL     1       6.961   3.846  -9.780  1.00  0.00    -0.354 N 
ATOM     44  C   UNL     1      10.173   6.660 -10.454  1.00  0.00     0.074 A 
ATOM     45  C   UNL     1      11.358   6.292  -9.711  1.00  0.00     0.031 C 
ATOM     46  C   UNL     1       5.982   2.039  -8.896  1.00  0.00     0.029 A 
ATOM     47  C   UNL     1       5.745   3.204  -9.741  1.00  0.00     0.049 A 
ATOM     48  H   UNL     1       7.123   4.661 -10.307  1.00  0.00     0.167 HD
ATOM     49  C   UNL     1      10.078   7.749 -11.255  1.00  0.00     0.031 A 
ATOM     50  C   UNL     1       4.563   3.527 -10.301  1.00  0.00     0.031 A 
ATOM     51  C   UNL     1       8.888   8.114 -11.979  1.00  0.00     0.049 A 
ATOM     52  C   UNL     1       4.470   4.772 -11.139  1.00  0.00     0.074 A 
ATOM     53  C   UNL     1       8.707   9.170 -12.854  1.00  0.00     0.029 A 
ATOM     54  N   UNL     1       7.674   7.447 -11.901  1.00  0.00    -0.354 N 
ATOM     55  N   UNL     1       5.414   5.629 -11.445  1.00  0.00    -0.248 NA
ATOM     56  C   UNL     1       3.154   5.092 -11.708  1.00  0.00     0.031 C 
ATOM     57  C   UNL     1       7.364   9.189 -13.243  1.00  0.00     0.029 A 
ATOM     58  C   UNL     1       6.726   8.098 -12.675  1.00  0.00     0.049 A 
ATOM     59  H   UNL     1       7.509   6.633 -11.374  1.00  0.00     0.167 HD
ATOM     60  C   UNL     1       4.810   6.580 -12.260  1.00  0.00     0.074 A 
ATOM     61  C   UNL     1       3.428   6.177 -12.420  1.00  0.00     0.031 C 
ATOM     62  C   UNL     1       5.351   7.690 -12.820  1.00  0.00     0.031 A 
BRANCH  49  63
ATOM     63  C   UNL     1      11.288   8.641 -11.374  1.00  0.00    -0.014 A 
ATOM     64  C   UNL     1      12.459   8.202 -12.019  1.00  0.00     0.010 A 
ATOM     65  C   UNL     1      11.233   9.960 -10.886  1.00  0.00     0.010 A 
ATOM     66  C   UNL     1      13.563   9.050 -12.139  1.00  0.00     0.020 A 
ATOM     67  C   UNL     1      12.322  10.823 -11.034  1.00  0.00     0.020 A 
ATOM     68  C   UNL     1      13.486  10.357 -11.647  1.00  0.00     0.054 A 
BRANCH  68  69
ATOM     69  S   UNL     1      14.924  11.443 -11.847  1.00  0.00     0.124 S 
ATOM     70  O   UNL     1      15.893  10.830 -10.942  1.00  0.00    -0.237 OA
ATOM     71  O   UNL     1      15.225  11.313 -13.270  1.00  0.00    -0.237 OA
ATOM     72  O   UNL     1      14.431  12.755 -11.434  1.00  0.00    -0.744 OA
ENDBRANCH  68  69
ENDBRANCH  49  63
BRANCH  50  73
ATOM     73  C   UNL     1       3.370   2.664 -10.072  1.00  0.00    -0.014 A 
ATOM     74  C   UNL     1       2.793   1.941 -11.130  1.00  0.00     0.010 A 
ATOM     75  C   UNL     1       2.810   2.554  -8.784  1.00  0.00     0.010 A 
ATOM     76  C   UNL     1       1.670   1.138 -10.909  1.00  0.00     0.020 A 
ATOM     77  C   UNL     1       1.711   1.724  -8.553  1.00  0.00     0.020 A 
ATOM     78  C   UNL     1       1.141   1.030  -9.620  1.00  0.00     0.054 A 
BRANCH  78  79
ATOM     79  S   UNL     1      -0.281  -0.064  -9.348  1.00  0.00     0.124 S 
ATOM     80  O   UNL     1      -1.351   0.654 -10.032  1.00  0.00    -0.237 OA
ATOM     81  O   UNL     1       0.156  -1.306  -9.980  1.00  0.00    -0.237 OA
ATOM     82  O   UNL     1      -0.394  -0.121  -7.892  1.00  0.00    -0.744 OA
ENDBRANCH  78  79
ENDBRANCH  50  73
BRANCH  62  83
ATOM     83  C   UNL     1       4.452   8.547 -13.674  1.00  0.00    -0.014 A 
ATOM     84  C   UNL     1       3.420   9.312 -13.102  1.00  0.00     0.010 A 
ATOM     85  C   UNL     1       4.689   8.643 -15.057  1.00  0.00     0.010 A 
ATOM     86  C   UNL     1       2.629  10.142 -13.902  1.00  0.00     0.020 A 
ATOM     87  C   UNL     1       3.924   9.498 -15.854  1.00  0.00     0.020 A 
ATOM     88  C   UNL     1       2.892  10.236 -15.272  1.00  0.00     0.054 A 
BRANCH  88  89
ATOM     89  S   UNL     1       1.895  11.374 -16.271  1.00  0.00     0.124 S 
ATOM     90  O   UNL     1       0.589  10.721 -16.265  1.00  0.00    -0.237 OA
ATOM     91  O   UNL     1       1.979  12.619 -15.511  1.00  0.00    -0.237 OA
ATOM     92  O   UNL     1       2.576  11.391 -17.563  1.00  0.00    -0.744 OA
ENDBRANCH  88  89
ENDBRANCH  62  83
ENDBRANCH  36  37
ENDBRANCH  28  31
ENDBRANCH  26  27
ENDBRANCH  25  26
ENDBRANCH   1  25
TORSDOF 18
