REMARK SMILES C[C@@H]1CCC[C@H](C)[N@H+]1Cc1cc2c(cc1Cl)C=C(C(=O)NCCCNC(=O)c1ccc(-c3c4nc(c(-c5ccc(S(=O)(=O)[O-])cc5)c5ccc([nH]5)c(-c5ccc(S(=O)(=O)[O-])cc5)c5nc(c(-c6ccc(S(=O)(=O)[O-])cc6)c6ccc3[nH]6)C=C5)C=C4)cc1)[C@@H](C(F)(F)F)O2
REMARK SMILES IDX 23 1 22 2 21 3 19 4 20 5 18 7 10 8 11 9 15 10 12 11 14 12
REMARK SMILES IDX 16 13 13 14 93 15 17 16 88 17 9 18 8 19 7 20 6 21 5 22 4 23
REMARK SMILES IDX 2 24 3 26 1 27 89 28 90 29 91 30 92 31 24 32 25 33 26 34
REMARK SMILES IDX 27 36 28 37 29 38 87 39 30 40 86 41 31 42 32 43 33 44 80 45
REMARK SMILES IDX 34 46 85 47 79 48 81 49 35 50 84 51 78 52 77 53 36 55 66 56
REMARK SMILES IDX 47 57 65 58 48 59 51 60 64 61 82 62 49 63 50 64 63 66 83 67
REMARK SMILES IDX 52 68 37 69 38 70 46 71 39 72 45 73 40 74 41 75 42 76 43 77
REMARK SMILES IDX 44 78 67 79 68 80 76 81 69 82 75 83 70 84 71 85 72 86 73 87
REMARK SMILES IDX 74 88 53 89 54 90 62 91 55 92 61 93 56 94 57 95 58 96 59 97
REMARK SMILES IDX 60 98
REMARK H PARENT 21 6 8 25 25 35 81 54 51 65
REMARK Flexibility Score: inf
ROOT
ATOM      1  C   UNL     1      -1.977  10.930   1.319  1.00  0.00     0.042 C 
ENDROOT
BRANCH   1   2
ATOM      2  C   UNL     1      -2.979  10.345   0.339  1.00  0.00     0.118 C 
BRANCH   2   3
ATOM      3  N   UNL     1      -2.385  10.130  -0.970  1.00  0.00    -0.352 N 
ATOM      4  C   UNL     1      -2.100   9.069  -1.755  1.00  0.00     0.251 C 
ATOM      5  O   UNL     1      -1.615   9.340  -2.858  1.00  0.00    -0.270 OA
ATOM      6  H   UNL     1      -2.122  10.979  -1.395  1.00  0.00     0.163 HD
BRANCH   4   7
ATOM      7  C   UNL     1      -2.326   7.649  -1.379  1.00  0.00     0.067 C 
ATOM      8  C   UNL     1      -2.212   2.613  -1.353  1.00  0.00     0.029 A 
ATOM      9  C   UNL     1      -2.124   3.604  -0.360  1.00  0.00     0.058 A 
ATOM     10  C   UNL     1      -2.517   3.018  -2.666  1.00  0.00     0.050 A 
ATOM     11  C   UNL     1      -2.191   4.950  -0.702  1.00  0.00     0.128 A 
ATOM     12  C   UNL     1      -2.524   4.373  -3.013  1.00  0.00     0.033 A 
ATOM     13  Cl  UNL     1      -2.887   1.897  -3.928  1.00  0.00    -0.084 Cl
ATOM     14  C   UNL     1      -2.317   5.340  -2.035  1.00  0.00     0.019 A 
ATOM     15  O   UNL     1      -2.082   5.865   0.310  1.00  0.00    -0.475 OA
ATOM     16  C   UNL     1      -2.176   6.751  -2.370  1.00  0.00     0.025 C 
ATOM     17  C   UNL     1      -2.676   7.160  -0.001  1.00  0.00     0.314 C 
BRANCH   8  18
ATOM     18  C   UNL     1      -1.891   1.181  -0.974  1.00  0.00     0.301 C 
BRANCH  18  19
ATOM     19  N   UNL     1      -0.463   0.797  -0.998  1.00  0.00    -0.327 N 
ATOM     20  C   UNL     1       1.288   0.217   0.648  1.00  0.00     0.075 C 
ATOM     21  C   UNL     1       0.351   1.313   0.116  1.00  0.00     0.181 C 
ATOM     22  C   UNL     1       1.148   2.592  -0.201  1.00  0.00     0.065 C 
ATOM     23  C   UNL     1       1.863   2.546  -1.546  1.00  0.00     0.012 C 
ATOM     24  C   UNL     1       0.165   0.812  -2.327  1.00  0.00     0.181 C 
ATOM     25  H   UNL     1      -0.484  -0.201  -0.785  1.00  0.00     0.348 HD
ATOM     26  C   UNL     1       0.911   2.116  -2.652  1.00  0.00     0.065 C 
ATOM     27  C   UNL     1       1.078  -0.405  -2.524  1.00  0.00     0.075 C 
ENDBRANCH  18  19
ENDBRANCH   8  18
BRANCH  17  28
ATOM     28  C   UNL     1      -4.206   7.119   0.223  1.00  0.00     0.429 C 
ATOM     29  F   UNL     1      -4.497   7.097   1.546  1.00  0.00    -0.167 F 
ATOM     30  F   UNL     1      -4.831   8.206  -0.294  1.00  0.00    -0.167 F 
ATOM     31  F   UNL     1      -4.800   6.040  -0.338  1.00  0.00    -0.167 F 
ENDBRANCH  17  28
ENDBRANCH   4   7
ENDBRANCH   2   3
ENDBRANCH   1   2
BRANCH   1  32
ATOM     32  C   UNL     1      -1.735  12.412   1.081  1.00  0.00     0.118 C 
BRANCH  32  33
ATOM     33  N   UNL     1      -2.914  13.217   1.392  1.00  0.00    -0.352 N 
ATOM     34  C   UNL     1      -3.123  14.124   2.404  1.00  0.00     0.251 C 
ATOM     35  H   UNL     1      -3.677  13.091   0.782  1.00  0.00     0.163 HD
ATOM     36  O   UNL     1      -4.259  14.529   2.637  1.00  0.00    -0.269 OA
BRANCH  34  37
ATOM     37  C   UNL     1      -1.982  14.586   3.219  1.00  0.00     0.039 A 
ATOM     38  C   UNL     1      -0.761  14.871   2.609  1.00  0.00     0.014 A 
ATOM     39  C   UNL     1      -2.123  14.715   4.603  1.00  0.00     0.014 A 
ATOM     40  C   UNL     1       0.364  15.072   3.393  1.00  0.00     0.010 A 
ATOM     41  C   UNL     1      -1.010  15.042   5.383  1.00  0.00     0.010 A 
ATOM     42  C   UNL     1       0.255  15.169   4.789  1.00  0.00    -0.014 A 
BRANCH  42  43
ATOM     43  C   UNL     1       1.482  15.420   5.589  1.00  0.00     0.031 A 
ATOM     44  C   UNL     1       1.968  14.416   6.598  1.00  0.00     0.074 A 
ATOM     45  C   UNL     1       2.202  16.533   5.338  1.00  0.00     0.049 A 
ATOM     46  N   UNL     1       3.049  14.456   7.335  1.00  0.00    -0.248 NA
ATOM     47  C   UNL     1       1.143  13.216   6.817  1.00  0.00     0.031 C 
ATOM     48  C   UNL     1       1.837  17.562   4.360  1.00  0.00     0.029 A 
ATOM     49  N   UNL     1       3.407  16.961   5.833  1.00  0.00    -0.354 N 
ATOM     50  C   UNL     1       3.016  13.312   8.124  1.00  0.00     0.074 A 
ATOM     51  C   UNL     1       1.801  12.604   7.792  1.00  0.00     0.031 C 
ATOM     52  C   UNL     1       2.839  18.444   4.257  1.00  0.00     0.029 A 
ATOM     53  C   UNL     1       3.876  18.101   5.224  1.00  0.00     0.049 A 
ATOM     54  H   UNL     1       3.889  16.497   6.556  1.00  0.00     0.167 HD
ATOM     55  C   UNL     1       3.923  12.892   9.037  1.00  0.00     0.031 A 
ATOM     56  C   UNL     1       5.010  18.803   5.417  1.00  0.00     0.031 A 
ATOM     57  C   UNL     1       5.146  13.591   9.334  1.00  0.00     0.049 A 
ATOM     58  C   UNL     1       5.984  18.334   6.455  1.00  0.00     0.074 A 
ATOM     59  C   UNL     1       6.147  13.224  10.217  1.00  0.00     0.029 A 
ATOM     60  N   UNL     1       5.539  14.791   8.761  1.00  0.00    -0.354 N 
ATOM     61  N   UNL     1       5.933  17.251   7.192  1.00  0.00    -0.248 NA
ATOM     62  C   UNL     1       7.157  19.181   6.700  1.00  0.00     0.031 C 
ATOM     63  C   UNL     1       7.111  14.234  10.228  1.00  0.00     0.029 A 
ATOM     64  C   UNL     1       6.750  15.197   9.298  1.00  0.00     0.049 A 
ATOM     65  H   UNL     1       5.033  15.282   8.074  1.00  0.00     0.167 HD
ATOM     66  C   UNL     1       7.067  17.284   7.992  1.00  0.00     0.074 A 
ATOM     67  C   UNL     1       7.798  18.483   7.631  1.00  0.00     0.031 C 
ATOM     68  C   UNL     1       7.460  16.401   8.942  1.00  0.00     0.031 A 
BRANCH  55  69
ATOM     69  C   UNL     1       3.636  11.628   9.806  1.00  0.00    -0.014 A 
ATOM     70  C   UNL     1       3.382  11.703  11.189  1.00  0.00     0.010 A 
ATOM     71  C   UNL     1       3.720  10.363   9.197  1.00  0.00     0.010 A 
ATOM     72  C   UNL     1       3.242  10.542  11.953  1.00  0.00     0.020 A 
ATOM     73  C   UNL     1       3.553   9.198   9.953  1.00  0.00     0.020 A 
ATOM     74  C   UNL     1       3.337   9.295  11.331  1.00  0.00     0.054 A 
BRANCH  74  75
ATOM     75  S   UNL     1       3.160   7.796  12.338  1.00  0.00     0.124 S 
ATOM     76  O   UNL     1       4.463   7.707  12.989  1.00  0.00    -0.237 OA
ATOM     77  O   UNL     1       2.037   8.127  13.212  1.00  0.00    -0.237 OA
ATOM     78  O   UNL     1       2.881   6.755  11.351  1.00  0.00    -0.744 OA
ENDBRANCH  74  75
ENDBRANCH  55  69
BRANCH  56  79
ATOM     79  C   UNL     1       5.263  20.001   4.571  1.00  0.00    -0.014 A 
ATOM     80  C   UNL     1       4.440  21.138   4.682  1.00  0.00     0.010 A 
ATOM     81  C   UNL     1       6.232  19.956   3.554  1.00  0.00     0.010 A 
ATOM     82  C   UNL     1       4.521  22.167   3.742  1.00  0.00     0.020 A 
ATOM     83  C   UNL     1       6.338  21.000   2.629  1.00  0.00     0.020 A 
ATOM     84  C   UNL     1       5.454  22.079   2.707  1.00  0.00     0.054 A 
BRANCH  84  85
ATOM     85  S   UNL     1       5.470  23.374   1.437  1.00  0.00     0.124 S 
ATOM     86  O   UNL     1       4.292  23.029   0.645  1.00  0.00    -0.237 OA
ATOM     87  O   UNL     1       5.361  24.598   2.227  1.00  0.00    -0.237 OA
ATOM     88  O   UNL     1       6.753  23.180   0.766  1.00  0.00    -0.744 OA
ENDBRANCH  84  85
ENDBRANCH  56  79
BRANCH  68  89
ATOM     89  C   UNL     1       8.735  16.687   9.688  1.00  0.00    -0.014 A 
ATOM     90  C   UNL     1       9.855  15.855   9.501  1.00  0.00     0.010 A 
ATOM     91  C   UNL     1       8.779  17.688  10.674  1.00  0.00     0.010 A 
ATOM     92  C   UNL     1      10.981  15.991  10.315  1.00  0.00     0.020 A 
ATOM     93  C   UNL     1       9.916  17.845  11.472  1.00  0.00     0.020 A 
ATOM     94  C   UNL     1      10.998  16.977  11.305  1.00  0.00     0.054 A 
BRANCH  94  95
ATOM     95  S   UNL     1      12.451  17.109  12.382  1.00  0.00     0.124 S 
ATOM     96  O   UNL     1      12.254  15.992  13.301  1.00  0.00    -0.237 OA
ATOM     97  O   UNL     1      13.562  16.964  11.443  1.00  0.00    -0.237 OA
ATOM     98  O   UNL     1      12.318  18.438  12.975  1.00  0.00    -0.744 OA
ENDBRANCH  94  95
ENDBRANCH  68  89
ENDBRANCH  42  43
ENDBRANCH  34  37
ENDBRANCH  32  33
ENDBRANCH   1  32
TORSDOF 16
