REMARK SMILES CC/C=C/C/C=C/C/C=C/C/C=C/CC/C=C/COCC(=O)NCCCNC(=O)c1ccc(-c2c3nc(c(-c4ccc(S(=O)(=O)[O-])cc4)c4ccc([nH]4)c(-c4ccc(S(=O)(=O)[O-])cc4)c4nc(c(-c5ccc(S(=O)(=O)[O-])cc5)c5ccc2[nH]5)C=C4)C=C3)cc1
REMARK SMILES IDX 18 1 17 2 16 3 15 4 14 5 13 6 12 7 11 8 10 9 9 10 8 11 7 12
REMARK SMILES IDX 6 13 5 14 4 15 3 16 2 17 1 18 19 19 20 20 21 21 22 22 23 23
REMARK SMILES IDX 24 25 25 26 26 27 27 28 28 29 29 31 30 32 31 33 89 34 32 35
REMARK SMILES IDX 88 36 33 37 34 38 35 39 82 40 36 41 87 42 81 43 83 44 37 45
REMARK SMILES IDX 86 46 80 47 79 48 38 50 68 51 49 52 67 53 50 54 53 55 66 56
REMARK SMILES IDX 84 57 51 58 52 59 65 61 85 62 54 63 39 64 40 65 48 66 41 67
REMARK SMILES IDX 47 68 42 69 43 70 44 71 45 72 46 73 69 74 70 75 78 76 71 77
REMARK SMILES IDX 77 78 72 79 73 80 74 81 75 82 76 83 55 84 56 85 64 86 57 87
REMARK SMILES IDX 63 88 58 89 59 90 60 91 61 92 62 93
REMARK H PARENT 23 24 27 30 83 49 53 60
REMARK Flexibility Score: inf
ROOT
ATOM      1  C   UNL     1      -8.036  -5.321  13.946  1.00  0.00     0.188 C 
ENDROOT
BRANCH   1   2
ATOM      2  C   UNL     1      -7.441  -6.097  12.812  1.00  0.00    -0.003 C 
ATOM      3  C   UNL     1      -6.635  -5.543  11.894  1.00  0.00    -0.029 C 
BRANCH   3   4
ATOM      4  C   UNL     1      -6.146  -6.240  10.655  1.00  0.00     0.031 C 
BRANCH   4   5
ATOM      5  C   UNL     1      -6.721  -5.622   9.368  1.00  0.00     0.031 C 
BRANCH   5   6
ATOM      6  C   UNL     1      -6.271  -4.204   9.143  1.00  0.00    -0.031 C 
ATOM      7  C   UNL     1      -5.461  -3.814   8.146  1.00  0.00    -0.027 C 
BRANCH   7   8
ATOM      8  C   UNL     1      -4.975  -2.403   7.971  1.00  0.00     0.054 C 
BRANCH   8   9
ATOM      9  C   UNL     1      -3.474  -2.361   7.985  1.00  0.00    -0.027 C 
ATOM     10  C   UNL     1      -2.724  -1.897   6.973  1.00  0.00    -0.027 C 
BRANCH  10  11
ATOM     11  C   UNL     1      -1.223  -1.894   6.970  1.00  0.00     0.054 C 
BRANCH  11  12
ATOM     12  C   UNL     1      -0.698  -2.702   5.817  1.00  0.00    -0.027 C 
ATOM     13  C   UNL     1       0.073  -2.205   4.837  1.00  0.00    -0.027 C 
BRANCH  13  14
ATOM     14  C   UNL     1       0.575  -3.006   3.671  1.00  0.00     0.054 C 
BRANCH  14  15
ATOM     15  C   UNL     1       0.101  -2.414   2.374  1.00  0.00    -0.027 C 
ATOM     16  C   UNL     1       0.918  -1.953   1.413  1.00  0.00    -0.031 C 
BRANCH  16  17
ATOM     17  C   UNL     1       0.438  -1.348   0.126  1.00  0.00     0.023 C 
ATOM     18  C   UNL     1       0.922   0.086  -0.022  1.00  0.00     0.008 C 
ENDBRANCH  16  17
ENDBRANCH  14  15
ENDBRANCH  13  14
ENDBRANCH  11  12
ENDBRANCH  10  11
ENDBRANCH   8   9
ENDBRANCH   7   8
ENDBRANCH   5   6
ENDBRANCH   4   5
ENDBRANCH   3   4
ENDBRANCH   1   2
BRANCH   1  19
ATOM     19  O   UNL     1      -9.462  -5.306  13.841  1.00  0.00    -0.368 OA
BRANCH  19  20
ATOM     20  C   UNL     1      -9.950  -4.631  12.688  1.00  0.00     0.260 C 
BRANCH  20  21
ATOM     21  C   UNL     1      -9.587  -3.149  12.544  1.00  0.00     0.246 C 
ATOM     22  O   UNL     1      -8.902  -2.730  11.610  1.00  0.00    -0.272 OA
ATOM     23  N   UNL     1     -10.058  -2.261  13.469  1.00  0.00    -0.354 N 
ATOM     24  H   UNL     1      -9.823  -1.317  13.320  1.00  0.00     0.163 HD
BRANCH  23  25
ATOM     25  C   UNL     1     -10.861  -2.539  14.646  1.00  0.00     0.117 C 
BRANCH  25  26
ATOM     26  C   UNL     1     -10.071  -2.369  15.938  1.00  0.00     0.042 C 
BRANCH  26  27
ATOM     27  C   UNL     1      -9.556  -0.952  16.180  1.00  0.00     0.118 C 
BRANCH  27  28
ATOM     28  N   UNL     1     -10.625   0.034  16.268  1.00  0.00    -0.352 N 
ATOM     29  C   UNL     1     -10.943   0.913  17.273  1.00  0.00     0.251 C 
ATOM     30  H   UNL     1     -11.214   0.077  15.480  1.00  0.00     0.163 HD
ATOM     31  O   UNL     1     -11.998   1.544  17.205  1.00  0.00    -0.269 OA
BRANCH  29  32
ATOM     32  C   UNL     1     -10.050   1.092  18.438  1.00  0.00     0.039 A 
ATOM     33  C   UNL     1     -10.620   1.206  19.710  1.00  0.00     0.014 A 
ATOM     34  C   UNL     1      -8.664   1.176  18.288  1.00  0.00     0.014 A 
ATOM     35  C   UNL     1      -9.797   1.334  20.833  1.00  0.00     0.010 A 
ATOM     36  C   UNL     1      -7.843   1.226  19.413  1.00  0.00     0.010 A 
ATOM     37  C   UNL     1      -8.400   1.305  20.699  1.00  0.00    -0.014 A 
BRANCH  37  38
ATOM     38  C   UNL     1      -7.510   1.339  21.890  1.00  0.00     0.031 A 
ATOM     39  C   UNL     1      -6.545   2.478  22.091  1.00  0.00     0.074 A 
ATOM     40  C   UNL     1      -7.523   0.306  22.758  1.00  0.00     0.049 A 
ATOM     41  N   UNL     1      -5.654   2.645  23.035  1.00  0.00    -0.248 NA
ATOM     42  C   UNL     1      -6.565   3.557  21.090  1.00  0.00     0.031 C 
ATOM     43  C   UNL     1      -8.378  -0.880  22.652  1.00  0.00     0.029 A 
ATOM     44  N   UNL     1      -6.787   0.080  23.895  1.00  0.00    -0.354 N 
ATOM     45  C   UNL     1      -4.994   3.829  22.730  1.00  0.00     0.074 A 
ATOM     46  C   UNL     1      -5.559   4.321  21.493  1.00  0.00     0.031 C 
ATOM     47  C   UNL     1      -8.131  -1.696  23.689  1.00  0.00     0.029 A 
ATOM     48  C   UNL     1      -7.071  -1.118  24.509  1.00  0.00     0.049 A 
ATOM     49  H   UNL     1      -6.118   0.716  24.239  1.00  0.00     0.167 HD
ATOM     50  C   UNL     1      -4.014   4.457  23.423  1.00  0.00     0.031 A 
ATOM     51  C   UNL     1      -6.531  -1.698  25.600  1.00  0.00     0.031 A 
ATOM     52  C   UNL     1      -3.466   3.974  24.664  1.00  0.00     0.049 A 
ATOM     53  C   UNL     1      -5.444  -0.978  26.351  1.00  0.00     0.074 A 
ATOM     54  C   UNL     1      -2.527   4.581  25.480  1.00  0.00     0.029 A 
ATOM     55  N   UNL     1      -3.797   2.769  25.263  1.00  0.00    -0.354 N 
ATOM     56  N   UNL     1      -4.897   0.186  26.093  1.00  0.00    -0.248 NA
ATOM     57  C   UNL     1      -4.911  -1.643  27.549  1.00  0.00     0.031 C 
ATOM     58  C   UNL     1      -2.241   3.713  26.538  1.00  0.00     0.029 A 
ATOM     59  C   UNL     1      -3.054   2.598  26.420  1.00  0.00     0.049 A 
ATOM     60  H   UNL     1      -4.461   2.130  24.918  1.00  0.00     0.167 HD
ATOM     61  C   UNL     1      -3.976   0.405  27.113  1.00  0.00     0.074 A 
ATOM     62  C   UNL     1      -4.054  -0.737  28.000  1.00  0.00     0.031 C 
ATOM     63  C   UNL     1      -3.142   1.458  27.297  1.00  0.00     0.031 A 
BRANCH  50  64
ATOM     64  C   UNL     1      -3.454   5.736  22.854  1.00  0.00    -0.014 A 
ATOM     65  C   UNL     1      -4.212   6.919  22.825  1.00  0.00     0.010 A 
ATOM     66  C   UNL     1      -2.119   5.769  22.407  1.00  0.00     0.010 A 
ATOM     67  C   UNL     1      -3.658   8.104  22.332  1.00  0.00     0.020 A 
ATOM     68  C   UNL     1      -1.552   6.958  21.940  1.00  0.00     0.020 A 
ATOM     69  C   UNL     1      -2.330   8.116  21.894  1.00  0.00     0.054 A 
BRANCH  69  70
ATOM     70  S   UNL     1      -1.625   9.678  21.300  1.00  0.00     0.124 S 
ATOM     71  O   UNL     1      -2.316   9.855  20.025  1.00  0.00    -0.237 OA
ATOM     72  O   UNL     1      -2.000  10.618  22.353  1.00  0.00    -0.237 OA
ATOM     73  O   UNL     1      -0.195   9.398  21.199  1.00  0.00    -0.744 OA
ENDBRANCH  69  70
ENDBRANCH  50  64
BRANCH  51  74
ATOM     74  C   UNL     1      -7.004  -3.040  26.044  1.00  0.00    -0.014 A 
ATOM     75  C   UNL     1      -7.715  -3.191  27.247  1.00  0.00     0.010 A 
ATOM     76  C   UNL     1      -6.735  -4.179  25.262  1.00  0.00     0.010 A 
ATOM     77  C   UNL     1      -8.122  -4.459  27.675  1.00  0.00     0.020 A 
ATOM     78  C   UNL     1      -7.169  -5.443  25.670  1.00  0.00     0.020 A 
ATOM     79  C   UNL     1      -7.846  -5.577  26.883  1.00  0.00     0.054 A 
BRANCH  79  80
ATOM     80  S   UNL     1      -8.411  -7.208  27.442  1.00  0.00     0.124 S 
ATOM     81  O   UNL     1      -7.494  -7.486  28.543  1.00  0.00    -0.237 OA
ATOM     82  O   UNL     1      -9.797  -6.948  27.822  1.00  0.00    -0.237 OA
ATOM     83  O   UNL     1      -8.245  -8.051  26.260  1.00  0.00    -0.744 OA
ENDBRANCH  79  80
ENDBRANCH  51  74
BRANCH  63  84
ATOM     84  C   UNL     1      -2.270   1.450  28.526  1.00  0.00    -0.014 A 
ATOM     85  C   UNL     1      -1.186   0.563  28.651  1.00  0.00     0.010 A 
ATOM     86  C   UNL     1      -2.510   2.386  29.549  1.00  0.00     0.010 A 
ATOM     87  C   UNL     1      -0.378   0.591  29.791  1.00  0.00     0.020 A 
ATOM     88  C   UNL     1      -1.685   2.439  30.675  1.00  0.00     0.020 A 
ATOM     89  C   UNL     1      -0.633   1.530  30.796  1.00  0.00     0.054 A 
BRANCH  89  90
ATOM     90  S   UNL     1       0.457   1.575  32.245  1.00  0.00     0.124 S 
ATOM     91  O   UNL     1       0.062   0.364  32.960  1.00  0.00    -0.237 OA
ATOM     92  O   UNL     1       1.789   1.545  31.645  1.00  0.00    -0.237 OA
ATOM     93  O   UNL     1       0.106   2.830  32.905  1.00  0.00    -0.744 OA
ENDBRANCH  89  90
ENDBRANCH  63  84
ENDBRANCH  37  38
ENDBRANCH  29  32
ENDBRANCH  27  28
ENDBRANCH  26  27
ENDBRANCH  25  26
ENDBRANCH  23  25
ENDBRANCH  20  21
ENDBRANCH  19  20
ENDBRANCH   1  19
TORSDOF 26
