REMARK SMILES CC[C@@H]1CCCN(S(=O)(=O)c2cc(C(=O)NCCCNC(=O)c3ccc(-c4c5nc(c(-c6ccc(S(=O)(=O)[O-])cc6)c6ccc([nH]6)c(-c6ccc(S(=O)(=O)[O-])cc6)c6nc(c(-c7ccc(S(=O)(=O)[O-])cc7)c7ccc4[nH]7)C=C6)C=C5)cc3)ccc2F)C1
REMARK SMILES IDX 18 1 17 2 16 3 14 4 15 5 13 7 11 8 12 9 85 10 84 11 86 12
REMARK SMILES IDX 83 13 8 14 9 15 10 16 7 17 3 18 4 19 87 20 5 21 6 22 2 23
REMARK SMILES IDX 1 24 19 25 20 26 21 27 22 29 23 30 24 31 82 32 25 33 81 34
REMARK SMILES IDX 26 35 27 36 28 37 75 38 29 39 80 40 74 41 76 42 30 43 79 44
REMARK SMILES IDX 73 45 72 46 31 48 61 49 42 50 60 51 43 52 46 53 59 54 77 55
REMARK SMILES IDX 44 56 45 57 58 59 78 60 47 61 32 62 33 63 41 64 34 65 40 66
REMARK SMILES IDX 35 67 36 68 37 69 38 70 39 71 62 72 63 73 71 74 64 75 70 76
REMARK SMILES IDX 65 77 66 78 67 79 68 80 69 81 48 82 49 83 57 84 50 85 56 86
REMARK SMILES IDX 51 87 52 88 53 89 54 90 55 91
REMARK H PARENT 16 6 20 28 76 47 46 58
REMARK Flexibility Score: inf
ROOT
ATOM      1  C   UNL     1       8.771   2.342   4.855  1.00  0.00     0.042 C 
ENDROOT
BRANCH   1   2
ATOM      2  C   UNL     1       7.315   2.708   4.565  1.00  0.00     0.118 C 
BRANCH   2   3
ATOM      3  N   UNL     1       7.177   3.448   3.325  1.00  0.00    -0.352 N 
ATOM      4  C   UNL     1       6.792   3.085   2.061  1.00  0.00     0.251 C 
ATOM      5  O   UNL     1       6.645   3.992   1.241  1.00  0.00    -0.269 OA
ATOM      6  H   UNL     1       7.406   4.401   3.408  1.00  0.00     0.163 HD
BRANCH   4   7
ATOM      7  C   UNL     1       6.536   1.680   1.624  1.00  0.00     0.041 A 
ATOM      8  C   UNL     1       5.581   0.225  -0.094  1.00  0.00     0.119 A 
ATOM      9  C   UNL     1       5.773   1.503   0.452  1.00  0.00     0.038 A 
ATOM     10  C   UNL     1       6.158  -0.877   0.515  1.00  0.00     0.143 A 
ATOM     11  C   UNL     1       6.885  -0.728   1.688  1.00  0.00     0.041 A 
ATOM     12  F   UNL     1       6.036  -2.110   0.005  1.00  0.00    -0.206 F 
ATOM     13  C   UNL     1       7.090   0.546   2.228  1.00  0.00     0.017 A 
BRANCH   8  14
ATOM     14  S   UNL     1       4.780   0.047  -1.656  1.00  0.00     0.246 S 
ATOM     15  O   UNL     1       5.493  -0.947  -2.437  1.00  0.00    -0.207 OA
ATOM     16  O   UNL     1       4.585   1.377  -2.190  1.00  0.00    -0.207 OA
BRANCH  14  17
ATOM     17  N   UNL     1       3.205  -0.586  -1.310  1.00  0.00    -0.197 NA
ATOM     18  C   UNL     1       0.887  -0.870  -2.220  1.00  0.00     0.004 C 
ATOM     19  C   UNL     1       0.796  -2.239  -1.538  1.00  0.00     0.006 C 
ATOM     20  C   UNL     1       2.345  -0.512  -2.530  1.00  0.00     0.106 C 
ATOM     21  C   UNL     1       1.788  -2.422  -0.397  1.00  0.00     0.017 C 
ATOM     22  C   UNL     1       3.201  -1.968  -0.747  1.00  0.00     0.102 C 
BRANCH  18  23
ATOM     23  C   UNL     1       0.111   0.269  -1.524  1.00  0.00     0.001 C 
ATOM     24  C   UNL     1       0.370   0.512  -0.047  1.00  0.00     0.004 C 
ENDBRANCH  18  23
ENDBRANCH  14  17
ENDBRANCH   8  14
ENDBRANCH   4   7
ENDBRANCH   2   3
ENDBRANCH   1   2
BRANCH   1  25
ATOM     25  C   UNL     1       9.622   3.514   5.339  1.00  0.00     0.118 C 
BRANCH  25  26
ATOM     26  N   UNL     1       9.218   3.973   6.660  1.00  0.00    -0.352 N 
ATOM     27  C   UNL     1       9.913   4.002   7.843  1.00  0.00     0.251 C 
ATOM     28  H   UNL     1       8.297   4.319   6.714  1.00  0.00     0.163 HD
ATOM     29  O   UNL     1       9.299   4.201   8.889  1.00  0.00    -0.269 OA
BRANCH  27  30
ATOM     30  C   UNL     1      11.379   3.794   7.877  1.00  0.00     0.039 A 
ATOM     31  C   UNL     1      11.931   3.069   8.939  1.00  0.00     0.014 A 
ATOM     32  C   UNL     1      12.218   4.362   6.915  1.00  0.00     0.014 A 
ATOM     33  C   UNL     1      13.313   2.873   9.008  1.00  0.00     0.010 A 
ATOM     34  C   UNL     1      13.589   4.110   6.947  1.00  0.00     0.010 A 
ATOM     35  C   UNL     1      14.153   3.370   7.998  1.00  0.00    -0.014 A 
BRANCH  35  36
ATOM     36  C   UNL     1      15.618   3.127   8.024  1.00  0.00     0.031 A 
ATOM     37  C   UNL     1      16.577   4.280   8.165  1.00  0.00     0.074 A 
ATOM     38  C   UNL     1      16.089   1.876   7.854  1.00  0.00     0.049 A 
ATOM     39  N   UNL     1      17.885   4.273   8.137  1.00  0.00    -0.248 NA
ATOM     40  C   UNL     1      15.988   5.618   8.338  1.00  0.00     0.031 C 
ATOM     41  C   UNL     1      15.263   0.679   7.670  1.00  0.00     0.029 A 
ATOM     42  N   UNL     1      17.375   1.403   7.798  1.00  0.00    -0.354 N 
ATOM     43  C   UNL     1      18.275   5.601   8.265  1.00  0.00     0.074 A 
ATOM     44  C   UNL     1      17.065   6.391   8.330  1.00  0.00     0.031 C 
ATOM     45  C   UNL     1      16.063  -0.391   7.542  1.00  0.00     0.029 A 
ATOM     46  C   UNL     1      17.455   0.044   7.594  1.00  0.00     0.049 A 
ATOM     47  H   UNL     1      18.166   1.981   7.894  1.00  0.00     0.167 HD
ATOM     48  C   UNL     1      19.527   6.116   8.338  1.00  0.00     0.031 A 
ATOM     49  C   UNL     1      18.527  -0.760   7.455  1.00  0.00     0.031 A 
ATOM     50  C   UNL     1      20.728   5.326   8.287  1.00  0.00     0.049 A 
ATOM     51  C   UNL     1      19.905  -0.166   7.539  1.00  0.00     0.074 A 
ATOM     52  C   UNL     1      22.041   5.746   8.409  1.00  0.00     0.029 A 
ATOM     53  N   UNL     1      20.765   3.952   8.097  1.00  0.00    -0.354 N 
ATOM     54  N   UNL     1      20.252   1.086   7.721  1.00  0.00    -0.248 NA
ATOM     55  C   UNL     1      21.037  -1.095   7.411  1.00  0.00     0.031 C 
ATOM     56  C   UNL     1      22.874   4.633   8.246  1.00  0.00     0.029 A 
ATOM     57  C   UNL     1      22.077   3.512   8.079  1.00  0.00     0.049 A 
ATOM     58  H   UNL     1      19.974   3.376   7.992  1.00  0.00     0.167 HD
ATOM     59  C   UNL     1      21.642   1.091   7.755  1.00  0.00     0.074 A 
ATOM     60  C   UNL     1      22.070  -0.283   7.589  1.00  0.00     0.031 C 
ATOM     61  C   UNL     1      22.487   2.140   7.911  1.00  0.00     0.031 A 
BRANCH  48  62
ATOM     62  C   UNL     1      19.658   7.611   8.474  1.00  0.00    -0.014 A 
ATOM     63  C   UNL     1      19.290   8.268   9.663  1.00  0.00     0.010 A 
ATOM     64  C   UNL     1      20.187   8.367   7.413  1.00  0.00     0.010 A 
ATOM     65  C   UNL     1      19.406   9.657   9.770  1.00  0.00     0.020 A 
ATOM     66  C   UNL     1      20.331   9.754   7.526  1.00  0.00     0.020 A 
ATOM     67  C   UNL     1      19.920  10.392   8.698  1.00  0.00     0.054 A 
BRANCH  67  68
ATOM     68  S   UNL     1      20.071  12.191   8.870  1.00  0.00     0.124 S 
ATOM     69  O   UNL     1      18.679  12.621   8.758  1.00  0.00    -0.237 OA
ATOM     70  O   UNL     1      20.668  12.339  10.195  1.00  0.00    -0.237 OA
ATOM     71  O   UNL     1      20.933  12.575   7.755  1.00  0.00    -0.744 OA
ENDBRANCH  67  68
ENDBRANCH  48  62
BRANCH  49  72
ATOM     72  C   UNL     1      18.333  -2.219   7.237  1.00  0.00    -0.014 A 
ATOM     73  C   UNL     1      18.634  -3.138   8.258  1.00  0.00     0.010 A 
ATOM     74  C   UNL     1      17.826  -2.697   6.015  1.00  0.00     0.010 A 
ATOM     75  C   UNL     1      18.445  -4.508   8.057  1.00  0.00     0.020 A 
ATOM     76  C   UNL     1      17.611  -4.064   5.819  1.00  0.00     0.020 A 
ATOM     77  C   UNL     1      17.931  -4.962   6.839  1.00  0.00     0.054 A 
BRANCH  77  78
ATOM     78  S   UNL     1      17.637  -6.739   6.621  1.00  0.00     0.124 S 
ATOM     79  O   UNL     1      18.991  -7.251   6.439  1.00  0.00    -0.237 OA
ATOM     80  O   UNL     1      16.983  -7.107   7.874  1.00  0.00    -0.237 OA
ATOM     81  O   UNL     1      16.779  -6.800   5.439  1.00  0.00    -0.744 OA
ENDBRANCH  77  78
ENDBRANCH  49  72
BRANCH  61  82
ATOM     82  C   UNL     1      23.962   1.841   7.944  1.00  0.00    -0.014 A 
ATOM     83  C   UNL     1      24.660   1.490   6.775  1.00  0.00     0.010 A 
ATOM     84  C   UNL     1      24.667   1.966   9.154  1.00  0.00     0.010 A 
ATOM     85  C   UNL     1      26.034   1.239   6.823  1.00  0.00     0.020 A 
ATOM     86  C   UNL     1      26.045   1.742   9.201  1.00  0.00     0.020 A 
ATOM     87  C   UNL     1      26.718   1.366   8.036  1.00  0.00     0.054 A 
BRANCH  87  88
ATOM     88  S   UNL     1      28.509   1.080   8.065  1.00  0.00     0.124 S 
ATOM     89  O   UNL     1      28.585  -0.375   7.972  1.00  0.00    -0.237 OA
ATOM     90  O   UNL     1      28.970   1.810   6.886  1.00  0.00    -0.237 OA
ATOM     91  O   UNL     1      28.930   1.646   9.344  1.00  0.00    -0.744 OA
ENDBRANCH  87  88
ENDBRANCH  61  82
ENDBRANCH  35  36
ENDBRANCH  27  30
ENDBRANCH  25  26
ENDBRANCH   1  25
TORSDOF 16
