REMARK SMILES CC1=C2C(=O)CC(C)(C)CC2=N[C@@H]1C(=O)NCCCNC(=O)c1ccc(-c2c3nc(c(-c4ccc(S(=O)(=O)[O-])cc4)c4ccc([nH]4)c(-c4ccc(S(=O)(=O)[O-])cc4)c4nc(c(-c5ccc(S(=O)(=O)[O-])cc5)c5ccc2[nH]5)C=C4)C=C3)cc1
REMARK SMILES IDX 20 1 21 2 22 3 19 5 18 6 17 7 16 8 14 9 15 10 13 12 1 13
REMARK SMILES IDX 2 14 3 15 4 16 11 17 12 18 5 19 6 20 10 21 7 22 8 23 9 24
REMARK SMILES IDX 23 25 24 26 82 27 25 28 81 29 26 30 27 31 28 32 75 33 29 34
REMARK SMILES IDX 80 35 74 36 76 37 30 38 79 39 73 40 72 41 31 43 61 44 42 45
REMARK SMILES IDX 60 46 43 47 46 48 59 49 77 50 44 51 45 52 58 54 78 55 47 56
REMARK SMILES IDX 32 57 33 58 41 59 34 60 40 61 35 62 36 63 37 64 38 65 39 66
REMARK SMILES IDX 62 67 63 68 71 69 64 70 70 71 65 72 66 73 67 74 68 75 69 76
REMARK SMILES IDX 48 77 49 78 57 79 50 80 56 81 51 82 52 83 53 84 54 85 55 86
REMARK H PARENT 20 4 16 11 76 42 46 53
REMARK Flexibility Score: inf
ROOT
ATOM      1  N   UNL     1      -1.338   6.632   3.299  1.00  0.00    -0.352 N 
ATOM      2  C   UNL     1      -2.102   7.753   3.073  1.00  0.00     0.251 C 
ATOM      3  O   UNL     1      -2.499   8.419   4.032  1.00  0.00    -0.269 OA
ATOM      4  H   UNL     1      -1.386   6.257   4.208  1.00  0.00     0.163 HD
ENDROOT
BRANCH   1   5
ATOM      5  C   UNL     1      -0.465   5.924   2.367  1.00  0.00     0.118 C 
BRANCH   5   6
ATOM      6  C   UNL     1       0.238   4.738   3.019  1.00  0.00     0.042 C 
BRANCH   6   7
ATOM      7  C   UNL     1      -0.732   3.594   3.326  1.00  0.00     0.117 C 
BRANCH   7   8
ATOM      8  N   UNL     1      -1.205   2.973   2.101  1.00  0.00    -0.354 N 
ATOM      9  C   UNL     1      -0.753   1.850   1.464  1.00  0.00     0.249 C 
ATOM     10  O   UNL     1      -1.192   1.597   0.339  1.00  0.00    -0.272 OA
ATOM     11  H   UNL     1      -1.962   3.427   1.664  1.00  0.00     0.163 HD
BRANCH   9  12
ATOM     12  C   UNL     1       0.186   0.882   2.223  1.00  0.00     0.221 C 
ATOM     13  C   UNL     1       1.979   0.773   0.301  1.00  0.00     0.043 C 
ATOM     14  C   UNL     1       1.186   0.130   1.382  1.00  0.00    -0.027 C 
ATOM     15  C   UNL     1       1.097  -1.179   1.628  1.00  0.00     0.040 C 
ATOM     16  C   UNL     1       1.764  -2.391   1.132  1.00  0.00     0.165 C 
ATOM     17  C   UNL     1      -0.286  -1.210   2.079  1.00  0.00     0.048 C 
ATOM     18  N   UNL     1      -0.748  -0.179   2.722  1.00  0.00    -0.271 NA
ATOM     19  O   UNL     1       2.971  -2.553   1.294  1.00  0.00    -0.294 OA
ATOM     20  C   UNL     1       0.866  -3.471   0.551  1.00  0.00     0.088 C 
ATOM     21  C   UNL     1      -1.155  -2.330   1.590  1.00  0.00     0.063 C 
ATOM     22  C   UNL     1      -0.572  -2.961   0.284  1.00  0.00    -0.023 C 
ATOM     23  C   UNL     1      -0.529  -1.984  -0.923  1.00  0.00     0.012 C 
ATOM     24  C   UNL     1      -1.492  -4.123  -0.122  1.00  0.00     0.012 C 
ENDBRANCH   9  12
ENDBRANCH   7   8
ENDBRANCH   6   7
ENDBRANCH   5   6
ENDBRANCH   1   5
BRANCH   2  25
ATOM     25  C   UNL     1      -2.420   8.170   1.694  1.00  0.00     0.039 A 
ATOM     26  C   UNL     1      -2.425   9.526   1.361  1.00  0.00     0.014 A 
ATOM     27  C   UNL     1      -2.720   7.208   0.727  1.00  0.00     0.014 A 
ATOM     28  C   UNL     1      -2.644   9.898   0.037  1.00  0.00     0.010 A 
ATOM     29  C   UNL     1      -2.835   7.568  -0.602  1.00  0.00     0.010 A 
ATOM     30  C   UNL     1      -2.815   8.913  -0.953  1.00  0.00    -0.014 A 
BRANCH  30  31
ATOM     31  C   UNL     1      -2.809   9.306  -2.362  1.00  0.00     0.031 A 
ATOM     32  C   UNL     1      -1.643  10.146  -2.753  1.00  0.00     0.074 A 
ATOM     33  C   UNL     1      -3.648   8.845  -3.313  1.00  0.00     0.049 A 
ATOM     34  N   UNL     1      -1.646  11.408  -3.020  1.00  0.00    -0.248 NA
ATOM     35  C   UNL     1      -0.297   9.554  -2.691  1.00  0.00     0.031 C 
ATOM     36  C   UNL     1      -4.653   7.785  -3.208  1.00  0.00     0.029 A 
ATOM     37  N   UNL     1      -3.699   9.175  -4.635  1.00  0.00    -0.354 N 
ATOM     38  C   UNL     1      -0.344  11.731  -3.386  1.00  0.00     0.074 A 
ATOM     39  C   UNL     1       0.468  10.607  -2.989  1.00  0.00     0.031 C 
ATOM     40  C   UNL     1      -5.035   7.402  -4.448  1.00  0.00     0.029 A 
ATOM     41  C   UNL     1      -4.432   8.294  -5.423  1.00  0.00     0.049 A 
ATOM     42  H   UNL     1      -3.253   9.972  -5.002  1.00  0.00     0.167 HD
ATOM     43  C   UNL     1      -0.080  12.793  -4.199  1.00  0.00     0.031 A 
ATOM     44  C   UNL     1      -4.509   8.277  -6.779  1.00  0.00     0.031 A 
ATOM     45  C   UNL     1      -1.230  13.655  -4.331  1.00  0.00     0.049 A 
ATOM     46  C   UNL     1      -4.130   9.632  -7.254  1.00  0.00     0.074 A 
ATOM     47  C   UNL     1      -2.039  14.337  -3.443  1.00  0.00     0.029 A 
ATOM     48  N   UNL     1      -1.944  13.572  -5.505  1.00  0.00    -0.354 N 
ATOM     49  N   UNL     1      -4.852  10.695  -7.035  1.00  0.00    -0.248 NA
ATOM     50  C   UNL     1      -2.734   9.881  -7.576  1.00  0.00     0.031 C 
ATOM     51  C   UNL     1      -3.359  14.173  -3.956  1.00  0.00     0.029 A 
ATOM     52  C   UNL     1      -3.269  13.487  -5.168  1.00  0.00     0.049 A 
ATOM     53  H   UNL     1      -1.573  13.574  -6.416  1.00  0.00     0.167 HD
ATOM     54  C   UNL     1      -3.931  11.692  -6.747  1.00  0.00     0.074 A 
ATOM     55  C   UNL     1      -2.644  11.156  -7.188  1.00  0.00     0.031 C 
ATOM     56  C   UNL     1      -4.248  12.740  -5.929  1.00  0.00     0.031 A 
BRANCH  43  57
ATOM     57  C   UNL     1       1.054  12.834  -5.198  1.00  0.00    -0.014 A 
ATOM     58  C   UNL     1       1.191  13.979  -6.013  1.00  0.00     0.010 A 
ATOM     59  C   UNL     1       1.800  11.697  -5.569  1.00  0.00     0.010 A 
ATOM     60  C   UNL     1       1.949  13.951  -7.190  1.00  0.00     0.020 A 
ATOM     61  C   UNL     1       2.597  11.674  -6.715  1.00  0.00     0.020 A 
ATOM     62  C   UNL     1       2.634  12.789  -7.541  1.00  0.00     0.054 A 
BRANCH  62  63
ATOM     63  S   UNL     1       3.525  12.729  -9.113  1.00  0.00     0.124 S 
ATOM     64  O   UNL     1       2.432  12.789 -10.078  1.00  0.00    -0.237 OA
ATOM     65  O   UNL     1       4.369  13.918  -9.034  1.00  0.00    -0.237 OA
ATOM     66  O   UNL     1       4.241  11.457  -9.050  1.00  0.00    -0.744 OA
ENDBRANCH  62  63
ENDBRANCH  43  57
BRANCH  44  67
ATOM     67  C   UNL     1      -4.610   7.105  -7.689  1.00  0.00    -0.014 A 
ATOM     68  C   UNL     1      -4.822   7.275  -9.072  1.00  0.00     0.010 A 
ATOM     69  C   UNL     1      -4.211   5.827  -7.246  1.00  0.00     0.010 A 
ATOM     70  C   UNL     1      -4.566   6.232  -9.981  1.00  0.00     0.020 A 
ATOM     71  C   UNL     1      -3.965   4.781  -8.144  1.00  0.00     0.020 A 
ATOM     72  C   UNL     1      -4.114   4.997  -9.511  1.00  0.00     0.054 A 
BRANCH  72  73
ATOM     73  S   UNL     1      -3.587   3.721 -10.695  1.00  0.00     0.124 S 
ATOM     74  O   UNL     1      -4.857   3.282 -11.267  1.00  0.00    -0.237 OA
ATOM     75  O   UNL     1      -2.711   4.464 -11.597  1.00  0.00    -0.237 OA
ATOM     76  O   UNL     1      -2.910   2.732  -9.857  1.00  0.00    -0.744 OA
ENDBRANCH  72  73
ENDBRANCH  44  67
BRANCH  56  77
ATOM     77  C   UNL     1      -5.697  13.017  -5.599  1.00  0.00    -0.014 A 
ATOM     78  C   UNL     1      -6.576  12.086  -5.014  1.00  0.00     0.010 A 
ATOM     79  C   UNL     1      -6.138  14.344  -5.756  1.00  0.00     0.010 A 
ATOM     80  C   UNL     1      -7.870  12.471  -4.624  1.00  0.00     0.020 A 
ATOM     81  C   UNL     1      -7.413  14.739  -5.349  1.00  0.00     0.020 A 
ATOM     82  C   UNL     1      -8.279  13.798  -4.796  1.00  0.00     0.054 A 
BRANCH  82  83
ATOM     83  S   UNL     1      -9.937  14.304  -4.260  1.00  0.00     0.124 S 
ATOM     84  O   UNL     1     -10.803  13.600  -5.202  1.00  0.00    -0.237 OA
ATOM     85  O   UNL     1      -9.991  13.832  -2.879  1.00  0.00    -0.237 OA
ATOM     86  O   UNL     1      -9.922  15.760  -4.407  1.00  0.00    -0.744 OA
ENDBRANCH  82  83
ENDBRANCH  56  77
ENDBRANCH  30  31
ENDBRANCH   2  25
TORSDOF 13
