REMARK SMILES O=C(COCCNc1nncs1)NCCCNC(=O)c1ccc(-c2c3nc(c(-c4ccc(S(=O)(=O)[O-])cc4)c4ccc([nH]4)c(-c4ccc(S(=O)(=O)[O-])cc4)c4nc(c(-c5ccc(S(=O)(=O)[O-])cc5)c5ccc2[nH]5)C=C4)C=C3)cc1
REMARK SMILES IDX 14 1 13 2 1 3 2 4 3 6 4 7 5 8 6 9 7 10 8 12 9 13 12 14 10 15
REMARK SMILES IDX 11 16 15 17 16 18 17 19 18 20 19 22 20 23 21 24 79 25 22 26
REMARK SMILES IDX 78 27 23 28 24 29 25 30 72 31 26 32 77 33 71 34 73 35 27 36
REMARK SMILES IDX 76 37 70 38 69 39 28 41 58 42 39 43 57 44 40 45 43 46 56 47
REMARK SMILES IDX 74 48 41 49 42 50 55 52 75 53 44 54 29 55 30 56 38 57 31 58
REMARK SMILES IDX 37 59 32 60 33 61 34 62 35 63 36 64 59 65 60 66 68 67 61 68
REMARK SMILES IDX 67 69 62 70 63 71 64 72 65 73 66 74 45 75 46 76 54 77 47 78
REMARK SMILES IDX 53 79 48 80 49 81 50 82 51 83 52 84
REMARK H PARENT 13 5 7 11 17 21 73 40 43 51
REMARK Flexibility Score: inf
ROOT
ATOM      1  C   UNL     1       2.241  -2.471   0.704  1.00  0.00     0.117 C 
ENDROOT
BRANCH   1   2
ATOM      2  N   UNL     1       2.998  -1.250   0.529  1.00  0.00    -0.354 N 
ATOM      3  O   UNL     1       1.529  -0.229  -0.923  1.00  0.00    -0.272 OA
ATOM      4  C   UNL     1       2.553  -0.205  -0.250  1.00  0.00     0.245 C 
ATOM      5  H   UNL     1       3.866  -1.163   0.986  1.00  0.00     0.163 HD
BRANCH   4   6
ATOM      6  C   UNL     1       3.472   1.020  -0.202  1.00  0.00     0.260 C 
BRANCH   6   7
ATOM      7  O   UNL     1       3.858   1.464   1.092  1.00  0.00    -0.370 OA
BRANCH   7   8
ATOM      8  C   UNL     1       2.787   1.712   2.014  1.00  0.00     0.182 C 
BRANCH   8   9
ATOM      9  C   UNL     1       1.918   2.941   1.691  1.00  0.00     0.143 C 
BRANCH   9  10
ATOM     10  N   UNL     1       0.860   2.619   0.756  1.00  0.00    -0.358 N 
ATOM     11  H   UNL     1       1.137   2.405  -0.164  1.00  0.00     0.163 HD
BRANCH  10  12
ATOM     12  C   UNL     1      -0.468   2.580   1.011  1.00  0.00     0.205 A 
ATOM     13  N   UNL     1      -1.323   2.106   0.127  1.00  0.00    -0.121 NA
ATOM     14  S   UNL     1      -1.244   3.142   2.446  1.00  0.00    -0.083 S 
ATOM     15  N   UNL     1      -2.634   2.146   0.550  1.00  0.00    -0.145 NA
ATOM     16  C   UNL     1      -2.733   2.671   1.748  1.00  0.00     0.204 A 
ENDBRANCH  10  12
ENDBRANCH   9  10
ENDBRANCH   8   9
ENDBRANCH   7   8
ENDBRANCH   6   7
ENDBRANCH   4   6
ENDBRANCH   1   2
BRANCH   1  17
ATOM     17  C   UNL     1       2.521  -3.511  -0.374  1.00  0.00     0.042 C 
BRANCH  17  18
ATOM     18  C   UNL     1       3.990  -3.897  -0.517  1.00  0.00     0.118 C 
BRANCH  18  19
ATOM     19  N   UNL     1       4.556  -4.484   0.690  1.00  0.00    -0.352 N 
ATOM     20  C   UNL     1       5.199  -5.688   0.876  1.00  0.00     0.251 C 
ATOM     21  H   UNL     1       4.466  -3.933   1.500  1.00  0.00     0.163 HD
ATOM     22  O   UNL     1       5.497  -6.043   2.007  1.00  0.00    -0.269 OA
BRANCH  20  23
ATOM     23  C   UNL     1       5.495  -6.563  -0.281  1.00  0.00     0.039 A 
ATOM     24  C   UNL     1       5.199  -7.926  -0.183  1.00  0.00     0.014 A 
ATOM     25  C   UNL     1       6.055  -6.052  -1.454  1.00  0.00     0.014 A 
ATOM     26  C   UNL     1       5.378  -8.757  -1.292  1.00  0.00     0.010 A 
ATOM     27  C   UNL     1       6.170  -6.867  -2.579  1.00  0.00     0.010 A 
ATOM     28  C   UNL     1       5.818  -8.224  -2.514  1.00  0.00    -0.014 A 
BRANCH  28  29
ATOM     29  C   UNL     1       5.872  -9.055  -3.746  1.00  0.00     0.031 A 
ATOM     30  C   UNL     1       7.183  -9.322  -4.432  1.00  0.00     0.074 A 
ATOM     31  C   UNL     1       4.723  -9.503  -4.292  1.00  0.00     0.049 A 
ATOM     32  N   UNL     1       7.411  -9.948  -5.558  1.00  0.00    -0.248 NA
ATOM     33  C   UNL     1       8.394  -8.800  -3.779  1.00  0.00     0.031 C 
ATOM     34  C   UNL     1       3.382  -9.283  -3.745  1.00  0.00     0.029 A 
ATOM     35  N   UNL     1       4.498 -10.225  -5.439  1.00  0.00    -0.354 N 
ATOM     36  C   UNL     1       8.785  -9.882  -5.758  1.00  0.00     0.074 A 
ATOM     37  C   UNL     1       9.334  -9.120  -4.657  1.00  0.00     0.031 C 
ATOM     38  C   UNL     1       2.478  -9.873  -4.544  1.00  0.00     0.029 A 
ATOM     39  C   UNL     1       3.167 -10.472  -5.683  1.00  0.00     0.049 A 
ATOM     40  H   UNL     1       5.220 -10.536  -6.030  1.00  0.00     0.167 HD
ATOM     41  C   UNL     1       9.524 -10.418  -6.760  1.00  0.00     0.031 A 
ATOM     42  C   UNL     1       2.563 -11.095  -6.713  1.00  0.00     0.031 A 
ATOM     43  C   UNL     1       8.976 -11.178  -7.852  1.00  0.00     0.049 A 
ATOM     44  C   UNL     1       3.402 -11.658  -7.827  1.00  0.00     0.074 A 
ATOM     45  C   UNL     1       9.651 -11.809  -8.884  1.00  0.00     0.029 A 
ATOM     46  N   UNL     1       7.625 -11.407  -8.062  1.00  0.00    -0.354 N 
ATOM     47  N   UNL     1       4.707 -11.640  -7.963  1.00  0.00    -0.248 NA
ATOM     48  C   UNL     1       2.689 -12.328  -8.923  1.00  0.00     0.031 C 
ATOM     49  C   UNL     1       8.704 -12.373  -9.746  1.00  0.00     0.029 A 
ATOM     50  C   UNL     1       7.443 -12.143  -9.221  1.00  0.00     0.049 A 
ATOM     51  H   UNL     1       6.901 -11.092  -7.473  1.00  0.00     0.167 HD
ATOM     52  C   UNL     1       4.971 -12.315  -9.150  1.00  0.00     0.074 A 
ATOM     53  C   UNL     1       3.694 -12.743  -9.683  1.00  0.00     0.031 C 
ATOM     54  C   UNL     1       6.165 -12.557  -9.745  1.00  0.00     0.031 A 
BRANCH  41  55
ATOM     55  C   UNL     1      11.012 -10.190  -6.724  1.00  0.00    -0.014 A 
ATOM     56  C   UNL     1      11.821 -10.822  -5.763  1.00  0.00     0.010 A 
ATOM     57  C   UNL     1      11.617  -9.367  -7.692  1.00  0.00     0.010 A 
ATOM     58  C   UNL     1      13.201 -10.601  -5.742  1.00  0.00     0.020 A 
ATOM     59  C   UNL     1      13.001  -9.165  -7.692  1.00  0.00     0.020 A 
ATOM     60  C   UNL     1      13.781  -9.770  -6.705  1.00  0.00     0.054 A 
BRANCH  60  61
ATOM     61  S   UNL     1      15.577  -9.514  -6.663  1.00  0.00     0.124 S 
ATOM     62  O   UNL     1      15.729  -8.642  -5.501  1.00  0.00    -0.237 OA
ATOM     63  O   UNL     1      16.091 -10.871  -6.500  1.00  0.00    -0.237 OA
ATOM     64  O   UNL     1      15.869  -8.891  -7.952  1.00  0.00    -0.744 OA
ENDBRANCH  60  61
ENDBRANCH  41  55
BRANCH  42  65
ATOM     65  C   UNL     1       1.080 -11.222  -6.739  1.00  0.00    -0.014 A 
ATOM     66  C   UNL     1       0.468 -12.472  -6.542  1.00  0.00     0.010 A 
ATOM     67  C   UNL     1       0.270 -10.090  -6.947  1.00  0.00     0.010 A 
ATOM     68  C   UNL     1      -0.924 -12.592  -6.570  1.00  0.00     0.020 A 
ATOM     69  C   UNL     1      -1.123 -10.200  -6.948  1.00  0.00     0.020 A 
ATOM     70  C   UNL     1      -1.711 -11.454  -6.770  1.00  0.00     0.054 A 
BRANCH  70  71
ATOM     71  S   UNL     1      -3.518 -11.626  -6.750  1.00  0.00     0.124 S 
ATOM     72  O   UNL     1      -3.776 -12.269  -8.035  1.00  0.00    -0.237 OA
ATOM     73  O   UNL     1      -3.742 -12.457  -5.570  1.00  0.00    -0.237 OA
ATOM     74  O   UNL     1      -3.990 -10.248  -6.631  1.00  0.00    -0.744 OA
ENDBRANCH  70  71
ENDBRANCH  42  65
BRANCH  54  75
ATOM     75  C   UNL     1       6.153 -13.341 -11.031  1.00  0.00    -0.014 A 
ATOM     76  C   UNL     1       5.700 -12.763 -12.229  1.00  0.00     0.010 A 
ATOM     77  C   UNL     1       6.657 -14.654 -11.050  1.00  0.00     0.010 A 
ATOM     78  C   UNL     1       5.726 -13.494 -13.420  1.00  0.00     0.020 A 
ATOM     79  C   UNL     1       6.709 -15.379 -12.243  1.00  0.00     0.020 A 
ATOM     80  C   UNL     1       6.232 -14.798 -13.419  1.00  0.00     0.054 A 
BRANCH  80  81
ATOM     81  S   UNL     1       6.303 -15.707 -14.987  1.00  0.00     0.124 S 
ATOM     82  O   UNL     1       4.899 -16.043 -15.209  1.00  0.00    -0.237 OA
ATOM     83  O   UNL     1       6.866 -14.721 -15.906  1.00  0.00    -0.237 OA
ATOM     84  O   UNL     1       7.175 -16.842 -14.691  1.00  0.00    -0.744 OA
ENDBRANCH  80  81
ENDBRANCH  54  75
ENDBRANCH  28  29
ENDBRANCH  20  23
ENDBRANCH  18  19
ENDBRANCH  17  18
ENDBRANCH   1  17
TORSDOF 18
