REMARK SMILES C[C@@H](NC(=O)[C@H]1CC=CC[C@@H]1C(=O)NCCCNC(=O)c1ccc(-c2c3nc(c(-c4ccc(S(=O)(=O)[O-])cc4)c4ccc([nH]4)c(-c4ccc(S(=O)(=O)[O-])cc4)c4nc(c(-c5ccc(S(=O)(=O)[O-])cc5)c5ccc2[nH]5)C=C4)C=C3)cc1)c1ccc(-n2ccnc2)cc1
REMARK SMILES IDX 15 1 14 2 12 3 13 4 11 6 6 7 7 8 8 9 10 10 9 11 4 12 3 13
REMARK SMILES IDX 5 15 2 16 1 17 81 18 82 19 91 20 83 21 90 22 84 23 85 24
REMARK SMILES IDX 86 25 89 26 87 27 88 28 16 29 17 30 18 31 19 32 20 34 21 35
REMARK SMILES IDX 22 36 80 37 23 38 79 39 24 40 25 41 26 42 73 43 27 44 78 45
REMARK SMILES IDX 72 46 74 47 28 48 77 49 71 50 70 51 29 53 59 54 40 55 58 56
REMARK SMILES IDX 41 57 44 58 57 59 75 60 42 61 43 62 56 64 76 65 45 66 30 67
REMARK SMILES IDX 31 68 39 69 32 70 38 71 33 72 34 73 35 74 36 75 37 76 60 77
REMARK SMILES IDX 61 78 69 79 62 80 68 81 63 82 64 83 65 84 66 85 67 86 46 87
REMARK SMILES IDX 47 88 55 89 48 90 54 91 49 92 50 93 51 94 52 95 53 96
REMARK H PARENT 14 5 3 14 18 33 74 52 44 63
REMARK Flexibility Score: inf
ROOT
ATOM      1  C   UNL     1      -3.131  -3.926   2.505  1.00  0.00     0.117 C 
ENDROOT
BRANCH   1   2
ATOM      2  N   UNL     1      -3.769  -2.618   2.642  1.00  0.00    -0.356 N 
ATOM      3  C   UNL     1      -3.342  -1.331   2.573  1.00  0.00     0.224 C 
ATOM      4  O   UNL     1      -4.207  -0.459   2.670  1.00  0.00    -0.275 OA
ATOM      5  H   UNL     1      -4.733  -2.686   2.828  1.00  0.00     0.163 HD
BRANCH   3   6
ATOM      6  C   UNL     1      -1.908  -1.006   2.240  1.00  0.00     0.095 C 
ATOM      7  C   UNL     1      -0.849  -1.503   3.180  1.00  0.00     0.095 C 
ATOM      8  C   UNL     1      -0.820  -0.643   4.469  1.00  0.00     0.041 C 
ATOM      9  C   UNL     1      -1.170   0.809   4.291  1.00  0.00    -0.030 C 
ATOM     10  C   UNL     1      -1.671   0.473   1.900  1.00  0.00     0.041 C 
ATOM     11  C   UNL     1      -1.535   1.328   3.114  1.00  0.00    -0.030 C 
BRANCH   7  12
ATOM     12  C   UNL     1       0.493  -1.732   2.446  1.00  0.00     0.224 C 
ATOM     13  N   UNL     1       0.610  -2.220   1.161  1.00  0.00    -0.349 N 
ATOM     14  H   UNL     1       1.045  -3.103   1.165  1.00  0.00     0.164 HD
ATOM     15  O   UNL     1       1.541  -1.754   3.106  1.00  0.00    -0.275 OA
BRANCH  13  16
ATOM     16  C   UNL     1       0.268  -1.802  -0.261  1.00  0.00     0.109 C 
ATOM     17  C   UNL     1       1.125  -0.591  -0.659  1.00  0.00     0.036 C 
BRANCH  16  18
ATOM     18  C   UNL     1      -1.196  -1.736  -0.726  1.00  0.00    -0.026 A 
ATOM     19  C   UNL     1      -1.816  -0.536  -1.133  1.00  0.00     0.008 A 
ATOM     20  C   UNL     1      -2.016  -2.878  -0.653  1.00  0.00     0.008 A 
ATOM     21  C   UNL     1      -3.215  -0.428  -1.248  1.00  0.00     0.027 A 
ATOM     22  C   UNL     1      -3.420  -2.769  -0.740  1.00  0.00     0.027 A 
ATOM     23  C   UNL     1      -4.026  -1.528  -0.957  1.00  0.00     0.046 A 
BRANCH  23  24
ATOM     24  N   UNL     1      -5.423  -1.345  -0.748  1.00  0.00    -0.306 N 
ATOM     25  C   UNL     1      -6.231  -2.043   0.127  1.00  0.00     0.113 A 
ATOM     26  C   UNL     1      -6.229  -0.365  -1.286  1.00  0.00     0.204 A 
ATOM     27  C   UNL     1      -7.438  -1.381   0.140  1.00  0.00     0.131 A 
ATOM     28  N   UNL     1      -7.442  -0.367  -0.776  1.00  0.00    -0.245 NA
ENDBRANCH  23  24
ENDBRANCH  16  18
ENDBRANCH  13  16
ENDBRANCH   7  12
ENDBRANCH   3   6
ENDBRANCH   1   2
BRANCH   1  29
ATOM     29  C   UNL     1      -3.631  -4.878   3.584  1.00  0.00     0.042 C 
BRANCH  29  30
ATOM     30  C   UNL     1      -5.135  -5.127   3.517  1.00  0.00     0.118 C 
BRANCH  30  31
ATOM     31  N   UNL     1      -5.539  -6.030   2.454  1.00  0.00    -0.352 N 
ATOM     32  C   UNL     1      -6.524  -6.998   2.505  1.00  0.00     0.251 C 
ATOM     33  H   UNL     1      -5.056  -5.944   1.601  1.00  0.00     0.163 HD
ATOM     34  O   UNL     1      -6.688  -7.756   1.567  1.00  0.00    -0.269 OA
BRANCH  32  35
ATOM     35  C   UNL     1      -7.336  -7.129   3.741  1.00  0.00     0.039 A 
ATOM     36  C   UNL     1      -7.456  -8.389   4.326  1.00  0.00     0.014 A 
ATOM     37  C   UNL     1      -7.921  -6.013   4.350  1.00  0.00     0.014 A 
ATOM     38  C   UNL     1      -8.108  -8.519   5.555  1.00  0.00     0.010 A 
ATOM     39  C   UNL     1      -8.497  -6.133   5.615  1.00  0.00     0.010 A 
ATOM     40  C   UNL     1      -8.599  -7.388   6.233  1.00  0.00    -0.014 A 
BRANCH  40  41
ATOM     41  C   UNL     1      -9.193  -7.526   7.591  1.00  0.00     0.031 A 
ATOM     42  C   UNL     1     -10.637  -7.181   7.845  1.00  0.00     0.074 A 
ATOM     43  C   UNL     1      -8.422  -7.959   8.610  1.00  0.00     0.049 A 
ATOM     44  N   UNL     1     -11.332  -7.311   8.947  1.00  0.00    -0.248 NA
ATOM     45  C   UNL     1     -11.394  -6.596   6.727  1.00  0.00     0.031 C 
ATOM     46  C   UNL     1      -6.991  -8.263   8.519  1.00  0.00     0.029 A 
ATOM     47  N   UNL     1      -8.733  -8.233   9.919  1.00  0.00    -0.354 N 
ATOM     48  C   UNL     1     -12.605  -6.834   8.654  1.00  0.00     0.074 A 
ATOM     49  C   UNL     1     -12.566  -6.346   7.293  1.00  0.00     0.031 C 
ATOM     50  C   UNL     1      -6.561  -8.724   9.704  1.00  0.00     0.029 A 
ATOM     51  C   UNL     1      -7.672  -8.718  10.650  1.00  0.00     0.049 A 
ATOM     52  H   UNL     1      -9.630  -8.096  10.299  1.00  0.00     0.167 HD
ATOM     53  C   UNL     1     -13.714  -6.828   9.433  1.00  0.00     0.031 A 
ATOM     54  C   UNL     1      -7.599  -9.120  11.934  1.00  0.00     0.031 A 
ATOM     55  C   UNL     1     -13.752  -7.304  10.792  1.00  0.00     0.049 A 
ATOM     56  C   UNL     1      -8.843  -9.105  12.780  1.00  0.00     0.074 A 
ATOM     57  C   UNL     1     -14.836  -7.375  11.650  1.00  0.00     0.029 A 
ATOM     58  N   UNL     1     -12.658  -7.787  11.494  1.00  0.00    -0.354 N 
ATOM     59  N   UNL     1     -10.056  -8.724  12.456  1.00  0.00    -0.248 NA
ATOM     60  C   UNL     1      -8.712  -9.598  14.157  1.00  0.00     0.031 C 
ATOM     61  C   UNL     1     -14.387  -7.848  12.887  1.00  0.00     0.029 A 
ATOM     62  C   UNL     1     -13.036  -8.137  12.780  1.00  0.00     0.049 A 
ATOM     63  H   UNL     1     -11.746  -7.868  11.132  1.00  0.00     0.167 HD
ATOM     64  C   UNL     1     -10.837  -8.950  13.584  1.00  0.00     0.074 A 
ATOM     65  C   UNL     1      -9.965  -9.530  14.585  1.00  0.00     0.031 C 
ATOM     66  C   UNL     1     -12.156  -8.697  13.776  1.00  0.00     0.031 A 
BRANCH  53  67
ATOM     67  C   UNL     1     -14.987  -6.295   8.825  1.00  0.00    -0.014 A 
ATOM     68  C   UNL     1     -15.642  -6.992   7.791  1.00  0.00     0.010 A 
ATOM     69  C   UNL     1     -15.564  -5.110   9.318  1.00  0.00     0.010 A 
ATOM     70  C   UNL     1     -16.824  -6.494   7.237  1.00  0.00     0.020 A 
ATOM     71  C   UNL     1     -16.764  -4.626   8.788  1.00  0.00     0.020 A 
ATOM     72  C   UNL     1     -17.378  -5.314   7.739  1.00  0.00     0.054 A 
BRANCH  72  73
ATOM     73  S   UNL     1     -18.930  -4.710   7.019  1.00  0.00     0.124 S 
ATOM     74  O   UNL     1     -18.493  -4.254   5.702  1.00  0.00    -0.237 OA
ATOM     75  O   UNL     1     -19.769  -5.905   7.023  1.00  0.00    -0.237 OA
ATOM     76  O   UNL     1     -19.350  -3.653   7.936  1.00  0.00    -0.744 OA
ENDBRANCH  72  73
ENDBRANCH  53  67
BRANCH  54  77
ATOM     77  C   UNL     1      -6.299  -9.588  12.494  1.00  0.00    -0.014 A 
ATOM     78  C   UNL     1      -6.103 -10.937  12.840  1.00  0.00     0.010 A 
ATOM     79  C   UNL     1      -5.243  -8.676  12.682  1.00  0.00     0.010 A 
ATOM     80  C   UNL     1      -4.886 -11.360  13.384  1.00  0.00     0.020 A 
ATOM     81  C   UNL     1      -4.015  -9.102  13.194  1.00  0.00     0.020 A 
ATOM     82  C   UNL     1      -3.849 -10.440  13.555  1.00  0.00     0.054 A 
BRANCH  82  83
ATOM     83  S   UNL     1      -2.262 -11.019  14.217  1.00  0.00     0.124 S 
ATOM     84  O   UNL     1      -2.584 -11.250  15.622  1.00  0.00    -0.237 OA
ATOM     85  O   UNL     1      -2.007 -12.217  13.420  1.00  0.00    -0.237 OA
ATOM     86  O   UNL     1      -1.355  -9.903  13.957  1.00  0.00    -0.744 OA
ENDBRANCH  82  83
ENDBRANCH  54  77
BRANCH  66  87
ATOM     87  C   UNL     1     -12.740  -9.073  15.115  1.00  0.00    -0.014 A 
ATOM     88  C   UNL     1     -12.381  -8.387  16.289  1.00  0.00     0.010 A 
ATOM     89  C   UNL     1     -13.669 -10.127  15.197  1.00  0.00     0.010 A 
ATOM     90  C   UNL     1     -12.892  -8.787  17.527  1.00  0.00     0.020 A 
ATOM     91  C   UNL     1     -14.210 -10.507  16.428  1.00  0.00     0.020 A 
ATOM     92  C   UNL     1     -13.798  -9.851  17.589  1.00  0.00     0.054 A 
BRANCH  92  93
ATOM     93  S   UNL     1     -14.443 -10.355  19.207  1.00  0.00     0.124 S 
ATOM     94  O   UNL     1     -13.288 -11.023  19.799  1.00  0.00    -0.237 OA
ATOM     95  O   UNL     1     -14.813  -9.080  19.817  1.00  0.00    -0.237 OA
ATOM     96  O   UNL     1     -15.566 -11.229  18.875  1.00  0.00    -0.744 OA
ENDBRANCH  92  93
ENDBRANCH  66  87
ENDBRANCH  40  41
ENDBRANCH  32  35
ENDBRANCH  30  31
ENDBRANCH  29  30
ENDBRANCH   1  29
TORSDOF 17
