REMARK SMILES COc1ccccc1NC(=O)c1ccc(NC(=O)Cn2nc(C(=O)NCCCNC(=O)c3ccc(-c4c5nc(c(-c6ccc(S(=O)(=O)[O-])cc6)c6ccc([nH]6)c(-c6ccc(S(=O)(=O)[O-])cc6)c6nc(c(-c7ccc(S(=O)(=O)[O-])cc7)c7ccc4[nH]7)C=C6)C=C5)cc3)c3ccccc3c2=O)cc1
REMARK SMILES IDX 23 1 24 2 25 3 22 5 20 6 21 7 98 8 97 9 99 10 92 11 96 12
REMARK SMILES IDX 93 13 95 14 94 15 19 16 17 17 16 18 18 20 15 21 12 22 13 23
REMARK SMILES IDX 101 24 14 25 100 26 10 27 9 28 11 30 8 31 3 32 4 33 5 34
REMARK SMILES IDX 7 35 6 36 2 37 1 38 26 39 27 40 28 41 29 42 30 43 31 45
REMARK SMILES IDX 32 46 33 47 91 48 34 49 90 50 35 51 36 52 37 53 84 54 38 55
REMARK SMILES IDX 89 56 83 57 85 58 39 59 88 60 82 61 81 62 40 64 70 65 51 66
REMARK SMILES IDX 69 67 52 68 55 69 68 70 86 71 53 72 54 73 67 75 87 76 56 77
REMARK SMILES IDX 41 78 42 79 50 80 43 81 49 82 44 83 45 84 46 85 47 86 48 87
REMARK SMILES IDX 71 88 72 89 80 90 73 91 79 92 74 93 75 94 76 95 77 96 78 97
REMARK SMILES IDX 57 98 58 99 66 100 59 101 65 102 60 103 61 104 62 105 63 106
REMARK SMILES IDX 64 107
REMARK H PARENT 25 4 16 19 9 29 29 44 85 63 55 74
REMARK Flexibility Score: inf
ROOT
ATOM      1  C   UNL     1      10.591  -0.288   3.930  1.00  0.00     0.272 C 
ATOM      2  O   UNL     1      11.661  -0.859   3.806  1.00  0.00    -0.267 OA
ATOM      3  N   UNL     1       9.710  -0.194   2.875  1.00  0.00    -0.351 N 
ATOM      4  H   UNL     1       9.864  -0.803   2.117  1.00  0.00     0.163 HD
ENDROOT
BRANCH   1   5
ATOM      5  C   UNL     1      10.163   0.271   5.291  1.00  0.00     0.156 A 
ATOM      6  N   UNL     1       9.200   1.987   6.515  1.00  0.00    -0.219 N 
ATOM      7  N   UNL     1       9.740   1.503   5.340  1.00  0.00    -0.163 NA
ATOM      8  C   UNL     1       9.100   1.231   7.682  1.00  0.00     0.275 A 
ATOM      9  C   UNL     1       9.623  -0.144   7.633  1.00  0.00     0.051 A 
ATOM     10  O   UNL     1       8.617   1.641   8.734  1.00  0.00    -0.267 OA
ATOM     11  C   UNL     1      10.209  -0.619   6.468  1.00  0.00     0.020 A 
ATOM     12  C   UNL     1       9.581  -0.945   8.784  1.00  0.00     0.014 A 
ATOM     13  C   UNL     1      10.816  -1.883   6.473  1.00  0.00     0.011 A 
ATOM     14  C   UNL     1      10.173  -2.207   8.781  1.00  0.00     0.001 A 
ATOM     15  C   UNL     1      10.807  -2.667   7.631  1.00  0.00     0.001 A 
BRANCH   6  16
ATOM     16  C   UNL     1       8.970   3.436   6.582  1.00  0.00     0.248 C 
BRANCH  16  17
ATOM     17  C   UNL     1       7.681   3.861   7.304  1.00  0.00     0.246 C 
ATOM     18  N   UNL     1       6.471   3.312   6.979  1.00  0.00    -0.324 N 
ATOM     19  H   UNL     1       5.831   3.247   7.725  1.00  0.00     0.169 HD
ATOM     20  O   UNL     1       7.710   4.716   8.196  1.00  0.00    -0.273 OA
BRANCH  18  21
ATOM     21  C   UNL     1       6.000   2.828   5.755  1.00  0.00     0.041 A 
ATOM     22  C   UNL     1       4.894   1.909   3.358  1.00  0.00     0.040 A 
ATOM     23  C   UNL     1       5.856   2.921   3.346  1.00  0.00     0.016 A 
ATOM     24  C   UNL     1       4.450   1.375   4.568  1.00  0.00     0.016 A 
ATOM     25  C   UNL     1       6.419   3.369   4.541  1.00  0.00     0.027 A 
ATOM     26  C   UNL     1       4.981   1.866   5.768  1.00  0.00     0.027 A 
BRANCH  22  27
ATOM     27  C   UNL     1       4.441   1.385   2.062  1.00  0.00     0.255 C 
ATOM     28  N   UNL     1       3.150   1.505   1.612  1.00  0.00    -0.319 N 
ATOM     29  H   UNL     1       2.972   0.979   0.799  1.00  0.00     0.170 HD
ATOM     30  O   UNL     1       5.282   0.780   1.393  1.00  0.00    -0.269 OA
BRANCH  28  31
ATOM     31  C   UNL     1       2.023   2.224   2.066  1.00  0.00     0.084 A 
ATOM     32  C   UNL     1       0.736   1.985   1.536  1.00  0.00     0.142 A 
ATOM     33  C   UNL     1      -0.350   2.768   1.976  1.00  0.00     0.048 A 
ATOM     34  C   UNL     1      -0.190   3.776   2.921  1.00  0.00     0.004 A 
ATOM     35  C   UNL     1       2.161   3.272   2.992  1.00  0.00     0.030 A 
ATOM     36  C   UNL     1       1.073   4.034   3.424  1.00  0.00     0.002 A 
BRANCH  32  37
ATOM     37  O   UNL     1       0.328   1.103   0.571  1.00  0.00    -0.495 OA
ATOM     38  C   UNL     1       1.032  -0.098   0.319  1.00  0.00     0.278 C 
ENDBRANCH  32  37
ENDBRANCH  28  31
ENDBRANCH  22  27
ENDBRANCH  18  21
ENDBRANCH  16  17
ENDBRANCH   6  16
ENDBRANCH   1   5
BRANCH   3  39
ATOM     39  C   UNL     1       8.580   0.710   2.763  1.00  0.00     0.118 C 
BRANCH  39  40
ATOM     40  C   UNL     1       9.054   2.046   2.191  1.00  0.00     0.042 C 
BRANCH  40  41
ATOM     41  C   UNL     1       8.901   2.094   0.677  1.00  0.00     0.118 C 
BRANCH  41  42
ATOM     42  N   UNL     1       7.519   2.346   0.280  1.00  0.00    -0.352 N 
ATOM     43  C   UNL     1       7.034   3.376  -0.494  1.00  0.00     0.251 C 
ATOM     44  H   UNL     1       6.852   1.699   0.605  1.00  0.00     0.163 HD
ATOM     45  O   UNL     1       5.842   3.664  -0.478  1.00  0.00    -0.269 OA
BRANCH  43  46
ATOM     46  C   UNL     1       7.976   4.139  -1.344  1.00  0.00     0.039 A 
ATOM     47  C   UNL     1       7.863   5.528  -1.448  1.00  0.00     0.014 A 
ATOM     48  C   UNL     1       8.976   3.462  -2.047  1.00  0.00     0.014 A 
ATOM     49  C   UNL     1       8.791   6.244  -2.214  1.00  0.00     0.010 A 
ATOM     50  C   UNL     1       9.942   4.180  -2.738  1.00  0.00     0.010 A 
ATOM     51  C   UNL     1       9.854   5.577  -2.842  1.00  0.00    -0.014 A 
BRANCH  51  52
ATOM     52  C   UNL     1      10.880   6.277  -3.658  1.00  0.00     0.031 A 
ATOM     53  C   UNL     1      11.047   5.890  -5.106  1.00  0.00     0.074 A 
ATOM     54  C   UNL     1      11.742   7.136  -3.080  1.00  0.00     0.049 A 
ATOM     55  N   UNL     1      12.029   6.157  -5.926  1.00  0.00    -0.248 NA
ATOM     56  C   UNL     1       9.993   5.040  -5.689  1.00  0.00     0.031 C 
ATOM     57  C   UNL     1      11.719   7.558  -1.677  1.00  0.00     0.029 A 
ATOM     58  N   UNL     1      12.835   7.785  -3.601  1.00  0.00    -0.354 N 
ATOM     59  C   UNL     1      11.750   5.449  -7.090  1.00  0.00     0.074 A 
ATOM     60  C   UNL     1      10.515   4.730  -6.866  1.00  0.00     0.031 C 
ATOM     61  C   UNL     1      12.746   8.395  -1.452  1.00  0.00     0.029 A 
ATOM     62  C   UNL     1      13.525   8.535  -2.677  1.00  0.00     0.049 A 
ATOM     63  H   UNL     1      13.099   7.719  -4.547  1.00  0.00     0.167 HD
ATOM     64  C   UNL     1      12.456   5.408  -8.244  1.00  0.00     0.031 A 
ATOM     65  C   UNL     1      14.668   9.237  -2.800  1.00  0.00     0.031 A 
ATOM     66  C   UNL     1      13.634   6.194  -8.489  1.00  0.00     0.049 A 
ATOM     67  C   UNL     1      15.378   9.256  -4.127  1.00  0.00     0.074 A 
ATOM     68  C   UNL     1      14.366   6.305  -9.658  1.00  0.00     0.029 A 
ATOM     69  N   UNL     1      14.233   7.027  -7.557  1.00  0.00    -0.354 N 
ATOM     70  N   UNL     1      15.075   8.614  -5.230  1.00  0.00    -0.248 NA
ATOM     71  C   UNL     1      16.577  10.100  -4.228  1.00  0.00     0.031 C 
ATOM     72  C   UNL     1      15.420   7.194  -9.428  1.00  0.00     0.029 A 
ATOM     73  C   UNL     1      15.323   7.659  -8.126  1.00  0.00     0.049 A 
ATOM     74  H   UNL     1      13.929   7.149  -6.629  1.00  0.00     0.167 HD
ATOM     75  C   UNL     1      16.030   9.000  -6.164  1.00  0.00     0.074 A 
ATOM     76  C   UNL     1      16.913   9.937  -5.501  1.00  0.00     0.031 C 
ATOM     77  C   UNL     1      16.168   8.611  -7.454  1.00  0.00     0.031 A 
BRANCH  64  78
ATOM     78  C   UNL     1      11.973   4.493  -9.336  1.00  0.00    -0.014 A 
ATOM     79  C   UNL     1      10.820   4.795 -10.081  1.00  0.00     0.010 A 
ATOM     80  C   UNL     1      12.721   3.347  -9.665  1.00  0.00     0.010 A 
ATOM     81  C   UNL     1      10.405   3.951 -11.115  1.00  0.00     0.020 A 
ATOM     82  C   UNL     1      12.324   2.514 -10.714  1.00  0.00     0.020 A 
ATOM     83  C   UNL     1      11.160   2.815 -11.424  1.00  0.00     0.054 A 
BRANCH  83  84
ATOM     84  S   UNL     1      10.628   1.763 -12.803  1.00  0.00     0.124 S 
ATOM     85  O   UNL     1       9.517   1.026 -12.207  1.00  0.00    -0.237 OA
ATOM     86  O   UNL     1      10.257   2.736 -13.828  1.00  0.00    -0.237 OA
ATOM     87  O   UNL     1      11.813   0.966 -13.108  1.00  0.00    -0.744 OA
ENDBRANCH  83  84
ENDBRANCH  64  78
BRANCH  65  88
ATOM     88  C   UNL     1      15.218   9.988  -1.640  1.00  0.00    -0.014 A 
ATOM     89  C   UNL     1      15.143  11.392  -1.607  1.00  0.00     0.010 A 
ATOM     90  C   UNL     1      15.832   9.310  -0.572  1.00  0.00     0.010 A 
ATOM     91  C   UNL     1      15.704  12.107  -0.545  1.00  0.00     0.020 A 
ATOM     92  C   UNL     1      16.373  10.021   0.504  1.00  0.00     0.020 A 
ATOM     93  C   UNL     1      16.322  11.417   0.501  1.00  0.00     0.054 A 
BRANCH  93  94
ATOM     94  S   UNL     1      17.024  12.360   1.883  1.00  0.00     0.124 S 
ATOM     95  O   UNL     1      18.297  12.806   1.327  1.00  0.00    -0.237 OA
ATOM     96  O   UNL     1      16.026  13.405   2.098  1.00  0.00    -0.237 OA
ATOM     97  O   UNL     1      17.118  11.370   2.954  1.00  0.00    -0.744 OA
ENDBRANCH  93  94
ENDBRANCH  65  88
BRANCH  77  98
ATOM     98  C   UNL     1      17.274   9.236  -8.253  1.00  0.00    -0.014 A 
ATOM     99  C   UNL     1      18.607   8.819  -8.098  1.00  0.00     0.010 A 
ATOM    100  C   UNL     1      16.960  10.200  -9.229  1.00  0.00     0.010 A 
ATOM    101  C   UNL     1      19.613   9.369  -8.895  1.00  0.00     0.020 A 
ATOM    102  C   UNL     1      17.961  10.738 -10.040  1.00  0.00     0.020 A 
ATOM    103  C   UNL     1      19.283  10.325  -9.861  1.00  0.00     0.054 A 
BRANCH 103 104
ATOM    104  S   UNL     1      20.595  10.979 -10.930  1.00  0.00     0.124 S 
ATOM    105  O   UNL     1      21.249  11.944 -10.051  1.00  0.00    -0.237 OA
ATOM    106  O   UNL     1      21.377   9.788 -11.250  1.00  0.00    -0.237 OA
ATOM    107  O   UNL     1      19.865  11.557 -12.057  1.00  0.00    -0.744 OA
ENDBRANCH 103 104
ENDBRANCH  77  98
ENDBRANCH  51  52
ENDBRANCH  43  46
ENDBRANCH  41  42
ENDBRANCH  40  41
ENDBRANCH  39  40
ENDBRANCH   3  39
TORSDOF 19
