REMARK SMILES Cc1nc(C[C@H](C(=O)NCCCNC(=O)c2ccc(-c3c4nc(c(-c5ccc(S(=O)(=O)[O-])cc5)c5ccc([nH]5)c(-c5ccc(S(=O)(=O)[O-])cc5)c5nc(c(-c6ccc(S(=O)(=O)[O-])cc6)c6ccc3[nH]6)C=C5)C=C4)cc2)c2ccccc2Br)cs1
REMARK SMILES IDX 11 1 10 2 9 3 7 4 8 5 6 7 5 8 4 9 1 10 2 11 3 12 84 13 83 14
REMARK SMILES IDX 76 15 77 16 81 17 78 18 80 19 82 20 79 21 12 22 13 23 14 24
REMARK SMILES IDX 15 26 16 27 17 28 75 29 18 30 74 31 19 32 20 33 21 34 68 35
REMARK SMILES IDX 22 36 73 37 67 38 69 39 23 40 72 41 66 42 65 43 24 45 54 46
REMARK SMILES IDX 35 47 53 48 36 49 39 50 52 51 70 52 37 53 38 54 51 56 71 57
REMARK SMILES IDX 40 58 25 59 26 60 34 61 27 62 33 63 28 64 29 65 30 66 31 67
REMARK SMILES IDX 32 68 55 69 56 70 64 71 57 72 63 73 58 74 59 75 60 76 61 77
REMARK SMILES IDX 62 78 41 79 42 80 50 81 43 82 49 83 44 84 45 85 46 86 47 87
REMARK SMILES IDX 48 88
REMARK H PARENT 9 6 13 25 69 44 39 55
REMARK Flexibility Score: inf
ROOT
ATOM      1  C   UNL     1       2.400  -5.669   0.812  1.00  0.00     0.042 C 
ENDROOT
BRANCH   1   2
ATOM      2  C   UNL     1       1.447  -4.657   0.182  1.00  0.00     0.117 C 
BRANCH   2   3
ATOM      3  N   UNL     1       1.732  -3.307   0.621  1.00  0.00    -0.355 N 
ATOM      4  C   UNL     1       2.502  -2.338   0.042  1.00  0.00     0.227 C 
ATOM      5  O   UNL     1       2.577  -1.265   0.646  1.00  0.00    -0.274 OA
ATOM      6  H   UNL     1       1.305  -3.046   1.469  1.00  0.00     0.163 HD
BRANCH   4   7
ATOM      7  C   UNL     1       3.167  -2.562  -1.333  1.00  0.00     0.115 C 
BRANCH   7   8
ATOM      8  C   UNL     1       3.613  -1.188  -1.881  1.00  0.00     0.075 C 
BRANCH   8   9
ATOM      9  C   UNL     1       4.195  -1.099  -3.263  1.00  0.00     0.053 A 
ATOM     10  C   UNL     1       5.458   1.349  -5.673  1.00  0.00     0.079 C 
ATOM     11  C   UNL     1       5.018   0.149  -4.915  1.00  0.00     0.090 A 
ATOM     12  N   UNL     1       4.471   0.186  -3.721  1.00  0.00    -0.247 NA
ATOM     13  S   UNL     1       5.206  -1.416  -5.587  1.00  0.00    -0.127 S 
ATOM     14  C   UNL     1       4.519  -2.090  -4.168  1.00  0.00     0.090 A 
ENDBRANCH   8   9
ENDBRANCH   7   8
BRANCH   7  15
ATOM     15  C   UNL     1       4.234  -3.660  -1.310  1.00  0.00    -0.021 A 
ATOM     16  C   UNL     1       3.967  -4.833  -2.060  1.00  0.00     0.006 A 
ATOM     17  C   UNL     1       5.438  -3.623  -0.585  1.00  0.00     0.021 A 
ATOM     18  C   UNL     1       4.838  -5.923  -2.067  1.00  0.00     0.000 A 
ATOM     19  C   UNL     1       6.321  -4.715  -0.614  1.00  0.00     0.016 A 
ATOM     20  Br  UNL     1       5.968  -2.174   0.518  1.00  0.00    -0.051 Br
ATOM     21  C   UNL     1       6.019  -5.863  -1.343  1.00  0.00     0.001 A 
ENDBRANCH   7  15
ENDBRANCH   4   7
ENDBRANCH   2   3
ENDBRANCH   1   2
BRANCH   1  22
ATOM     22  C   UNL     1       1.964  -6.129   2.196  1.00  0.00     0.118 C 
BRANCH  22  23
ATOM     23  N   UNL     1       0.805  -7.005   2.129  1.00  0.00    -0.352 N 
ATOM     24  C   UNL     1       0.611  -8.257   2.655  1.00  0.00     0.251 C 
ATOM     25  H   UNL     1       0.039  -6.642   1.628  1.00  0.00     0.163 HD
ATOM     26  O   UNL     1      -0.362  -8.909   2.281  1.00  0.00    -0.269 OA
BRANCH  24  27
ATOM     27  C   UNL     1       1.549  -8.831   3.648  1.00  0.00     0.039 A 
ATOM     28  C   UNL     1       1.775 -10.212   3.628  1.00  0.00     0.014 A 
ATOM     29  C   UNL     1       2.154  -8.047   4.635  1.00  0.00     0.014 A 
ATOM     30  C   UNL     1       2.621 -10.795   4.574  1.00  0.00     0.010 A 
ATOM     31  C   UNL     1       3.060  -8.618   5.528  1.00  0.00     0.010 A 
ATOM     32  C   UNL     1       3.285 -10.001   5.522  1.00  0.00    -0.014 A 
BRANCH  32  33
ATOM     33  C   UNL     1       4.194 -10.616   6.524  1.00  0.00     0.031 A 
ATOM     34  C   UNL     1       3.858 -10.565   7.992  1.00  0.00     0.074 A 
ATOM     35  C   UNL     1       5.336 -11.201   6.112  1.00  0.00     0.049 A 
ATOM     36  N   UNL     1       4.519 -11.061   9.007  1.00  0.00    -0.248 NA
ATOM     37  C   UNL     1       2.633  -9.842   8.373  1.00  0.00     0.031 C 
ATOM     38  C   UNL     1       5.799 -11.270   4.724  1.00  0.00     0.029 A 
ATOM     39  N   UNL     1       6.312 -11.856   6.820  1.00  0.00    -0.354 N 
ATOM     40  C   UNL     1       3.801 -10.699  10.142  1.00  0.00     0.074 A 
ATOM     41  C   UNL     1       2.684  -9.897   9.695  1.00  0.00     0.031 C 
ATOM     42  C   UNL     1       6.948 -11.963   4.677  1.00  0.00     0.029 A 
ATOM     43  C   UNL     1       7.319 -12.361   6.031  1.00  0.00     0.049 A 
ATOM     44  H   UNL     1       6.294 -11.954   7.799  1.00  0.00     0.167 HD
ATOM     45  C   UNL     1       4.036 -11.022  11.437  1.00  0.00     0.031 A 
ATOM     46  C   UNL     1       8.412 -13.075   6.359  1.00  0.00     0.031 A 
ATOM     47  C   UNL     1       5.142 -11.832  11.876  1.00  0.00     0.049 A 
ATOM     48  C   UNL     1       8.636 -13.447   7.798  1.00  0.00     0.074 A 
ATOM     49  C   UNL     1       5.442 -12.261  13.158  1.00  0.00     0.029 A 
ATOM     50  N   UNL     1       6.128 -12.341  11.044  1.00  0.00    -0.354 N 
ATOM     51  N   UNL     1       7.911 -13.147   8.850  1.00  0.00    -0.248 NA
ATOM     52  C   UNL     1       9.814 -14.275   8.091  1.00  0.00     0.031 C 
ATOM     53  C   UNL     1       6.633 -12.994  13.106  1.00  0.00     0.029 A 
ATOM     54  C   UNL     1       7.045 -13.068  11.785  1.00  0.00     0.049 A 
ATOM     55  H   UNL     1       6.170 -12.206  10.070  1.00  0.00     0.167 HD
ATOM     56  C   UNL     1       8.532 -13.770   9.927  1.00  0.00     0.074 A 
ATOM     57  C   UNL     1       9.678 -14.480   9.393  1.00  0.00     0.031 C 
ATOM     58  C   UNL     1       8.185 -13.759  11.238  1.00  0.00     0.031 A 
BRANCH  45  59
ATOM     59  C   UNL     1       3.075 -10.494  12.471  1.00  0.00    -0.014 A 
ATOM     60  C   UNL     1       1.756 -10.979  12.551  1.00  0.00     0.010 A 
ATOM     61  C   UNL     1       3.500  -9.520  13.393  1.00  0.00     0.010 A 
ATOM     62  C   UNL     1       0.869 -10.467  13.502  1.00  0.00     0.020 A 
ATOM     63  C   UNL     1       2.624  -9.027  14.365  1.00  0.00     0.020 A 
ATOM     64  C   UNL     1       1.307  -9.490  14.400  1.00  0.00     0.054 A 
BRANCH  64  65
ATOM     65  S   UNL     1       0.139  -8.856  15.635  1.00  0.00     0.124 S 
ATOM     66  O   UNL     1      -0.724  -8.002  14.821  1.00  0.00    -0.237 OA
ATOM     67  O   UNL     1      -0.484 -10.075  16.144  1.00  0.00    -0.237 OA
ATOM     68  O   UNL     1       0.992  -8.151  16.589  1.00  0.00    -0.744 OA
ENDBRANCH  64  65
ENDBRANCH  45  59
BRANCH  46  69
ATOM     69  C   UNL     1       9.356 -13.517   5.297  1.00  0.00    -0.014 A 
ATOM     70  C   UNL     1       9.422 -14.870   4.919  1.00  0.00     0.010 A 
ATOM     71  C   UNL     1      10.178 -12.583   4.641  1.00  0.00     0.010 A 
ATOM     72  C   UNL     1      10.307 -15.284   3.919  1.00  0.00     0.020 A 
ATOM     73  C   UNL     1      11.044 -12.989   3.622  1.00  0.00     0.020 A 
ATOM     74  C   UNL     1      11.111 -14.340   3.275  1.00  0.00     0.054 A 
BRANCH  74  75
ATOM     75  S   UNL     1      12.210 -14.889   1.940  1.00  0.00     0.124 S 
ATOM     76  O   UNL     1      13.285 -15.541   2.680  1.00  0.00    -0.237 OA
ATOM     77  O   UNL     1      11.346 -15.776   1.163  1.00  0.00    -0.237 OA
ATOM     78  O   UNL     1      12.576 -13.645   1.267  1.00  0.00    -0.744 OA
ENDBRANCH  74  75
ENDBRANCH  46  69
BRANCH  58  79
ATOM     79  C   UNL     1       9.042 -14.565  12.177  1.00  0.00    -0.014 A 
ATOM     80  C   UNL     1      10.348 -14.160  12.505  1.00  0.00     0.010 A 
ATOM     81  C   UNL     1       8.526 -15.743  12.746  1.00  0.00     0.010 A 
ATOM     82  C   UNL     1      11.143 -14.948  13.340  1.00  0.00     0.020 A 
ATOM     83  C   UNL     1       9.307 -16.519  13.606  1.00  0.00     0.020 A 
ATOM     84  C   UNL     1      10.620 -16.128  13.878  1.00  0.00     0.054 A 
BRANCH  84  85
ATOM     85  S   UNL     1      11.668 -17.138  14.960  1.00  0.00     0.124 S 
ATOM     86  O   UNL     1      12.548 -17.797  13.998  1.00  0.00    -0.237 OA
ATOM     87  O   UNL     1      12.306 -16.141  15.815  1.00  0.00    -0.237 OA
ATOM     88  O   UNL     1      10.718 -18.017  15.639  1.00  0.00    -0.744 OA
ENDBRANCH  84  85
ENDBRANCH  58  79
ENDBRANCH  32  33
ENDBRANCH  24  27
ENDBRANCH  22  23
ENDBRANCH   1  22
TORSDOF 16
