REMARK SMILES O=C(NCCCNC(=O)[C@@H]1CCCN(C(=O)/C=C/c2c(F)cccc2Cl)C1)c1ccc(-c2c3nc(c(-c4ccc(S(=O)(=O)[O-])cc4)c4ccc([nH]4)c(-c4ccc(S(=O)(=O)[O-])cc4)c4nc(c(-c5ccc(S(=O)(=O)[O-])cc5)c5ccc2[nH]5)C=C4)C=C3)cc1
REMARK SMILES IDX 5 1 4 2 3 3 1 4 2 5 28 7 29 8 87 9 30 10 86 11 31 12 32 13
REMARK SMILES IDX 33 14 80 15 34 16 85 17 79 18 81 19 35 20 84 21 78 22 77 23
REMARK SMILES IDX 36 25 66 26 47 27 65 28 48 29 51 30 64 31 82 32 49 33 50 34
REMARK SMILES IDX 63 36 83 37 52 38 37 39 38 40 46 41 39 42 45 43 40 44 41 45
REMARK SMILES IDX 42 46 43 47 44 48 67 49 68 50 76 51 69 52 75 53 70 54 71 55
REMARK SMILES IDX 72 56 73 57 74 58 53 59 54 60 62 61 55 62 61 63 56 64 57 65
REMARK SMILES IDX 58 66 59 67 60 68 6 69 7 70 8 71 9 73 10 74 11 75 27 76
REMARK SMILES IDX 12 77 14 78 13 79 15 80 16 81 17 82 18 83 19 84 20 85 25 86
REMARK SMILES IDX 21 87 22 88 24 89 26 90 23 91
REMARK H PARENT 3 6 81 24 51 35 7 72
REMARK Flexibility Score: inf
ROOT
ATOM      1  C   UNL     1       4.450  -1.158  -1.902  1.00  0.00     0.042 C 
ENDROOT
BRANCH   1   2
ATOM      2  C   UNL     1       4.150   0.243  -1.391  1.00  0.00     0.118 C 
BRANCH   2   3
ATOM      3  N   UNL     1       2.753   0.408  -1.022  1.00  0.00    -0.352 N 
ATOM      4  O   UNL     1       0.919   0.249   0.264  1.00  0.00    -0.269 OA
ATOM      5  C   UNL     1       2.144   0.314   0.207  1.00  0.00     0.251 C 
ATOM      6  H   UNL     1       2.149   0.620  -1.770  1.00  0.00     0.163 HD
BRANCH   5   7
ATOM      7  C   UNL     1       2.945   0.269   1.454  1.00  0.00     0.039 A 
ATOM      8  C   UNL     1       4.075   1.072   1.619  1.00  0.00     0.014 A 
ATOM      9  C   UNL     1       2.520  -0.544   2.511  1.00  0.00     0.014 A 
ATOM     10  C   UNL     1       4.859   0.951   2.760  1.00  0.00     0.010 A 
ATOM     11  C   UNL     1       3.246  -0.577   3.707  1.00  0.00     0.010 A 
ATOM     12  C   UNL     1       4.434   0.157   3.836  1.00  0.00    -0.014 A 
BRANCH  12  13
ATOM     13  C   UNL     1       5.190   0.206   5.115  1.00  0.00     0.031 A 
ATOM     14  C   UNL     1       5.845  -1.019   5.692  1.00  0.00     0.074 A 
ATOM     15  C   UNL     1       5.288   1.389   5.755  1.00  0.00     0.049 A 
ATOM     16  N   UNL     1       6.548  -1.131   6.791  1.00  0.00    -0.248 NA
ATOM     17  C   UNL     1       5.688  -2.279   4.950  1.00  0.00     0.031 C 
ATOM     18  C   UNL     1       4.679   2.645   5.303  1.00  0.00     0.029 A 
ATOM     19  N   UNL     1       5.945   1.741   6.907  1.00  0.00    -0.354 N 
ATOM     20  C   UNL     1       6.895  -2.473   6.888  1.00  0.00     0.074 A 
ATOM     21  C   UNL     1       6.310  -3.141   5.744  1.00  0.00     0.031 C 
ATOM     22  C   UNL     1       5.032   3.634   6.136  1.00  0.00     0.029 A 
ATOM     23  C   UNL     1       5.826   3.074   7.222  1.00  0.00     0.049 A 
ATOM     24  H   UNL     1       6.452   1.100   7.456  1.00  0.00     0.167 HD
ATOM     25  C   UNL     1       7.633  -3.090   7.844  1.00  0.00     0.031 A 
ATOM     26  C   UNL     1       6.280   3.774   8.279  1.00  0.00     0.031 A 
ATOM     27  C   UNL     1       8.207  -2.417   8.982  1.00  0.00     0.049 A 
ATOM     28  C   UNL     1       7.073   3.062   9.333  1.00  0.00     0.074 A 
ATOM     29  C   UNL     1       9.004  -2.947   9.982  1.00  0.00     0.029 A 
ATOM     30  N   UNL     1       8.039  -1.072   9.279  1.00  0.00    -0.354 N 
ATOM     31  N   UNL     1       7.428   1.800   9.380  1.00  0.00    -0.248 NA
ATOM     32  C   UNL     1       7.529   3.865  10.474  1.00  0.00     0.031 C 
ATOM     33  C   UNL     1       9.269  -1.938  10.914  1.00  0.00     0.029 A 
ATOM     34  C   UNL     1       8.693  -0.762  10.461  1.00  0.00     0.049 A 
ATOM     35  H   UNL     1       7.529  -0.432   8.732  1.00  0.00     0.167 HD
ATOM     36  C   UNL     1       8.162   1.660  10.551  1.00  0.00     0.074 A 
ATOM     37  C   UNL     1       8.221   2.970  11.167  1.00  0.00     0.031 C 
ATOM     38  C   UNL     1       8.736   0.545  11.068  1.00  0.00     0.031 A 
BRANCH  25  39
ATOM     39  C   UNL     1       7.840  -4.578   7.722  1.00  0.00    -0.014 A 
ATOM     40  C   UNL     1       8.676  -5.122   6.730  1.00  0.00     0.010 A 
ATOM     41  C   UNL     1       7.235  -5.444   8.652  1.00  0.00     0.010 A 
ATOM     42  C   UNL     1       8.873  -6.504   6.649  1.00  0.00     0.020 A 
ATOM     43  C   UNL     1       7.451  -6.824   8.592  1.00  0.00     0.020 A 
ATOM     44  C   UNL     1       8.257  -7.347   7.579  1.00  0.00     0.054 A 
BRANCH  44  45
ATOM     45  S   UNL     1       8.549  -9.134   7.463  1.00  0.00     0.124 S 
ATOM     46  O   UNL     1       7.781  -9.486   6.271  1.00  0.00    -0.237 OA
ATOM     47  O   UNL     1      10.001  -9.211   7.319  1.00  0.00    -0.237 OA
ATOM     48  O   UNL     1       8.021  -9.656   8.720  1.00  0.00    -0.744 OA
ENDBRANCH  44  45
ENDBRANCH  25  39
BRANCH  26  49
ATOM     49  C   UNL     1       5.968   5.225   8.388  1.00  0.00    -0.014 A 
ATOM     50  C   UNL     1       6.979   6.189   8.238  1.00  0.00     0.010 A 
ATOM     51  C   UNL     1       4.643   5.648   8.603  1.00  0.00     0.010 A 
ATOM     52  C   UNL     1       6.671   7.551   8.310  1.00  0.00     0.020 A 
ATOM     53  C   UNL     1       4.326   7.008   8.643  1.00  0.00     0.020 A 
ATOM     54  C   UNL     1       5.345   7.951   8.507  1.00  0.00     0.054 A 
BRANCH  54  55
ATOM     55  S   UNL     1       4.961   9.724   8.534  1.00  0.00     0.124 S 
ATOM     56  O   UNL     1       5.489  10.128   9.832  1.00  0.00    -0.237 OA
ATOM     57  O   UNL     1       5.690  10.221   7.370  1.00  0.00    -0.237 OA
ATOM     58  O   UNL     1       3.505   9.759   8.410  1.00  0.00    -0.744 OA
ENDBRANCH  54  55
ENDBRANCH  26  49
BRANCH  38  59
ATOM     59  C   UNL     1       9.503   0.702  12.353  1.00  0.00    -0.014 A 
ATOM     60  C   UNL     1       8.844   0.926  13.575  1.00  0.00     0.010 A 
ATOM     61  C   UNL     1      10.905   0.581  12.341  1.00  0.00     0.010 A 
ATOM     62  C   UNL     1       9.576   1.061  14.757  1.00  0.00     0.020 A 
ATOM     63  C   UNL     1      11.638   0.686  13.525  1.00  0.00     0.020 A 
ATOM     64  C   UNL     1      10.969   0.941  14.724  1.00  0.00     0.054 A 
BRANCH  64  65
ATOM     65  S   UNL     1      11.895   1.081  16.277  1.00  0.00     0.124 S 
ATOM     66  O   UNL     1      11.820   2.514  16.547  1.00  0.00    -0.237 OA
ATOM     67  O   UNL     1      11.129   0.229  17.184  1.00  0.00    -0.237 OA
ATOM     68  O   UNL     1      13.224   0.579  15.934  1.00  0.00    -0.744 OA
ENDBRANCH  64  65
ENDBRANCH  38  59
ENDBRANCH  12  13
ENDBRANCH   5   7
ENDBRANCH   2   3
ENDBRANCH   1   2
BRANCH   1  69
ATOM     69  C   UNL     1       3.993  -1.418  -3.331  1.00  0.00     0.117 C 
BRANCH  69  70
ATOM     70  N   UNL     1       4.550  -0.490  -4.295  1.00  0.00    -0.356 N 
ATOM     71  C   UNL     1       5.355  -0.596  -5.371  1.00  0.00     0.224 C 
ATOM     72  H   UNL     1       4.274   0.439  -4.123  1.00  0.00     0.163 HD
ATOM     73  O   UNL     1       5.261   0.353  -6.166  1.00  0.00    -0.275 OA
BRANCH  71  74
ATOM     74  C   UNL     1       6.340  -1.719  -5.698  1.00  0.00     0.098 C 
ATOM     75  C   UNL     1       6.462  -3.019  -4.898  1.00  0.00     0.017 C 
ATOM     76  C   UNL     1       7.732  -1.076  -5.844  1.00  0.00     0.133 C 
ATOM     77  C   UNL     1       7.311  -2.917  -3.625  1.00  0.00     0.022 C 
ATOM     78  N   UNL     1       8.352  -0.902  -4.529  1.00  0.00    -0.338 N 
ATOM     79  C   UNL     1       8.618  -2.159  -3.839  1.00  0.00     0.120 C 
BRANCH  78  80
ATOM     80  C   UNL     1       8.605   0.382  -4.086  1.00  0.00     0.246 C 
ATOM     81  O   UNL     1       8.473   1.372  -4.808  1.00  0.00    -0.270 OA
BRANCH  80  82
ATOM     82  C   UNL     1       9.106   0.638  -2.712  1.00  0.00     0.072 C 
ATOM     83  C   UNL     1       8.600   0.128  -1.581  1.00  0.00     0.018 C 
BRANCH  83  84
ATOM     84  C   UNL     1       9.101   0.559  -0.267  1.00  0.00     0.029 A 
ATOM     85  C   UNL     1       8.572   1.715   0.324  1.00  0.00     0.131 A 
ATOM     86  C   UNL     1      10.109  -0.131   0.425  1.00  0.00     0.051 A 
ATOM     87  F   UNL     1       7.596   2.399  -0.295  1.00  0.00    -0.206 F 
ATOM     88  C   UNL     1       9.026   2.182   1.556  1.00  0.00     0.040 A 
ATOM     89  C   UNL     1      10.566   0.330   1.667  1.00  0.00     0.021 A 
ATOM     90  Cl  UNL     1      10.827  -1.569  -0.215  1.00  0.00    -0.084 Cl
ATOM     91  C   UNL     1      10.026   1.487   2.231  1.00  0.00     0.005 A 
ENDBRANCH  83  84
ENDBRANCH  80  82
ENDBRANCH  78  80
ENDBRANCH  71  74
ENDBRANCH  69  70
ENDBRANCH   1  69
TORSDOF 16
