REMARK SMILES Cc1cccc(CNC(=O)N[C@@H](CC2=c3ccccc3=NC2)C(=O)NCCCNC(=O)c2ccc(-c3c4nc(c(-c5ccc(S(=O)(=O)[O-])cc5)c5ccc([nH]5)c(-c5ccc(S(=O)(=O)[O-])cc5)c5nc(c(-c6ccc(S(=O)(=O)[O-])cc6)c6ccc3[nH]6)C=C5)C=C4)cc2)c1
REMARK SMILES IDX 27 1 26 2 25 3 23 4 24 5 12 7 11 8 8 9 9 10 10 12 7 14 6 15
REMARK SMILES IDX 1 16 2 17 3 18 92 19 4 20 5 21 13 22 14 23 15 24 22 25 16 26
REMARK SMILES IDX 20 27 21 28 17 29 19 30 18 31 28 32 29 33 30 34 31 36 32 37
REMARK SMILES IDX 33 38 91 39 34 40 90 41 35 42 36 43 37 44 84 45 38 46 89 47
REMARK SMILES IDX 83 48 85 49 39 50 88 51 82 52 81 53 40 55 70 56 51 57 69 58
REMARK SMILES IDX 52 59 55 60 68 61 86 62 53 63 54 64 67 66 87 67 56 68 41 69
REMARK SMILES IDX 42 70 50 71 43 72 49 73 44 74 45 75 46 76 47 77 48 78 71 79
REMARK SMILES IDX 72 80 80 81 73 82 79 83 74 84 75 85 76 86 77 87 78 88 57 89
REMARK SMILES IDX 58 90 66 91 59 92 65 93 60 94 61 95 62 96 63 97 64 98
REMARK H PARENT 25 6 8 11 11 13 29 35 85 54 55 65
REMARK Flexibility Score: inf
ROOT
ATOM      1  C   UNL     1      -8.253   2.163   0.527  1.00  0.00     0.042 C 
ENDROOT
BRANCH   1   2
ATOM      2  C   UNL     1      -6.952   2.618   1.173  1.00  0.00     0.117 C 
BRANCH   2   3
ATOM      3  N   UNL     1      -5.967   1.563   1.341  1.00  0.00    -0.354 N 
ATOM      4  C   UNL     1      -4.611   1.613   1.485  1.00  0.00     0.242 C 
ATOM      5  O   UNL     1      -4.070   0.592   1.932  1.00  0.00    -0.273 OA
ATOM      6  H   UNL     1      -6.343   0.653   1.354  1.00  0.00     0.163 HD
BRANCH   4   7
ATOM      7  C   UNL     1      -3.736   2.874   1.229  1.00  0.00     0.177 C 
BRANCH   7   8
ATOM      8  N   UNL     1      -4.061   3.561  -0.021  1.00  0.00    -0.326 N 
ATOM      9  N   UNL     1      -2.562   2.572  -1.543  1.00  0.00    -0.334 N 
ATOM     10  C   UNL     1      -3.711   3.212  -1.272  1.00  0.00     0.315 C 
ATOM     11  H   UNL     1      -2.600   1.976  -2.326  1.00  0.00     0.165 HD
ATOM     12  O   UNL     1      -4.469   3.493  -2.199  1.00  0.00    -0.249 OA
ATOM     13  H   UNL     1      -4.603   4.379   0.064  1.00  0.00     0.166 HD
BRANCH   9  14
ATOM     14  C   UNL     1      -1.276   2.613  -0.874  1.00  0.00     0.153 C 
BRANCH  14  15
ATOM     15  C   UNL     1      -0.699   1.250  -0.576  1.00  0.00    -0.028 A 
ATOM     16  C   UNL     1       2.758  -0.279   0.017  1.00  0.00     0.044 C 
ATOM     17  C   UNL     1       1.272  -0.132  -0.122  1.00  0.00    -0.051 A 
ATOM     18  C   UNL     1       0.447  -1.254   0.007  1.00  0.00     0.003 A 
ATOM     19  C   UNL     1       0.692   1.112  -0.415  1.00  0.00     0.009 A 
ATOM     20  C   UNL     1      -0.934  -1.129  -0.125  1.00  0.00     0.001 A 
ATOM     21  C   UNL     1      -1.503   0.114  -0.407  1.00  0.00     0.005 A 
ENDBRANCH  14  15
ENDBRANCH   9  14
ENDBRANCH   7   8
BRANCH   7  22
ATOM     22  C   UNL     1      -3.537   3.857   2.411  1.00  0.00     0.068 C 
BRANCH  22  23
ATOM     23  C   UNL     1      -4.734   4.208   3.225  1.00  0.00    -0.037 C 
ATOM     24  C   UNL     1      -5.340   3.420   4.109  1.00  0.00     0.001 A 
ATOM     25  C   UNL     1      -5.481   5.494   3.068  1.00  0.00     0.174 C 
ATOM     26  C   UNL     1      -5.094   2.098   4.587  1.00  0.00     0.010 A 
ATOM     27  C   UNL     1      -6.615   4.121   4.335  1.00  0.00     0.065 A 
ATOM     28  N   UNL     1      -6.742   5.307   3.818  1.00  0.00    -0.280 NA
ATOM     29  C   UNL     1      -6.116   1.420   5.127  1.00  0.00     0.001 A 
ATOM     30  C   UNL     1      -7.677   3.322   4.975  1.00  0.00     0.028 A 
ATOM     31  C   UNL     1      -7.426   2.029   5.248  1.00  0.00     0.002 A 
ENDBRANCH  22  23
ENDBRANCH   7  22
ENDBRANCH   4   7
ENDBRANCH   2   3
ENDBRANCH   1   2
BRANCH   1  32
ATOM     32  C   UNL     1      -9.181   1.440   1.507  1.00  0.00     0.118 C 
BRANCH  32  33
ATOM     33  N   UNL     1     -10.535   2.008   1.488  1.00  0.00    -0.352 N 
ATOM     34  C   UNL     1     -11.757   1.416   1.742  1.00  0.00     0.251 C 
ATOM     35  H   UNL     1     -10.579   2.964   1.256  1.00  0.00     0.163 HD
ATOM     36  O   UNL     1     -12.813   2.035   1.664  1.00  0.00    -0.269 OA
BRANCH  34  37
ATOM     37  C   UNL     1     -11.753   0.011   2.165  1.00  0.00     0.039 A 
ATOM     38  C   UNL     1     -12.102  -0.280   3.487  1.00  0.00     0.014 A 
ATOM     39  C   UNL     1     -11.093  -0.907   1.357  1.00  0.00     0.014 A 
ATOM     40  C   UNL     1     -11.582  -1.424   4.072  1.00  0.00     0.010 A 
ATOM     41  C   UNL     1     -10.458  -1.955   1.980  1.00  0.00     0.010 A 
ATOM     42  C   UNL     1     -10.664  -2.179   3.348  1.00  0.00    -0.014 A 
BRANCH  42  43
ATOM     43  C   UNL     1      -9.851  -3.228   3.942  1.00  0.00     0.031 A 
ATOM     44  C   UNL     1     -10.220  -4.626   3.653  1.00  0.00     0.074 A 
ATOM     45  C   UNL     1      -8.779  -2.908   4.696  1.00  0.00     0.049 A 
ATOM     46  N   UNL     1      -9.887  -5.641   4.371  1.00  0.00    -0.248 NA
ATOM     47  C   UNL     1     -11.105  -4.967   2.542  1.00  0.00     0.031 C 
ATOM     48  C   UNL     1      -7.698  -3.787   5.128  1.00  0.00     0.029 A 
ATOM     49  N   UNL     1      -8.567  -1.721   5.402  1.00  0.00    -0.354 N 
ATOM     50  C   UNL     1     -10.284  -6.771   3.688  1.00  0.00     0.074 A 
ATOM     51  C   UNL     1     -11.115  -6.296   2.611  1.00  0.00     0.031 C 
ATOM     52  C   UNL     1      -7.066  -3.215   6.167  1.00  0.00     0.029 A 
ATOM     53  C   UNL     1      -7.840  -2.041   6.559  1.00  0.00     0.049 A 
ATOM     54  H   UNL     1      -8.873  -0.824   5.137  1.00  0.00     0.167 HD
ATOM     55  C   UNL     1      -9.743  -7.978   4.011  1.00  0.00     0.031 A 
ATOM     56  C   UNL     1      -8.388  -1.883   7.802  1.00  0.00     0.031 A 
ATOM     57  C   UNL     1      -8.901  -7.870   5.200  1.00  0.00     0.049 A 
ATOM     58  C   UNL     1      -8.577  -3.189   8.547  1.00  0.00     0.074 A 
ATOM     59  C   UNL     1      -7.534  -7.727   5.373  1.00  0.00     0.029 A 
ATOM     60  N   UNL     1      -9.488  -7.522   6.415  1.00  0.00    -0.354 N 
ATOM     61  N   UNL     1      -8.614  -4.368   7.987  1.00  0.00    -0.248 NA
ATOM     62  C   UNL     1      -8.752  -3.250   9.994  1.00  0.00     0.031 C 
ATOM     63  C   UNL     1      -7.310  -7.190   6.671  1.00  0.00     0.029 A 
ATOM     64  C   UNL     1      -8.535  -7.056   7.303  1.00  0.00     0.049 A 
ATOM     65  H   UNL     1     -10.449  -7.598   6.614  1.00  0.00     0.167 HD
ATOM     66  C   UNL     1      -8.814  -5.326   8.949  1.00  0.00     0.074 A 
ATOM     67  C   UNL     1      -8.873  -4.574  10.191  1.00  0.00     0.031 C 
ATOM     68  C   UNL     1      -8.924  -6.656   8.652  1.00  0.00     0.031 A 
BRANCH  55  69
ATOM     69  C   UNL     1      -9.722  -9.129   3.026  1.00  0.00    -0.014 A 
ATOM     70  C   UNL     1      -8.641 -10.031   3.027  1.00  0.00     0.010 A 
ATOM     71  C   UNL     1     -10.678  -9.317   2.007  1.00  0.00     0.010 A 
ATOM     72  C   UNL     1      -8.461 -10.978   2.004  1.00  0.00     0.020 A 
ATOM     73  C   UNL     1     -10.488 -10.218   0.949  1.00  0.00     0.020 A 
ATOM     74  C   UNL     1      -9.369 -11.040   0.948  1.00  0.00     0.054 A 
BRANCH  74  75
ATOM     75  S   UNL     1      -9.076 -12.191  -0.420  1.00  0.00     0.124 S 
ATOM     76  O   UNL     1      -7.717 -11.851  -0.836  1.00  0.00    -0.237 OA
ATOM     77  O   UNL     1      -9.232 -13.489   0.228  1.00  0.00    -0.237 OA
ATOM     78  O   UNL     1     -10.117 -11.851  -1.389  1.00  0.00    -0.744 OA
ENDBRANCH  74  75
ENDBRANCH  55  69
BRANCH  56  79
ATOM     79  C   UNL     1      -9.286  -0.703   7.974  1.00  0.00    -0.014 A 
ATOM     80  C   UNL     1      -8.726   0.567   8.209  1.00  0.00     0.010 A 
ATOM     81  C   UNL     1     -10.627  -0.780   7.562  1.00  0.00     0.010 A 
ATOM     82  C   UNL     1      -9.439   1.733   7.888  1.00  0.00     0.020 A 
ATOM     83  C   UNL     1     -11.327   0.379   7.202  1.00  0.00     0.020 A 
ATOM     84  C   UNL     1     -10.698   1.620   7.297  1.00  0.00     0.054 A 
BRANCH  84  85
ATOM     85  S   UNL     1     -11.435   3.048   6.444  1.00  0.00     0.124 S 
ATOM     86  O   UNL     1     -10.774   4.190   7.068  1.00  0.00    -0.237 OA
ATOM     87  O   UNL     1     -11.041   2.787   5.061  1.00  0.00    -0.237 OA
ATOM     88  O   UNL     1     -12.857   2.906   6.739  1.00  0.00    -0.744 OA
ENDBRANCH  84  85
ENDBRANCH  56  79
BRANCH  68  89
ATOM     89  C   UNL     1      -9.357  -7.750   9.606  1.00  0.00    -0.014 A 
ATOM     90  C   UNL     1     -10.064  -7.535  10.799  1.00  0.00     0.010 A 
ATOM     91  C   UNL     1      -9.164  -9.100   9.218  1.00  0.00     0.010 A 
ATOM     92  C   UNL     1     -10.516  -8.607  11.584  1.00  0.00     0.020 A 
ATOM     93  C   UNL     1      -9.657 -10.174   9.962  1.00  0.00     0.020 A 
ATOM     94  C   UNL     1     -10.315  -9.919  11.157  1.00  0.00     0.054 A 
BRANCH  94  95
ATOM     95  S   UNL     1     -10.997 -11.291  12.119  1.00  0.00     0.124 S 
ATOM     96  O   UNL     1      -9.927 -11.547  13.079  1.00  0.00    -0.237 OA
ATOM     97  O   UNL     1     -12.220 -10.721  12.682  1.00  0.00    -0.237 OA
ATOM     98  O   UNL     1     -11.210 -12.336  11.121  1.00  0.00    -0.744 OA
ENDBRANCH  94  95
ENDBRANCH  68  89
ENDBRANCH  42  43
ENDBRANCH  34  37
ENDBRANCH  32  33
ENDBRANCH   1  32
TORSDOF 18
