REMARK SMILES COc1ccc([C@@H]2[NH2+][C@H](C(=O)NCCCNC(=O)c3ccc(-c4c5nc(c(-c6ccc(S(=O)(=O)[O-])cc6)c6ccc([nH]6)c(-c6ccc(S(=O)(=O)[O-])cc6)c6nc(c(-c7ccc(S(=O)(=O)[O-])cc7)c7ccc4[nH]7)C=C6)C=C5)cc3)CS2)cc1Cn1nc(C)c(Br)c1C
REMARK SMILES IDX 14 1 13 2 12 3 10 4 11 5 9 7 7 8 8 9 80 10 79 13 6 14 3 15
REMARK SMILES IDX 4 16 82 17 5 18 81 19 2 20 1 21 83 22 84 23 85 24 90 25
REMARK SMILES IDX 86 26 88 27 91 28 87 29 89 30 15 31 16 32 17 33 18 35 19 36
REMARK SMILES IDX 20 37 78 38 21 39 77 40 22 41 23 42 24 43 71 44 25 45 76 46
REMARK SMILES IDX 70 47 72 48 26 49 75 50 69 51 68 52 27 54 57 55 38 56 56 57
REMARK SMILES IDX 39 58 42 59 55 60 73 61 40 62 41 63 54 65 74 66 43 67 28 68
REMARK SMILES IDX 29 69 37 70 30 71 36 72 31 73 32 74 33 75 34 76 35 77 58 78
REMARK SMILES IDX 59 79 67 80 60 81 66 82 61 83 62 84 63 85 64 86 65 87 44 88
REMARK SMILES IDX 45 89 53 90 46 91 52 92 47 93 48 94 49 95 50 96 51 97
REMARK H PARENT 12 6 8 11 8 12 16 34 72 53 42 64
REMARK Flexibility Score: inf
ROOT
ATOM      1  C   UNL     1       1.662  -1.215  -4.819  1.00  0.00     0.042 C 
ENDROOT
BRANCH   1   2
ATOM      2  C   UNL     1       2.528   0.033  -4.833  1.00  0.00     0.118 C 
BRANCH   2   3
ATOM      3  N   UNL     1       3.721   0.014  -5.657  1.00  0.00    -0.351 N 
ATOM      4  C   UNL     1       4.426   1.067  -6.168  1.00  0.00     0.279 C 
ATOM      5  O   UNL     1       5.615   0.842  -6.447  1.00  0.00    -0.268 OA
ATOM      6  H   UNL     1       4.071  -0.879  -5.879  1.00  0.00     0.163 HD
BRANCH   4   7
ATOM      7  C   UNL     1       3.866   2.482  -6.472  1.00  0.00     0.283 C 
ATOM      8  C   UNL     1       2.187   3.739  -5.243  1.00  0.00     0.274 C 
ATOM      9  N   UNL     1       2.420   2.698  -6.250  1.00  0.00    -0.321 N 
ATOM     10  S   UNL     1       3.592   4.858  -5.280  1.00  0.00    -0.088 SA
ATOM     11  H   UNL     1       1.987   2.983  -7.129  1.00  0.00     0.348 HD
ATOM     12  H   UNL     1       2.010   1.826  -5.914  1.00  0.00     0.348 HD
ATOM     13  C   UNL     1       4.727   3.559  -5.807  1.00  0.00     0.151 C 
BRANCH   8  14
ATOM     14  C   UNL     1       1.857   3.126  -3.886  1.00  0.00     0.021 A 
ATOM     15  C   UNL     1       1.184   1.635  -1.597  1.00  0.00     0.123 A 
ATOM     16  C   UNL     1       0.186   2.074  -2.471  1.00  0.00     0.047 A 
ATOM     17  C   UNL     1       2.542   1.875  -1.860  1.00  0.00     0.016 A 
ATOM     18  C   UNL     1       0.518   2.805  -3.609  1.00  0.00     0.015 A 
ATOM     19  C   UNL     1       2.843   2.684  -2.975  1.00  0.00     0.020 A 
BRANCH  15  20
ATOM     20  O   UNL     1       0.758   0.839  -0.574  1.00  0.00    -0.496 OA
ATOM     21  C   UNL     1       0.767   1.504   0.683  1.00  0.00     0.278 C 
ENDBRANCH  15  20
BRANCH  17  22
ATOM     22  C   UNL     1       3.648   1.261  -1.016  1.00  0.00     0.184 C 
BRANCH  22  23
ATOM     23  N   UNL     1       4.649   0.463  -1.753  1.00  0.00    -0.264 N 
ATOM     24  N   UNL     1       4.511  -0.890  -1.766  1.00  0.00    -0.177 NA
ATOM     25  C   UNL     1       5.856   0.861  -2.293  1.00  0.00     0.050 A 
ATOM     26  C   UNL     1       5.617  -1.356  -2.360  1.00  0.00     0.074 A 
ATOM     27  C   UNL     1       6.452  -0.297  -2.742  1.00  0.00     0.061 A 
ATOM     28  C   UNL     1       6.375   2.247  -2.326  1.00  0.00     0.067 C 
ATOM     29  C   UNL     1       5.836  -2.821  -2.490  1.00  0.00     0.070 C 
ATOM     30  Br  UNL     1       8.107  -0.469  -3.605  1.00  0.00    -0.047 Br
ENDBRANCH  22  23
ENDBRANCH  17  22
ENDBRANCH   8  14
ENDBRANCH   4   7
ENDBRANCH   2   3
ENDBRANCH   1   2
BRANCH   1  31
ATOM     31  C   UNL     1       2.131  -2.302  -3.862  1.00  0.00     0.118 C 
BRANCH  31  32
ATOM     32  N   UNL     1       2.057  -1.978  -2.436  1.00  0.00    -0.352 N 
ATOM     33  C   UNL     1       1.098  -2.141  -1.465  1.00  0.00     0.251 C 
ATOM     34  H   UNL     1       2.876  -1.548  -2.098  1.00  0.00     0.163 HD
ATOM     35  O   UNL     1       1.335  -1.860  -0.290  1.00  0.00    -0.269 OA
BRANCH  33  36
ATOM     36  C   UNL     1      -0.233  -2.674  -1.805  1.00  0.00     0.039 A 
ATOM     37  C   UNL     1      -1.395  -2.097  -1.270  1.00  0.00     0.014 A 
ATOM     38  C   UNL     1      -0.326  -3.810  -2.595  1.00  0.00     0.014 A 
ATOM     39  C   UNL     1      -2.651  -2.634  -1.583  1.00  0.00     0.010 A 
ATOM     40  C   UNL     1      -1.564  -4.265  -3.003  1.00  0.00     0.010 A 
ATOM     41  C   UNL     1      -2.740  -3.711  -2.473  1.00  0.00    -0.014 A 
BRANCH  41  42
ATOM     42  C   UNL     1      -3.996  -4.416  -2.827  1.00  0.00     0.031 A 
ATOM     43  C   UNL     1      -4.065  -5.894  -2.542  1.00  0.00     0.074 A 
ATOM     44  C   UNL     1      -4.943  -3.811  -3.565  1.00  0.00     0.049 A 
ATOM     45  N   UNL     1      -4.801  -6.817  -3.100  1.00  0.00    -0.248 NA
ATOM     46  C   UNL     1      -3.100  -6.406  -1.552  1.00  0.00     0.031 C 
ATOM     47  C   UNL     1      -4.988  -2.388  -3.902  1.00  0.00     0.029 A 
ATOM     48  N   UNL     1      -6.033  -4.341  -4.206  1.00  0.00    -0.354 N 
ATOM     49  C   UNL     1      -4.330  -8.024  -2.591  1.00  0.00     0.074 A 
ATOM     50  C   UNL     1      -3.221  -7.713  -1.717  1.00  0.00     0.031 C 
ATOM     51  C   UNL     1      -6.056  -2.157  -4.684  1.00  0.00     0.029 A 
ATOM     52  C   UNL     1      -6.728  -3.423  -4.957  1.00  0.00     0.049 A 
ATOM     53  H   UNL     1      -6.293  -5.288  -4.135  1.00  0.00     0.167 HD
ATOM     54  C   UNL     1      -4.787  -9.277  -2.830  1.00  0.00     0.031 A 
ATOM     55  C   UNL     1      -7.770  -3.597  -5.792  1.00  0.00     0.031 A 
ATOM     56  C   UNL     1      -5.925  -9.549  -3.664  1.00  0.00     0.049 A 
ATOM     57  C   UNL     1      -8.295  -4.990  -6.015  1.00  0.00     0.074 A 
ATOM     58  C   UNL     1      -6.530 -10.762  -3.936  1.00  0.00     0.029 A 
ATOM     59  N   UNL     1      -6.648  -8.577  -4.344  1.00  0.00    -0.354 N 
ATOM     60  N   UNL     1      -7.845  -6.127  -5.536  1.00  0.00    -0.248 NA
ATOM     61  C   UNL     1      -9.468  -5.125  -6.888  1.00  0.00     0.031 C 
ATOM     62  C   UNL     1      -7.605 -10.525  -4.801  1.00  0.00     0.029 A 
ATOM     63  C   UNL     1      -7.698  -9.160  -5.028  1.00  0.00     0.049 A 
ATOM     64  H   UNL     1      -6.443  -7.614  -4.339  1.00  0.00     0.167 HD
ATOM     65  C   UNL     1      -8.704  -7.109  -6.019  1.00  0.00     0.074 A 
ATOM     66  C   UNL     1      -9.698  -6.430  -6.827  1.00  0.00     0.031 C 
ATOM     67  C   UNL     1      -8.679  -8.449  -5.809  1.00  0.00     0.031 A 
BRANCH  54  68
ATOM     68  C   UNL     1      -4.045 -10.421  -2.185  1.00  0.00    -0.014 A 
ATOM     69  C   UNL     1      -4.018 -10.579  -0.786  1.00  0.00     0.010 A 
ATOM     70  C   UNL     1      -3.343 -11.342  -2.984  1.00  0.00     0.010 A 
ATOM     71  C   UNL     1      -3.241 -11.581  -0.198  1.00  0.00     0.020 A 
ATOM     72  C   UNL     1      -2.595 -12.371  -2.401  1.00  0.00     0.020 A 
ATOM     73  C   UNL     1      -2.525 -12.464  -1.009  1.00  0.00     0.054 A 
BRANCH  73  74
ATOM     74  S   UNL     1      -1.508 -13.744  -0.223  1.00  0.00     0.124 S 
ATOM     75  O   UNL     1      -0.357 -12.970   0.240  1.00  0.00    -0.237 OA
ATOM     76  O   UNL     1      -2.387 -14.247   0.835  1.00  0.00    -0.237 OA
ATOM     77  O   UNL     1      -1.236 -14.684  -1.300  1.00  0.00    -0.744 OA
ENDBRANCH  73  74
ENDBRANCH  54  68
BRANCH  55  78
ATOM     78  C   UNL     1      -8.410  -2.417  -6.434  1.00  0.00    -0.014 A 
ATOM     79  C   UNL     1      -9.664  -1.973  -5.977  1.00  0.00     0.010 A 
ATOM     80  C   UNL     1      -7.765  -1.700  -7.459  1.00  0.00     0.010 A 
ATOM     81  C   UNL     1     -10.264  -0.841  -6.533  1.00  0.00     0.020 A 
ATOM     82  C   UNL     1      -8.352  -0.551  -8.001  1.00  0.00     0.020 A 
ATOM     83  C   UNL     1      -9.601  -0.132  -7.537  1.00  0.00     0.054 A 
BRANCH  83  84
ATOM     84  S   UNL     1     -10.367   1.382  -8.184  1.00  0.00     0.124 S 
ATOM     85  O   UNL     1     -11.466   0.849  -8.983  1.00  0.00    -0.237 OA
ATOM     86  O   UNL     1     -10.755   2.085  -6.963  1.00  0.00    -0.237 OA
ATOM     87  O   UNL     1      -9.289   2.014  -8.941  1.00  0.00    -0.744 OA
ENDBRANCH  83  84
ENDBRANCH  55  78
BRANCH  67  88
ATOM     88  C   UNL     1      -9.794  -9.261  -6.409  1.00  0.00    -0.014 A 
ATOM     89  C   UNL     1      -9.831  -9.550  -7.783  1.00  0.00     0.010 A 
ATOM     90  C   UNL     1     -10.776  -9.805  -5.561  1.00  0.00     0.010 A 
ATOM     91  C   UNL     1     -10.845 -10.358  -8.303  1.00  0.00     0.020 A 
ATOM     92  C   UNL     1     -11.777 -10.632  -6.073  1.00  0.00     0.020 A 
ATOM     93  C   UNL     1     -11.810 -10.896  -7.444  1.00  0.00     0.054 A 
BRANCH  93  94
ATOM     94  S   UNL     1     -13.079 -11.993  -8.133  1.00  0.00     0.124 S 
ATOM     95  O   UNL     1     -13.955 -11.049  -8.822  1.00  0.00    -0.237 OA
ATOM     96  O   UNL     1     -12.302 -12.877  -8.999  1.00  0.00    -0.237 OA
ATOM     97  O   UNL     1     -13.657 -12.636  -6.956  1.00  0.00    -0.744 OA
ENDBRANCH  93  94
ENDBRANCH  67  88
ENDBRANCH  41  42
ENDBRANCH  33  36
ENDBRANCH  31  32
ENDBRANCH   1  31
TORSDOF 17
