REMARK SMILES Nc1ccc(C(=O)N2Cc3nc[nH]c3C[C@H]2C(=O)NCCCNC(=O)c2ccc(-c3c4nc(c(-c5ccc(S(=O)(=O)[O-])cc5)c5ccc([nH]5)c(-c5ccc(S(=O)(=O)[O-])cc5)c5nc(c(-c6ccc(S(=O)(=O)[O-])cc6)c6ccc3[nH]6)C=C5)C=C4)cc2)cc1
REMARK SMILES IDX 21 1 20 2 19 3 17 4 18 5 16 7 8 8 9 9 10 10 15 11 11 12
REMARK SMILES IDX 14 13 12 14 13 15 6 17 7 18 5 19 2 20 3 21 87 22 4 23 86 24
REMARK SMILES IDX 1 25 22 28 23 29 24 30 25 32 26 33 27 34 85 35 28 36 84 37
REMARK SMILES IDX 29 38 30 39 31 40 78 41 32 42 83 43 77 44 79 45 33 46 82 47
REMARK SMILES IDX 76 48 75 49 34 51 64 52 45 53 63 54 46 55 49 56 62 57 80 58
REMARK SMILES IDX 47 59 48 60 61 62 81 63 50 64 35 65 36 66 44 67 37 68 43 69
REMARK SMILES IDX 38 70 39 71 40 72 41 73 42 74 65 75 66 76 74 77 67 78 73 79
REMARK SMILES IDX 68 80 69 81 70 82 71 83 72 84 51 85 52 86 60 87 53 88 59 89
REMARK SMILES IDX 54 90 55 91 56 92 57 93 58 94
REMARK H PARENT 19 6 13 16 1 26 1 27 23 31 79 50 49 61
REMARK Flexibility Score: inf
ROOT
ATOM      1  C   UNL     1      -5.091   4.235   1.567  1.00  0.00     0.042 C 
ENDROOT
BRANCH   1   2
ATOM      2  C   UNL     1      -4.714   4.689   0.159  1.00  0.00     0.117 C 
BRANCH   2   3
ATOM      3  N   UNL     1      -3.408   4.249  -0.291  1.00  0.00    -0.354 N 
ATOM      4  C   UNL     1      -3.050   3.246  -1.136  1.00  0.00     0.243 C 
ATOM      5  O   UNL     1      -2.025   3.455  -1.799  1.00  0.00    -0.273 OA
ATOM      6  H   UNL     1      -2.654   4.763   0.078  1.00  0.00     0.163 HD
BRANCH   4   7
ATOM      7  C   UNL     1      -3.844   1.933  -1.371  1.00  0.00     0.181 C 
ATOM      8  N   UNL     1      -4.131   1.036  -0.194  1.00  0.00    -0.320 N 
ATOM      9  C   UNL     1      -5.444   1.060   0.488  1.00  0.00     0.178 C 
ATOM     10  C   UNL     1      -6.463   1.834  -0.261  1.00  0.00     0.081 A 
ATOM     11  C   UNL     1      -5.054   2.181  -2.323  1.00  0.00     0.091 C 
ATOM     12  N   UNL     1      -7.625   2.323   0.284  1.00  0.00    -0.240 NA
ATOM     13  C   UNL     1      -6.292   2.326  -1.530  1.00  0.00     0.042 A 
ATOM     14  C   UNL     1      -8.136   3.110  -0.638  1.00  0.00     0.197 A 
ATOM     15  N   UNL     1      -7.386   3.103  -1.786  1.00  0.00    -0.348 N 
ATOM     16  H   UNL     1      -7.596   3.566  -2.628  1.00  0.00     0.167 HD
BRANCH   8  17
ATOM     17  C   UNL     1      -3.288  -0.001   0.241  1.00  0.00     0.254 C 
ATOM     18  O   UNL     1      -3.735  -0.975   0.852  1.00  0.00    -0.269 OA
BRANCH  17  19
ATOM     19  C   UNL     1      -1.815   0.025   0.041  1.00  0.00     0.040 A 
ATOM     20  C   UNL     1       1.010  -0.064  -0.020  1.00  0.00     0.031 A 
ATOM     21  C   UNL     1       0.260  -1.228  -0.189  1.00  0.00     0.026 A 
ATOM     22  C   UNL     1       0.334   1.143   0.156  1.00  0.00     0.026 A 
ATOM     23  C   UNL     1      -1.141  -1.189  -0.153  1.00  0.00     0.016 A 
ATOM     24  C   UNL     1      -1.063   1.181   0.238  1.00  0.00     0.016 A 
BRANCH  20  25
ATOM     25  N   UNL     1       2.389  -0.083  -0.125  1.00  0.00    -0.399 N 
ATOM     26  H   UNL     1       2.861  -0.938  -0.249  1.00  0.00     0.156 HD
ATOM     27  H   UNL     1       2.898   0.758  -0.076  1.00  0.00     0.156 HD
ENDBRANCH  20  25
ENDBRANCH  17  19
ENDBRANCH   8  17
ENDBRANCH   4   7
ENDBRANCH   2   3
ENDBRANCH   1   2
BRANCH   1  28
ATOM     28  C   UNL     1      -5.112   5.392   2.541  1.00  0.00     0.118 C 
BRANCH  28  29
ATOM     29  N   UNL     1      -6.192   6.371   2.288  1.00  0.00    -0.352 N 
ATOM     30  C   UNL     1      -6.433   7.593   2.930  1.00  0.00     0.251 C 
ATOM     31  H   UNL     1      -6.826   6.132   1.573  1.00  0.00     0.163 HD
ATOM     32  O   UNL     1      -7.509   8.149   2.861  1.00  0.00    -0.269 OA
BRANCH  30  33
ATOM     33  C   UNL     1      -5.304   8.198   3.668  1.00  0.00     0.039 A 
ATOM     34  C   UNL     1      -5.369   8.749   4.953  1.00  0.00     0.014 A 
ATOM     35  C   UNL     1      -4.087   7.992   3.070  1.00  0.00     0.014 A 
ATOM     36  C   UNL     1      -4.159   9.011   5.609  1.00  0.00     0.010 A 
ATOM     37  C   UNL     1      -3.098   7.683   3.936  1.00  0.00     0.010 A 
ATOM     38  C   UNL     1      -2.999   8.468   5.055  1.00  0.00    -0.014 A 
BRANCH  38  39
ATOM     39  C   UNL     1      -1.645   8.554   5.568  1.00  0.00     0.031 A 
ATOM     40  C   UNL     1      -1.459   7.935   6.896  1.00  0.00     0.074 A 
ATOM     41  C   UNL     1      -0.599   8.856   4.757  1.00  0.00     0.049 A 
ATOM     42  N   UNL     1      -1.368   8.544   8.027  1.00  0.00    -0.248 NA
ATOM     43  C   UNL     1      -1.580   6.472   7.015  1.00  0.00     0.031 C 
ATOM     44  C   UNL     1      -0.564   9.097   3.301  1.00  0.00     0.029 A 
ATOM     45  N   UNL     1       0.717   8.903   5.072  1.00  0.00    -0.354 N 
ATOM     46  C   UNL     1      -1.166   7.551   8.977  1.00  0.00     0.074 A 
ATOM     47  C   UNL     1      -1.546   6.316   8.341  1.00  0.00     0.031 C 
ATOM     48  C   UNL     1       0.712   9.028   2.851  1.00  0.00     0.029 A 
ATOM     49  C   UNL     1       1.596   8.923   3.996  1.00  0.00     0.049 A 
ATOM     50  H   UNL     1       1.031   8.921   6.005  1.00  0.00     0.167 HD
ATOM     51  C   UNL     1      -0.457   7.797  10.115  1.00  0.00     0.031 A 
ATOM     52  C   UNL     1       2.951   8.834   4.064  1.00  0.00     0.031 A 
ATOM     53  C   UNL     1      -0.153   9.205  10.239  1.00  0.00     0.049 A 
ATOM     54  C   UNL     1       3.319   9.199   5.462  1.00  0.00     0.074 A 
ATOM     55  C   UNL     1      -0.915  10.353  10.334  1.00  0.00     0.029 A 
ATOM     56  N   UNL     1       1.090   9.611   9.801  1.00  0.00    -0.354 N 
ATOM     57  N   UNL     1       3.102  10.387   5.964  1.00  0.00    -0.248 NA
ATOM     58  C   UNL     1       3.412   8.122   6.438  1.00  0.00     0.031 C 
ATOM     59  C   UNL     1      -0.264  11.290   9.476  1.00  0.00     0.029 A 
ATOM     60  C   UNL     1       0.907  10.703   8.988  1.00  0.00     0.049 A 
ATOM     61  H   UNL     1       1.952   9.194  10.030  1.00  0.00     0.167 HD
ATOM     62  C   UNL     1       2.612  10.156   7.245  1.00  0.00     0.074 A 
ATOM     63  C   UNL     1       2.895   8.742   7.505  1.00  0.00     0.031 C 
ATOM     64  C   UNL     1       1.754  11.031   7.855  1.00  0.00     0.031 A 
BRANCH  51  65
ATOM     65  C   UNL     1       0.301   6.761  10.904  1.00  0.00    -0.014 A 
ATOM     66  C   UNL     1       0.954   7.170  12.085  1.00  0.00     0.010 A 
ATOM     67  C   UNL     1       0.609   5.475  10.418  1.00  0.00     0.010 A 
ATOM     68  C   UNL     1       1.930   6.373  12.693  1.00  0.00     0.020 A 
ATOM     69  C   UNL     1       1.552   4.653  11.041  1.00  0.00     0.020 A 
ATOM     70  C   UNL     1       2.234   5.124  12.153  1.00  0.00     0.054 A 
BRANCH  70  71
ATOM     71  S   UNL     1       3.580   4.157  12.877  1.00  0.00     0.124 S 
ATOM     72  O   UNL     1       4.740   4.996  12.590  1.00  0.00    -0.237 OA
ATOM     73  O   UNL     1       3.184   4.080  14.281  1.00  0.00    -0.237 OA
ATOM     74  O   UNL     1       3.524   2.893  12.147  1.00  0.00    -0.744 OA
ENDBRANCH  70  71
ENDBRANCH  51  65
BRANCH  52  75
ATOM     75  C   UNL     1       3.861   8.097   3.142  1.00  0.00    -0.014 A 
ATOM     76  C   UNL     1       5.260   8.256   3.198  1.00  0.00     0.010 A 
ATOM     77  C   UNL     1       3.365   7.011   2.389  1.00  0.00     0.010 A 
ATOM     78  C   UNL     1       6.126   7.329   2.581  1.00  0.00     0.020 A 
ATOM     79  C   UNL     1       4.219   6.087   1.770  1.00  0.00     0.020 A 
ATOM     80  C   UNL     1       5.598   6.234   1.891  1.00  0.00     0.054 A 
BRANCH  80  81
ATOM     81  S   UNL     1       6.709   4.936   1.264  1.00  0.00     0.124 S 
ATOM     82  O   UNL     1       7.386   5.609   0.160  1.00  0.00    -0.237 OA
ATOM     83  O   UNL     1       7.540   4.638   2.427  1.00  0.00    -0.237 OA
ATOM     84  O   UNL     1       5.797   3.862   0.870  1.00  0.00    -0.744 OA
ENDBRANCH  80  81
ENDBRANCH  52  75
BRANCH  64  85
ATOM     85  C   UNL     1       1.489  12.374   7.199  1.00  0.00    -0.014 A 
ATOM     86  C   UNL     1       0.887  12.531   5.932  1.00  0.00     0.010 A 
ATOM     87  C   UNL     1       1.688  13.524   7.982  1.00  0.00     0.010 A 
ATOM     88  C   UNL     1       0.519  13.804   5.459  1.00  0.00     0.020 A 
ATOM     89  C   UNL     1       1.310  14.790   7.526  1.00  0.00     0.020 A 
ATOM     90  C   UNL     1       0.736  14.927   6.263  1.00  0.00     0.054 A 
BRANCH  90  91
ATOM     91  S   UNL     1       0.232  16.569   5.670  1.00  0.00     0.124 S 
ATOM     92  O   UNL     1       1.158  16.805   4.566  1.00  0.00    -0.237 OA
ATOM     93  O   UNL     1      -1.163  16.365   5.287  1.00  0.00    -0.237 OA
ATOM     94  O   UNL     1       0.426  17.434   6.833  1.00  0.00    -0.744 OA
ENDBRANCH  90  91
ENDBRANCH  64  85
ENDBRANCH  38  39
ENDBRANCH  30  33
ENDBRANCH  28  29
ENDBRANCH   1  28
TORSDOF 16
