REMARK SMILES O=C(NCCCNC(=O)c1ccc(-c2c3nc(c(-c4ccc(S(=O)(=O)[O-])cc4)c4ccc([nH]4)c(-c4ccc(S(=O)(=O)[O-])cc4)c4nc(c(-c5ccc(S(=O)(=O)[O-])cc5)c5ccc2[nH]5)C=C4)C=C3)cc1)c1ccc(NC(=O)[C@@H]2CC=CC[C@H]2C(=O)Nc2cccc([N+](=O)[O-])c2)cc1
REMARK SMILES IDX 4 1 3 2 1 3 2 4 70 6 71 7 96 8 72 9 95 10 73 11 74 12 75 13
REMARK SMILES IDX 76 15 77 16 78 17 82 18 79 19 81 20 80 21 83 22 84 23 85 24
REMARK SMILES IDX 86 26 87 27 94 28 88 29 90 30 89 31 91 32 92 33 93 34 5 35
REMARK SMILES IDX 6 36 7 37 8 38 9 40 10 41 11 42 69 43 12 44 68 45 13 46
REMARK SMILES IDX 14 47 15 48 62 49 16 50 67 51 61 52 63 53 17 54 66 55 60 56
REMARK SMILES IDX 59 57 18 59 48 60 29 61 47 62 30 63 33 64 46 65 64 66 31 67
REMARK SMILES IDX 32 68 45 70 65 71 34 72 19 73 20 74 28 75 21 76 27 77 22 78
REMARK SMILES IDX 23 79 24 80 25 81 26 82 49 83 50 84 58 85 51 86 57 87 52 88
REMARK SMILES IDX 53 89 54 90 55 91 56 92 35 93 36 94 44 95 37 96 43 97 38 98
REMARK SMILES IDX 39 99 40 100 41 101 42 102
REMARK H PARENT 3 5 74 14 85 25 7 39 63 58 33 69
REMARK Flexibility Score: inf
ROOT
ATOM      1  C   UNL     1      12.437   1.287  -2.181  1.00  0.00     0.118 C 
ENDROOT
BRANCH   1   2
ATOM      2  N   UNL     1      13.240   0.192  -2.721  1.00  0.00    -0.352 N 
ATOM      3  O   UNL     1      13.597  -1.875  -3.588  1.00  0.00    -0.269 OA
ATOM      4  C   UNL     1      12.822  -0.964  -3.344  1.00  0.00     0.251 C 
ATOM      5  H   UNL     1      14.214   0.293  -2.626  1.00  0.00     0.163 HD
BRANCH   4   6
ATOM      6  C   UNL     1      11.402  -1.073  -3.721  1.00  0.00     0.039 A 
ATOM      7  C   UNL     1      10.807  -0.011  -4.389  1.00  0.00     0.016 A 
ATOM      8  C   UNL     1      10.643  -2.179  -3.348  1.00  0.00     0.016 A 
ATOM      9  C   UNL     1       9.427   0.033  -4.514  1.00  0.00     0.027 A 
ATOM     10  C   UNL     1       9.260  -2.163  -3.571  1.00  0.00     0.027 A 
ATOM     11  C   UNL     1       8.631  -1.034  -4.123  1.00  0.00     0.041 A 
BRANCH  11  12
ATOM     12  N   UNL     1       7.239  -1.084  -4.270  1.00  0.00    -0.326 N 
ATOM     13  C   UNL     1       6.264  -0.204  -4.611  1.00  0.00     0.228 C 
ATOM     14  H   UNL     1       6.878  -1.980  -4.079  1.00  0.00     0.169 HD
ATOM     15  O   UNL     1       5.128  -0.680  -4.758  1.00  0.00    -0.274 OA
BRANCH  13  16
ATOM     16  C   UNL     1       6.424   1.306  -4.734  1.00  0.00     0.095 C 
ATOM     17  C   UNL     1       7.125   1.806  -6.005  1.00  0.00     0.041 C 
ATOM     18  C   UNL     1       6.774   1.956  -3.386  1.00  0.00     0.095 C 
ATOM     19  C   UNL     1       7.798   3.139  -5.856  1.00  0.00    -0.030 C 
ATOM     20  C   UNL     1       7.141   3.446  -3.455  1.00  0.00     0.041 C 
ATOM     21  C   UNL     1       7.801   3.865  -4.731  1.00  0.00    -0.030 C 
BRANCH  18  22
ATOM     22  C   UNL     1       5.750   1.665  -2.263  1.00  0.00     0.228 C 
ATOM     23  O   UNL     1       6.065   0.869  -1.369  1.00  0.00    -0.274 OA
ATOM     24  N   UNL     1       4.545   2.307  -2.122  1.00  0.00    -0.326 N 
ATOM     25  H   UNL     1       4.072   2.117  -1.280  1.00  0.00     0.169 HD
BRANCH  24  26
ATOM     26  C   UNL     1       3.881   3.187  -2.983  1.00  0.00     0.048 A 
ATOM     27  C   UNL     1       3.542   4.458  -2.518  1.00  0.00     0.026 A 
ATOM     28  C   UNL     1       3.568   2.835  -4.290  1.00  0.00     0.111 A 
ATOM     29  C   UNL     1       3.080   5.428  -3.414  1.00  0.00     0.009 A 
ATOM     30  C   UNL     1       3.191   3.821  -5.205  1.00  0.00     0.271 A 
ATOM     31  C   UNL     1       2.952   5.128  -4.772  1.00  0.00     0.086 A 
BRANCH  30  32
ATOM     32  N   UNL     1       3.137   3.495  -6.635  1.00  0.00     0.062 N 
ATOM     33  O   UNL     1       2.829   4.401  -7.421  1.00  0.00    -0.258 OA
ATOM     34  O   UNL     1       3.438   2.342  -6.978  1.00  0.00    -0.258 OA
ENDBRANCH  30  32
ENDBRANCH  24  26
ENDBRANCH  18  22
ENDBRANCH  13  16
ENDBRANCH  11  12
ENDBRANCH   4   6
ENDBRANCH   1   2
BRANCH   1  35
ATOM     35  C   UNL     1      12.546   1.410  -0.674  1.00  0.00     0.042 C 
BRANCH  35  36
ATOM     36  C   UNL     1      13.942   1.751  -0.191  1.00  0.00     0.118 C 
BRANCH  36  37
ATOM     37  N   UNL     1      14.415   3.034  -0.687  1.00  0.00    -0.352 N 
ATOM     38  C   UNL     1      14.997   4.074  -0.005  1.00  0.00     0.251 C 
ATOM     39  H   UNL     1      14.301   3.178  -1.655  1.00  0.00     0.163 HD
ATOM     40  O   UNL     1      15.189   5.139  -0.584  1.00  0.00    -0.269 OA
BRANCH  38  41
ATOM     41  C   UNL     1      15.363   3.919   1.420  1.00  0.00     0.039 A 
ATOM     42  C   UNL     1      15.174   5.002   2.282  1.00  0.00     0.014 A 
ATOM     43  C   UNL     1      15.897   2.724   1.910  1.00  0.00     0.014 A 
ATOM     44  C   UNL     1      15.479   4.869   3.638  1.00  0.00     0.010 A 
ATOM     45  C   UNL     1      16.100   2.559   3.275  1.00  0.00     0.010 A 
ATOM     46  C   UNL     1      15.920   3.638   4.151  1.00  0.00    -0.014 A 
BRANCH  46  47
ATOM     47  C   UNL     1      16.233   3.476   5.592  1.00  0.00     0.031 A 
ATOM     48  C   UNL     1      17.634   3.135   6.028  1.00  0.00     0.074 A 
ATOM     49  C   UNL     1      15.250   3.596   6.506  1.00  0.00     0.049 A 
ATOM     50  N   UNL     1      18.101   2.956   7.237  1.00  0.00    -0.248 NA
ATOM     51  C   UNL     1      18.637   2.940   4.967  1.00  0.00     0.031 C 
ATOM     52  C   UNL     1      13.841   3.862   6.207  1.00  0.00     0.029 A 
ATOM     53  N   UNL     1      15.287   3.510   7.875  1.00  0.00    -0.354 N 
ATOM     54  C   UNL     1      19.438   2.610   7.080  1.00  0.00     0.074 A 
ATOM     55  C   UNL     1      19.694   2.545   5.659  1.00  0.00     0.031 C 
ATOM     56  C   UNL     1      13.157   3.956   7.358  1.00  0.00     0.029 A 
ATOM     57  C   UNL     1      14.069   3.723   8.474  1.00  0.00     0.049 A 
ATOM     58  H   UNL     1      16.109   3.315   8.380  1.00  0.00     0.167 HD
ATOM     59  C   UNL     1      20.376   2.389   8.031  1.00  0.00     0.031 A 
ATOM     60  C   UNL     1      13.724   3.735   9.776  1.00  0.00     0.031 A 
ATOM     61  C   UNL     1      20.122   2.473   9.444  1.00  0.00     0.049 A 
ATOM     62  C   UNL     1      14.788   3.518  10.816  1.00  0.00     0.074 A 
ATOM     63  C   UNL     1      21.018   2.334  10.490  1.00  0.00     0.029 A 
ATOM     64  N   UNL     1      18.880   2.716  10.011  1.00  0.00    -0.354 N 
ATOM     65  N   UNL     1      16.066   3.271  10.648  1.00  0.00    -0.248 NA
ATOM     66  C   UNL     1      14.367   3.603  12.220  1.00  0.00     0.031 C 
ATOM     67  C   UNL     1      20.307   2.444  11.690  1.00  0.00     0.029 A 
ATOM     68  C   UNL     1      18.981   2.712  11.392  1.00  0.00     0.049 A 
ATOM     69  H   UNL     1      18.049   2.870   9.505  1.00  0.00     0.167 HD
ATOM     70  C   UNL     1      16.607   3.198  11.927  1.00  0.00     0.074 A 
ATOM     71  C   UNL     1      15.521   3.445  12.854  1.00  0.00     0.031 C 
ATOM     72  C   UNL     1      17.888   2.951  12.300  1.00  0.00     0.031 A 
BRANCH  59  73
ATOM     73  C   UNL     1      21.765   2.031   7.567  1.00  0.00    -0.014 A 
ATOM     74  C   UNL     1      22.579   2.971   6.908  1.00  0.00     0.010 A 
ATOM     75  C   UNL     1      22.273   0.742   7.814  1.00  0.00     0.010 A 
ATOM     76  C   UNL     1      23.854   2.614   6.461  1.00  0.00     0.020 A 
ATOM     77  C   UNL     1      23.560   0.391   7.397  1.00  0.00     0.020 A 
ATOM     78  C   UNL     1      24.335   1.325   6.705  1.00  0.00     0.054 A 
BRANCH  78  79
ATOM     79  S   UNL     1      25.999   0.894   6.127  1.00  0.00     0.124 S 
ATOM     80  O   UNL     1      25.796   0.777   4.685  1.00  0.00    -0.237 OA
ATOM     81  O   UNL     1      26.795   2.041   6.558  1.00  0.00    -0.237 OA
ATOM     82  O   UNL     1      26.293  -0.359   6.818  1.00  0.00    -0.744 OA
ENDBRANCH  78  79
ENDBRANCH  59  73
BRANCH  60  83
ATOM     83  C   UNL     1      12.311   3.997  10.164  1.00  0.00    -0.014 A 
ATOM     84  C   UNL     1      11.947   5.216  10.763  1.00  0.00     0.010 A 
ATOM     85  C   UNL     1      11.315   3.036   9.910  1.00  0.00     0.010 A 
ATOM     86  C   UNL     1      10.617   5.463  11.115  1.00  0.00     0.020 A 
ATOM     87  C   UNL     1       9.980   3.292  10.235  1.00  0.00     0.020 A 
ATOM     88  C   UNL     1       9.641   4.501  10.845  1.00  0.00     0.054 A 
BRANCH  88  89
ATOM     89  S   UNL     1       7.911   4.870  11.252  1.00  0.00     0.124 S 
ATOM     90  O   UNL     1       7.909   4.749  12.706  1.00  0.00    -0.237 OA
ATOM     91  O   UNL     1       7.746   6.223  10.727  1.00  0.00    -0.237 OA
ATOM     92  O   UNL     1       7.164   3.838  10.535  1.00  0.00    -0.744 OA
ENDBRANCH  88  89
ENDBRANCH  60  83
BRANCH  72  93
ATOM     93  C   UNL     1      18.191   2.972  13.775  1.00  0.00    -0.014 A 
ATOM     94  C   UNL     1      17.731   1.955  14.632  1.00  0.00     0.010 A 
ATOM     95  C   UNL     1      18.974   4.013  14.306  1.00  0.00     0.010 A 
ATOM     96  C   UNL     1      18.009   2.006  16.000  1.00  0.00     0.020 A 
ATOM     97  C   UNL     1      19.280   4.051  15.668  1.00  0.00     0.020 A 
ATOM     98  C   UNL     1      18.777   3.058  16.510  1.00  0.00     0.054 A 
BRANCH  98  99
ATOM     99  S   UNL     1      19.137   3.096  18.287  1.00  0.00     0.124 S 
ATOM    100  O   UNL     1      17.856   3.520  18.846  1.00  0.00    -0.237 OA
ATOM    101  O   UNL     1      19.519   1.714  18.568  1.00  0.00    -0.237 OA
ATOM    102  O   UNL     1      20.220   4.070  18.401  1.00  0.00    -0.744 OA
ENDBRANCH  98  99
ENDBRANCH  72  93
ENDBRANCH  46  47
ENDBRANCH  38  41
ENDBRANCH  36  37
ENDBRANCH  35  36
ENDBRANCH   1  35
TORSDOF 18
