REMARK SMILES CC(=O)Oc1ccc2oc(N)c([C@@H]3[NH2+][C@@H](C(=O)NCCCNC(=O)c4ccc(-c5c6nc(c(-c7ccc(S(=O)(=O)[O-])cc7)c7ccc([nH]7)c(-c7ccc(S(=O)(=O)[O-])cc7)c7nc(c(-c8ccc(S(=O)(=O)[O-])cc8)c8ccc5[nH]8)C=C7)C=C6)cc4)C(C)(C)S3)c(=O)c2c1
REMARK SMILES IDX 20 1 19 2 18 3 16 4 17 5 15 7 13 8 14 9 88 10 85 13 86 14
REMARK SMILES IDX 87 15 12 16 5 17 6 18 92 19 7 20 91 21 8 22 89 23 9 24 90 25
REMARK SMILES IDX 10 26 4 27 2 28 1 29 3 30 11 31 21 34 22 35 23 36 24 38
REMARK SMILES IDX 25 39 26 40 84 41 27 42 83 43 28 44 29 45 30 46 77 47 31 48
REMARK SMILES IDX 82 49 76 50 78 51 32 52 81 53 75 54 74 55 33 57 63 58 44 59
REMARK SMILES IDX 62 60 45 61 48 62 61 63 79 64 46 65 47 66 60 68 80 69 49 70
REMARK SMILES IDX 34 71 35 72 43 73 36 74 42 75 37 76 38 77 39 78 40 79 41 80
REMARK SMILES IDX 64 81 65 82 73 83 66 84 72 85 67 86 68 87 69 88 70 89 71 90
REMARK SMILES IDX 50 91 51 92 59 93 52 94 58 95 53 96 54 97 55 98 56 99 57 100
REMARK H PARENT 18 6 14 11 14 12 11 32 11 33 22 37 78 56 48 67
REMARK Flexibility Score: inf
ROOT
ATOM      1  C   UNL     1      -2.544  -6.599  -9.871  1.00  0.00     0.042 C 
ENDROOT
BRANCH   1   2
ATOM      2  C   UNL     1      -1.320  -6.698  -8.969  1.00  0.00     0.118 C 
BRANCH   2   3
ATOM      3  N   UNL     1      -0.295  -7.567  -9.528  1.00  0.00    -0.351 N 
ATOM      4  C   UNL     1       0.938  -7.376 -10.061  1.00  0.00     0.279 C 
ATOM      5  O   UNL     1       1.449  -8.372 -10.590  1.00  0.00    -0.268 OA
ATOM      6  H   UNL     1      -0.558  -8.515  -9.516  1.00  0.00     0.163 HD
BRANCH   4   7
ATOM      7  C   UNL     1       1.700  -6.041 -10.063  1.00  0.00     0.289 C 
ATOM      8  C   UNL     1       2.255  -4.032  -8.881  1.00  0.00     0.284 C 
ATOM      9  N   UNL     1       1.703  -5.384  -8.736  1.00  0.00    -0.320 N 
ATOM     10  S   UNL     1       2.047  -3.482 -10.610  1.00  0.00    -0.081 SA
ATOM     11  H   UNL     1       0.749  -5.329  -8.379  1.00  0.00     0.348 HD
ATOM     12  H   UNL     1       2.271  -5.923  -8.083  1.00  0.00     0.348 HD
ATOM     13  C   UNL     1       1.359  -5.069 -11.211  1.00  0.00     0.077 C 
ATOM     14  C   UNL     1      -0.113  -4.825 -11.511  1.00  0.00     0.030 C 
ATOM     15  C   UNL     1       2.049  -5.470 -12.523  1.00  0.00     0.030 C 
BRANCH   8  16
ATOM     16  C   UNL     1       3.684  -3.924  -8.406  1.00  0.00     0.128 A 
ATOM     17  C   UNL     1       6.827  -1.574  -5.463  1.00  0.00     0.131 A 
ATOM     18  C   UNL     1       7.881  -2.161  -6.168  1.00  0.00     0.051 A 
ATOM     19  C   UNL     1       5.501  -1.935  -5.705  1.00  0.00     0.063 A 
ATOM     20  C   UNL     1       7.602  -3.075  -7.177  1.00  0.00     0.052 A 
ATOM     21  C   UNL     1       5.235  -2.848  -6.729  1.00  0.00     0.069 A 
ATOM     22  C   UNL     1       6.277  -3.398  -7.461  1.00  0.00     0.140 A 
ATOM     23  C   UNL     1       3.862  -3.231  -7.094  1.00  0.00     0.205 A 
ATOM     24  O   UNL     1       6.069  -4.263  -8.491  1.00  0.00    -0.440 OA
ATOM     25  O   UNL     1       2.924  -2.930  -6.365  1.00  0.00    -0.288 OA
ATOM     26  C   UNL     1       4.805  -4.344  -9.036  1.00  0.00     0.205 A 
BRANCH  17  27
ATOM     27  O   UNL     1       7.087  -0.649  -4.445  1.00  0.00    -0.427 OA
BRANCH  27  28
ATOM     28  C   UNL     1       7.785   0.484  -4.855  1.00  0.00     0.308 C 
ATOM     29  C   UNL     1       8.137   1.299  -3.649  1.00  0.00     0.139 C 
ATOM     30  O   UNL     1       8.096   0.786  -5.999  1.00  0.00    -0.252 OA
ENDBRANCH  27  28
ENDBRANCH  17  27
BRANCH  26  31
ATOM     31  N   UNL     1       4.848  -4.875 -10.290  1.00  0.00    -0.369 N 
ATOM     32  H   UNL     1       5.709  -5.156 -10.676  1.00  0.00     0.159 HD
ATOM     33  H   UNL     1       4.018  -4.977 -10.810  1.00  0.00     0.159 HD
ENDBRANCH  26  31
ENDBRANCH   8  16
ENDBRANCH   4   7
ENDBRANCH   2   3
ENDBRANCH   1   2
BRANCH   1  34
ATOM     34  C   UNL     1      -3.211  -7.935 -10.139  1.00  0.00     0.118 C 
BRANCH  34  35
ATOM     35  N   UNL     1      -4.119  -8.308  -9.069  1.00  0.00    -0.352 N 
ATOM     36  C   UNL     1      -5.491  -8.191  -9.018  1.00  0.00     0.251 C 
ATOM     37  H   UNL     1      -3.696  -8.697  -8.269  1.00  0.00     0.163 HD
ATOM     38  O   UNL     1      -6.072  -8.307  -7.947  1.00  0.00    -0.269 OA
BRANCH  36  39
ATOM     39  C   UNL     1      -6.245  -7.889 -10.256  1.00  0.00     0.039 A 
ATOM     40  C   UNL     1      -5.915  -8.514 -11.459  1.00  0.00     0.014 A 
ATOM     41  C   UNL     1      -7.286  -6.959 -10.219  1.00  0.00     0.014 A 
ATOM     42  C   UNL     1      -6.474  -8.065 -12.649  1.00  0.00     0.010 A 
ATOM     43  C   UNL     1      -7.941  -6.605 -11.403  1.00  0.00     0.010 A 
ATOM     44  C   UNL     1      -7.512  -7.122 -12.636  1.00  0.00    -0.014 A 
BRANCH  44  45
ATOM     45  C   UNL     1      -8.162  -6.725 -13.914  1.00  0.00     0.031 A 
ATOM     46  C   UNL     1      -8.159  -5.291 -14.372  1.00  0.00     0.074 A 
ATOM     47  C   UNL     1      -8.739  -7.677 -14.677  1.00  0.00     0.049 A 
ATOM     48  N   UNL     1      -8.722  -4.769 -15.431  1.00  0.00    -0.248 NA
ATOM     49  C   UNL     1      -7.440  -4.314 -13.537  1.00  0.00     0.031 C 
ATOM     50  C   UNL     1      -8.776  -9.106 -14.352  1.00  0.00     0.029 A 
ATOM     51  N   UNL     1      -9.384  -7.599 -15.886  1.00  0.00    -0.354 N 
ATOM     52  C   UNL     1      -8.448  -3.407 -15.380  1.00  0.00     0.074 A 
ATOM     53  C   UNL     1      -7.692  -3.175 -14.170  1.00  0.00     0.031 C 
ATOM     54  C   UNL     1      -9.351  -9.773 -15.361  1.00  0.00     0.029 A 
ATOM     55  C   UNL     1      -9.818  -8.816 -16.358  1.00  0.00     0.049 A 
ATOM     56  H   UNL     1      -9.523  -6.753 -16.370  1.00  0.00     0.167 HD
ATOM     57  C   UNL     1      -8.789  -2.445 -16.269  1.00  0.00     0.031 A 
ATOM     58  C   UNL     1     -10.537  -9.139 -17.451  1.00  0.00     0.031 A 
ATOM     59  C   UNL     1      -9.524  -2.699 -17.483  1.00  0.00     0.049 A 
ATOM     60  C   UNL     1     -10.961  -8.045 -18.387  1.00  0.00     0.074 A 
ATOM     61  C   UNL     1      -9.891  -1.792 -18.462  1.00  0.00     0.029 A 
ATOM     62  N   UNL     1      -9.998  -3.938 -17.889  1.00  0.00    -0.354 N 
ATOM     63  N   UNL     1     -10.684  -6.765 -18.325  1.00  0.00    -0.248 NA
ATOM     64  C   UNL     1     -11.794  -8.429 -19.533  1.00  0.00     0.031 C 
ATOM     65  C   UNL     1     -10.657  -2.465 -19.414  1.00  0.00     0.029 A 
ATOM     66  C   UNL     1     -10.691  -3.810 -19.081  1.00  0.00     0.049 A 
ATOM     67  H   UNL     1      -9.863  -4.783 -17.401  1.00  0.00     0.167 HD
ATOM     68  C   UNL     1     -11.298  -6.190 -19.430  1.00  0.00     0.074 A 
ATOM     69  C   UNL     1     -11.942  -7.266 -20.157  1.00  0.00     0.031 C 
ATOM     70  C   UNL     1     -11.328  -4.888 -19.801  1.00  0.00     0.031 A 
BRANCH  57  71
ATOM     71  C   UNL     1      -8.385  -1.018 -15.988  1.00  0.00    -0.014 A 
ATOM     72  C   UNL     1      -9.380  -0.043 -15.776  1.00  0.00     0.010 A 
ATOM     73  C   UNL     1      -7.042  -0.611 -16.076  1.00  0.00     0.010 A 
ATOM     74  C   UNL     1      -9.047   1.312 -15.704  1.00  0.00     0.020 A 
ATOM     75  C   UNL     1      -6.701   0.742 -15.971  1.00  0.00     0.020 A 
ATOM     76  C   UNL     1      -7.709   1.697 -15.814  1.00  0.00     0.054 A 
BRANCH  76  77
ATOM     77  S   UNL     1      -7.301   3.464 -15.767  1.00  0.00     0.124 S 
ATOM     78  O   UNL     1      -7.782   3.926 -17.065  1.00  0.00    -0.237 OA
ATOM     79  O   UNL     1      -8.057   3.934 -14.608  1.00  0.00    -0.237 OA
ATOM     80  O   UNL     1      -5.849   3.476 -15.598  1.00  0.00    -0.744 OA
ENDBRANCH  76  77
ENDBRANCH  57  71
BRANCH  58  81
ATOM     81  C   UNL     1     -10.880 -10.569 -17.694  1.00  0.00    -0.014 A 
ATOM     82  C   UNL     1     -11.706 -11.267 -16.791  1.00  0.00     0.010 A 
ATOM     83  C   UNL     1     -10.287 -11.272 -18.756  1.00  0.00     0.010 A 
ATOM     84  C   UNL     1     -11.864 -12.651 -16.894  1.00  0.00     0.020 A 
ATOM     85  C   UNL     1     -10.475 -12.652 -18.887  1.00  0.00     0.020 A 
ATOM     86  C   UNL     1     -11.231 -13.337 -17.932  1.00  0.00     0.054 A 
BRANCH  86  87
ATOM     87  S   UNL     1     -11.380 -15.144 -17.994  1.00  0.00     0.124 S 
ATOM     88  O   UNL     1     -10.520 -15.552 -16.886  1.00  0.00    -0.237 OA
ATOM     89  O   UNL     1     -12.810 -15.353 -17.790  1.00  0.00    -0.237 OA
ATOM     90  O   UNL     1     -10.886 -15.483 -19.326  1.00  0.00    -0.744 OA
ENDBRANCH  86  87
ENDBRANCH  58  81
BRANCH  70  91
ATOM     91  C   UNL     1     -12.084  -4.515 -21.050  1.00  0.00    -0.014 A 
ATOM     92  C   UNL     1     -11.388  -3.988 -22.155  1.00  0.00     0.010 A 
ATOM     93  C   UNL     1     -13.490  -4.525 -21.067  1.00  0.00     0.010 A 
ATOM     94  C   UNL     1     -12.083  -3.420 -23.225  1.00  0.00     0.020 A 
ATOM     95  C   UNL     1     -14.188  -3.989 -22.152  1.00  0.00     0.020 A 
ATOM     96  C   UNL     1     -13.480  -3.409 -23.208  1.00  0.00     0.054 A 
BRANCH  96  97
ATOM     97  S   UNL     1     -14.361  -2.592 -24.566  1.00  0.00     0.124 S 
ATOM     98  O   UNL     1     -14.104  -1.181 -24.295  1.00  0.00    -0.237 OA
ATOM     99  O   UNL     1     -13.699  -3.138 -25.749  1.00  0.00    -0.237 OA
ATOM    100  O   UNL     1     -15.746  -3.020 -24.384  1.00  0.00    -0.744 OA
ENDBRANCH  96  97
ENDBRANCH  70  91
ENDBRANCH  44  45
ENDBRANCH  36  39
ENDBRANCH  34  35
ENDBRANCH   1  34
TORSDOF 17
