REMARK SMILES CC[C@@H](C)[C@H](C(=O)NCCCNC(=O)c1ccc(-c2c3nc(c(-c4ccc(S(=O)(=O)[O-])cc4)c4ccc([nH]4)c(-c4ccc(S(=O)(=O)[O-])cc4)c4nc(c(-c5ccc(S(=O)(=O)[O-])cc5)c5ccc2[nH]5)C=C4)C=C3)cc1)N1C(=O)/C(=C/c2ccc3c(c2)OCO3)SC1=S
REMARK SMILES IDX 10 1 9 2 8 3 6 4 7 5 5 7 3 8 4 9 2 10 1 11 75 12 76 13 90 14
REMARK SMILES IDX 77 15 78 16 89 17 91 18 79 19 80 20 81 21 85 22 82 23 84 24
REMARK SMILES IDX 83 25 86 26 88 27 87 28 11 29 12 30 13 31 14 33 15 34 16 35
REMARK SMILES IDX 74 36 17 37 73 38 18 39 19 40 20 41 67 42 21 43 72 44 66 45
REMARK SMILES IDX 68 46 22 47 71 48 65 49 64 50 23 52 53 53 34 54 52 55 35 56
REMARK SMILES IDX 38 57 51 58 69 59 36 60 37 61 50 63 70 64 39 65 24 66 25 67
REMARK SMILES IDX 33 68 26 69 32 70 27 71 28 72 29 73 30 74 31 75 54 76 55 77
REMARK SMILES IDX 63 78 56 79 62 80 57 81 58 82 59 83 60 84 61 85 40 86 41 87
REMARK SMILES IDX 49 88 42 89 48 90 43 91 44 92 45 93 46 94 47 95
REMARK H PARENT 8 6 12 32 68 51 38 62
REMARK Flexibility Score: inf
ROOT
ATOM      1  C   UNL     1       2.914   2.331   1.623  1.00  0.00     0.042 C 
ENDROOT
BRANCH   1   2
ATOM      2  C   UNL     1       2.718   2.802   0.189  1.00  0.00     0.117 C 
BRANCH   2   3
ATOM      3  N   UNL     1       1.799   1.958  -0.542  1.00  0.00    -0.354 N 
ATOM      4  C   UNL     1       0.685   2.246  -1.268  1.00  0.00     0.243 C 
ATOM      5  O   UNL     1       0.015   1.273  -1.640  1.00  0.00    -0.273 OA
ATOM      6  H   UNL     1       2.021   0.999  -0.509  1.00  0.00     0.163 HD
BRANCH   4   7
ATOM      7  C   UNL     1       0.274   3.672  -1.735  1.00  0.00     0.184 C 
BRANCH   7   8
ATOM      8  C   UNL     1       0.217   4.771  -0.597  1.00  0.00     0.018 C 
ATOM      9  C   UNL     1       1.453   5.709  -0.584  1.00  0.00     0.010 C 
BRANCH   8  10
ATOM     10  C   UNL     1      -0.288   4.218   0.759  1.00  0.00     0.002 C 
ATOM     11  C   UNL     1      -0.103   5.149   1.945  1.00  0.00     0.004 C 
ENDBRANCH   8  10
ENDBRANCH   7   8
BRANCH   7  12
ATOM     12  N   UNL     1       0.865   4.181  -3.017  1.00  0.00    -0.280 N 
ATOM     13  C   UNL     1       0.433   5.432  -3.433  1.00  0.00     0.266 C 
ATOM     14  C   UNL     1       1.565   3.486  -3.993  1.00  0.00     0.149 C 
ATOM     15  O   UNL     1      -0.515   6.074  -2.990  1.00  0.00    -0.268 OA
ATOM     16  C   UNL     1       1.159   5.888  -4.625  1.00  0.00     0.081 C 
ATOM     17  S   UNL     1       1.925   4.554  -5.362  1.00  0.00    -0.054 SA
ATOM     18  S   UNL     1       2.119   1.917  -4.063  1.00  0.00    -0.052 S 
ATOM     19  C   UNL     1       1.031   7.151  -5.056  1.00  0.00     0.029 C 
BRANCH  19  20
ATOM     20  C   UNL     1       1.271   7.474  -6.456  1.00  0.00    -0.020 A 
ATOM     21  C   UNL     1       2.535   7.828  -6.964  1.00  0.00     0.012 A 
ATOM     22  C   UNL     1       0.199   7.191  -7.313  1.00  0.00     0.058 A 
ATOM     23  C   UNL     1       2.753   7.821  -8.347  1.00  0.00     0.051 A 
ATOM     24  C   UNL     1       0.463   7.135  -8.654  1.00  0.00     0.166 A 
ATOM     25  C   UNL     1       1.709   7.424  -9.158  1.00  0.00     0.165 A 
ATOM     26  O   UNL     1      -0.405   6.699  -9.604  1.00  0.00    -0.454 OA
ATOM     27  O   UNL     1       1.770   7.195 -10.499  1.00  0.00    -0.454 OA
ATOM     28  C   UNL     1       0.513   6.509 -10.696  1.00  0.00     0.468 C 
ENDBRANCH  19  20
ENDBRANCH   7  12
ENDBRANCH   4   7
ENDBRANCH   2   3
ENDBRANCH   1   2
BRANCH   1  29
ATOM     29  C   UNL     1       4.200   1.544   1.784  1.00  0.00     0.118 C 
BRANCH  29  30
ATOM     30  N   UNL     1       5.377   2.384   1.566  1.00  0.00    -0.352 N 
ATOM     31  C   UNL     1       6.159   3.106   2.436  1.00  0.00     0.251 C 
ATOM     32  H   UNL     1       5.661   2.443   0.625  1.00  0.00     0.163 HD
ATOM     33  O   UNL     1       6.896   3.980   1.981  1.00  0.00    -0.269 OA
BRANCH  31  34
ATOM     34  C   UNL     1       6.119   2.857   3.893  1.00  0.00     0.039 A 
ATOM     35  C   UNL     1       6.386   3.901   4.784  1.00  0.00     0.014 A 
ATOM     36  C   UNL     1       5.874   1.581   4.393  1.00  0.00     0.014 A 
ATOM     37  C   UNL     1       6.345   3.668   6.163  1.00  0.00     0.010 A 
ATOM     38  C   UNL     1       5.676   1.387   5.752  1.00  0.00     0.010 A 
ATOM     39  C   UNL     1       5.949   2.415   6.660  1.00  0.00    -0.014 A 
BRANCH  39  40
ATOM     40  C   UNL     1       5.843   2.137   8.115  1.00  0.00     0.031 A 
ATOM     41  C   UNL     1       6.614   0.992   8.728  1.00  0.00     0.074 A 
ATOM     42  C   UNL     1       4.978   2.848   8.865  1.00  0.00     0.049 A 
ATOM     43  N   UNL     1       6.585   0.538   9.955  1.00  0.00    -0.248 NA
ATOM     44  C   UNL     1       7.490   0.218   7.831  1.00  0.00     0.031 C 
ATOM     45  C   UNL     1       4.101   3.913   8.370  1.00  0.00     0.029 A 
ATOM     46  N   UNL     1       4.685   2.775  10.202  1.00  0.00    -0.354 N 
ATOM     47  C   UNL     1       7.389  -0.597   9.958  1.00  0.00     0.074 A 
ATOM     48  C   UNL     1       7.837  -0.802   8.600  1.00  0.00     0.031 C 
ATOM     49  C   UNL     1       3.402   4.421   9.395  1.00  0.00     0.029 A 
ATOM     50  C   UNL     1       3.748   3.693  10.611  1.00  0.00     0.049 A 
ATOM     51  H   UNL     1       5.105   2.126  10.812  1.00  0.00     0.167 HD
ATOM     52  C   UNL     1       7.749  -1.385  11.001  1.00  0.00     0.031 A 
ATOM     53  C   UNL     1       3.225   3.928  11.830  1.00  0.00     0.031 A 
ATOM     54  C   UNL     1       7.339  -1.140  12.357  1.00  0.00     0.049 A 
ATOM     55  C   UNL     1       3.709   3.110  12.992  1.00  0.00     0.074 A 
ATOM     56  C   UNL     1       7.728  -1.799  13.509  1.00  0.00     0.029 A 
ATOM     57  N   UNL     1       6.445  -0.151  12.742  1.00  0.00    -0.354 N 
ATOM     58  N   UNL     1       4.550   2.102  12.993  1.00  0.00    -0.248 NA
ATOM     59  C   UNL     1       3.192   3.473  14.316  1.00  0.00     0.031 C 
ATOM     60  C   UNL     1       7.032  -1.238  14.586  1.00  0.00     0.029 A 
ATOM     61  C   UNL     1       6.251  -0.195  14.112  1.00  0.00     0.049 A 
ATOM     62  H   UNL     1       6.013   0.488  12.131  1.00  0.00     0.167 HD
ATOM     63  C   UNL     1       4.669   1.712  14.322  1.00  0.00     0.074 A 
ATOM     64  C   UNL     1       3.838   2.616  15.095  1.00  0.00     0.031 C 
ATOM     65  C   UNL     1       5.395   0.697  14.855  1.00  0.00     0.031 A 
BRANCH  52  66
ATOM     66  C   UNL     1       8.623  -2.579  10.701  1.00  0.00    -0.014 A 
ATOM     67  C   UNL     1       9.944  -2.427  10.238  1.00  0.00     0.010 A 
ATOM     68  C   UNL     1       8.110  -3.878  10.873  1.00  0.00     0.010 A 
ATOM     69  C   UNL     1      10.705  -3.543   9.880  1.00  0.00     0.020 A 
ATOM     70  C   UNL     1       8.881  -5.000  10.550  1.00  0.00     0.020 A 
ATOM     71  C   UNL     1      10.164  -4.823  10.028  1.00  0.00     0.054 A 
BRANCH  71  72
ATOM     72  S   UNL     1      11.166  -6.254   9.540  1.00  0.00     0.124 S 
ATOM     73  O   UNL     1      11.094  -6.187   8.082  1.00  0.00    -0.237 OA
ATOM     74  O   UNL     1      12.472  -5.945  10.117  1.00  0.00    -0.237 OA
ATOM     75  O   UNL     1      10.472  -7.387  10.146  1.00  0.00    -0.744 OA
ENDBRANCH  71  72
ENDBRANCH  52  66
BRANCH  53  76
ATOM     76  C   UNL     1       2.222   5.014  11.996  1.00  0.00    -0.014 A 
ATOM     77  C   UNL     1       2.584   6.233  12.596  1.00  0.00     0.010 A 
ATOM     78  C   UNL     1       0.923   4.866  11.477  1.00  0.00     0.010 A 
ATOM     79  C   UNL     1       1.667   7.286  12.669  1.00  0.00     0.020 A 
ATOM     80  C   UNL     1       0.011   5.925  11.525  1.00  0.00     0.020 A 
ATOM     81  C   UNL     1       0.389   7.129  12.123  1.00  0.00     0.054 A 
BRANCH  81  82
ATOM     82  S   UNL     1      -0.747   8.545  12.133  1.00  0.00     0.124 S 
ATOM     83  O   UNL     1      -1.150   8.602  13.534  1.00  0.00    -0.237 OA
ATOM     84  O   UNL     1       0.108   9.637  11.674  1.00  0.00    -0.237 OA
ATOM     85  O   UNL     1      -1.794   8.149  11.193  1.00  0.00    -0.744 OA
ENDBRANCH  81  82
ENDBRANCH  53  76
BRANCH  65  86
ATOM     86  C   UNL     1       5.316   0.516  16.346  1.00  0.00    -0.014 A 
ATOM     87  C   UNL     1       4.145   0.028  16.954  1.00  0.00     0.010 A 
ATOM     88  C   UNL     1       6.433   0.817  17.145  1.00  0.00     0.010 A 
ATOM     89  C   UNL     1       4.076  -0.106  18.342  1.00  0.00     0.020 A 
ATOM     90  C   UNL     1       6.377   0.655  18.531  1.00  0.00     0.020 A 
ATOM     91  C   UNL     1       5.191   0.216  19.122  1.00  0.00     0.054 A 
BRANCH  91  92
ATOM     92  S   UNL     1       5.080   0.029  20.922  1.00  0.00     0.124 S 
ATOM     93  O   UNL     1       4.268   1.183  21.296  1.00  0.00    -0.237 OA
ATOM     94  O   UNL     1       4.431  -1.272  21.071  1.00  0.00    -0.237 OA
ATOM     95  O   UNL     1       6.473   0.077  21.361  1.00  0.00    -0.744 OA
ENDBRANCH  91  92
ENDBRANCH  65  86
ENDBRANCH  39  40
ENDBRANCH  31  34
ENDBRANCH  29  30
ENDBRANCH   1  29
TORSDOF 17
