REMARK SMILES COc1ccc2cc([C@H](C)C(=O)NCCCNC(=O)c3ccc(-c4c5nc(c(-c6ccc(S(=O)(=O)[O-])cc6)c6ccc([nH]6)c(-c6ccc(S(=O)(=O)[O-])cc6)c6nc(c(-c7ccc(S(=O)(=O)[O-])cc7)c7ccc4[nH]7)C=C6)C=C5)cc3)ccc2c1
REMARK SMILES IDX 15 1 14 2 13 3 11 4 12 5 9 7 10 8 8 9 3 10 4 11 83 12 5 13
REMARK SMILES IDX 82 14 6 15 81 16 7 17 80 18 2 19 1 20 16 21 17 22 18 23
REMARK SMILES IDX 19 25 20 26 21 27 79 28 22 29 78 30 23 31 24 32 25 33 72 34
REMARK SMILES IDX 26 35 77 36 71 37 73 38 27 39 76 40 70 41 69 42 28 44 58 45
REMARK SMILES IDX 39 46 57 47 40 48 43 49 56 50 74 51 41 52 42 53 55 55 75 56
REMARK SMILES IDX 44 57 29 58 30 59 38 60 31 61 37 62 32 63 33 64 34 65 35 66
REMARK SMILES IDX 36 67 59 68 60 69 68 70 61 71 67 72 62 73 63 74 64 75 65 76
REMARK SMILES IDX 66 77 45 78 46 79 54 80 47 81 53 82 48 83 49 84 50 85 51 86
REMARK SMILES IDX 52 87
REMARK H PARENT 13 6 17 24 73 43 43 54
REMARK Flexibility Score: inf
ROOT
ATOM      1  C   UNL     1       4.403  -5.588   2.889  1.00  0.00     0.042 C 
ENDROOT
BRANCH   1   2
ATOM      2  C   UNL     1       3.963  -6.917   2.311  1.00  0.00     0.117 C 
BRANCH   2   3
ATOM      3  N   UNL     1       3.507  -7.879   3.292  1.00  0.00    -0.356 N 
ATOM      4  C   UNL     1       2.434  -8.721   3.246  1.00  0.00     0.227 C 
ATOM      5  O   UNL     1       2.349  -9.572   4.139  1.00  0.00    -0.274 OA
ATOM      6  H   UNL     1       4.050  -7.933   4.112  1.00  0.00     0.163 HD
BRANCH   4   7
ATOM      7  C   UNL     1       1.353  -8.626   2.158  1.00  0.00     0.105 C 
ATOM      8  C   UNL     1       0.679  -7.250   2.091  1.00  0.00     0.023 C 
BRANCH   7   9
ATOM      9  C   UNL     1       1.776  -9.233   0.821  1.00  0.00    -0.035 A 
ATOM     10  C   UNL     1       2.616 -12.376  -3.088  1.00  0.00     0.119 A 
ATOM     11  C   UNL     1       1.793 -13.077  -2.211  1.00  0.00     0.047 A 
ATOM     12  C   UNL     1       3.048 -11.092  -2.771  1.00  0.00     0.055 A 
ATOM     13  C   UNL     1       1.397 -12.486  -1.008  1.00  0.00     0.012 A 
ATOM     14  C   UNL     1       2.618 -10.475  -1.590  1.00  0.00    -0.015 A 
ATOM     15  C   UNL     1       1.806 -11.183  -0.678  1.00  0.00    -0.018 A 
ATOM     16  C   UNL     1       2.961  -9.154  -1.311  1.00  0.00     0.009 A 
ATOM     17  C   UNL     1       1.428 -10.566   0.531  1.00  0.00     0.013 A 
ATOM     18  C   UNL     1       2.505  -8.533  -0.148  1.00  0.00     0.005 A 
BRANCH  10  19
ATOM     19  O   UNL     1       3.088 -12.918  -4.252  1.00  0.00    -0.497 OA
ATOM     20  C   UNL     1       2.031 -13.287  -5.135  1.00  0.00     0.278 C 
ENDBRANCH  10  19
ENDBRANCH   7   9
ENDBRANCH   4   7
ENDBRANCH   2   3
ENDBRANCH   1   2
BRANCH   1  21
ATOM     21  C   UNL     1       5.627  -5.664   3.780  1.00  0.00     0.118 C 
BRANCH  21  22
ATOM     22  N   UNL     1       6.839  -6.036   3.063  1.00  0.00    -0.352 N 
ATOM     23  C   UNL     1       7.941  -5.293   2.698  1.00  0.00     0.251 C 
ATOM     24  H   UNL     1       6.877  -6.982   2.791  1.00  0.00     0.163 HD
ATOM     25  O   UNL     1       8.780  -5.788   1.958  1.00  0.00    -0.269 OA
BRANCH  23  26
ATOM     26  C   UNL     1       8.097  -3.893   3.162  1.00  0.00     0.039 A 
ATOM     27  C   UNL     1       8.609  -2.938   2.279  1.00  0.00     0.014 A 
ATOM     28  C   UNL     1       7.745  -3.515   4.456  1.00  0.00     0.014 A 
ATOM     29  C   UNL     1       8.677  -1.596   2.668  1.00  0.00     0.010 A 
ATOM     30  C   UNL     1       7.692  -2.168   4.797  1.00  0.00     0.010 A 
ATOM     31  C   UNL     1       8.168  -1.191   3.912  1.00  0.00    -0.014 A 
BRANCH  31  32
ATOM     32  C   UNL     1       8.139   0.238   4.323  1.00  0.00     0.031 A 
ATOM     33  C   UNL     1       8.857   0.678   5.574  1.00  0.00     0.074 A 
ATOM     34  C   UNL     1       7.402   1.124   3.623  1.00  0.00     0.049 A 
ATOM     35  N   UNL     1       8.876   1.856   6.144  1.00  0.00    -0.248 NA
ATOM     36  C   UNL     1       9.627  -0.348   6.298  1.00  0.00     0.031 C 
ATOM     37  C   UNL     1       6.614   0.818   2.426  1.00  0.00     0.029 A 
ATOM     38  N   UNL     1       7.188   2.466   3.822  1.00  0.00    -0.354 N 
ATOM     39  C   UNL     1       9.629   1.703   7.303  1.00  0.00     0.074 A 
ATOM     40  C   UNL     1       9.997   0.307   7.387  1.00  0.00     0.031 C 
ATOM     41  C   UNL     1       6.039   1.944   1.976  1.00  0.00     0.029 A 
ATOM     42  C   UNL     1       6.375   3.043   2.876  1.00  0.00     0.049 A 
ATOM     43  H   UNL     1       7.581   2.967   4.573  1.00  0.00     0.167 HD
ATOM     44  C   UNL     1      10.006   2.641   8.204  1.00  0.00     0.031 A 
ATOM     45  C   UNL     1       5.943   4.313   2.746  1.00  0.00     0.031 A 
ATOM     46  C   UNL     1       9.662   4.033   8.105  1.00  0.00     0.049 A 
ATOM     47  C   UNL     1       6.381   5.341   3.752  1.00  0.00     0.074 A 
ATOM     48  C   UNL     1      10.048   5.076   8.928  1.00  0.00     0.029 A 
ATOM     49  N   UNL     1       8.853   4.579   7.119  1.00  0.00    -0.354 N 
ATOM     50  N   UNL     1       7.147   5.188   4.806  1.00  0.00    -0.248 NA
ATOM     51  C   UNL     1       5.904   6.715   3.546  1.00  0.00     0.031 C 
ATOM     52  C   UNL     1       9.434   6.245   8.467  1.00  0.00     0.029 A 
ATOM     53  C   UNL     1       8.711   5.940   7.324  1.00  0.00     0.049 A 
ATOM     54  H   UNL     1       8.441   4.073   6.382  1.00  0.00     0.167 HD
ATOM     55  C   UNL     1       7.267   6.452   5.373  1.00  0.00     0.074 A 
ATOM     56  C   UNL     1       6.505   7.359   4.538  1.00  0.00     0.031 C 
ATOM     57  C   UNL     1       7.947   6.828   6.484  1.00  0.00     0.031 A 
BRANCH  44  58
ATOM     58  C   UNL     1      10.835   2.183   9.376  1.00  0.00    -0.014 A 
ATOM     59  C   UNL     1      12.158   1.735   9.201  1.00  0.00     0.010 A 
ATOM     60  C   UNL     1      10.292   2.214  10.673  1.00  0.00     0.010 A 
ATOM     61  C   UNL     1      12.901   1.275  10.290  1.00  0.00     0.020 A 
ATOM     62  C   UNL     1      11.044   1.785  11.771  1.00  0.00     0.020 A 
ATOM     63  C   UNL     1      12.337   1.297  11.569  1.00  0.00     0.054 A 
BRANCH  63  64
ATOM     64  S   UNL     1      13.327   0.700  12.966  1.00  0.00     0.124 S 
ATOM     65  O   UNL     1      13.303  -0.746  12.754  1.00  0.00    -0.237 OA
ATOM     66  O   UNL     1      14.618   1.345  12.744  1.00  0.00    -0.237 OA
ATOM     67  O   UNL     1      12.592   1.169  14.138  1.00  0.00    -0.744 OA
ENDBRANCH  63  64
ENDBRANCH  44  58
BRANCH  45  68
ATOM     68  C   UNL     1       5.071   4.686   1.599  1.00  0.00    -0.014 A 
ATOM     69  C   UNL     1       5.577   5.470   0.547  1.00  0.00     0.010 A 
ATOM     70  C   UNL     1       3.738   4.238   1.537  1.00  0.00     0.010 A 
ATOM     71  C   UNL     1       4.764   5.810  -0.539  1.00  0.00     0.020 A 
ATOM     72  C   UNL     1       2.931   4.554   0.440  1.00  0.00     0.020 A 
ATOM     73  C   UNL     1       3.447   5.346  -0.587  1.00  0.00     0.054 A 
BRANCH  73  74
ATOM     74  S   UNL     1       2.432   5.746  -2.037  1.00  0.00     0.124 S 
ATOM     75  O   UNL     1       2.139   7.159  -1.822  1.00  0.00    -0.237 OA
ATOM     76  O   UNL     1       3.334   5.447  -3.146  1.00  0.00    -0.237 OA
ATOM     77  O   UNL     1       1.289   4.843  -1.913  1.00  0.00    -0.744 OA
ENDBRANCH  73  74
ENDBRANCH  45  68
BRANCH  57  78
ATOM     78  C   UNL     1       7.927   8.288   6.848  1.00  0.00    -0.014 A 
ATOM     79  C   UNL     1       6.773   8.893   7.375  1.00  0.00     0.010 A 
ATOM     80  C   UNL     1       9.102   9.051   6.713  1.00  0.00     0.010 A 
ATOM     81  C   UNL     1       6.785  10.243   7.732  1.00  0.00     0.020 A 
ATOM     82  C   UNL     1       9.126  10.394   7.095  1.00  0.00     0.020 A 
ATOM     83  C   UNL     1       7.962  10.986   7.590  1.00  0.00     0.054 A 
BRANCH  83  84
ATOM     84  S   UNL     1       7.965  12.725   8.105  1.00  0.00     0.124 S 
ATOM     85  O   UNL     1       7.204  13.360   7.032  1.00  0.00    -0.237 OA
ATOM     86  O   UNL     1       7.299  12.676   9.404  1.00  0.00    -0.237 OA
ATOM     87  O   UNL     1       9.384  13.070   8.152  1.00  0.00    -0.744 OA
ENDBRANCH  83  84
ENDBRANCH  57  78
ENDBRANCH  31  32
ENDBRANCH  23  26
ENDBRANCH  21  22
ENDBRANCH   1  21
TORSDOF 15
