REMARK SMILES Nc1ccc2[nH]cc(C(=O)NCCCNC(=O)c3ccc(-c4c5nc(c(-c6ccc(S(=O)(=O)[O-])cc6)c6ccc([nH]6)c(-c6ccc(S(=O)(=O)[O-])cc6)c6nc(c(-c7ccc(S(=O)(=O)[O-])cc7)c7ccc4[nH]7)C=C6)C=C5)cc3)c2c1
REMARK SMILES IDX 14 1 13 2 12 3 11 4 9 5 10 6 8 8 2 9 3 10 79 11 4 12 78 13
REMARK SMILES IDX 5 14 6 15 7 16 1 18 15 21 16 22 17 24 18 25 19 26 77 27
REMARK SMILES IDX 20 28 76 29 21 30 22 31 23 32 70 33 24 34 75 35 69 36 71 37
REMARK SMILES IDX 25 38 74 39 68 40 67 41 26 43 56 44 37 45 55 46 38 47 41 48
REMARK SMILES IDX 54 49 72 50 39 51 40 52 53 54 73 55 42 56 27 57 28 58 36 59
REMARK SMILES IDX 29 60 35 61 30 62 31 63 32 64 33 65 34 66 57 67 58 68 66 69
REMARK SMILES IDX 59 70 65 71 60 72 61 73 62 74 63 75 64 76 43 77 44 78 52 79
REMARK SMILES IDX 45 80 51 81 46 82 47 83 48 84 49 85 50 86
REMARK H PARENT 11 7 6 17 1 19 1 20 15 23 71 42 41 53
REMARK Flexibility Score: inf
ROOT
ATOM      1  C   UNL     1      -1.538   1.144  -4.733  1.00  0.00     0.118 C 
ENDROOT
BRANCH   1   2
ATOM      2  C   UNL     1      -1.275   0.254  -3.513  1.00  0.00     0.042 C 
BRANCH   2   3
ATOM      3  C   UNL     1      -2.533   0.018  -2.668  1.00  0.00     0.118 C 
BRANCH   3   4
ATOM      4  N   UNL     1      -3.242  -1.176  -3.042  1.00  0.00    -0.352 N 
ATOM      5  C   UNL     1      -3.365  -2.407  -2.465  1.00  0.00     0.253 C 
ATOM      6  O   UNL     1      -4.282  -3.082  -2.956  1.00  0.00    -0.269 OA
ATOM      7  H   UNL     1      -3.741  -1.087  -3.886  1.00  0.00     0.163 HD
BRANCH   5   8
ATOM      8  C   UNL     1      -2.517  -2.979  -1.401  1.00  0.00     0.065 A 
ATOM      9  C   UNL     1       0.561  -1.468   0.493  1.00  0.00     0.032 A 
ATOM     10  C   UNL     1       0.861  -2.624   1.195  1.00  0.00     0.027 A 
ATOM     11  C   UNL     1      -0.557  -1.456  -0.360  1.00  0.00     0.036 A 
ATOM     12  C   UNL     1       0.087  -3.772   1.047  1.00  0.00     0.029 A 
ATOM     13  C   UNL     1      -1.372  -2.599  -0.580  1.00  0.00     0.014 A 
ATOM     14  C   UNL     1      -1.008  -3.728   0.174  1.00  0.00     0.046 A 
ATOM     15  N   UNL     1      -1.900  -4.726  -0.107  1.00  0.00    -0.360 N 
ATOM     16  C   UNL     1      -2.797  -4.295  -1.027  1.00  0.00     0.097 A 
ATOM     17  H   UNL     1      -1.891  -5.623   0.299  1.00  0.00     0.166 HD
BRANCH   9  18
ATOM     18  N   UNL     1       1.278  -0.305   0.730  1.00  0.00    -0.399 N 
ATOM     19  H   UNL     1       2.060  -0.322   1.328  1.00  0.00     0.156 HD
ATOM     20  H   UNL     1       1.006   0.537   0.299  1.00  0.00     0.156 HD
ENDBRANCH   9  18
ENDBRANCH   5   8
ENDBRANCH   3   4
ENDBRANCH   2   3
ENDBRANCH   1   2
BRANCH   1  21
ATOM     21  N   UNL     1      -2.165   2.409  -4.389  1.00  0.00    -0.352 N 
ATOM     22  C   UNL     1      -1.757   3.655  -4.016  1.00  0.00     0.251 C 
ATOM     23  H   UNL     1      -3.146   2.350  -4.439  1.00  0.00     0.163 HD
ATOM     24  O   UNL     1      -2.673   4.457  -3.807  1.00  0.00    -0.269 OA
BRANCH  22  25
ATOM     25  C   UNL     1      -0.355   4.106  -3.806  1.00  0.00     0.039 A 
ATOM     26  C   UNL     1       0.793   3.325  -3.927  1.00  0.00     0.014 A 
ATOM     27  C   UNL     1      -0.214   5.450  -3.401  1.00  0.00     0.014 A 
ATOM     28  C   UNL     1       2.036   3.855  -3.568  1.00  0.00     0.010 A 
ATOM     29  C   UNL     1       1.021   5.982  -3.049  1.00  0.00     0.010 A 
ATOM     30  C   UNL     1       2.144   5.168  -3.086  1.00  0.00    -0.014 A 
BRANCH  30  31
ATOM     31  C   UNL     1       3.468   5.702  -2.762  1.00  0.00     0.031 A 
ATOM     32  C   UNL     1       4.407   5.716  -3.915  1.00  0.00     0.074 A 
ATOM     33  C   UNL     1       3.817   6.240  -1.572  1.00  0.00     0.049 A 
ATOM     34  N   UNL     1       5.461   4.988  -4.074  1.00  0.00    -0.248 NA
ATOM     35  C   UNL     1       4.052   6.521  -5.095  1.00  0.00     0.031 C 
ATOM     36  C   UNL     1       2.946   6.540  -0.431  1.00  0.00     0.029 A 
ATOM     37  N   UNL     1       5.030   6.715  -1.156  1.00  0.00    -0.354 N 
ATOM     38  C   UNL     1       6.025   5.389  -5.282  1.00  0.00     0.074 A 
ATOM     39  C   UNL     1       5.038   6.207  -5.937  1.00  0.00     0.031 C 
ATOM     40  C   UNL     1       3.600   7.342   0.443  1.00  0.00     0.029 A 
ATOM     41  C   UNL     1       4.981   7.474   0.011  1.00  0.00     0.049 A 
ATOM     42  H   UNL     1       5.868   6.536  -1.641  1.00  0.00     0.167 HD
ATOM     43  C   UNL     1       7.350   5.207  -5.538  1.00  0.00     0.031 A 
ATOM     44  C   UNL     1       6.002   8.162   0.585  1.00  0.00     0.031 A 
ATOM     45  C   UNL     1       7.945   4.300  -4.594  1.00  0.00     0.049 A 
ATOM     46  C   UNL     1       7.259   7.531   0.130  1.00  0.00     0.074 A 
ATOM     47  C   UNL     1       7.901   2.945  -4.357  1.00  0.00     0.029 A 
ATOM     48  N   UNL     1       8.419   4.903  -3.458  1.00  0.00    -0.354 N 
ATOM     49  N   UNL     1       7.606   6.317   0.450  1.00  0.00    -0.248 NA
ATOM     50  C   UNL     1       7.998   8.127  -0.973  1.00  0.00     0.031 C 
ATOM     51  C   UNL     1       8.093   2.795  -2.953  1.00  0.00     0.029 A 
ATOM     52  C   UNL     1       8.312   4.053  -2.388  1.00  0.00     0.049 A 
ATOM     53  H   UNL     1       8.784   5.817  -3.416  1.00  0.00     0.167 HD
ATOM     54  C   UNL     1       8.274   5.848  -0.665  1.00  0.00     0.074 A 
ATOM     55  C   UNL     1       8.634   7.042  -1.423  1.00  0.00     0.031 C 
ATOM     56  C   UNL     1       8.210   4.532  -1.020  1.00  0.00     0.031 A 
BRANCH  43  57
ATOM     57  C   UNL     1       8.193   6.162  -6.352  1.00  0.00    -0.014 A 
ATOM     58  C   UNL     1       7.762   7.456  -6.708  1.00  0.00     0.010 A 
ATOM     59  C   UNL     1       9.560   5.872  -6.556  1.00  0.00     0.010 A 
ATOM     60  C   UNL     1       8.625   8.399  -7.270  1.00  0.00     0.020 A 
ATOM     61  C   UNL     1      10.445   6.825  -7.085  1.00  0.00     0.020 A 
ATOM     62  C   UNL     1       9.965   8.080  -7.453  1.00  0.00     0.054 A 
BRANCH  62  63
ATOM     63  S   UNL     1      11.060   9.348  -8.136  1.00  0.00     0.124 S 
ATOM     64  O   UNL     1      10.544   9.484  -9.498  1.00  0.00    -0.237 OA
ATOM     65  O   UNL     1      10.806  10.488  -7.253  1.00  0.00    -0.237 OA
ATOM     66  O   UNL     1      12.385   8.758  -8.026  1.00  0.00    -0.744 OA
ENDBRANCH  62  63
ENDBRANCH  43  57
BRANCH  44  67
ATOM     67  C   UNL     1       5.992   9.538   1.151  1.00  0.00    -0.014 A 
ATOM     68  C   UNL     1       5.064  10.479   0.666  1.00  0.00     0.010 A 
ATOM     69  C   UNL     1       7.100  10.023   1.879  1.00  0.00     0.010 A 
ATOM     70  C   UNL     1       5.288  11.855   0.803  1.00  0.00     0.020 A 
ATOM     71  C   UNL     1       7.330  11.403   2.022  1.00  0.00     0.020 A 
ATOM     72  C   UNL     1       6.442  12.310   1.442  1.00  0.00     0.054 A 
BRANCH  72  73
ATOM     73  S   UNL     1       6.805  14.091   1.403  1.00  0.00     0.124 S 
ATOM     74  O   UNL     1       7.060  14.318  -0.018  1.00  0.00    -0.237 OA
ATOM     75  O   UNL     1       5.568  14.676   1.917  1.00  0.00    -0.237 OA
ATOM     76  O   UNL     1       7.966  14.230   2.276  1.00  0.00    -0.744 OA
ENDBRANCH  72  73
ENDBRANCH  44  67
BRANCH  56  77
ATOM     77  C   UNL     1       7.825   3.519   0.033  1.00  0.00    -0.014 A 
ATOM     78  C   UNL     1       8.720   2.454   0.243  1.00  0.00     0.010 A 
ATOM     79  C   UNL     1       6.589   3.498   0.708  1.00  0.00     0.010 A 
ATOM     80  C   UNL     1       8.381   1.375   1.058  1.00  0.00     0.020 A 
ATOM     81  C   UNL     1       6.254   2.429   1.556  1.00  0.00     0.020 A 
ATOM     82  C   UNL     1       7.143   1.361   1.702  1.00  0.00     0.054 A 
BRANCH  82  83
ATOM     83  S   UNL     1       6.722  -0.091   2.702  1.00  0.00     0.124 S 
ATOM     84  O   UNL     1       6.538  -1.124   1.685  1.00  0.00    -0.237 OA
ATOM     85  O   UNL     1       7.902  -0.253   3.549  1.00  0.00    -0.237 OA
ATOM     86  O   UNL     1       5.503   0.303   3.405  1.00  0.00    -0.744 OA
ENDBRANCH  82  83
ENDBRANCH  56  77
ENDBRANCH  30  31
ENDBRANCH  22  25
ENDBRANCH   1  21
TORSDOF 14
