REMARK SMILES COc1cc2c(CC(=O)NCCCNC(=O)c3ccc(-c4c5nc(c(-c6ccc(S(=O)(=O)[O-])cc6)c6ccc([nH]6)c(-c6ccc(S(=O)(=O)[O-])cc6)c6nc(c(-c7ccc(S(=O)(=O)[O-])cc7)c7ccc4[nH]7)C=C6)C=C5)cc3)c(C)n(C(=O)c3ccc(Cl)cc3)c2cc1Cl
REMARK SMILES IDX 12 1 11 2 10 3 8 4 9 5 7 7 6 8 3 9 4 10 91 11 5 12 90 13
REMARK SMILES IDX 92 14 89 15 77 16 79 17 78 18 2 19 1 20 80 21 81 22 82 23
REMARK SMILES IDX 83 24 88 25 84 26 87 27 85 28 86 29 13 30 14 31 15 32 16 34
REMARK SMILES IDX 17 35 18 36 76 37 19 38 75 39 20 40 21 41 22 42 69 43 23 44
REMARK SMILES IDX 74 45 68 46 70 47 24 48 73 49 67 50 66 51 25 53 55 54 36 55
REMARK SMILES IDX 54 56 37 57 40 58 53 59 71 60 38 61 39 62 52 64 72 65 41 66
REMARK SMILES IDX 26 67 27 68 35 69 28 70 34 71 29 72 30 73 31 74 32 75 33 76
REMARK SMILES IDX 56 77 57 78 65 79 58 80 64 81 59 82 60 83 61 84 62 85 63 86
REMARK SMILES IDX 42 87 43 88 51 89 44 90 50 91 45 92 46 93 47 94 48 95 49 96
REMARK H PARENT 10 6 14 33 70 52 40 63
REMARK Flexibility Score: inf
ROOT
ATOM      1  C   UNL     1       0.831   4.694   6.425  1.00  0.00     0.042 C 
ENDROOT
BRANCH   1   2
ATOM      2  C   UNL     1      -0.597   4.348   6.857  1.00  0.00     0.117 C 
BRANCH   2   3
ATOM      3  N   UNL     1      -1.493   4.122   5.734  1.00  0.00    -0.356 N 
ATOM      4  C   UNL     1      -2.030   2.953   5.276  1.00  0.00     0.224 C 
ATOM      5  O   UNL     1      -2.808   3.007   4.318  1.00  0.00    -0.275 OA
ATOM      6  H   UNL     1      -1.749   4.929   5.231  1.00  0.00     0.163 HD
BRANCH   4   7
ATOM      7  C   UNL     1      -1.724   1.631   5.963  1.00  0.00     0.138 C 
BRANCH   7   8
ATOM      8  C   UNL     1      -0.292   1.200   5.825  1.00  0.00    -0.009 A 
ATOM      9  C   UNL     1       1.005   0.861   2.230  1.00  0.00     0.138 A 
ATOM     10  C   UNL     1       0.073   1.137   3.241  1.00  0.00     0.058 A 
ATOM     11  C   UNL     1       2.281   0.433   2.579  1.00  0.00     0.085 A 
ATOM     12  C   UNL     1       0.421   1.004   4.608  1.00  0.00     0.008 A 
ATOM     13  C   UNL     1       2.616   0.224   3.921  1.00  0.00     0.051 A 
ATOM     14  Cl  UNL     1       3.566   0.235   1.438  1.00  0.00    -0.080 Cl
ATOM     15  C   UNL     1       1.710   0.578   4.941  1.00  0.00     0.058 A 
ATOM     16  C   UNL     1       0.566   0.858   6.865  1.00  0.00     0.028 A 
ATOM     17  N   UNL     1       1.851   0.667   6.339  1.00  0.00    -0.280 N 
ATOM     18  C   UNL     1       0.225   0.754   8.322  1.00  0.00     0.065 C 
BRANCH   9  19
ATOM     19  O   UNL     1       0.578   1.125   0.954  1.00  0.00    -0.495 OA
ATOM     20  C   UNL     1       0.712   0.022   0.059  1.00  0.00     0.278 C 
ENDBRANCH   9  19
BRANCH  17  21
ATOM     21  C   UNL     1       3.071   0.626   7.080  1.00  0.00     0.262 C 
ATOM     22  O   UNL     1       3.023   0.824   8.293  1.00  0.00    -0.268 OA
BRANCH  21  23
ATOM     23  C   UNL     1       4.406   0.406   6.496  1.00  0.00     0.040 A 
ATOM     24  C   UNL     1       4.986   1.378   5.672  1.00  0.00     0.015 A 
ATOM     25  C   UNL     1       5.036  -0.825   6.704  1.00  0.00     0.015 A 
ATOM     26  C   UNL     1       6.149   1.068   4.962  1.00  0.00     0.021 A 
ATOM     27  C   UNL     1       6.206  -1.123   6.003  1.00  0.00     0.021 A 
ATOM     28  C   UNL     1       6.740  -0.189   5.114  1.00  0.00     0.041 A 
ATOM     29  Cl  UNL     1       8.112  -0.603   4.160  1.00  0.00    -0.084 Cl
ENDBRANCH  21  23
ENDBRANCH  17  21
ENDBRANCH   7   8
ENDBRANCH   4   7
ENDBRANCH   2   3
ENDBRANCH   1   2
BRANCH   1  30
ATOM     30  C   UNL     1       0.963   6.058   5.748  1.00  0.00     0.118 C 
BRANCH  30  31
ATOM     31  N   UNL     1       0.479   7.170   6.543  1.00  0.00    -0.352 N 
ATOM     32  C   UNL     1       1.013   8.025   7.466  1.00  0.00     0.251 C 
ATOM     33  H   UNL     1      -0.472   7.357   6.375  1.00  0.00     0.163 HD
ATOM     34  O   UNL     1       0.279   8.962   7.797  1.00  0.00    -0.269 OA
BRANCH  32  35
ATOM     35  C   UNL     1       2.337   7.886   8.137  1.00  0.00     0.039 A 
ATOM     36  C   UNL     1       3.325   6.951   7.831  1.00  0.00     0.014 A 
ATOM     37  C   UNL     1       2.565   8.771   9.212  1.00  0.00     0.014 A 
ATOM     38  C   UNL     1       4.466   6.851   8.634  1.00  0.00     0.010 A 
ATOM     39  C   UNL     1       3.700   8.677  10.012  1.00  0.00     0.010 A 
ATOM     40  C   UNL     1       4.637   7.687   9.748  1.00  0.00    -0.014 A 
BRANCH  40  41
ATOM     41  C   UNL     1       5.895   7.622  10.498  1.00  0.00     0.031 A 
ATOM     42  C   UNL     1       7.086   7.978   9.678  1.00  0.00     0.074 A 
ATOM     43  C   UNL     1       6.009   7.382  11.824  1.00  0.00     0.049 A 
ATOM     44  N   UNL     1       8.040   7.193   9.303  1.00  0.00    -0.248 NA
ATOM     45  C   UNL     1       7.143   9.318   9.071  1.00  0.00     0.031 C 
ATOM     46  C   UNL     1       4.929   7.280  12.810  1.00  0.00     0.029 A 
ATOM     47  N   UNL     1       7.132   7.264  12.598  1.00  0.00    -0.354 N 
ATOM     48  C   UNL     1       8.935   7.987   8.591  1.00  0.00     0.074 A 
ATOM     49  C   UNL     1       8.255   9.231   8.339  1.00  0.00     0.031 C 
ATOM     50  C   UNL     1       5.448   7.343  14.059  1.00  0.00     0.029 A 
ATOM     51  C   UNL     1       6.898   7.335  13.971  1.00  0.00     0.049 A 
ATOM     52  H   UNL     1       8.031   7.138  12.216  1.00  0.00     0.167 HD
ATOM     53  C   UNL     1      10.244   7.635   8.466  1.00  0.00     0.031 A 
ATOM     54  C   UNL     1       7.823   7.403  14.966  1.00  0.00     0.031 A 
ATOM     55  C   UNL     1      10.446   6.257   8.827  1.00  0.00     0.049 A 
ATOM     56  C   UNL     1       9.083   6.851  14.426  1.00  0.00     0.074 A 
ATOM     57  C   UNL     1      10.049   5.041   8.317  1.00  0.00     0.029 A 
ATOM     58  N   UNL     1      10.849   6.040  10.121  1.00  0.00    -0.354 N 
ATOM     59  N   UNL     1       9.242   5.601  14.100  1.00  0.00    -0.248 NA
ATOM     60  C   UNL     1      10.069   7.774  13.888  1.00  0.00     0.031 C 
ATOM     61  C   UNL     1       9.866   4.204   9.453  1.00  0.00     0.029 A 
ATOM     62  C   UNL     1      10.240   4.912  10.599  1.00  0.00     0.049 A 
ATOM     63  H   UNL     1      11.477   6.606  10.626  1.00  0.00     0.167 HD
ATOM     64  C   UNL     1      10.048   5.641  12.975  1.00  0.00     0.074 A 
ATOM     65  C   UNL     1      10.634   6.979  12.977  1.00  0.00     0.031 C 
ATOM     66  C   UNL     1       9.938   4.690  12.002  1.00  0.00     0.031 A 
BRANCH  53  67
ATOM     67  C   UNL     1      11.392   8.619   8.424  1.00  0.00    -0.014 A 
ATOM     68  C   UNL     1      11.249   9.999   8.663  1.00  0.00     0.010 A 
ATOM     69  C   UNL     1      12.713   8.117   8.392  1.00  0.00     0.010 A 
ATOM     70  C   UNL     1      12.351  10.838   8.850  1.00  0.00     0.020 A 
ATOM     71  C   UNL     1      13.824   8.942   8.619  1.00  0.00     0.020 A 
ATOM     72  C   UNL     1      13.633  10.303   8.835  1.00  0.00     0.054 A 
BRANCH  72  73
ATOM     73  S   UNL     1      15.027  11.415   9.137  1.00  0.00     0.124 S 
ATOM     74  O   UNL     1      14.990  12.266   7.950  1.00  0.00    -0.237 OA
ATOM     75  O   UNL     1      14.647  12.062  10.389  1.00  0.00    -0.237 OA
ATOM     76  O   UNL     1      16.173  10.513   9.223  1.00  0.00    -0.744 OA
ENDBRANCH  72  73
ENDBRANCH  53  67
BRANCH  54  77
ATOM     77  C   UNL     1       7.816   8.249  16.195  1.00  0.00    -0.014 A 
ATOM     78  C   UNL     1       7.060   9.437  16.218  1.00  0.00     0.010 A 
ATOM     79  C   UNL     1       8.804   8.086  17.192  1.00  0.00     0.010 A 
ATOM     80  C   UNL     1       7.345  10.464  17.127  1.00  0.00     0.020 A 
ATOM     81  C   UNL     1       9.095   9.114  18.108  1.00  0.00     0.020 A 
ATOM     82  C   UNL     1       8.390  10.316  18.038  1.00  0.00     0.054 A 
BRANCH  82  83
ATOM     83  S   UNL     1       8.865  11.754  19.045  1.00  0.00     0.124 S 
ATOM     84  O   UNL     1       9.405  12.664  18.039  1.00  0.00    -0.237 OA
ATOM     85  O   UNL     1       7.591  12.160  19.636  1.00  0.00    -0.237 OA
ATOM     86  O   UNL     1       9.840  11.213  19.988  1.00  0.00    -0.744 OA
ENDBRANCH  82  83
ENDBRANCH  54  77
BRANCH  66  87
ATOM     87  C   UNL     1       9.264   3.374  12.327  1.00  0.00    -0.014 A 
ATOM     88  C   UNL     1       9.985   2.210  12.002  1.00  0.00     0.010 A 
ATOM     89  C   UNL     1       7.923   3.238  12.739  1.00  0.00     0.010 A 
ATOM     90  C   UNL     1       9.380   0.956  12.019  1.00  0.00     0.020 A 
ATOM     91  C   UNL     1       7.316   1.971  12.792  1.00  0.00     0.020 A 
ATOM     92  C   UNL     1       8.042   0.842  12.398  1.00  0.00     0.054 A 
BRANCH  92  93
ATOM     93  S   UNL     1       7.286  -0.805  12.338  1.00  0.00     0.124 S 
ATOM     94  O   UNL     1       7.170  -1.044  10.900  1.00  0.00    -0.237 OA
ATOM     95  O   UNL     1       8.271  -1.638  13.026  1.00  0.00    -0.237 OA
ATOM     96  O   UNL     1       6.018  -0.642  13.045  1.00  0.00    -0.744 OA
ENDBRANCH  92  93
ENDBRANCH  66  87
ENDBRANCH  40  41
ENDBRANCH  32  35
ENDBRANCH  30  31
ENDBRANCH   1  30
TORSDOF 17
