REMARK SMILES O=C(NCCCNC(=O)[C@@H](c1ccccc1)[C@H](C(=O)c1ccccc1)c1ccccc1)c1ccc(-c2c3nc(c(-c4ccc(S(=O)(=O)[O-])cc4)c4ccc([nH]4)c(-c4ccc(S(=O)(=O)[O-])cc4)c4nc(c(-c5ccc(S(=O)(=O)[O-])cc5)c5ccc2[nH]5)C=C4)C=C3)cc1
REMARK SMILES IDX 5 1 4 2 3 3 1 4 2 5 32 7 33 8 91 9 34 10 90 11 35 12 36 13
REMARK SMILES IDX 37 14 84 15 38 16 89 17 83 18 85 19 39 20 88 21 82 22 81 23
REMARK SMILES IDX 40 25 70 26 51 27 69 28 52 29 55 30 68 31 86 32 53 33 54 34
REMARK SMILES IDX 67 36 87 37 56 38 41 39 42 40 50 41 43 42 49 43 44 44 45 45
REMARK SMILES IDX 46 46 47 47 48 48 71 49 72 50 80 51 73 52 79 53 74 54 75 55
REMARK SMILES IDX 76 56 77 57 78 58 57 59 58 60 66 61 59 62 65 63 60 64 61 65
REMARK SMILES IDX 62 66 63 67 64 68 6 69 7 70 8 71 9 73 10 74 11 75 12 76
REMARK SMILES IDX 16 77 13 78 15 79 14 80 17 81 26 82 27 83 31 84 28 85 30 86
REMARK SMILES IDX 29 87 18 88 19 89 20 90 21 91 25 92 22 93 24 94 23 95
REMARK H PARENT 3 6 85 24 55 35 7 72
REMARK Flexibility Score: inf
ROOT
ATOM      1  C   UNL     1       8.072   9.408  -1.119  1.00  0.00     0.042 C 
ENDROOT
BRANCH   1   2
ATOM      2  C   UNL     1       8.561   9.527   0.312  1.00  0.00     0.118 C 
BRANCH   2   3
ATOM      3  N   UNL     1       9.659   8.609   0.605  1.00  0.00    -0.352 N 
ATOM      4  O   UNL     1      11.821   7.977   0.788  1.00  0.00    -0.269 OA
ATOM      5  C   UNL     1      11.004   8.878   0.743  1.00  0.00     0.251 C 
ATOM      6  H   UNL     1       9.402   7.665   0.719  1.00  0.00     0.163 HD
BRANCH   5   7
ATOM      7  C   UNL     1      11.421  10.293   0.810  1.00  0.00     0.039 A 
ATOM      8  C   UNL     1      10.690  11.178   1.600  1.00  0.00     0.014 A 
ATOM      9  C   UNL     1      12.485  10.748   0.030  1.00  0.00     0.014 A 
ATOM     10  C   UNL     1      10.864  12.537   1.432  1.00  0.00     0.010 A 
ATOM     11  C   UNL     1      12.768  12.115  -0.005  1.00  0.00     0.010 A 
ATOM     12  C   UNL     1      11.937  13.023   0.670  1.00  0.00    -0.014 A 
BRANCH  12  13
ATOM     13  C   UNL     1      12.212  14.480   0.697  1.00  0.00     0.031 A 
ATOM     14  C   UNL     1      12.201  15.308  -0.556  1.00  0.00     0.074 A 
ATOM     15  C   UNL     1      12.429  15.050   1.900  1.00  0.00     0.049 A 
ATOM     16  N   UNL     1      12.440  16.588  -0.688  1.00  0.00    -0.248 NA
ATOM     17  C   UNL     1      11.899  14.621  -1.822  1.00  0.00     0.031 C 
ATOM     18  C   UNL     1      12.457  14.331   3.181  1.00  0.00     0.029 A 
ATOM     19  N   UNL     1      12.627  16.356   2.256  1.00  0.00    -0.354 N 
ATOM     20  C   UNL     1      12.359  16.853  -2.050  1.00  0.00     0.074 A 
ATOM     21  C   UNL     1      12.053  15.600  -2.706  1.00  0.00     0.031 C 
ATOM     22  C   UNL     1      12.573  15.212   4.181  1.00  0.00     0.029 A 
ATOM     23  C   UNL     1      12.739  16.541   3.613  1.00  0.00     0.049 A 
ATOM     24  H   UNL     1      12.684  17.092   1.604  1.00  0.00     0.167 HD
ATOM     25  C   UNL     1      12.535  18.036  -2.688  1.00  0.00     0.031 A 
ATOM     26  C   UNL     1      12.985  17.651   4.330  1.00  0.00     0.031 A 
ATOM     27  C   UNL     1      12.828  19.275  -2.014  1.00  0.00     0.049 A 
ATOM     28  C   UNL     1      13.185  18.939   3.597  1.00  0.00     0.074 A 
ATOM     29  C   UNL     1      13.012  20.532  -2.562  1.00  0.00     0.029 A 
ATOM     30  N   UNL     1      12.976  19.413  -0.640  1.00  0.00    -0.354 N 
ATOM     31  N   UNL     1      13.120  19.165   2.307  1.00  0.00    -0.248 NA
ATOM     32  C   UNL     1      13.507  20.116   4.409  1.00  0.00     0.031 C 
ATOM     33  C   UNL     1      13.314  21.422  -1.525  1.00  0.00     0.029 A 
ATOM     34  C   UNL     1      13.267  20.730  -0.325  1.00  0.00     0.049 A 
ATOM     35  H   UNL     1      12.888  18.683   0.014  1.00  0.00     0.167 HD
ATOM     36  C   UNL     1      13.392  20.515   2.149  1.00  0.00     0.074 A 
ATOM     37  C   UNL     1      13.593  21.058   3.480  1.00  0.00     0.031 C 
ATOM     38  C   UNL     1      13.474  21.240   1.007  1.00  0.00     0.031 A 
BRANCH  25  39
ATOM     39  C   UNL     1      12.457  18.041  -4.193  1.00  0.00    -0.014 A 
ATOM     40  C   UNL     1      11.229  17.904  -4.865  1.00  0.00     0.010 A 
ATOM     41  C   UNL     1      13.630  18.232  -4.947  1.00  0.00     0.010 A 
ATOM     42  C   UNL     1      11.182  17.922  -6.264  1.00  0.00     0.020 A 
ATOM     43  C   UNL     1      13.584  18.274  -6.344  1.00  0.00     0.020 A 
ATOM     44  C   UNL     1      12.361  18.102  -6.995  1.00  0.00     0.054 A 
BRANCH  44  45
ATOM     45  S   UNL     1      12.269  18.139  -8.807  1.00  0.00     0.124 S 
ATOM     46  O   UNL     1      12.061  16.729  -9.126  1.00  0.00    -0.237 OA
ATOM     47  O   UNL     1      11.124  19.013  -9.053  1.00  0.00    -0.237 OA
ATOM     48  O   UNL     1      13.563  18.684  -9.209  1.00  0.00    -0.744 OA
ENDBRANCH  44  45
ENDBRANCH  25  39
BRANCH  26  49
ATOM     49  C   UNL     1      13.091  17.558   5.810  1.00  0.00    -0.014 A 
ATOM     50  C   UNL     1      12.095  18.105   6.635  1.00  0.00     0.010 A 
ATOM     51  C   UNL     1      14.162  16.859   6.398  1.00  0.00     0.010 A 
ATOM     52  C   UNL     1      12.171  17.958   8.024  1.00  0.00     0.020 A 
ATOM     53  C   UNL     1      14.224  16.682   7.781  1.00  0.00     0.020 A 
ATOM     54  C   UNL     1      13.233  17.243   8.587  1.00  0.00     0.054 A 
BRANCH  54  55
ATOM     55  S   UNL     1      13.274  16.999  10.384  1.00  0.00     0.124 S 
ATOM     56  O   UNL     1      13.741  18.299  10.854  1.00  0.00    -0.237 OA
ATOM     57  O   UNL     1      11.883  16.675  10.693  1.00  0.00    -0.237 OA
ATOM     58  O   UNL     1      14.214  15.893  10.556  1.00  0.00    -0.744 OA
ENDBRANCH  54  55
ENDBRANCH  26  49
BRANCH  38  59
ATOM     59  C   UNL     1      13.777  22.703   1.160  1.00  0.00    -0.014 A 
ATOM     60  C   UNL     1      15.070  23.143   1.491  1.00  0.00     0.010 A 
ATOM     61  C   UNL     1      12.758  23.648   0.944  1.00  0.00     0.010 A 
ATOM     62  C   UNL     1      15.332  24.506   1.637  1.00  0.00     0.020 A 
ATOM     63  C   UNL     1      13.023  25.013   1.065  1.00  0.00     0.020 A 
ATOM     64  C   UNL     1      14.306  25.432   1.426  1.00  0.00     0.054 A 
BRANCH  64  65
ATOM     65  S   UNL     1      14.676  27.200   1.586  1.00  0.00     0.124 S 
ATOM     66  O   UNL     1      14.729  27.367   3.036  1.00  0.00    -0.237 OA
ATOM     67  O   UNL     1      15.956  27.325   0.892  1.00  0.00    -0.237 OA
ATOM     68  O   UNL     1      13.549  27.850   0.923  1.00  0.00    -0.744 OA
ENDBRANCH  64  65
ENDBRANCH  38  59
ENDBRANCH  12  13
ENDBRANCH   5   7
ENDBRANCH   2   3
ENDBRANCH   1   2
BRANCH   1  69
ATOM     69  C   UNL     1       7.323   8.114  -1.312  1.00  0.00     0.117 C 
BRANCH  69  70
ATOM     70  N   UNL     1       6.080   8.116  -0.558  1.00  0.00    -0.355 N 
ATOM     71  C   UNL     1       4.799   7.915  -0.950  1.00  0.00     0.228 C 
ATOM     72  H   UNL     1       6.187   8.295   0.404  1.00  0.00     0.163 HD
ATOM     73  O   UNL     1       3.917   8.005  -0.089  1.00  0.00    -0.274 OA
BRANCH  71  74
ATOM     74  C   UNL     1       4.432   7.593  -2.400  1.00  0.00     0.124 C 
BRANCH  74  75
ATOM     75  C   UNL     1       4.268   8.944  -3.117  1.00  0.00    -0.035 A 
ATOM     76  C   UNL     1       5.348   9.763  -3.489  1.00  0.00     0.004 A 
ATOM     77  C   UNL     1       2.971   9.442  -3.364  1.00  0.00     0.004 A 
ATOM     78  C   UNL     1       5.150  11.021  -4.066  1.00  0.00     0.000 A 
ATOM     79  C   UNL     1       2.773  10.690  -3.965  1.00  0.00     0.000 A 
ATOM     80  C   UNL     1       3.863  11.483  -4.308  1.00  0.00     0.000 A 
ENDBRANCH  74  75
BRANCH  74  81
ATOM     81  C   UNL     1       5.031   6.243  -3.031  1.00  0.00     0.108 C 
BRANCH  81  82
ATOM     82  C   UNL     1       5.374   6.208  -4.561  1.00  0.00    -0.036 A 
ATOM     83  C   UNL     1       6.005   5.073  -5.116  1.00  0.00     0.004 A 
ATOM     84  C   UNL     1       5.081   7.225  -5.480  1.00  0.00     0.004 A 
ATOM     85  C   UNL     1       6.478   5.045  -6.436  1.00  0.00     0.000 A 
ATOM     86  C   UNL     1       5.564   7.218  -6.796  1.00  0.00     0.000 A 
ATOM     87  C   UNL     1       6.289   6.138  -7.268  1.00  0.00     0.000 A 
ENDBRANCH  81  82
BRANCH  81  88
ATOM     88  C   UNL     1       6.156   5.505  -2.183  1.00  0.00     0.171 C 
ATOM     89  O   UNL     1       7.261   5.242  -2.674  1.00  0.00    -0.293 OA
BRANCH  88  90
ATOM     90  C   UNL     1       6.035   5.130  -0.724  1.00  0.00     0.018 A 
ATOM     91  C   UNL     1       7.253   4.980  -0.019  1.00  0.00     0.012 A 
ATOM     92  C   UNL     1       4.845   5.114   0.000  1.00  0.00     0.012 A 
ATOM     93  C   UNL     1       7.295   4.995   1.375  1.00  0.00     0.001 A 
ATOM     94  C   UNL     1       4.891   5.126   1.405  1.00  0.00     0.001 A 
ATOM     95  C   UNL     1       6.110   5.102   2.088  1.00  0.00     0.000 A 
ENDBRANCH  88  90
ENDBRANCH  81  88
ENDBRANCH  74  81
ENDBRANCH  71  74
ENDBRANCH  69  70
ENDBRANCH   1  69
TORSDOF 18
