REMARK SMILES Cc1ccc(-c2cnnc(-n3nc(C)c4c3NC(=O)C[C@@H]4c3ccc(C(=O)NCCCNC(=O)c4ccc(-c5c6nc(c(-c7ccc(S(=O)(=O)[O-])cc7)c7ccc([nH]7)c(-c7ccc(S(=O)(=O)[O-])cc7)c7nc(c(-c8ccc(S(=O)(=O)[O-])cc8)c8ccc5[nH]8)C=C7)C=C6)cc4)cc3)n2)cc1
REMARK SMILES IDX 30 1 29 2 28 3 26 4 27 5 25 7 22 8 23 9 96 10 24 11 95 12
REMARK SMILES IDX 21 13 11 14 12 15 16 16 13 17 15 18 17 19 14 20 18 21 20 23
REMARK SMILES IDX 19 24 10 25 6 26 7 27 97 28 8 29 9 30 5 31 1 32 2 33 3 34
REMARK SMILES IDX 99 35 4 36 98 37 31 38 32 39 33 40 34 42 35 43 36 44 94 45
REMARK SMILES IDX 37 46 93 47 38 48 39 49 40 50 87 51 41 52 92 53 86 54 88 55
REMARK SMILES IDX 42 56 91 57 85 58 84 59 43 61 73 62 54 63 72 64 55 65 58 66
REMARK SMILES IDX 71 67 89 68 56 69 57 70 70 72 90 73 59 74 44 75 45 76 53 77
REMARK SMILES IDX 46 78 52 79 47 80 48 81 49 82 50 83 51 84 74 85 75 86 83 87
REMARK SMILES IDX 76 88 82 89 77 90 78 91 79 92 80 93 81 94 60 95 61 96 69 97
REMARK SMILES IDX 62 98 68 99 63 100 64 101 65 102 66 103 67 104
REMARK H PARENT 28 6 17 22 32 41 88 60 58 71
REMARK Flexibility Score: inf
ROOT
ATOM      1  C   UNL     1     -11.180   6.232  -5.329  1.00  0.00     0.042 C 
ENDROOT
BRANCH   1   2
ATOM      2  C   UNL     1     -11.805   5.189  -6.251  1.00  0.00     0.118 C 
BRANCH   2   3
ATOM      3  N   UNL     1     -11.569   5.439  -7.674  1.00  0.00    -0.352 N 
ATOM      4  C   UNL     1     -10.660   4.847  -8.521  1.00  0.00     0.251 C 
ATOM      5  O   UNL     1     -10.750   4.952  -9.739  1.00  0.00    -0.269 OA
ATOM      6  H   UNL     1     -12.141   6.129  -8.083  1.00  0.00     0.163 HD
BRANCH   4   7
ATOM      7  C   UNL     1      -9.572   4.023  -7.959  1.00  0.00     0.039 A 
ATOM      8  C   UNL     1      -7.726   2.356  -6.670  1.00  0.00    -0.040 A 
ATOM      9  C   UNL     1      -8.524   1.871  -7.727  1.00  0.00     0.005 A 
ATOM     10  C   UNL     1      -7.757   3.728  -6.388  1.00  0.00     0.005 A 
ATOM     11  C   UNL     1      -9.444   2.698  -8.370  1.00  0.00     0.014 A 
ATOM     12  C   UNL     1      -8.674   4.555  -7.035  1.00  0.00     0.014 A 
BRANCH   8  13
ATOM     13  C   UNL     1      -6.915   1.349  -5.888  1.00  0.00     0.064 C 
ATOM     14  N   UNL     1      -5.959   1.923  -2.444  1.00  0.00    -0.180 N 
ATOM     15  N   UNL     1      -7.277   2.212  -2.274  1.00  0.00    -0.168 NA
ATOM     16  C   UNL     1      -5.643   1.952  -3.790  1.00  0.00     0.143 A 
ATOM     17  C   UNL     1      -7.826   2.039  -3.479  1.00  0.00     0.066 A 
ATOM     18  C   UNL     1      -6.834   1.755  -4.456  1.00  0.00     0.026 A 
ATOM     19  N   UNL     1      -4.449   2.061  -4.471  1.00  0.00    -0.310 N 
ATOM     20  C   UNL     1      -9.297   2.199  -3.623  1.00  0.00     0.069 C 
ATOM     21  C   UNL     1      -4.440   1.881  -5.891  1.00  0.00     0.226 C 
ATOM     22  H   UNL     1      -3.615   2.260  -3.988  1.00  0.00     0.171 HD
ATOM     23  C   UNL     1      -5.545   1.049  -6.490  1.00  0.00     0.113 C 
ATOM     24  O   UNL     1      -3.447   2.260  -6.489  1.00  0.00    -0.275 OA
BRANCH  14  25
ATOM     25  C   UNL     1      -5.183   1.370  -1.383  1.00  0.00     0.272 A 
ATOM     26  C   UNL     1      -3.281   0.397  -0.572  1.00  0.00     0.095 A 
ATOM     27  C   UNL     1      -4.022  -0.148   0.465  1.00  0.00     0.164 A 
ATOM     28  N   UNL     1      -3.855   1.145  -1.554  1.00  0.00    -0.208 NA
ATOM     29  N   UNL     1      -5.328   0.108   0.592  1.00  0.00    -0.153 NA
ATOM     30  N   UNL     1      -5.904   0.909  -0.328  1.00  0.00    -0.109 NA
BRANCH  26  31
ATOM     31  C   UNL     1      -1.819   0.270  -0.564  1.00  0.00     0.002 A 
ATOM     32  C   UNL     1       2.457  -0.035   0.049  1.00  0.00     0.044 C 
ATOM     33  C   UNL     1       0.980   0.077  -0.190  1.00  0.00    -0.051 A 
ATOM     34  C   UNL     1       0.195  -1.077  -0.274  1.00  0.00     0.004 A 
ATOM     35  C   UNL     1       0.366   1.325  -0.326  1.00  0.00     0.004 A 
ATOM     36  C   UNL     1      -1.188  -0.982  -0.458  1.00  0.00     0.011 A 
ATOM     37  C   UNL     1      -1.016   1.419  -0.516  1.00  0.00     0.011 A 
ENDBRANCH  26  31
ENDBRANCH  14  25
ENDBRANCH   8  13
ENDBRANCH   4   7
ENDBRANCH   2   3
ENDBRANCH   1   2
BRANCH   1  38
ATOM     38  C   UNL     1     -11.932   7.552  -5.312  1.00  0.00     0.118 C 
BRANCH  38  39
ATOM     39  N   UNL     1     -12.527   7.853  -4.017  1.00  0.00    -0.352 N 
ATOM     40  C   UNL     1     -12.770   9.145  -3.549  1.00  0.00     0.251 C 
ATOM     41  H   UNL     1     -12.773   7.098  -3.436  1.00  0.00     0.163 HD
ATOM     42  O   UNL     1     -12.595   9.505  -2.415  1.00  0.00    -0.269 OA
BRANCH  40  43
ATOM     43  C   UNL     1     -13.383  10.045  -4.554  1.00  0.00     0.039 A 
ATOM     44  C   UNL     1     -14.769  10.229  -4.523  1.00  0.00     0.014 A 
ATOM     45  C   UNL     1     -12.621  10.434  -5.652  1.00  0.00     0.014 A 
ATOM     46  C   UNL     1     -15.420  10.660  -5.676  1.00  0.00     0.010 A 
ATOM     47  C   UNL     1     -13.276  10.746  -6.821  1.00  0.00     0.010 A 
ATOM     48  C   UNL     1     -14.674  10.827  -6.843  1.00  0.00    -0.014 A 
BRANCH  48  49
ATOM     49  C   UNL     1     -15.249  11.074  -8.156  1.00  0.00     0.031 A 
ATOM     50  C   UNL     1     -15.193  12.444  -8.717  1.00  0.00     0.074 A 
ATOM     51  C   UNL     1     -15.685  10.037  -8.907  1.00  0.00     0.049 A 
ATOM     52  N   UNL     1     -15.963  12.882  -9.654  1.00  0.00    -0.248 NA
ATOM     53  C   UNL     1     -14.256  13.454  -8.226  1.00  0.00     0.031 C 
ATOM     54  C   UNL     1     -15.990  10.060 -10.335  1.00  0.00     0.029 A 
ATOM     55  N   UNL     1     -16.142   8.783  -8.492  1.00  0.00    -0.354 N 
ATOM     56  C   UNL     1     -15.424  14.069 -10.101  1.00  0.00     0.074 A 
ATOM     57  C   UNL     1     -14.417  14.424  -9.130  1.00  0.00     0.031 C 
ATOM     58  C   UNL     1     -16.839   9.055 -10.609  1.00  0.00     0.029 A 
ATOM     59  C   UNL     1     -17.224   8.472  -9.333  1.00  0.00     0.049 A 
ATOM     60  H   UNL     1     -15.780   8.231  -7.761  1.00  0.00     0.167 HD
ATOM     61  C   UNL     1     -15.766  14.549 -11.328  1.00  0.00     0.031 A 
ATOM     62  C   UNL     1     -18.512   8.339  -8.894  1.00  0.00     0.031 A 
ATOM     63  C   UNL     1     -16.770  13.708 -11.971  1.00  0.00     0.049 A 
ATOM     64  C   UNL     1     -19.464   9.308  -9.572  1.00  0.00     0.074 A 
ATOM     65  C   UNL     1     -16.689  12.715 -12.933  1.00  0.00     0.029 A 
ATOM     66  N   UNL     1     -18.032  13.603 -11.399  1.00  0.00    -0.354 N 
ATOM     67  N   UNL     1     -19.081  10.383 -10.206  1.00  0.00    -0.248 NA
ATOM     68  C   UNL     1     -20.917   9.158  -9.575  1.00  0.00     0.031 C 
ATOM     69  C   UNL     1     -17.886  11.954 -12.877  1.00  0.00     0.029 A 
ATOM     70  C   UNL     1     -18.701  12.505 -11.903  1.00  0.00     0.049 A 
ATOM     71  H   UNL     1     -18.397  14.224 -10.728  1.00  0.00     0.167 HD
ATOM     72  C   UNL     1     -20.171  11.041 -10.715  1.00  0.00     0.074 A 
ATOM     73  C   UNL     1     -21.300  10.232 -10.291  1.00  0.00     0.031 C 
ATOM     74  C   UNL     1     -20.048  12.191 -11.445  1.00  0.00     0.031 A 
BRANCH  61  75
ATOM     75  C   UNL     1     -14.953  15.598 -12.049  1.00  0.00    -0.014 A 
ATOM     76  C   UNL     1     -14.811  15.527 -13.450  1.00  0.00     0.010 A 
ATOM     77  C   UNL     1     -14.265  16.644 -11.403  1.00  0.00     0.010 A 
ATOM     78  C   UNL     1     -13.955  16.384 -14.156  1.00  0.00     0.020 A 
ATOM     79  C   UNL     1     -13.376  17.486 -12.092  1.00  0.00     0.020 A 
ATOM     80  C   UNL     1     -13.219  17.343 -13.467  1.00  0.00     0.054 A 
BRANCH  80  81
ATOM     81  S   UNL     1     -12.057  18.386 -14.389  1.00  0.00     0.124 S 
ATOM     82  O   UNL     1     -11.214  17.401 -15.062  1.00  0.00    -0.237 OA
ATOM     83  O   UNL     1     -12.946  19.152 -15.257  1.00  0.00    -0.237 OA
ATOM     84  O   UNL     1     -11.385  19.160 -13.347  1.00  0.00    -0.744 OA
ENDBRANCH  80  81
ENDBRANCH  61  75
BRANCH  62  85
ATOM     85  C   UNL     1     -18.630   7.844  -7.492  1.00  0.00    -0.014 A 
ATOM     86  C   UNL     1     -18.244   6.508  -7.245  1.00  0.00     0.010 A 
ATOM     87  C   UNL     1     -18.652   8.750  -6.416  1.00  0.00     0.010 A 
ATOM     88  C   UNL     1     -17.696   6.140  -6.013  1.00  0.00     0.020 A 
ATOM     89  C   UNL     1     -18.113   8.377  -5.174  1.00  0.00     0.020 A 
ATOM     90  C   UNL     1     -17.562   7.101  -5.012  1.00  0.00     0.054 A 
BRANCH  90  91
ATOM     91  S   UNL     1     -16.495   6.716  -3.587  1.00  0.00     0.124 S 
ATOM     92  O   UNL     1     -17.087   5.487  -3.071  1.00  0.00    -0.237 OA
ATOM     93  O   UNL     1     -15.176   6.563  -4.209  1.00  0.00    -0.237 OA
ATOM     94  O   UNL     1     -16.633   7.891  -2.734  1.00  0.00    -0.744 OA
ENDBRANCH  90  91
ENDBRANCH  62  85
BRANCH  74  95
ATOM     95  C   UNL     1     -21.166  13.113 -11.884  1.00  0.00    -0.014 A 
ATOM     96  C   UNL     1     -22.445  13.143 -11.311  1.00  0.00     0.010 A 
ATOM     97  C   UNL     1     -20.883  14.110 -12.854  1.00  0.00     0.010 A 
ATOM     98  C   UNL     1     -23.407  14.081 -11.721  1.00  0.00     0.020 A 
ATOM     99  C   UNL     1     -21.815  15.079 -13.235  1.00  0.00     0.020 A 
ATOM    100  C   UNL     1     -23.086  15.042 -12.680  1.00  0.00     0.054 A 
BRANCH 100 101
ATOM    101  S   UNL     1     -24.312  16.290 -13.146  1.00  0.00     0.124 S 
ATOM    102  O   UNL     1     -25.067  15.595 -14.184  1.00  0.00    -0.237 OA
ATOM    103  O   UNL     1     -25.033  16.521 -11.895  1.00  0.00    -0.237 OA
ATOM    104  O   UNL     1     -23.500  17.414 -13.604  1.00  0.00    -0.744 OA
ENDBRANCH 100 101
ENDBRANCH  74  95
ENDBRANCH  48  49
ENDBRANCH  40  43
ENDBRANCH  38  39
ENDBRANCH   1  38
TORSDOF 16
