REMARK SMILES Cc1cc(SCC(=O)NCCCNC(=O)c2ccc(-c3c4nc(c(-c5ccc(S(=O)(=O)[O-])cc5)c5ccc([nH]5)c(-c5ccc(S(=O)(=O)[O-])cc5)c5nc(c(-c6ccc(S(=O)(=O)[O-])cc6)c6ccc3[nH]6)C=C5)C=C4)cc2)c2cc(I)ccc2n1
REMARK SMILES IDX 11 1 10 2 9 3 7 4 8 5 6 7 5 8 4 9 1 10 2 11 3 12 83 13 82 14
REMARK SMILES IDX 76 15 81 16 77 17 80 18 78 19 79 20 12 21 13 22 14 23 15 25
REMARK SMILES IDX 16 26 17 27 75 28 18 29 74 30 19 31 20 32 21 33 68 34 22 35
REMARK SMILES IDX 73 36 67 37 69 38 23 39 72 40 66 41 65 42 24 44 54 45 35 46
REMARK SMILES IDX 53 47 36 48 39 49 52 50 70 51 37 52 38 53 51 55 71 56 40 57
REMARK SMILES IDX 25 58 26 59 34 60 27 61 33 62 28 63 29 64 30 65 31 66 32 67
REMARK SMILES IDX 55 68 56 69 64 70 57 71 63 72 58 73 59 74 60 75 61 76 62 77
REMARK SMILES IDX 41 78 42 79 50 80 43 81 49 82 44 83 45 84 46 85 47 86 48 87
REMARK H PARENT 9 6 13 24 69 43 39 54
REMARK Flexibility Score: inf
ROOT
ATOM      1  C   UNL     1       4.292  -5.971  -1.468  1.00  0.00     0.042 C 
ENDROOT
BRANCH   1   2
ATOM      2  C   UNL     1       4.765  -5.800  -0.029  1.00  0.00     0.117 C 
BRANCH   2   3
ATOM      3  N   UNL     1       4.743  -4.411   0.393  1.00  0.00    -0.355 N 
ATOM      4  C   UNL     1       3.874  -3.761   1.214  1.00  0.00     0.230 C 
ATOM      5  O   UNL     1       4.065  -2.557   1.412  1.00  0.00    -0.274 OA
ATOM      6  H   UNL     1       5.468  -3.854   0.029  1.00  0.00     0.163 HD
BRANCH   4   7
ATOM      7  C   UNL     1       2.767  -4.499   1.941  1.00  0.00     0.174 C 
BRANCH   7   8
ATOM      8  S   UNL     1       1.435  -5.129   0.873  1.00  0.00    -0.115 SA
BRANCH   8   9
ATOM      9  C   UNL     1       0.764  -3.703  -0.011  1.00  0.00     0.019 A 
ATOM     10  C   UNL     1       0.842   0.073   0.053  1.00  0.00     0.067 C 
ATOM     11  C   UNL     1       0.512  -1.339  -0.331  1.00  0.00     0.039 A 
ATOM     12  C   UNL     1       1.020  -2.397   0.405  1.00  0.00     0.039 A 
ATOM     13  N   UNL     1      -0.274  -1.515  -1.411  1.00  0.00    -0.253 NA
ATOM     14  C   UNL     1      -0.567  -2.762  -1.804  1.00  0.00     0.072 A 
ATOM     15  C   UNL     1      -0.072  -3.912  -1.149  1.00  0.00     0.015 A 
ATOM     16  C   UNL     1      -1.395  -2.907  -2.909  1.00  0.00     0.030 A 
ATOM     17  C   UNL     1      -0.447  -5.183  -1.668  1.00  0.00     0.026 A 
ATOM     18  C   UNL     1      -1.760  -4.159  -3.405  1.00  0.00     0.017 A 
ATOM     19  C   UNL     1      -1.280  -5.299  -2.781  1.00  0.00     0.014 A 
ATOM     20  I   UNL     1      -1.797  -7.175  -3.503  1.00  0.00    -0.044 I 
ENDBRANCH   8   9
ENDBRANCH   7   8
ENDBRANCH   4   7
ENDBRANCH   2   3
ENDBRANCH   1   2
BRANCH   1  21
ATOM     21  C   UNL     1       5.137  -5.233  -2.504  1.00  0.00     0.118 C 
BRANCH  21  22
ATOM     22  N   UNL     1       6.497  -5.745  -2.611  1.00  0.00    -0.352 N 
ATOM     23  C   UNL     1       7.180  -6.208  -3.712  1.00  0.00     0.251 C 
ATOM     24  H   UNL     1       7.005  -5.761  -1.767  1.00  0.00     0.163 HD
ATOM     25  O   UNL     1       8.287  -6.723  -3.566  1.00  0.00    -0.269 OA
BRANCH  23  26
ATOM     26  C   UNL     1       6.572  -6.126  -5.058  1.00  0.00     0.039 A 
ATOM     27  C   UNL     1       5.927  -4.964  -5.487  1.00  0.00     0.014 A 
ATOM     28  C   UNL     1       6.636  -7.240  -5.901  1.00  0.00     0.014 A 
ATOM     29  C   UNL     1       5.197  -4.977  -6.672  1.00  0.00     0.010 A 
ATOM     30  C   UNL     1       5.969  -7.223  -7.130  1.00  0.00     0.010 A 
ATOM     31  C   UNL     1       5.197  -6.112  -7.500  1.00  0.00    -0.014 A 
BRANCH  31  32
ATOM     32  C   UNL     1       4.369  -6.116  -8.735  1.00  0.00     0.031 A 
ATOM     33  C   UNL     1       3.193  -7.048  -8.870  1.00  0.00     0.074 A 
ATOM     34  C   UNL     1       4.640  -5.234  -9.717  1.00  0.00     0.049 A 
ATOM     35  N   UNL     1       2.334  -7.148  -9.853  1.00  0.00    -0.248 NA
ATOM     36  C   UNL     1       2.947  -7.991  -7.766  1.00  0.00     0.031 C 
ATOM     37  C   UNL     1       5.742  -4.271  -9.698  1.00  0.00     0.029 A 
ATOM     38  N   UNL     1       3.995  -4.980 -10.902  1.00  0.00    -0.354 N 
ATOM     39  C   UNL     1       1.462  -8.170  -9.496  1.00  0.00     0.074 A 
ATOM     40  C   UNL     1       1.909  -8.680  -8.219  1.00  0.00     0.031 C 
ATOM     41  C   UNL     1       5.662  -3.493 -10.787  1.00  0.00     0.029 A 
ATOM     42  C   UNL     1       4.542  -3.937 -11.612  1.00  0.00     0.049 A 
ATOM     43  H   UNL     1       3.217  -5.495 -11.214  1.00  0.00     0.167 HD
ATOM     44  C   UNL     1       0.381  -8.632 -10.167  1.00  0.00     0.031 A 
ATOM     45  C   UNL     1       4.190  -3.392 -12.794  1.00  0.00     0.031 A 
ATOM     46  C   UNL     1      -0.075  -8.106 -11.427  1.00  0.00     0.049 A 
ATOM     47  C   UNL     1       3.003  -3.936 -13.532  1.00  0.00     0.074 A 
ATOM     48  C   UNL     1      -1.185  -8.489 -12.161  1.00  0.00     0.029 A 
ATOM     49  N   UNL     1       0.544  -7.091 -12.140  1.00  0.00    -0.354 N 
ATOM     50  N   UNL     1       2.183  -4.893 -13.170  1.00  0.00    -0.248 NA
ATOM     51  C   UNL     1       2.692  -3.335 -14.837  1.00  0.00     0.031 C 
ATOM     52  C   UNL     1      -1.204  -7.747 -13.344  1.00  0.00     0.029 A 
ATOM     53  C   UNL     1      -0.142  -6.856 -13.319  1.00  0.00     0.049 A 
ATOM     54  H   UNL     1       1.352  -6.609 -11.850  1.00  0.00     0.167 HD
ATOM     55  C   UNL     1       1.258  -5.010 -14.200  1.00  0.00     0.074 A 
ATOM     56  C   UNL     1       1.605  -4.012 -15.191  1.00  0.00     0.031 C 
ATOM     57  C   UNL     1       0.218  -5.872 -14.310  1.00  0.00     0.031 A 
BRANCH  44  58
ATOM     58  C   UNL     1      -0.397  -9.774  -9.567  1.00  0.00    -0.014 A 
ATOM     59  C   UNL     1      -0.371 -11.035 -10.193  1.00  0.00     0.010 A 
ATOM     60  C   UNL     1      -1.235  -9.579  -8.455  1.00  0.00     0.010 A 
ATOM     61  C   UNL     1      -1.186 -12.073  -9.733  1.00  0.00     0.020 A 
ATOM     62  C   UNL     1      -2.034 -10.623  -7.977  1.00  0.00     0.020 A 
ATOM     63  C   UNL     1      -2.019 -11.857  -8.632  1.00  0.00     0.054 A 
BRANCH  63  64
ATOM     64  S   UNL     1      -3.076 -13.213  -8.053  1.00  0.00     0.124 S 
ATOM     65  O   UNL     1      -4.173 -13.182  -9.015  1.00  0.00    -0.237 OA
ATOM     66  O   UNL     1      -2.191 -14.372  -8.141  1.00  0.00    -0.237 OA
ATOM     67  O   UNL     1      -3.426 -12.813  -6.691  1.00  0.00    -0.744 OA
ENDBRANCH  63  64
ENDBRANCH  44  58
BRANCH  45  68
ATOM     68  C   UNL     1       4.985  -2.248 -13.316  1.00  0.00    -0.014 A 
ATOM     69  C   UNL     1       6.311  -2.447 -13.746  1.00  0.00     0.010 A 
ATOM     70  C   UNL     1       4.470  -0.942 -13.265  1.00  0.00     0.010 A 
ATOM     71  C   UNL     1       7.130  -1.356 -14.046  1.00  0.00     0.020 A 
ATOM     72  C   UNL     1       5.279   0.151 -13.591  1.00  0.00     0.020 A 
ATOM     73  C   UNL     1       6.614  -0.062 -13.944  1.00  0.00     0.054 A 
BRANCH  73  74
ATOM     74  S   UNL     1       7.718   1.345 -14.248  1.00  0.00     0.124 S 
ATOM     75  O   UNL     1       8.462   1.416 -12.994  1.00  0.00    -0.237 OA
ATOM     76  O   UNL     1       8.485   0.906 -15.411  1.00  0.00    -0.237 OA
ATOM     77  O   UNL     1       6.798   2.453 -14.495  1.00  0.00    -0.744 OA
ENDBRANCH  73  74
ENDBRANCH  45  68
BRANCH  57  78
ATOM     78  C   UNL     1      -0.630  -5.809 -15.552  1.00  0.00    -0.014 A 
ATOM     79  C   UNL     1      -1.958  -5.351 -15.469  1.00  0.00     0.010 A 
ATOM     80  C   UNL     1      -0.160  -6.336 -16.767  1.00  0.00     0.010 A 
ATOM     81  C   UNL     1      -2.813  -5.455 -16.569  1.00  0.00     0.020 A 
ATOM     82  C   UNL     1      -1.006  -6.420 -17.877  1.00  0.00     0.020 A 
ATOM     83  C   UNL     1      -2.335  -6.003 -17.762  1.00  0.00     0.054 A 
BRANCH  83  84
ATOM     84  S   UNL     1      -3.469  -6.170 -19.168  1.00  0.00     0.124 S 
ATOM     85  O   UNL     1      -4.235  -7.358 -18.805  1.00  0.00    -0.237 OA
ATOM     86  O   UNL     1      -4.209  -4.910 -19.137  1.00  0.00    -0.237 OA
ATOM     87  O   UNL     1      -2.574  -6.328 -20.312  1.00  0.00    -0.744 OA
ENDBRANCH  83  84
ENDBRANCH  57  78
ENDBRANCH  31  32
ENDBRANCH  23  26
ENDBRANCH  21  22
ENDBRANCH   1  21
TORSDOF 15
