REMARK SMILES C#CC[C@]1(C(=O)NCCCNC(=O)c2ccc(-c3c4nc(c(-c5ccc(S(=O)(=O)[O-])cc5)c5ccc([nH]5)c(-c5ccc(S(=O)(=O)[O-])cc5)c5nc(c(-c6ccc(S(=O)(=O)[O-])cc6)c6ccc3[nH]6)C=C5)C=C4)cc2)CC[C@@H](C)C1
REMARK SMILES IDX 9 1 8 2 7 3 5 4 6 5 4 7 74 8 78 9 75 10 76 11 77 12 3 13
REMARK SMILES IDX 2 14 1 15 10 16 11 17 12 18 13 20 14 21 15 22 73 23 16 24
REMARK SMILES IDX 72 25 17 26 18 27 19 28 66 29 20 30 71 31 65 32 67 33 21 34
REMARK SMILES IDX 70 35 64 36 63 37 22 39 52 40 33 41 51 42 34 43 37 44 50 45
REMARK SMILES IDX 68 46 35 47 36 48 49 50 69 51 38 52 23 53 24 54 32 55 25 56
REMARK SMILES IDX 31 57 26 58 27 59 28 60 29 61 30 62 53 63 54 64 62 65 55 66
REMARK SMILES IDX 61 67 56 68 57 69 58 70 59 71 60 72 39 73 40 74 48 75 41 76
REMARK SMILES IDX 47 77 42 78 43 79 44 80 45 81 46 82
REMARK H PARENT 7 6 11 19 67 38 37 49
REMARK Flexibility Score: inf
ROOT
ATOM      1  C   UNL     1      -4.884   0.468  -1.695  1.00  0.00     0.042 C 
ENDROOT
BRANCH   1   2
ATOM      2  C   UNL     1      -3.746  -0.507  -1.505  1.00  0.00     0.117 C 
BRANCH   2   3
ATOM      3  N   UNL     1      -2.557   0.086  -0.951  1.00  0.00    -0.356 N 
ATOM      4  C   UNL     1      -1.891  -0.149   0.203  1.00  0.00     0.227 C 
ATOM      5  O   UNL     1      -0.713   0.237   0.201  1.00  0.00    -0.274 OA
ATOM      6  H   UNL     1      -2.156   0.789  -1.512  1.00  0.00     0.163 HD
BRANCH   4   7
ATOM      7  C   UNL     1      -2.470  -0.856   1.460  1.00  0.00     0.060 C 
ATOM      8  C   UNL     1      -3.997  -1.044   1.559  1.00  0.00     0.018 C 
ATOM      9  C   UNL     1      -1.932  -2.305   1.526  1.00  0.00     0.021 C 
ATOM     10  C   UNL     1      -4.313  -2.498   1.161  1.00  0.00     0.004 C 
ATOM     11  C   UNL     1      -2.984  -3.199   0.865  1.00  0.00    -0.013 C 
ATOM     12  C   UNL     1      -2.696  -3.469  -0.614  1.00  0.00     0.007 C 
BRANCH   7  13
ATOM     13  C   UNL     1      -1.864   0.004   2.623  1.00  0.00     0.106 C 
BRANCH  13  14
ATOM     14  C   UNL     1      -2.605   0.015   3.897  1.00  0.00    -0.106 C 
ATOM     15  C   UNL     1      -3.237   0.118   4.910  1.00  0.00     0.004 C 
ENDBRANCH  13  14
ENDBRANCH   7  13
ENDBRANCH   4   7
ENDBRANCH   2   3
ENDBRANCH   1   2
BRANCH   1  16
ATOM     16  C   UNL     1      -4.871   1.047  -3.094  1.00  0.00     0.118 C 
BRANCH  16  17
ATOM     17  N   UNL     1      -5.055   0.016  -4.122  1.00  0.00    -0.352 N 
ATOM     18  C   UNL     1      -6.026  -0.096  -5.085  1.00  0.00     0.251 C 
ATOM     19  H   UNL     1      -4.380  -0.701  -4.121  1.00  0.00     0.163 HD
ATOM     20  O   UNL     1      -6.141  -1.125  -5.740  1.00  0.00    -0.269 OA
BRANCH  18  21
ATOM     21  C   UNL     1      -6.935   1.042  -5.291  1.00  0.00     0.039 A 
ATOM     22  C   UNL     1      -8.310   0.825  -5.391  1.00  0.00     0.014 A 
ATOM     23  C   UNL     1      -6.410   2.333  -5.283  1.00  0.00     0.014 A 
ATOM     24  C   UNL     1      -9.169   1.922  -5.396  1.00  0.00     0.010 A 
ATOM     25  C   UNL     1      -7.266   3.406  -5.140  1.00  0.00     0.010 A 
ATOM     26  C   UNL     1      -8.654   3.216  -5.222  1.00  0.00    -0.014 A 
BRANCH  26  27
ATOM     27  C   UNL     1      -9.512   4.420  -5.176  1.00  0.00     0.031 A 
ATOM     28  C   UNL     1      -9.274   5.513  -6.181  1.00  0.00     0.074 A 
ATOM     29  C   UNL     1     -10.397   4.587  -4.175  1.00  0.00     0.049 A 
ATOM     30  N   UNL     1      -9.759   6.725  -6.215  1.00  0.00    -0.248 NA
ATOM     31  C   UNL     1      -8.315   5.217  -7.262  1.00  0.00     0.031 C 
ATOM     32  C   UNL     1     -10.688   3.610  -3.123  1.00  0.00     0.029 A 
ATOM     33  N   UNL     1     -11.200   5.656  -3.868  1.00  0.00    -0.354 N 
ATOM     34  C   UNL     1      -9.133   7.345  -7.289  1.00  0.00     0.074 A 
ATOM     35  C   UNL     1      -8.183   6.402  -7.834  1.00  0.00     0.031 C 
ATOM     36  C   UNL     1     -11.617   4.118  -2.298  1.00  0.00     0.029 A 
ATOM     37  C   UNL     1     -11.942   5.476  -2.725  1.00  0.00     0.049 A 
ATOM     38  H   UNL     1     -11.240   6.474  -4.414  1.00  0.00     0.167 HD
ATOM     39  C   UNL     1      -9.345   8.583  -7.792  1.00  0.00     0.031 A 
ATOM     40  C   UNL     1     -12.771   6.320  -2.080  1.00  0.00     0.031 A 
ATOM     41  C   UNL     1     -10.301   9.504  -7.243  1.00  0.00     0.049 A 
ATOM     42  C   UNL     1     -12.989   7.698  -2.642  1.00  0.00     0.074 A 
ATOM     43  C   UNL     1     -10.648  10.759  -7.706  1.00  0.00     0.029 A 
ATOM     44  N   UNL     1     -11.058   9.269  -6.103  1.00  0.00    -0.354 N 
ATOM     45  N   UNL     1     -12.435   8.253  -3.694  1.00  0.00    -0.248 NA
ATOM     46  C   UNL     1     -13.948   8.560  -1.939  1.00  0.00     0.031 C 
ATOM     47  C   UNL     1     -11.559  11.314  -6.804  1.00  0.00     0.029 A 
ATOM     48  C   UNL     1     -11.850  10.370  -5.830  1.00  0.00     0.049 A 
ATOM     49  H   UNL     1     -11.035   8.443  -5.569  1.00  0.00     0.167 HD
ATOM     50  C   UNL     1     -13.009   9.515  -3.805  1.00  0.00     0.074 A 
ATOM     51  C   UNL     1     -13.949   9.642  -2.709  1.00  0.00     0.031 C 
ATOM     52  C   UNL     1     -12.787  10.474  -4.738  1.00  0.00     0.031 A 
BRANCH  39  53
ATOM     53  C   UNL     1      -8.504   9.007  -8.968  1.00  0.00    -0.014 A 
ATOM     54  C   UNL     1      -8.592   8.354 -10.212  1.00  0.00     0.010 A 
ATOM     55  C   UNL     1      -7.597  10.072  -8.822  1.00  0.00     0.010 A 
ATOM     56  C   UNL     1      -7.739   8.707 -11.260  1.00  0.00     0.020 A 
ATOM     57  C   UNL     1      -6.772  10.458  -9.881  1.00  0.00     0.020 A 
ATOM     58  C   UNL     1      -6.830   9.754 -11.085  1.00  0.00     0.054 A 
BRANCH  58  59
ATOM     59  S   UNL     1      -5.726  10.182 -12.458  1.00  0.00     0.124 S 
ATOM     60  O   UNL     1      -4.820   9.036 -12.483  1.00  0.00    -0.237 OA
ATOM     61  O   UNL     1      -6.646  10.280 -13.588  1.00  0.00    -0.237 OA
ATOM     62  O   UNL     1      -5.121  11.444 -12.037  1.00  0.00    -0.744 OA
ENDBRANCH  58  59
ENDBRANCH  39  53
BRANCH  40  63
ATOM     63  C   UNL     1     -13.458   5.864  -0.840  1.00  0.00    -0.014 A 
ATOM     64  C   UNL     1     -14.837   5.593  -0.845  1.00  0.00     0.010 A 
ATOM     65  C   UNL     1     -12.721   5.632   0.336  1.00  0.00     0.010 A 
ATOM     66  C   UNL     1     -15.466   5.095   0.301  1.00  0.00     0.020 A 
ATOM     67  C   UNL     1     -13.339   5.106   1.474  1.00  0.00     0.020 A 
ATOM     68  C   UNL     1     -14.709   4.843   1.450  1.00  0.00     0.054 A 
BRANCH  68  69
ATOM     69  S   UNL     1     -15.531   4.106   2.890  1.00  0.00     0.124 S 
ATOM     70  O   UNL     1     -16.385   5.198   3.346  1.00  0.00    -0.237 OA
ATOM     71  O   UNL     1     -16.223   2.962   2.304  1.00  0.00    -0.237 OA
ATOM     72  O   UNL     1     -14.422   3.765   3.780  1.00  0.00    -0.744 OA
ENDBRANCH  68  69
ENDBRANCH  40  63
BRANCH  52  73
ATOM     73  C   UNL     1     -13.615  11.730  -4.671  1.00  0.00    -0.014 A 
ATOM     74  C   UNL     1     -13.402  12.706  -3.684  1.00  0.00     0.010 A 
ATOM     75  C   UNL     1     -14.545  11.983  -5.699  1.00  0.00     0.010 A 
ATOM     76  C   UNL     1     -14.111  13.911  -3.722  1.00  0.00     0.020 A 
ATOM     77  C   UNL     1     -15.229  13.197  -5.758  1.00  0.00     0.020 A 
ATOM     78  C   UNL     1     -15.011  14.153  -4.766  1.00  0.00     0.054 A 
BRANCH  78  79
ATOM     79  S   UNL     1     -15.847  15.761  -4.842  1.00  0.00     0.124 S 
ATOM     80  O   UNL     1     -16.760  15.683  -3.706  1.00  0.00    -0.237 OA
ATOM     81  O   UNL     1     -14.739  16.702  -4.697  1.00  0.00    -0.237 OA
ATOM     82  O   UNL     1     -16.487  15.758  -6.156  1.00  0.00    -0.744 OA
ENDBRANCH  78  79
ENDBRANCH  52  73
ENDBRANCH  26  27
ENDBRANCH  18  21
ENDBRANCH  16  17
ENDBRANCH   1  16
TORSDOF 15
