REMARK SMILES COc1cc(S(=O)(=O)Nc2cccc(C(=O)NCCCNC(=O)c3ccc(-c4c5nc(c(-c6ccc(S(=O)(=O)[O-])cc6)c6ccc([nH]6)c(-c6ccc(S(=O)(=O)[O-])cc6)c6nc(c(-c7ccc(S(=O)(=O)[O-])cc7)c7ccc4[nH]7)C=C6)C=C5)cc3)c2)c(OC)cc1C
REMARK SMILES IDX 18 1 17 2 15 3 16 4 14 6 10 7 11 8 84 9 12 10 13 11 9 12
REMARK SMILES IDX 6 14 7 15 8 16 5 17 3 18 4 19 89 20 88 21 90 22 85 23 2 24
REMARK SMILES IDX 1 25 86 26 87 27 19 28 20 29 21 30 22 31 23 33 24 34 25 35
REMARK SMILES IDX 83 36 26 37 82 38 27 39 28 40 29 41 76 42 30 43 81 44 75 45
REMARK SMILES IDX 77 46 31 47 80 48 74 49 73 50 32 52 62 53 43 54 61 55 44 56
REMARK SMILES IDX 47 57 60 58 78 59 45 60 46 61 59 63 79 64 48 65 33 66 34 67
REMARK SMILES IDX 42 68 35 69 41 70 36 71 37 72 38 73 39 74 40 75 63 76 64 77
REMARK SMILES IDX 72 78 65 79 71 80 66 81 67 82 68 83 69 84 70 85 49 86 50 87
REMARK SMILES IDX 58 88 51 89 57 90 52 91 53 92 54 93 55 94 56 95
REMARK H PARENT 17 5 9 13 21 32 77 51 47 62
REMARK Flexibility Score: inf
ROOT
ATOM      1  C   UNL     1       5.493  -2.191   8.327  1.00  0.00     0.118 C 
ENDROOT
BRANCH   1   2
ATOM      2  N   UNL     1       4.593  -2.470   9.435  1.00  0.00    -0.352 N 
ATOM      3  C   UNL     1       3.357  -1.947   9.725  1.00  0.00     0.251 C 
ATOM      4  O   UNL     1       2.649  -2.475  10.578  1.00  0.00    -0.269 OA
ATOM      5  H   UNL     1       4.922  -3.140  10.077  1.00  0.00     0.163 HD
BRANCH   3   6
ATOM      6  C   UNL     1       2.814  -0.790   8.978  1.00  0.00     0.041 A 
ATOM      7  C   UNL     1       0.975   0.106   7.666  1.00  0.00     0.050 A 
ATOM      8  C   UNL     1       1.676   1.300   7.506  1.00  0.00     0.027 A 
ATOM      9  C   UNL     1       1.519  -0.908   8.462  1.00  0.00     0.040 A 
ATOM     10  C   UNL     1       2.949   1.443   8.071  1.00  0.00     0.003 A 
ATOM     11  C   UNL     1       3.521   0.397   8.800  1.00  0.00     0.014 A 
BRANCH   7  12
ATOM     12  N   UNL     1      -0.280  -0.173   7.055  1.00  0.00    -0.279 N 
ATOM     13  H   UNL     1      -0.888  -0.784   7.530  1.00  0.00     0.180 HD
BRANCH  12  14
ATOM     14  S   UNL     1      -0.805   0.451   5.597  1.00  0.00     0.265 S 
ATOM     15  O   UNL     1      -0.917   1.890   5.744  1.00  0.00    -0.201 OA
ATOM     16  O   UNL     1      -1.974  -0.332   5.242  1.00  0.00    -0.201 OA
BRANCH  14  17
ATOM     17  C   UNL     1       0.379   0.176   4.299  1.00  0.00     0.133 A 
ATOM     18  C   UNL     1       0.994   0.812   2.037  1.00  0.00     0.123 A 
ATOM     19  C   UNL     1       0.089   0.842   3.094  1.00  0.00     0.073 A 
ATOM     20  C   UNL     1       2.261   0.259   2.214  1.00  0.00    -0.005 A 
ATOM     21  C   UNL     1       2.504  -0.477   3.383  1.00  0.00     0.055 A 
ATOM     22  C   UNL     1       3.349   0.379   1.189  1.00  0.00     0.048 C 
ATOM     23  C   UNL     1       1.545  -0.584   4.404  1.00  0.00     0.139 A 
BRANCH  18  24
ATOM     24  O   UNL     1       0.592   1.368   0.853  1.00  0.00    -0.496 OA
ATOM     25  C   UNL     1       0.444   0.356  -0.151  1.00  0.00     0.278 C 
ENDBRANCH  18  24
BRANCH  23  26
ATOM     26  O   UNL     1       1.680  -1.448   5.449  1.00  0.00    -0.495 OA
ATOM     27  C   UNL     1       2.915  -2.147   5.577  1.00  0.00     0.278 C 
ENDBRANCH  23  26
ENDBRANCH  14  17
ENDBRANCH  12  14
ENDBRANCH   7  12
ENDBRANCH   3   6
ENDBRANCH   1   2
BRANCH   1  28
ATOM     28  C   UNL     1       6.708  -1.364   8.722  1.00  0.00     0.042 C 
BRANCH  28  29
ATOM     29  C   UNL     1       7.719  -2.148   9.550  1.00  0.00     0.118 C 
BRANCH  29  30
ATOM     30  N   UNL     1       9.087  -1.910   9.098  1.00  0.00    -0.352 N 
ATOM     31  C   UNL     1      10.278  -2.188   9.748  1.00  0.00     0.251 C 
ATOM     32  H   UNL     1       9.174  -1.495   8.209  1.00  0.00     0.163 HD
ATOM     33  O   UNL     1      11.350  -1.851   9.295  1.00  0.00    -0.269 OA
BRANCH  31  34
ATOM     34  C   UNL     1      10.189  -3.001  10.978  1.00  0.00     0.039 A 
ATOM     35  C   UNL     1      10.667  -4.313  10.922  1.00  0.00     0.014 A 
ATOM     36  C   UNL     1       9.404  -2.559  12.037  1.00  0.00     0.014 A 
ATOM     37  C   UNL     1      10.202  -5.246  11.846  1.00  0.00     0.010 A 
ATOM     38  C   UNL     1       8.866  -3.506  12.886  1.00  0.00     0.010 A 
ATOM     39  C   UNL     1       9.228  -4.858  12.765  1.00  0.00    -0.014 A 
BRANCH  39  40
ATOM     40  C   UNL     1       8.469  -5.791  13.591  1.00  0.00     0.031 A 
ATOM     41  C   UNL     1       8.683  -5.835  15.057  1.00  0.00     0.074 A 
ATOM     42  C   UNL     1       7.499  -6.571  13.061  1.00  0.00     0.049 A 
ATOM     43  N   UNL     1       8.366  -6.840  15.806  1.00  0.00    -0.248 NA
ATOM     44  C   UNL     1       9.352  -4.768  15.793  1.00  0.00     0.031 C 
ATOM     45  C   UNL     1       6.429  -7.236  13.803  1.00  0.00     0.029 A 
ATOM     46  N   UNL     1       7.395  -7.106  11.777  1.00  0.00    -0.354 N 
ATOM     47  C   UNL     1       8.473  -6.431  17.114  1.00  0.00     0.074 A 
ATOM     48  C   UNL     1       9.212  -5.192  17.051  1.00  0.00     0.031 C 
ATOM     49  C   UNL     1       5.993  -8.280  13.085  1.00  0.00     0.029 A 
ATOM     50  C   UNL     1       6.858  -8.398  11.927  1.00  0.00     0.049 A 
ATOM     51  H   UNL     1       7.648  -6.667  10.933  1.00  0.00     0.167 HD
ATOM     52  C   UNL     1       7.798  -7.106  18.089  1.00  0.00     0.031 A 
ATOM     53  C   UNL     1       7.443  -9.551  11.488  1.00  0.00     0.031 A 
ATOM     54  C   UNL     1       7.128  -8.304  17.576  1.00  0.00     0.049 A 
ATOM     55  C   UNL     1       7.606 -10.611  12.557  1.00  0.00     0.074 A 
ATOM     56  C   UNL     1       5.804  -8.647  17.354  1.00  0.00     0.029 A 
ATOM     57  N   UNL     1       7.886  -9.314  17.003  1.00  0.00    -0.354 N 
ATOM     58  N   UNL     1       7.317 -10.436  13.815  1.00  0.00    -0.248 NA
ATOM     59  C   UNL     1       8.221 -11.915  12.314  1.00  0.00     0.031 C 
ATOM     60  C   UNL     1       5.773  -9.898  16.680  1.00  0.00     0.029 A 
ATOM     61  C   UNL     1       7.077 -10.313  16.494  1.00  0.00     0.049 A 
ATOM     62  H   UNL     1       8.870  -9.319  16.964  1.00  0.00     0.167 HD
ATOM     63  C   UNL     1       7.765 -11.505  14.552  1.00  0.00     0.074 A 
ATOM     64  C   UNL     1       8.311 -12.413  13.560  1.00  0.00     0.031 C 
ATOM     65  C   UNL     1       7.694 -11.503  15.918  1.00  0.00     0.031 A 
BRANCH  52  66
ATOM     66  C   UNL     1       7.524  -6.563  19.482  1.00  0.00    -0.014 A 
ATOM     67  C   UNL     1       6.520  -7.162  20.275  1.00  0.00     0.010 A 
ATOM     68  C   UNL     1       8.153  -5.440  20.048  1.00  0.00     0.010 A 
ATOM     69  C   UNL     1       6.099  -6.611  21.497  1.00  0.00     0.020 A 
ATOM     70  C   UNL     1       7.736  -4.867  21.258  1.00  0.00     0.020 A 
ATOM     71  C   UNL     1       6.692  -5.443  21.966  1.00  0.00     0.054 A 
BRANCH  71  72
ATOM     72  S   UNL     1       6.083  -4.683  23.491  1.00  0.00     0.124 S 
ATOM     73  O   UNL     1       4.694  -4.381  23.157  1.00  0.00    -0.237 OA
ATOM     74  O   UNL     1       6.281  -5.743  24.475  1.00  0.00    -0.237 OA
ATOM     75  O   UNL     1       6.943  -3.512  23.662  1.00  0.00    -0.744 OA
ENDBRANCH  71  72
ENDBRANCH  52  66
BRANCH  53  76
ATOM     76  C   UNL     1       8.364  -9.366  10.336  1.00  0.00    -0.014 A 
ATOM     77  C   UNL     1       7.782  -9.071   9.086  1.00  0.00     0.010 A 
ATOM     78  C   UNL     1       9.710  -9.033  10.566  1.00  0.00     0.010 A 
ATOM     79  C   UNL     1       8.469  -8.285   8.160  1.00  0.00     0.020 A 
ATOM     80  C   UNL     1      10.401  -8.247   9.635  1.00  0.00     0.020 A 
ATOM     81  C   UNL     1       9.745  -7.818   8.477  1.00  0.00     0.054 A 
BRANCH  81  82
ATOM     82  S   UNL     1      10.427  -6.467   7.470  1.00  0.00     0.124 S 
ATOM     83  O   UNL     1      10.415  -7.038   6.127  1.00  0.00    -0.237 OA
ATOM     84  O   UNL     1       9.456  -5.400   7.709  1.00  0.00    -0.237 OA
ATOM     85  O   UNL     1      11.748  -6.248   8.052  1.00  0.00    -0.744 OA
ENDBRANCH  81  82
ENDBRANCH  53  76
BRANCH  65  86
ATOM     86  C   UNL     1       8.218 -12.560  16.873  1.00  0.00    -0.014 A 
ATOM     87  C   UNL     1       8.484 -13.895  16.536  1.00  0.00     0.010 A 
ATOM     88  C   UNL     1       8.405 -12.212  18.237  1.00  0.00     0.010 A 
ATOM     89  C   UNL     1       8.976 -14.808  17.488  1.00  0.00     0.020 A 
ATOM     90  C   UNL     1       8.879 -13.111  19.196  1.00  0.00     0.020 A 
ATOM     91  C   UNL     1       9.174 -14.408  18.811  1.00  0.00     0.054 A 
BRANCH  91  92
ATOM     92  S   UNL     1       9.806 -15.604  20.014  1.00  0.00     0.124 S 
ATOM     93  O   UNL     1       8.737 -16.599  20.050  1.00  0.00    -0.237 OA
ATOM     94  O   UNL     1      11.051 -16.044  19.389  1.00  0.00    -0.237 OA
ATOM     95  O   UNL     1       9.970 -14.822  21.236  1.00  0.00    -0.744 OA
ENDBRANCH  91  92
ENDBRANCH  65  86
ENDBRANCH  39  40
ENDBRANCH  31  34
ENDBRANCH  29  30
ENDBRANCH  28  29
ENDBRANCH   1  28
TORSDOF 18
