REMARK SMILES O=C(COc1ccccc1/C=N\N1CC[NH+](Cc2ccc(Cl)cc2)CC1)NCCCNC(=O)c1ccc(-c2c3nc(c(-c4ccc(S(=O)(=O)[O-])cc4)c4ccc([nH]4)c(-c4ccc(S(=O)(=O)[O-])cc4)c4nc(c(-c5ccc(S(=O)(=O)[O-])cc5)c5ccc2[nH]5)C=C4)C=C3)cc1
REMARK SMILES IDX 1 1 2 2 27 3 3 5 4 6 5 7 6 8 10 9 7 10 9 11 8 12 11 13 12 14
REMARK SMILES IDX 13 15 14 16 26 17 15 18 25 19 16 20 17 22 18 23 19 24 24 25
REMARK SMILES IDX 20 26 23 27 21 28 22 29 28 30 29 31 30 32 31 33 32 34 33 36
REMARK SMILES IDX 34 37 35 38 93 39 36 40 92 41 37 42 38 43 39 44 86 45 40 46
REMARK SMILES IDX 91 47 85 48 87 49 41 50 90 51 84 52 83 53 42 55 72 56 53 57
REMARK SMILES IDX 71 58 54 59 57 60 70 61 88 62 55 63 56 64 69 66 89 67 58 68
REMARK SMILES IDX 43 69 44 70 52 71 45 72 51 73 46 74 47 75 48 76 49 77 50 78
REMARK SMILES IDX 73 79 74 80 82 81 75 82 81 83 76 84 77 85 78 86 79 87 80 88
REMARK SMILES IDX 59 89 60 90 68 91 61 92 67 93 62 94 63 95 64 96 65 97 66 98
REMARK H PARENT 27 4 16 21 31 35 87 54 57 65
REMARK Flexibility Score: inf
ROOT
ATOM      1  O   UNL     1       0.923  -0.272   0.938  1.00  0.00    -0.271 OA
ATOM      2  C   UNL     1       2.129  -0.189   0.713  1.00  0.00     0.257 C 
ATOM      3  N   UNL     1       2.804   1.023   0.647  1.00  0.00    -0.353 N 
ATOM      4  H   UNL     1       3.766   1.061   0.854  1.00  0.00     0.163 HD
ENDROOT
BRANCH   2   5
ATOM      5  C   UNL     1       2.986  -1.458   0.493  1.00  0.00     0.329 C 
BRANCH   5   6
ATOM      6  O   UNL     1       3.986  -1.392  -0.526  1.00  0.00    -0.483 OA
BRANCH   6   7
ATOM      7  C   UNL     1       3.631  -1.924  -1.747  1.00  0.00     0.128 A 
ATOM      8  C   UNL     1       4.023  -3.228  -2.056  1.00  0.00     0.047 A 
ATOM      9  C   UNL     1       3.100  -1.119  -2.768  1.00  0.00     0.037 A 
ATOM     10  C   UNL     1       3.881  -3.715  -3.364  1.00  0.00     0.004 A 
ATOM     11  C   UNL     1       3.025  -1.584  -4.081  1.00  0.00     0.013 A 
ATOM     12  C   UNL     1       3.397  -2.889  -4.378  1.00  0.00     0.001 A 
BRANCH   9  13
ATOM     13  C   UNL     1       2.672   0.227  -2.402  1.00  0.00     0.145 C 
ATOM     14  N   UNL     1       1.714   0.999  -2.810  1.00  0.00    -0.185 NA
BRANCH  14  15
ATOM     15  N   UNL     1       1.067   0.717  -3.944  1.00  0.00    -0.286 NA
ATOM     16  C   UNL     1       0.605   1.930  -4.630  1.00  0.00     0.200 C 
ATOM     17  C   UNL     1      -0.002  -0.293  -4.044  1.00  0.00     0.200 C 
ATOM     18  C   UNL     1       0.467   1.641  -6.125  1.00  0.00     0.286 C 
ATOM     19  C   UNL     1      -0.214  -0.640  -5.549  1.00  0.00     0.286 C 
ATOM     20  N   UNL     1      -0.379   0.492  -6.485  1.00  0.00    -0.328 N 
ATOM     21  H   UNL     1      -0.025   0.142  -7.375  1.00  0.00     0.348 HD
BRANCH  20  22
ATOM     22  C   UNL     1      -1.759   0.842  -6.827  1.00  0.00     0.299 C 
BRANCH  22  23
ATOM     23  C   UNL     1      -2.690   1.079  -5.663  1.00  0.00     0.006 A 
ATOM     24  C   UNL     1      -3.420   0.008  -5.123  1.00  0.00     0.011 A 
ATOM     25  C   UNL     1      -2.769   2.335  -5.047  1.00  0.00     0.011 A 
ATOM     26  C   UNL     1      -4.136   0.166  -3.939  1.00  0.00     0.021 A 
ATOM     27  C   UNL     1      -3.478   2.492  -3.855  1.00  0.00     0.021 A 
ATOM     28  C   UNL     1      -4.143   1.402  -3.297  1.00  0.00     0.041 A 
ATOM     29  Cl  UNL     1      -4.960   1.574  -1.794  1.00  0.00    -0.084 Cl
ENDBRANCH  22  23
ENDBRANCH  20  22
ENDBRANCH  14  15
ENDBRANCH   9  13
ENDBRANCH   6   7
ENDBRANCH   5   6
ENDBRANCH   2   5
BRANCH   3  30
ATOM     30  C   UNL     1       2.091   2.243   0.269  1.00  0.00     0.117 C 
BRANCH  30  31
ATOM     31  C   UNL     1       2.485   3.508   1.009  1.00  0.00     0.042 C 
BRANCH  31  32
ATOM     32  C   UNL     1       3.931   3.950   0.829  1.00  0.00     0.118 C 
BRANCH  32  33
ATOM     33  N   UNL     1       4.281   4.401  -0.514  1.00  0.00    -0.352 N 
ATOM     34  C   UNL     1       4.995   5.514  -0.906  1.00  0.00     0.251 C 
ATOM     35  H   UNL     1       3.961   3.827  -1.247  1.00  0.00     0.163 HD
ATOM     36  O   UNL     1       5.145   5.749  -2.106  1.00  0.00    -0.269 OA
BRANCH  34  37
ATOM     37  C   UNL     1       5.545   6.456   0.100  1.00  0.00     0.039 A 
ATOM     38  C   UNL     1       5.453   7.832  -0.135  1.00  0.00     0.014 A 
ATOM     39  C   UNL     1       6.133   5.999   1.281  1.00  0.00     0.014 A 
ATOM     40  C   UNL     1       5.881   8.738   0.843  1.00  0.00     0.010 A 
ATOM     41  C   UNL     1       6.452   6.897   2.296  1.00  0.00     0.010 A 
ATOM     42  C   UNL     1       6.350   8.279   2.085  1.00  0.00    -0.014 A 
BRANCH  42  43
ATOM     43  C   UNL     1       6.766   9.227   3.154  1.00  0.00     0.031 A 
ATOM     44  C   UNL     1       8.186   9.217   3.665  1.00  0.00     0.074 A 
ATOM     45  C   UNL     1       5.865  10.073   3.696  1.00  0.00     0.049 A 
ATOM     46  N   UNL     1       8.738   9.969   4.584  1.00  0.00    -0.248 NA
ATOM     47  C   UNL     1       9.098   8.214   3.091  1.00  0.00     0.031 C 
ATOM     48  C   UNL     1       4.446  10.146   3.337  1.00  0.00     0.029 A 
ATOM     49  N   UNL     1       6.010  11.039   4.662  1.00  0.00    -0.354 N 
ATOM     50  C   UNL     1      10.049   9.520   4.705  1.00  0.00     0.074 A 
ATOM     51  C   UNL     1      10.191   8.388   3.818  1.00  0.00     0.031 C 
ATOM     52  C   UNL     1       3.865  11.133   4.038  1.00  0.00     0.029 A 
ATOM     53  C   UNL     1       4.855  11.739   4.922  1.00  0.00     0.049 A 
ATOM     54  H   UNL     1       6.861  11.213   5.124  1.00  0.00     0.167 HD
ATOM     55  C   UNL     1      11.057  10.020   5.460  1.00  0.00     0.031 A 
ATOM     56  C   UNL     1       4.619  12.760   5.769  1.00  0.00     0.031 A 
ATOM     57  C   UNL     1      10.920  11.155   6.332  1.00  0.00     0.049 A 
ATOM     58  C   UNL     1       5.757  13.308   6.589  1.00  0.00     0.074 A 
ATOM     59  C   UNL     1      11.893  11.773   7.100  1.00  0.00     0.029 A 
ATOM     60  N   UNL     1       9.738  11.845   6.554  1.00  0.00    -0.354 N 
ATOM     61  N   UNL     1       7.008  12.914   6.635  1.00  0.00    -0.248 NA
ATOM     62  C   UNL     1       5.455  14.457   7.453  1.00  0.00     0.031 C 
ATOM     63  C   UNL     1      11.286  12.803   7.827  1.00  0.00     0.029 A 
ATOM     64  C   UNL     1       9.952  12.871   7.459  1.00  0.00     0.049 A 
ATOM     65  H   UNL     1       8.874  11.636   6.131  1.00  0.00     0.167 HD
ATOM     66  C   UNL     1       7.650  13.792   7.503  1.00  0.00     0.074 A 
ATOM     67  C   UNL     1       6.652  14.745   7.944  1.00  0.00     0.031 C 
ATOM     68  C   UNL     1       8.949  13.812   7.893  1.00  0.00     0.031 A 
BRANCH  55  69
ATOM     69  C   UNL     1      12.399   9.336   5.370  1.00  0.00    -0.014 A 
ATOM     70  C   UNL     1      13.166   9.389   4.191  1.00  0.00     0.010 A 
ATOM     71  C   UNL     1      12.915   8.658   6.489  1.00  0.00     0.010 A 
ATOM     72  C   UNL     1      14.400   8.737   4.117  1.00  0.00     0.020 A 
ATOM     73  C   UNL     1      14.164   8.033   6.431  1.00  0.00     0.020 A 
ATOM     74  C   UNL     1      14.890   8.061   5.238  1.00  0.00     0.054 A 
BRANCH  74  75
ATOM     75  S   UNL     1      16.505   7.243   5.120  1.00  0.00     0.124 S 
ATOM     76  O   UNL     1      16.203   6.104   4.258  1.00  0.00    -0.237 OA
ATOM     77  O   UNL     1      17.345   8.278   4.522  1.00  0.00    -0.237 OA
ATOM     78  O   UNL     1      16.826   6.907   6.505  1.00  0.00    -0.744 OA
ENDBRANCH  74  75
ENDBRANCH  55  69
BRANCH  56  79
ATOM     79  C   UNL     1       3.257  13.360   5.858  1.00  0.00    -0.014 A 
ATOM     80  C   UNL     1       3.012  14.659   5.377  1.00  0.00     0.010 A 
ATOM     81  C   UNL     1       2.195  12.631   6.423  1.00  0.00     0.010 A 
ATOM     82  C   UNL     1       1.739  15.228   5.484  1.00  0.00     0.020 A 
ATOM     83  C   UNL     1       0.913  13.185   6.503  1.00  0.00     0.020 A 
ATOM     84  C   UNL     1       0.697  14.486   6.045  1.00  0.00     0.054 A 
BRANCH  84  85
ATOM     85  S   UNL     1      -0.957  15.228   6.134  1.00  0.00     0.124 S 
ATOM     86  O   UNL     1      -0.787  16.223   7.187  1.00  0.00    -0.237 OA
ATOM     87  O   UNL     1      -1.137  15.758   4.784  1.00  0.00    -0.237 OA
ATOM     88  O   UNL     1      -1.821  14.099   6.472  1.00  0.00    -0.744 OA
ENDBRANCH  84  85
ENDBRANCH  56  79
BRANCH  68  89
ATOM     89  C   UNL     1       9.380  14.934   8.802  1.00  0.00    -0.014 A 
ATOM     90  C   UNL     1       8.938  15.019  10.134  1.00  0.00     0.010 A 
ATOM     91  C   UNL     1      10.263  15.914   8.311  1.00  0.00     0.010 A 
ATOM     92  C   UNL     1       9.321  16.097  10.938  1.00  0.00     0.020 A 
ATOM     93  C   UNL     1      10.677  16.973   9.122  1.00  0.00     0.020 A 
ATOM     94  C   UNL     1      10.182  17.071  10.424  1.00  0.00     0.054 A 
BRANCH  94  95
ATOM     95  S   UNL     1      10.664  18.461  11.484  1.00  0.00     0.124 S 
ATOM     96  O   UNL     1       9.442  19.259  11.511  1.00  0.00    -0.237 OA
ATOM     97  O   UNL     1      11.012  17.801  12.740  1.00  0.00    -0.237 OA
ATOM     98  O   UNL     1      11.788  19.066  10.773  1.00  0.00    -0.744 OA
ENDBRANCH  94  95
ENDBRANCH  68  89
ENDBRANCH  42  43
ENDBRANCH  34  37
ENDBRANCH  32  33
ENDBRANCH  31  32
ENDBRANCH  30  31
ENDBRANCH   3  30
TORSDOF 19
