REMARK SMILES Cc1cnccc1N[C@@H]1C=C[C@@H](C(=O)NCCCNC(=O)c2ccc(-c3c4nc(c(-c5ccc(S(=O)(=O)[O-])cc5)c5ccc([nH]5)c(-c5ccc(S(=O)(=O)[O-])cc5)c5nc(c(-c6ccc(S(=O)(=O)[O-])cc6)c6ccc3[nH]6)C=C5)C=C4)cc2)C1
REMARK SMILES IDX 17 1 16 2 15 3 13 4 14 5 12 7 9 8 10 9 82 10 11 11 8 12 7 14
REMARK SMILES IDX 1 15 2 16 3 17 4 18 6 19 5 20 18 21 19 22 20 23 21 25 22 26
REMARK SMILES IDX 23 27 81 28 24 29 80 30 25 31 26 32 27 33 74 34 28 35 79 36
REMARK SMILES IDX 73 37 75 38 29 39 78 40 72 41 71 42 30 44 60 45 41 46 59 47
REMARK SMILES IDX 42 48 45 49 58 50 76 51 43 52 44 53 57 55 77 56 46 57 31 58
REMARK SMILES IDX 32 59 40 60 33 61 39 62 34 63 35 64 36 65 37 66 38 67 61 68
REMARK SMILES IDX 62 69 70 70 63 71 69 72 64 73 65 74 66 75 67 76 68 77 47 78
REMARK SMILES IDX 48 79 56 80 49 81 55 82 50 83 51 84 52 85 53 86 54 87
REMARK H PARENT 15 6 8 13 19 24 75 43 45 54
REMARK Flexibility Score: inf
ROOT
ATOM      1  C   UNL     1      -2.895   1.547   1.235  1.00  0.00     0.042 C 
ENDROOT
BRANCH   1   2
ATOM      2  C   UNL     1      -3.013   2.486   0.043  1.00  0.00     0.117 C 
BRANCH   2   3
ATOM      3  N   UNL     1      -3.622   3.750   0.406  1.00  0.00    -0.356 N 
ATOM      4  C   UNL     1      -3.106   5.003   0.478  1.00  0.00     0.227 C 
ATOM      5  O   UNL     1      -3.873   5.908   0.823  1.00  0.00    -0.274 OA
ATOM      6  H   UNL     1      -4.575   3.689   0.642  1.00  0.00     0.163 HD
BRANCH   4   7
ATOM      7  C   UNL     1      -1.655   5.322   0.130  1.00  0.00     0.103 C 
ATOM      8  C   UNL     1       0.495   4.145   0.053  1.00  0.00     0.103 C 
ATOM      9  C   UNL     1      -0.088   4.322  -1.310  1.00  0.00    -0.006 C 
ATOM     10  C   UNL     1      -0.590   4.658   1.013  1.00  0.00     0.046 C 
ATOM     11  C   UNL     1      -1.275   4.940  -1.273  1.00  0.00    -0.016 C 
BRANCH   8  12
ATOM     12  N   UNL     1       1.789   4.801   0.160  1.00  0.00    -0.379 N 
ATOM     13  H   UNL     1       2.571   4.208   0.080  1.00  0.00     0.161 HD
BRANCH  12  14
ATOM     14  C   UNL     1       2.074   6.139   0.359  1.00  0.00     0.040 A 
ATOM     15  C   UNL     1       4.242   5.591   1.626  1.00  0.00     0.048 C 
ATOM     16  C   UNL     1       3.192   6.535   1.115  1.00  0.00    -0.010 A 
ATOM     17  C   UNL     1       3.368   7.899   1.375  1.00  0.00     0.116 A 
ATOM     18  N   UNL     1       2.541   8.880   0.960  1.00  0.00    -0.264 NA
ATOM     19  C   UNL     1       1.237   7.158  -0.100  1.00  0.00     0.046 A 
ATOM     20  C   UNL     1       1.492   8.482   0.224  1.00  0.00     0.113 A 
ENDBRANCH  12  14
ENDBRANCH   8  12
ENDBRANCH   4   7
ENDBRANCH   2   3
ENDBRANCH   1   2
BRANCH   1  21
ATOM     21  C   UNL     1      -4.229   1.194   1.877  1.00  0.00     0.118 C 
BRANCH  21  22
ATOM     22  N   UNL     1      -5.123   0.507   0.956  1.00  0.00    -0.352 N 
ATOM     23  C   UNL     1      -5.692  -0.735   1.056  1.00  0.00     0.251 C 
ATOM     24  H   UNL     1      -5.354   1.009   0.141  1.00  0.00     0.163 HD
ATOM     25  O   UNL     1      -6.248  -1.226   0.069  1.00  0.00    -0.269 OA
BRANCH  23  26
ATOM     26  C   UNL     1      -5.631  -1.490   2.324  1.00  0.00     0.039 A 
ATOM     27  C   UNL     1      -5.404  -2.867   2.283  1.00  0.00     0.014 A 
ATOM     28  C   UNL     1      -5.821  -0.848   3.551  1.00  0.00     0.014 A 
ATOM     29  C   UNL     1      -5.320  -3.591   3.474  1.00  0.00     0.010 A 
ATOM     30  C   UNL     1      -5.647  -1.553   4.738  1.00  0.00     0.010 A 
ATOM     31  C   UNL     1      -5.415  -2.935   4.712  1.00  0.00    -0.014 A 
BRANCH  31  32
ATOM     32  C   UNL     1      -5.307  -3.682   5.990  1.00  0.00     0.031 A 
ATOM     33  C   UNL     1      -6.478  -3.730   6.935  1.00  0.00     0.074 A 
ATOM     34  C   UNL     1      -4.142  -4.273   6.321  1.00  0.00     0.049 A 
ATOM     35  N   UNL     1      -6.565  -4.294   8.112  1.00  0.00    -0.248 NA
ATOM     36  C   UNL     1      -7.704  -3.029   6.516  1.00  0.00     0.031 C 
ATOM     37  C   UNL     1      -2.922  -4.258   5.510  1.00  0.00     0.029 A 
ATOM     38  N   UNL     1      -3.793  -5.000   7.431  1.00  0.00    -0.354 N 
ATOM     39  C   UNL     1      -7.841  -3.999   8.580  1.00  0.00     0.074 A 
ATOM     40  C   UNL     1      -8.473  -3.161   7.586  1.00  0.00     0.031 C 
ATOM     41  C   UNL     1      -1.971  -4.972   6.134  1.00  0.00     0.029 A 
ATOM     42  C   UNL     1      -2.498  -5.461   7.404  1.00  0.00     0.049 A 
ATOM     43  H   UNL     1      -4.411  -5.176   8.177  1.00  0.00     0.167 HD
ATOM     44  C   UNL     1      -8.442  -4.407   9.723  1.00  0.00     0.031 A 
ATOM     45  C   UNL     1      -1.811  -6.196   8.300  1.00  0.00     0.031 A 
ATOM     46  C   UNL     1      -7.815  -5.257  10.699  1.00  0.00     0.049 A 
ATOM     47  C   UNL     1      -2.502  -6.646   9.558  1.00  0.00     0.074 A 
ATOM     48  C   UNL     1      -8.356  -5.776  11.863  1.00  0.00     0.029 A 
ATOM     49  N   UNL     1      -6.509  -5.717  10.624  1.00  0.00    -0.354 N 
ATOM     50  N   UNL     1      -3.730  -6.409   9.953  1.00  0.00    -0.248 NA
ATOM     51  C   UNL     1      -1.719  -7.475  10.484  1.00  0.00     0.031 C 
ATOM     52  C   UNL     1      -7.361  -6.511  12.515  1.00  0.00     0.029 A 
ATOM     53  C   UNL     1      -6.219  -6.498  11.730  1.00  0.00     0.049 A 
ATOM     54  H   UNL     1      -5.880  -5.517   9.893  1.00  0.00     0.167 HD
ATOM     55  C   UNL     1      -3.877  -7.085  11.158  1.00  0.00     0.074 A 
ATOM     56  C   UNL     1      -2.617  -7.750  11.421  1.00  0.00     0.031 C 
ATOM     57  C   UNL     1      -4.959  -7.154  11.973  1.00  0.00     0.031 A 
BRANCH  44  58
ATOM     58  C   UNL     1      -9.850  -3.937   9.976  1.00  0.00    -0.014 A 
ATOM     59  C   UNL     1     -10.924  -4.404   9.195  1.00  0.00     0.010 A 
ATOM     60  C   UNL     1     -10.111  -3.039  11.027  1.00  0.00     0.010 A 
ATOM     61  C   UNL     1     -12.223  -3.948   9.431  1.00  0.00     0.020 A 
ATOM     62  C   UNL     1     -11.414  -2.603  11.286  1.00  0.00     0.020 A 
ATOM     63  C   UNL     1     -12.460  -3.047  10.474  1.00  0.00     0.054 A 
BRANCH  63  64
ATOM     64  S   UNL     1     -14.159  -2.487  10.770  1.00  0.00     0.124 S 
ATOM     65  O   UNL     1     -14.374  -1.576   9.649  1.00  0.00    -0.237 OA
ATOM     66  O   UNL     1     -14.920  -3.732  10.721  1.00  0.00    -0.237 OA
ATOM     67  O   UNL     1     -14.091  -1.852  12.084  1.00  0.00    -0.744 OA
ENDBRANCH  63  64
ENDBRANCH  44  58
BRANCH  45  68
ATOM     68  C   UNL     1      -0.398  -6.573   8.024  1.00  0.00    -0.014 A 
ATOM     69  C   UNL     1      -0.062  -7.902   7.714  1.00  0.00     0.010 A 
ATOM     70  C   UNL     1       0.617  -5.599   8.048  1.00  0.00     0.010 A 
ATOM     71  C   UNL     1       1.265  -8.255   7.451  1.00  0.00     0.020 A 
ATOM     72  C   UNL     1       1.941  -5.943   7.758  1.00  0.00     0.020 A 
ATOM     73  C   UNL     1       2.258  -7.272   7.472  1.00  0.00     0.054 A 
BRANCH  73  74
ATOM     74  S   UNL     1       3.965  -7.741   7.072  1.00  0.00     0.124 S 
ATOM     75  O   UNL     1       4.375  -8.450   8.280  1.00  0.00    -0.237 OA
ATOM     76  O   UNL     1       3.794  -8.567   5.880  1.00  0.00    -0.237 OA
ATOM     77  O   UNL     1       4.626  -6.459   6.841  1.00  0.00    -0.744 OA
ENDBRANCH  73  74
ENDBRANCH  45  68
BRANCH  57  78
ATOM     78  C   UNL     1      -4.844  -8.008  13.207  1.00  0.00    -0.014 A 
ATOM     79  C   UNL     1      -4.070  -7.601  14.307  1.00  0.00     0.010 A 
ATOM     80  C   UNL     1      -5.572  -9.210  13.284  1.00  0.00     0.010 A 
ATOM     81  C   UNL     1      -4.000  -8.399  15.452  1.00  0.00     0.020 A 
ATOM     82  C   UNL     1      -5.527  -9.995  14.438  1.00  0.00     0.020 A 
ATOM     83  C   UNL     1      -4.729  -9.591  15.510  1.00  0.00     0.054 A 
BRANCH  83  84
ATOM     84  S   UNL     1      -4.656 -10.587  17.024  1.00  0.00     0.124 S 
ATOM     85  O   UNL     1      -3.326 -11.184  16.931  1.00  0.00    -0.237 OA
ATOM     86  O   UNL     1      -4.824  -9.586  18.075  1.00  0.00    -0.237 OA
ATOM     87  O   UNL     1      -5.770 -11.521  16.878  1.00  0.00    -0.744 OA
ENDBRANCH  83  84
ENDBRANCH  57  78
ENDBRANCH  31  32
ENDBRANCH  23  26
ENDBRANCH  21  22
ENDBRANCH   1  21
TORSDOF 15
