REMARK SMILES CCC[C@H](C)C[C@@H](C(=O)NCCCNC(=O)c1ccc(-c2c3nc(c(-c4ccc(S(=O)(=O)[O-])cc4)c4ccc([nH]4)c(-c4ccc(S(=O)(=O)[O-])cc4)c4nc(c(-c5ccc(S(=O)(=O)[O-])cc5)c5ccc2[nH]5)C=C4)C=C3)cc1)c1ccccc1F
REMARK SMILES IDX 11 1 10 2 8 3 9 4 7 6 6 7 4 8 5 9 3 10 2 11 1 12 77 13 78 14
REMARK SMILES IDX 82 15 79 16 81 17 83 18 80 19 12 20 13 21 14 22 15 23 16 25
REMARK SMILES IDX 17 26 18 27 76 28 19 29 75 30 20 31 21 32 22 33 69 34 23 35
REMARK SMILES IDX 74 36 68 37 70 38 24 39 73 40 67 41 66 42 25 44 55 45 36 46
REMARK SMILES IDX 54 47 37 48 40 49 53 50 71 51 38 52 39 53 52 55 72 56 41 57
REMARK SMILES IDX 26 58 27 59 35 60 28 61 34 62 29 63 30 64 31 65 32 66 33 67
REMARK SMILES IDX 56 68 57 69 65 70 58 71 64 72 59 73 60 74 61 75 62 76 63 77
REMARK SMILES IDX 42 78 43 79 51 80 44 81 50 82 45 83 46 84 47 85 48 86 49 87
REMARK H PARENT 10 5 14 24 70 43 40 54
REMARK Flexibility Score: inf
ROOT
ATOM      1  C   UNL     1       2.820  -1.047  -0.996  1.00  0.00     0.117 C 
ENDROOT
BRANCH   1   2
ATOM      2  N   UNL     1       3.310  -1.943  -2.023  1.00  0.00    -0.356 N 
ATOM      3  C   UNL     1       3.108  -1.977  -3.369  1.00  0.00     0.227 C 
ATOM      4  O   UNL     1       3.446  -3.039  -3.904  1.00  0.00    -0.274 OA
ATOM      5  H   UNL     1       3.897  -2.658  -1.687  1.00  0.00     0.163 HD
BRANCH   3   6
ATOM      6  C   UNL     1       2.552  -0.761  -4.166  1.00  0.00     0.112 C 
BRANCH   6   7
ATOM      7  C   UNL     1       1.002  -0.689  -4.230  1.00  0.00     0.021 C 
BRANCH   7   8
ATOM      8  C   UNL     1       0.292   0.124  -3.120  1.00  0.00    -0.013 C 
ATOM      9  C   UNL     1       0.673   1.608  -3.120  1.00  0.00     0.007 C 
BRANCH   8  10
ATOM     10  C   UNL     1      -1.246  -0.039  -3.199  1.00  0.00     0.003 C 
BRANCH  10  11
ATOM     11  C   UNL     1      -1.878  -0.526  -1.885  1.00  0.00    -0.003 C 
ATOM     12  C   UNL     1      -1.759   0.458  -0.730  1.00  0.00     0.004 C 
ENDBRANCH  10  11
ENDBRANCH   8  10
ENDBRANCH   7   8
ENDBRANCH   6   7
BRANCH   6  13
ATOM     13  C   UNL     1       3.089  -0.763  -5.610  1.00  0.00     0.000 A 
ATOM     14  C   UNL     1       2.977  -1.890  -6.446  1.00  0.00     0.007 A 
ATOM     15  C   UNL     1       3.675   0.385  -6.151  1.00  0.00     0.127 A 
ATOM     16  C   UNL     1       3.500  -1.886  -7.742  1.00  0.00     0.001 A 
ATOM     17  C   UNL     1       4.176   0.405  -7.454  1.00  0.00     0.039 A 
ATOM     18  F   UNL     1       3.756   1.506  -5.419  1.00  0.00    -0.207 F 
ATOM     19  C   UNL     1       4.104  -0.738  -8.247  1.00  0.00     0.003 A 
ENDBRANCH   6  13
ENDBRANCH   3   6
ENDBRANCH   1   2
BRANCH   1  20
ATOM     20  C   UNL     1       1.557  -1.627  -0.355  1.00  0.00     0.042 C 
BRANCH  20  21
ATOM     21  C   UNL     1       1.820  -2.749   0.639  1.00  0.00     0.118 C 
BRANCH  21  22
ATOM     22  N   UNL     1       2.187  -2.233   1.947  1.00  0.00    -0.352 N 
ATOM     23  C   UNL     1       1.449  -2.062   3.093  1.00  0.00     0.251 C 
ATOM     24  H   UNL     1       3.130  -1.958   2.025  1.00  0.00     0.163 HD
ATOM     25  O   UNL     1       1.920  -1.352   3.981  1.00  0.00    -0.269 OA
BRANCH  23  26
ATOM     26  C   UNL     1       0.117  -2.692   3.291  1.00  0.00     0.039 A 
ATOM     27  C   UNL     1      -0.815  -2.038   4.109  1.00  0.00     0.014 A 
ATOM     28  C   UNL     1      -0.205  -3.952   2.783  1.00  0.00     0.014 A 
ATOM     29  C   UNL     1      -2.055  -2.626   4.387  1.00  0.00     0.010 A 
ATOM     30  C   UNL     1      -1.478  -4.492   2.975  1.00  0.00     0.010 A 
ATOM     31  C   UNL     1      -2.410  -3.852   3.805  1.00  0.00    -0.014 A 
BRANCH  31  32
ATOM     32  C   UNL     1      -3.715  -4.511   4.095  1.00  0.00     0.031 A 
ATOM     33  C   UNL     1      -3.748  -5.869   4.754  1.00  0.00     0.074 A 
ATOM     34  C   UNL     1      -4.871  -3.921   3.729  1.00  0.00     0.049 A 
ATOM     35  N   UNL     1      -4.774  -6.644   5.006  1.00  0.00    -0.248 NA
ATOM     36  C   UNL     1      -2.454  -6.442   5.159  1.00  0.00     0.031 C 
ATOM     37  C   UNL     1      -4.989  -2.619   3.070  1.00  0.00     0.029 A 
ATOM     38  N   UNL     1      -6.171  -4.344   3.861  1.00  0.00    -0.354 N 
ATOM     39  C   UNL     1      -4.247  -7.804   5.565  1.00  0.00     0.074 A 
ATOM     40  C   UNL     1      -2.808  -7.651   5.571  1.00  0.00     0.031 C 
ATOM     41  C   UNL     1      -6.289  -2.334   2.890  1.00  0.00     0.029 A 
ATOM     42  C   UNL     1      -7.095  -3.449   3.376  1.00  0.00     0.049 A 
ATOM     43  H   UNL     1      -6.418  -5.208   4.264  1.00  0.00     0.167 HD
ATOM     44  C   UNL     1      -4.895  -8.891   6.051  1.00  0.00     0.031 A 
ATOM     45  C   UNL     1      -8.440  -3.517   3.324  1.00  0.00     0.031 A 
ATOM     46  C   UNL     1      -6.326  -9.036   6.073  1.00  0.00     0.049 A 
ATOM     47  C   UNL     1      -9.140  -4.735   3.860  1.00  0.00     0.074 A 
ATOM     48  C   UNL     1      -7.079 -10.079   6.583  1.00  0.00     0.029 A 
ATOM     49  N   UNL     1      -7.221  -8.104   5.570  1.00  0.00    -0.354 N 
ATOM     50  N   UNL     1      -8.623  -5.809   4.407  1.00  0.00    -0.248 NA
ATOM     51  C   UNL     1     -10.607  -4.746   3.775  1.00  0.00     0.031 C 
ATOM     52  C   UNL     1      -8.431  -9.794   6.354  1.00  0.00     0.029 A 
ATOM     53  C   UNL     1      -8.520  -8.553   5.746  1.00  0.00     0.049 A 
ATOM     54  H   UNL     1      -6.971  -7.250   5.150  1.00  0.00     0.167 HD
ATOM     55  C   UNL     1      -9.703  -6.611   4.758  1.00  0.00     0.074 A 
ATOM     56  C   UNL     1     -10.901  -5.895   4.369  1.00  0.00     0.031 C 
ATOM     57  C   UNL     1      -9.702  -7.829   5.354  1.00  0.00     0.031 A 
BRANCH  44  58
ATOM     58  C   UNL     1      -4.046 -10.013   6.594  1.00  0.00    -0.014 A 
ATOM     59  C   UNL     1      -3.318  -9.861   7.788  1.00  0.00     0.010 A 
ATOM     60  C   UNL     1      -3.975 -11.235   5.901  1.00  0.00     0.010 A 
ATOM     61  C   UNL     1      -2.483 -10.885   8.244  1.00  0.00     0.020 A 
ATOM     62  C   UNL     1      -3.164 -12.274   6.371  1.00  0.00     0.020 A 
ATOM     63  C   UNL     1      -2.402 -12.081   7.526  1.00  0.00     0.054 A 
BRANCH  63  64
ATOM     64  S   UNL     1      -1.298 -13.389   8.126  1.00  0.00     0.124 S 
ATOM     65  O   UNL     1       0.013 -12.879   7.727  1.00  0.00    -0.237 OA
ATOM     66  O   UNL     1      -1.555 -13.393   9.566  1.00  0.00    -0.237 OA
ATOM     67  O   UNL     1      -1.748 -14.578   7.413  1.00  0.00    -0.744 OA
ENDBRANCH  63  64
ENDBRANCH  44  58
BRANCH  45  68
ATOM     68  C   UNL     1      -9.217  -2.375   2.770  1.00  0.00    -0.014 A 
ATOM     69  C   UNL     1      -9.949  -1.537   3.629  1.00  0.00     0.010 A 
ATOM     70  C   UNL     1      -9.209  -2.102   1.390  1.00  0.00     0.010 A 
ATOM     71  C   UNL     1     -10.667  -0.452   3.119  1.00  0.00     0.020 A 
ATOM     72  C   UNL     1      -9.906  -1.003   0.879  1.00  0.00     0.020 A 
ATOM     73  C   UNL     1     -10.638  -0.189   1.747  1.00  0.00     0.054 A 
BRANCH  73  74
ATOM     74  S   UNL     1     -11.523   1.264   1.116  1.00  0.00     0.124 S 
ATOM     75  O   UNL     1     -12.912   0.822   1.172  1.00  0.00    -0.237 OA
ATOM     76  O   UNL     1     -11.149   2.302   2.074  1.00  0.00    -0.237 OA
ATOM     77  O   UNL     1     -10.973   1.441  -0.226  1.00  0.00    -0.744 OA
ENDBRANCH  73  74
ENDBRANCH  45  68
BRANCH  57  78
ATOM     78  C   UNL     1     -11.038  -8.452   5.656  1.00  0.00    -0.014 A 
ATOM     79  C   UNL     1     -11.832  -9.004   4.636  1.00  0.00     0.010 A 
ATOM     80  C   UNL     1     -11.480  -8.530   6.989  1.00  0.00     0.010 A 
ATOM     81  C   UNL     1     -13.060  -9.598   4.941  1.00  0.00     0.020 A 
ATOM     82  C   UNL     1     -12.695  -9.145   7.301  1.00  0.00     0.020 A 
ATOM     83  C   UNL     1     -13.485  -9.664   6.272  1.00  0.00     0.054 A 
BRANCH  83  84
ATOM     84  S   UNL     1     -15.060 -10.480   6.650  1.00  0.00     0.124 S 
ATOM     85  O   UNL     1     -16.031  -9.474   6.229  1.00  0.00    -0.237 OA
ATOM     86  O   UNL     1     -15.005 -11.684   5.825  1.00  0.00    -0.237 OA
ATOM     87  O   UNL     1     -14.991 -10.716   8.090  1.00  0.00    -0.744 OA
ENDBRANCH  83  84
ENDBRANCH  57  78
ENDBRANCH  31  32
ENDBRANCH  23  26
ENDBRANCH  21  22
ENDBRANCH  20  21
ENDBRANCH   1  20
TORSDOF 18
