REMARK SMILES COc1ccc2c(c1OC)C(=O)O[C@@H]2Nc1nonc1C(=O)NCCCNC(=O)c1ccc(-c2c3nc(c(-c4ccc(S(=O)(=O)[O-])cc4)c4ccc([nH]4)c(-c4ccc(S(=O)(=O)[O-])cc4)c4nc(c(-c5ccc(S(=O)(=O)[O-])cc5)c5ccc2[nH]5)C=C4)C=C3)cc1
REMARK SMILES IDX 25 1 24 2 23 3 21 4 22 5 20 7 16 8 17 9 18 10 19 11 15 12
REMARK SMILES IDX 14 14 3 15 4 16 8 17 5 18 7 19 6 20 11 21 12 22 13 23 2 24
REMARK SMILES IDX 1 25 9 26 10 27 26 28 27 29 28 30 29 32 30 33 31 34 89 35
REMARK SMILES IDX 32 36 88 37 33 38 34 39 35 40 82 41 36 42 87 43 81 44 83 45
REMARK SMILES IDX 37 46 86 47 80 48 79 49 38 51 68 52 49 53 67 54 50 55 53 56
REMARK SMILES IDX 66 57 84 58 51 59 52 60 65 62 85 63 54 64 39 65 40 66 48 67
REMARK SMILES IDX 41 68 47 69 42 70 43 71 44 72 45 73 46 74 69 75 70 76 78 77
REMARK SMILES IDX 71 78 77 79 72 80 73 81 74 82 75 83 76 84 55 85 56 86 64 87
REMARK SMILES IDX 57 88 63 89 58 90 59 91 60 92 61 93 62 94
REMARK H PARENT 23 6 15 13 27 31 83 50 53 61
REMARK Flexibility Score: inf
ROOT
ATOM      1  C   UNL     1      -0.082   4.543   2.635  1.00  0.00     0.042 C 
ENDROOT
BRANCH   1   2
ATOM      2  C   UNL     1      -0.385   6.012   2.978  1.00  0.00     0.118 C 
BRANCH   2   3
ATOM      3  N   UNL     1      -0.841   6.818   1.861  1.00  0.00    -0.350 N 
ATOM      4  C   UNL     1      -0.360   8.027   1.410  1.00  0.00     0.277 C 
ATOM      5  O   UNL     1      -0.926   8.571   0.463  1.00  0.00    -0.267 OA
ATOM      6  H   UNL     1      -1.601   6.449   1.355  1.00  0.00     0.163 HD
BRANCH   4   7
ATOM      7  C   UNL     1       0.752   8.639   2.103  1.00  0.00     0.216 A 
ATOM      8  C   UNL     1       2.042   8.150   2.424  1.00  0.00     0.207 A 
ATOM      9  N   UNL     1       2.597   8.997   3.298  1.00  0.00    -0.031 NA
ATOM     10  O   UNL     1       1.699  10.035   3.460  1.00  0.00    -0.242 OA
ATOM     11  N   UNL     1       0.568   9.830   2.695  1.00  0.00    -0.042 NA
BRANCH   8  12
ATOM     12  N   UNL     1       2.585   6.921   2.234  1.00  0.00    -0.326 N 
ATOM     13  H   UNL     1       2.681   6.410   3.070  1.00  0.00     0.166 HD
BRANCH  12  14
ATOM     14  C   UNL     1       3.057   6.193   1.066  1.00  0.00     0.307 C 
ATOM     15  C   UNL     1      -0.128   2.374   0.237  1.00  0.00     0.161 A 
ATOM     16  C   UNL     1       0.015   3.626  -1.084  1.00  0.00     0.051 A 
ATOM     17  C   UNL     1       1.051   2.531   1.736  1.00  0.00     0.175 A 
ATOM     18  C   UNL     1       1.172   4.970  -0.934  1.00  0.00     0.014 A 
ATOM     19  C   UNL     1       2.208   3.932   1.735  1.00  0.00     0.114 A 
ATOM     20  C   UNL     1       2.175   5.126   0.499  1.00  0.00     0.032 A 
ATOM     21  C   UNL     1       3.462   4.272   2.415  1.00  0.00     0.344 C 
ATOM     22  O   UNL     1       3.978   3.743   3.375  1.00  0.00    -0.246 OA
ATOM     23  O   UNL     1       4.034   5.318   1.700  1.00  0.00    -0.434 OA
BRANCH  15  24
ATOM     24  O   UNL     1      -1.056   1.425  -0.157  1.00  0.00    -0.493 OA
ATOM     25  C   UNL     1      -0.814   0.855  -1.475  1.00  0.00     0.278 C 
ENDBRANCH  15  24
BRANCH  17  26
ATOM     26  O   UNL     1       1.493   1.569   2.652  1.00  0.00    -0.492 OA
ATOM     27  C   UNL     1       2.918   1.235   2.560  1.00  0.00     0.278 C 
ENDBRANCH  17  26
ENDBRANCH  12  14
ENDBRANCH   8  12
ENDBRANCH   4   7
ENDBRANCH   2   3
ENDBRANCH   1   2
BRANCH   1  28
ATOM     28  C   UNL     1       0.228   4.245   0.958  1.00  0.00     0.118 C 
BRANCH  28  29
ATOM     29  N   UNL     1       1.657   3.037  -0.001  1.00  0.00    -0.352 N 
ATOM     30  C   UNL     1       1.964   1.360  -0.135  1.00  0.00     0.251 C 
ATOM     31  H   UNL     1       2.316   3.573  -0.499  1.00  0.00     0.163 HD
ATOM     32  O   UNL     1       2.935   1.108  -0.863  1.00  0.00    -0.269 OA
BRANCH  30  33
ATOM     33  C   UNL     1       1.103  -0.028   0.603  1.00  0.00     0.039 A 
ATOM     34  C   UNL     1       1.479  -1.362   0.380  1.00  0.00     0.014 A 
ATOM     35  C   UNL     1      -0.040   0.006   1.483  1.00  0.00     0.014 A 
ATOM     36  C   UNL     1       0.687  -2.485   0.889  1.00  0.00     0.010 A 
ATOM     37  C   UNL     1      -0.873  -1.028   1.879  1.00  0.00     0.010 A 
ATOM     38  C   UNL     1      -0.536  -2.315   1.578  1.00  0.00    -0.014 A 
BRANCH  38  39
ATOM     39  C   UNL     1      -1.498  -3.307   2.146  1.00  0.00     0.031 A 
ATOM     40  C   UNL     1      -2.780  -3.665   1.416  1.00  0.00     0.074 A 
ATOM     41  C   UNL     1      -1.455  -3.563   3.474  1.00  0.00     0.049 A 
ATOM     42  N   UNL     1      -3.693  -4.551   1.731  1.00  0.00    -0.248 NA
ATOM     43  C   UNL     1      -3.103  -2.891   0.204  1.00  0.00     0.031 C 
ATOM     44  C   UNL     1      -0.474  -2.997   4.406  1.00  0.00     0.029 A 
ATOM     45  N   UNL     1      -2.280  -4.309   4.282  1.00  0.00    -0.354 N 
ATOM     46  C   UNL     1      -4.658  -4.493   0.726  1.00  0.00     0.074 A 
ATOM     47  C   UNL     1      -4.265  -3.421  -0.163  1.00  0.00     0.031 C 
ATOM     48  C   UNL     1      -0.726  -3.451   5.644  1.00  0.00     0.029 A 
ATOM     49  C   UNL     1      -1.867  -4.360   5.594  1.00  0.00     0.049 A 
ATOM     50  H   UNL     1      -3.088  -4.764   3.953  1.00  0.00     0.167 HD
ATOM     51  C   UNL     1      -5.750  -5.283   0.553  1.00  0.00     0.031 A 
ATOM     52  C   UNL     1      -2.316  -5.099   6.628  1.00  0.00     0.031 A 
ATOM     53  C   UNL     1      -6.163  -6.285   1.507  1.00  0.00     0.049 A 
ATOM     54  C   UNL     1      -3.434  -6.076   6.389  1.00  0.00     0.074 A 
ATOM     55  C   UNL     1      -7.152  -7.247   1.386  1.00  0.00     0.029 A 
ATOM     56  N   UNL     1      -5.631  -6.423   2.781  1.00  0.00    -0.354 N 
ATOM     57  N   UNL     1      -4.169  -6.238   5.315  1.00  0.00    -0.248 NA
ATOM     58  C   UNL     1      -3.749  -7.006   7.482  1.00  0.00     0.031 C 
ATOM     59  C   UNL     1      -7.254  -7.928   2.606  1.00  0.00     0.029 A 
ATOM     60  C   UNL     1      -6.281  -7.439   3.463  1.00  0.00     0.049 A 
ATOM     61  H   UNL     1      -4.898  -5.878   3.148  1.00  0.00     0.167 HD
ATOM     62  C   UNL     1      -5.009  -7.312   5.588  1.00  0.00     0.074 A 
ATOM     63  C   UNL     1      -4.679  -7.769   6.923  1.00  0.00     0.031 C 
ATOM     64  C   UNL     1      -5.959  -7.875   4.799  1.00  0.00     0.031 A 
BRANCH  51  65
ATOM     65  C   UNL     1      -6.542  -5.155  -0.733  1.00  0.00    -0.014 A 
ATOM     66  C   UNL     1      -5.949  -5.487  -1.967  1.00  0.00     0.010 A 
ATOM     67  C   UNL     1      -7.912  -4.829  -0.715  1.00  0.00     0.010 A 
ATOM     68  C   UNL     1      -6.692  -5.460  -3.153  1.00  0.00     0.020 A 
ATOM     69  C   UNL     1      -8.668  -4.827  -1.897  1.00  0.00     0.020 A 
ATOM     70  C   UNL     1      -8.048  -5.130  -3.111  1.00  0.00     0.054 A 
BRANCH  70  71
ATOM     71  S   UNL     1      -8.989  -5.139  -4.664  1.00  0.00     0.124 S 
ATOM     72  O   UNL     1      -8.434  -3.981  -5.360  1.00  0.00    -0.237 OA
ATOM     73  O   UNL     1      -8.646  -6.438  -5.239  1.00  0.00    -0.237 OA
ATOM     74  O   UNL     1     -10.378  -4.998  -4.233  1.00  0.00    -0.744 OA
ENDBRANCH  70  71
ENDBRANCH  51  65
BRANCH  52  75
ATOM     75  C   UNL     1      -1.594  -5.053   7.931  1.00  0.00    -0.014 A 
ATOM     76  C   UNL     1      -0.747  -6.114   8.304  1.00  0.00     0.010 A 
ATOM     77  C   UNL     1      -1.697  -3.935   8.776  1.00  0.00     0.010 A 
ATOM     78  C   UNL     1      -0.033  -6.067   9.505  1.00  0.00     0.020 A 
ATOM     79  C   UNL     1      -0.962  -3.871   9.965  1.00  0.00     0.020 A 
ATOM     80  C   UNL     1      -0.142  -4.943  10.327  1.00  0.00     0.054 A 
BRANCH  80  81
ATOM     81  S   UNL     1       0.842  -4.880  11.851  1.00  0.00     0.124 S 
ATOM     82  O   UNL     1       0.162  -5.859  12.693  1.00  0.00    -0.237 OA
ATOM     83  O   UNL     1       2.172  -5.261  11.384  1.00  0.00    -0.237 OA
ATOM     84  O   UNL     1       0.716  -3.489  12.282  1.00  0.00    -0.744 OA
ENDBRANCH  80  81
ENDBRANCH  52  75
BRANCH  64  85
ATOM     85  C   UNL     1      -6.693  -9.071   5.348  1.00  0.00    -0.014 A 
ATOM     86  C   UNL     1      -7.600  -8.952   6.417  1.00  0.00     0.010 A 
ATOM     87  C   UNL     1      -6.493 -10.333   4.759  1.00  0.00     0.010 A 
ATOM     88  C   UNL     1      -8.256 -10.081   6.916  1.00  0.00     0.020 A 
ATOM     89  C   UNL     1      -7.172 -11.458   5.233  1.00  0.00     0.020 A 
ATOM     90  C   UNL     1      -8.036 -11.327   6.322  1.00  0.00     0.054 A 
BRANCH  90  91
ATOM     91  S   UNL     1      -8.917 -12.772   6.973  1.00  0.00     0.124 S 
ATOM     92  O   UNL     1      -8.236 -12.996   8.245  1.00  0.00    -0.237 OA
ATOM     93  O   UNL     1     -10.292 -12.289   7.074  1.00  0.00    -0.237 OA
ATOM     94  O   UNL     1      -8.696 -13.800   5.959  1.00  0.00    -0.744 OA
ENDBRANCH  90  91
ENDBRANCH  64  85
ENDBRANCH  38  39
ENDBRANCH  30  33
ENDBRANCH  28  29
ENDBRANCH   1  28
TORSDOF 17
