REMARK SMILES COc1ccc(C(=O)CCCC(=O)NCCCNC(=O)c2ccc(-c3c4nc(c(-c5ccc(S(=O)(=O)[O-])cc5)c5ccc([nH]5)c(-c5ccc(S(=O)(=O)[O-])cc5)c5nc(c(-c6ccc(S(=O)(=O)[O-])cc6)c6ccc3[nH]6)C=C5)C=C4)cc2)cc1
REMARK SMILES IDX 15 1 14 2 12 3 13 4 11 6 10 7 9 8 7 9 8 10 6 11 3 12 4 13
REMARK SMILES IDX 82 14 5 15 81 16 2 17 1 18 16 19 17 20 18 21 19 22 20 24
REMARK SMILES IDX 21 25 22 26 80 27 23 28 79 29 24 30 25 31 26 32 73 33 27 34
REMARK SMILES IDX 78 35 72 36 74 37 28 38 77 39 71 40 70 41 29 43 59 44 40 45
REMARK SMILES IDX 58 46 41 47 44 48 57 49 75 50 42 51 43 52 56 54 76 55 45 56
REMARK SMILES IDX 30 57 31 58 39 59 32 60 38 61 33 62 34 63 35 64 36 65 37 66
REMARK SMILES IDX 60 67 61 68 69 69 62 70 68 71 63 72 64 73 65 74 66 75 67 76
REMARK SMILES IDX 46 77 47 78 55 79 48 80 54 81 49 82 50 83 51 84 52 85 53 86
REMARK H PARENT 14 5 18 23 74 42 44 53
REMARK Flexibility Score: inf
ROOT
ATOM      1  C   UNL     1       4.462   3.441  -3.978  1.00  0.00     0.117 C 
ENDROOT
BRANCH   1   2
ATOM      2  N   UNL     1       5.532   3.539  -3.006  1.00  0.00    -0.356 N 
ATOM      3  C   UNL     1       5.674   4.104  -1.785  1.00  0.00     0.220 C 
ATOM      4  O   UNL     1       6.794   3.973  -1.275  1.00  0.00    -0.275 OA
ATOM      5  H   UNL     1       6.353   3.085  -3.306  1.00  0.00     0.163 HD
BRANCH   3   6
ATOM      6  C   UNL     1       4.564   4.740  -0.950  1.00  0.00     0.100 C 
BRANCH   6   7
ATOM      7  C   UNL     1       3.761   5.962  -1.391  1.00  0.00     0.018 C 
BRANCH   7   8
ATOM      8  C   UNL     1       2.779   5.953  -2.558  1.00  0.00     0.081 C 
BRANCH   8   9
ATOM      9  C   UNL     1       1.335   5.446  -2.441  1.00  0.00     0.162 C 
ATOM     10  O   UNL     1       0.415   6.244  -2.656  1.00  0.00    -0.294 OA
BRANCH   9  11
ATOM     11  C   UNL     1       0.938   4.018  -2.187  1.00  0.00     0.018 A 
ATOM     12  C   UNL     1       0.019   1.405  -1.580  1.00  0.00     0.118 A 
ATOM     13  C   UNL     1      -0.866   2.373  -2.046  1.00  0.00     0.047 A 
ATOM     14  C   UNL     1       1.368   1.712  -1.504  1.00  0.00     0.047 A 
ATOM     15  C   UNL     1      -0.413   3.669  -2.337  1.00  0.00     0.015 A 
ATOM     16  C   UNL     1       1.809   3.002  -1.809  1.00  0.00     0.015 A 
BRANCH  12  17
ATOM     17  O   UNL     1      -0.509   0.189  -1.250  1.00  0.00    -0.497 OA
ATOM     18  C   UNL     1       0.161  -0.463  -0.171  1.00  0.00     0.278 C 
ENDBRANCH  12  17
ENDBRANCH   9  11
ENDBRANCH   8   9
ENDBRANCH   7   8
ENDBRANCH   6   7
ENDBRANCH   3   6
ENDBRANCH   1   2
BRANCH   1  19
ATOM     19  C   UNL     1       4.680   4.380  -5.155  1.00  0.00     0.042 C 
BRANCH  19  20
ATOM     20  C   UNL     1       5.431   3.709  -6.287  1.00  0.00     0.118 C 
BRANCH  20  21
ATOM     21  N   UNL     1       4.565   2.840  -7.081  1.00  0.00    -0.352 N 
ATOM     22  C   UNL     1       4.335   2.864  -8.438  1.00  0.00     0.251 C 
ATOM     23  H   UNL     1       4.081   2.146  -6.578  1.00  0.00     0.163 HD
ATOM     24  O   UNL     1       3.445   2.173  -8.927  1.00  0.00    -0.269 OA
BRANCH  22  25
ATOM     25  C   UNL     1       5.150   3.755  -9.290  1.00  0.00     0.039 A 
ATOM     26  C   UNL     1       4.529   4.553 -10.254  1.00  0.00     0.014 A 
ATOM     27  C   UNL     1       6.527   3.845  -9.082  1.00  0.00     0.014 A 
ATOM     28  C   UNL     1       5.281   5.504 -10.950  1.00  0.00     0.010 A 
ATOM     29  C   UNL     1       7.245   4.865  -9.687  1.00  0.00     0.010 A 
ATOM     30  C   UNL     1       6.636   5.698 -10.638  1.00  0.00    -0.014 A 
BRANCH  30  31
ATOM     31  C   UNL     1       7.476   6.723 -11.310  1.00  0.00     0.031 A 
ATOM     32  C   UNL     1       8.718   6.281 -12.040  1.00  0.00     0.074 A 
ATOM     33  C   UNL     1       7.199   8.035 -11.176  1.00  0.00     0.049 A 
ATOM     34  N   UNL     1       9.706   7.000 -12.504  1.00  0.00    -0.248 NA
ATOM     35  C   UNL     1       8.894   4.829 -12.224  1.00  0.00     0.031 C 
ATOM     36  C   UNL     1       6.047   8.599 -10.467  1.00  0.00     0.029 A 
ATOM     37  N   UNL     1       7.882   9.139 -11.623  1.00  0.00    -0.354 N 
ATOM     38  C   UNL     1      10.639   6.087 -12.984  1.00  0.00     0.074 A 
ATOM     39  C   UNL     1      10.124   4.765 -12.708  1.00  0.00     0.031 C 
ATOM     40  C   UNL     1       6.089   9.940 -10.553  1.00  0.00     0.029 A 
ATOM     41  C   UNL     1       7.294  10.333 -11.276  1.00  0.00     0.049 A 
ATOM     42  H   UNL     1       8.716   9.082 -12.143  1.00  0.00     0.167 HD
ATOM     43  C   UNL     1      11.811   6.325 -13.620  1.00  0.00     0.031 A 
ATOM     44  C   UNL     1       7.688  11.601 -11.507  1.00  0.00     0.031 A 
ATOM     45  C   UNL     1      12.290   7.639 -13.945  1.00  0.00     0.049 A 
ATOM     46  C   UNL     1       8.973  11.843 -12.252  1.00  0.00     0.074 A 
ATOM     47  C   UNL     1      13.435   7.993 -14.634  1.00  0.00     0.029 A 
ATOM     48  N   UNL     1      11.631   8.817 -13.626  1.00  0.00    -0.354 N 
ATOM     49  N   UNL     1       9.835  10.967 -12.713  1.00  0.00    -0.248 NA
ATOM     50  C   UNL     1       9.336  13.242 -12.516  1.00  0.00     0.031 C 
ATOM     51  C   UNL     1      13.480   9.389 -14.715  1.00  0.00     0.029 A 
ATOM     52  C   UNL     1      12.341   9.899 -14.111  1.00  0.00     0.049 A 
ATOM     53  H   UNL     1      10.784   8.874 -13.128  1.00  0.00     0.167 HD
ATOM     54  C   UNL     1      10.822  11.709 -13.352  1.00  0.00     0.074 A 
ATOM     55  C   UNL     1      10.450  13.103 -13.222  1.00  0.00     0.031 C 
ATOM     56  C   UNL     1      11.936  11.276 -13.991  1.00  0.00     0.031 A 
BRANCH  43  57
ATOM     57  C   UNL     1      12.639   5.132 -14.013  1.00  0.00    -0.014 A 
ATOM     58  C   UNL     1      12.214   4.260 -15.032  1.00  0.00     0.010 A 
ATOM     59  C   UNL     1      13.861   4.881 -13.363  1.00  0.00     0.010 A 
ATOM     60  C   UNL     1      12.966   3.129 -15.356  1.00  0.00     0.020 A 
ATOM     61  C   UNL     1      14.633   3.767 -13.706  1.00  0.00     0.020 A 
ATOM     62  C   UNL     1      14.168   2.886 -14.685  1.00  0.00     0.054 A 
BRANCH  62  63
ATOM     63  S   UNL     1      15.130   1.414 -15.130  1.00  0.00     0.124 S 
ATOM     64  O   UNL     1      14.372   0.352 -14.473  1.00  0.00    -0.237 OA
ATOM     65  O   UNL     1      15.070   1.417 -16.589  1.00  0.00    -0.237 OA
ATOM     66  O   UNL     1      16.450   1.679 -14.564  1.00  0.00    -0.744 OA
ENDBRANCH  62  63
ENDBRANCH  43  57
BRANCH  44  67
ATOM     67  C   UNL     1       6.845  12.742 -11.057  1.00  0.00    -0.014 A 
ATOM     68  C   UNL     1       6.129  13.504 -11.997  1.00  0.00     0.010 A 
ATOM     69  C   UNL     1       6.749  13.073  -9.693  1.00  0.00     0.010 A 
ATOM     70  C   UNL     1       5.354  14.592 -11.587  1.00  0.00     0.020 A 
ATOM     71  C   UNL     1       5.955  14.147  -9.277  1.00  0.00     0.020 A 
ATOM     72  C   UNL     1       5.273  14.909 -10.229  1.00  0.00     0.054 A 
BRANCH  72  73
ATOM     73  S   UNL     1       4.232  16.303  -9.714  1.00  0.00     0.124 S 
ATOM     74  O   UNL     1       5.055  17.449 -10.088  1.00  0.00    -0.237 OA
ATOM     75  O   UNL     1       3.022  16.106 -10.509  1.00  0.00    -0.237 OA
ATOM     76  O   UNL     1       4.065  16.091  -8.278  1.00  0.00    -0.744 OA
ENDBRANCH  72  73
ENDBRANCH  44  67
BRANCH  56  77
ATOM     77  C   UNL     1      12.804  12.308 -14.654  1.00  0.00    -0.014 A 
ATOM     78  C   UNL     1      13.664  13.127 -13.904  1.00  0.00     0.010 A 
ATOM     79  C   UNL     1      12.817  12.394 -16.058  1.00  0.00     0.010 A 
ATOM     80  C   UNL     1      14.516  14.027 -14.549  1.00  0.00     0.020 A 
ATOM     81  C   UNL     1      13.682  13.277 -16.707  1.00  0.00     0.020 A 
ATOM     82  C   UNL     1      14.521  14.094 -15.947  1.00  0.00     0.054 A 
BRANCH  82  83
ATOM     83  S   UNL     1      15.688  15.218 -16.764  1.00  0.00     0.124 S 
ATOM     84  O   UNL     1      15.053  16.517 -16.556  1.00  0.00    -0.237 OA
ATOM     85  O   UNL     1      16.924  14.996 -16.019  1.00  0.00    -0.237 OA
ATOM     86  O   UNL     1      15.709  14.748 -18.147  1.00  0.00    -0.744 OA
ENDBRANCH  82  83
ENDBRANCH  56  77
ENDBRANCH  30  31
ENDBRANCH  22  25
ENDBRANCH  20  21
ENDBRANCH  19  20
ENDBRANCH   1  19
TORSDOF 18
