REMARK SMILES N#CCC(=O)N/N=C/c1ccc(OCc2ccc(C(=O)NCCCNC(=O)c3ccc(-c4c5nc(c(-c6ccc(S(=O)(=O)[O-])cc6)c6ccc([nH]6)c(-c6ccc(S(=O)(=O)[O-])cc6)c6nc(c(-c7ccc(S(=O)(=O)[O-])cc7)c7ccc4[nH]7)C=C6)C=C5)cc3)cc2)c(Br)c1
REMARK SMILES IDX 19 1 20 2 21 3 18 5 15 6 16 7 89 8 17 9 88 10 14 11 13 12
REMARK SMILES IDX 12 13 9 14 10 15 92 16 11 17 90 18 91 19 8 20 7 21 6 22 4 23
REMARK SMILES IDX 5 24 3 26 2 27 1 28 22 29 23 30 24 31 25 32 26 33 27 35
REMARK SMILES IDX 28 36 29 37 87 38 30 39 86 40 31 41 32 42 33 43 80 44 34 45
REMARK SMILES IDX 85 46 79 47 81 48 35 49 84 50 78 51 77 52 36 54 66 55 47 56
REMARK SMILES IDX 65 57 48 58 51 59 64 60 82 61 49 62 50 63 63 65 83 66 52 67
REMARK SMILES IDX 37 68 38 69 46 70 39 71 45 72 40 73 41 74 42 75 43 76 44 77
REMARK SMILES IDX 67 78 68 79 76 80 69 81 75 82 70 83 71 84 72 85 73 86 74 87
REMARK SMILES IDX 53 88 54 89 62 90 55 91 61 92 56 93 57 94 58 95 59 96 60 97
REMARK H PARENT 21 4 6 25 25 34 81 53 51 64
REMARK Flexibility Score: inf
ROOT
ATOM      1  C   UNL     1      -0.591   1.042  -7.172  1.00  0.00     0.251 C 
ATOM      2  O   UNL     1      -0.150  -0.023  -6.740  1.00  0.00    -0.269 OA
ATOM      3  N   UNL     1      -0.815   1.156  -8.518  1.00  0.00    -0.352 N 
ATOM      4  H   UNL     1      -0.565   0.360  -9.041  1.00  0.00     0.163 HD
ENDROOT
BRANCH   1   5
ATOM      5  C   UNL     1      -0.939   2.123  -6.219  1.00  0.00     0.039 A 
ATOM      6  C   UNL     1      -1.749   4.049  -4.329  1.00  0.00    -0.011 A 
ATOM      7  C   UNL     1      -1.935   2.682  -4.080  1.00  0.00     0.008 A 
ATOM      8  C   UNL     1      -1.106   4.439  -5.511  1.00  0.00     0.008 A 
ATOM      9  C   UNL     1      -1.527   1.729  -5.013  1.00  0.00     0.014 A 
ATOM     10  C   UNL     1      -0.693   3.480  -6.444  1.00  0.00     0.014 A 
BRANCH   6  11
ATOM     11  C   UNL     1      -2.267   5.081  -3.351  1.00  0.00     0.265 C 
BRANCH  11  12
ATOM     12  O   UNL     1      -1.289   5.804  -2.595  1.00  0.00    -0.488 OA
BRANCH  12  13
ATOM     13  C   UNL     1      -0.320   5.090  -1.949  1.00  0.00     0.134 A 
ATOM     14  C   UNL     1       1.899   3.882  -0.736  1.00  0.00    -0.004 A 
ATOM     15  C   UNL     1       2.093   4.938  -1.620  1.00  0.00     0.013 A 
ATOM     16  C   UNL     1       0.605   3.449  -0.430  1.00  0.00     0.029 A 
ATOM     17  C   UNL     1       0.983   5.544  -2.212  1.00  0.00     0.048 A 
ATOM     18  C   UNL     1      -0.507   4.066  -1.014  1.00  0.00     0.060 A 
ATOM     19  Br  UNL     1      -2.200   3.532  -0.339  1.00  0.00    -0.047 Br
BRANCH  14  20
ATOM     20  C   UNL     1       3.071   3.255  -0.096  1.00  0.00     0.141 C 
ATOM     21  N   UNL     1       2.952   2.633   1.035  1.00  0.00    -0.181 NA
BRANCH  21  22
ATOM     22  N   UNL     1       4.082   2.055   1.516  1.00  0.00    -0.246 N 
ATOM     23  C   UNL     1       4.414   0.739   1.277  1.00  0.00     0.254 C 
ATOM     24  O   UNL     1       5.252   0.182   1.991  1.00  0.00    -0.272 OA
ATOM     25  H   UNL     1       4.693   2.602   2.060  1.00  0.00     0.193 HD
BRANCH  23  26
ATOM     26  C   UNL     1       3.835   0.049   0.068  1.00  0.00     0.221 C 
BRANCH  26  27
ATOM     27  C   UNL     1       2.315   0.049   0.068  1.00  0.00     0.072 C 
ATOM     28  N   UNL     1       1.054   0.049   0.068  1.00  0.00    -0.198 NA
ENDBRANCH  26  27
ENDBRANCH  23  26
ENDBRANCH  21  22
ENDBRANCH  14  20
ENDBRANCH  12  13
ENDBRANCH  11  12
ENDBRANCH   6  11
ENDBRANCH   1   5
BRANCH   3  29
ATOM     29  C   UNL     1      -1.358   2.245  -9.309  1.00  0.00     0.118 C 
BRANCH  29  30
ATOM     30  C   UNL     1      -0.247   2.977 -10.058  1.00  0.00     0.042 C 
BRANCH  30  31
ATOM     31  C   UNL     1       0.361   2.152 -11.188  1.00  0.00     0.118 C 
BRANCH  31  32
ATOM     32  N   UNL     1      -0.575   1.964 -12.288  1.00  0.00    -0.352 N 
ATOM     33  C   UNL     1      -0.457   2.333 -13.601  1.00  0.00     0.251 C 
ATOM     34  H   UNL     1      -1.414   1.506 -12.053  1.00  0.00     0.163 HD
ATOM     35  O   UNL     1      -1.457   2.313 -14.326  1.00  0.00    -0.269 OA
BRANCH  33  36
ATOM     36  C   UNL     1       0.847   2.758 -14.151  1.00  0.00     0.039 A 
ATOM     37  C   UNL     1       0.889   3.832 -15.044  1.00  0.00     0.014 A 
ATOM     38  C   UNL     1       2.022   2.078 -13.819  1.00  0.00     0.014 A 
ATOM     39  C   UNL     1       2.114   4.251 -15.568  1.00  0.00     0.010 A 
ATOM     40  C   UNL     1       3.250   2.543 -14.283  1.00  0.00     0.010 A 
ATOM     41  C   UNL     1       3.308   3.627 -15.171  1.00  0.00    -0.014 A 
BRANCH  41  42
ATOM     42  C   UNL     1       4.623   4.082 -15.688  1.00  0.00     0.031 A 
ATOM     43  C   UNL     1       5.458   3.161 -16.540  1.00  0.00     0.074 A 
ATOM     44  C   UNL     1       5.085   5.303 -15.354  1.00  0.00     0.049 A 
ATOM     45  N   UNL     1       6.655   3.353 -17.031  1.00  0.00    -0.248 NA
ATOM     46  C   UNL     1       4.881   1.845 -16.863  1.00  0.00     0.031 C 
ATOM     47  C   UNL     1       4.382   6.275 -14.512  1.00  0.00     0.029 A 
ATOM     48  N   UNL     1       6.258   5.936 -15.679  1.00  0.00    -0.354 N 
ATOM     49  C   UNL     1       6.977   2.184 -17.712  1.00  0.00     0.074 A 
ATOM     50  C   UNL     1       5.874   1.267 -17.524  1.00  0.00     0.031 C 
ATOM     51  C   UNL     1       5.125   7.390 -14.412  1.00  0.00     0.029 A 
ATOM     52  C   UNL     1       6.372   7.198 -15.143  1.00  0.00     0.049 A 
ATOM     53  H   UNL     1       6.953   5.526 -16.242  1.00  0.00     0.167 HD
ATOM     54  C   UNL     1       8.079   1.907 -18.448  1.00  0.00     0.031 A 
ATOM     55  C   UNL     1       7.373   8.097 -15.226  1.00  0.00     0.031 A 
ATOM     56  C   UNL     1       9.170   2.826 -18.642  1.00  0.00     0.049 A 
ATOM     57  C   UNL     1       8.599   7.751 -16.027  1.00  0.00     0.074 A 
ATOM     58  C   UNL     1      10.317   2.652 -19.395  1.00  0.00     0.029 A 
ATOM     59  N   UNL     1       9.244   4.093 -18.084  1.00  0.00    -0.354 N 
ATOM     60  N   UNL     1       8.863   6.657 -16.700  1.00  0.00    -0.248 NA
ATOM     61  C   UNL     1       9.658   8.769 -16.090  1.00  0.00     0.031 C 
ATOM     62  C   UNL     1      11.108   3.798 -19.257  1.00  0.00     0.029 A 
ATOM     63  C   UNL     1      10.425   4.707 -18.466  1.00  0.00     0.049 A 
ATOM     64  H   UNL     1       8.559   4.496 -17.504  1.00  0.00     0.167 HD
ATOM     65  C   UNL     1      10.102   6.869 -17.295  1.00  0.00     0.074 A 
ATOM     66  C   UNL     1      10.527   8.201 -16.915  1.00  0.00     0.031 C 
ATOM     67  C   UNL     1      10.825   6.038 -18.086  1.00  0.00     0.031 A 
BRANCH  54  68
ATOM     68  C   UNL     1       8.159   0.556 -19.111  1.00  0.00    -0.014 A 
ATOM     69  C   UNL     1       7.325   0.237 -20.198  1.00  0.00     0.010 A 
ATOM     70  C   UNL     1       9.117  -0.382 -18.686  1.00  0.00     0.010 A 
ATOM     71  C   UNL     1       7.428  -1.005 -20.829  1.00  0.00     0.020 A 
ATOM     72  C   UNL     1       9.242  -1.615 -19.333  1.00  0.00     0.020 A 
ATOM     73  C   UNL     1       8.387  -1.923 -20.393  1.00  0.00     0.054 A 
BRANCH  73  74
ATOM     74  S   UNL     1       8.527  -3.510 -21.262  1.00  0.00     0.124 S 
ATOM     75  O   UNL     1       7.313  -4.198 -20.828  1.00  0.00    -0.237 OA
ATOM     76  O   UNL     1       8.551  -3.105 -22.665  1.00  0.00    -0.237 OA
ATOM     77  O   UNL     1       9.776  -4.074 -20.757  1.00  0.00    -0.744 OA
ENDBRANCH  73  74
ENDBRANCH  54  68
BRANCH  55  78
ATOM     78  C   UNL     1       7.261   9.414 -14.539  1.00  0.00    -0.014 A 
ATOM     79  C   UNL     1       7.152  10.601 -15.284  1.00  0.00     0.010 A 
ATOM     80  C   UNL     1       7.289   9.490 -13.135  1.00  0.00     0.010 A 
ATOM     81  C   UNL     1       7.113  11.842 -14.641  1.00  0.00     0.020 A 
ATOM     82  C   UNL     1       7.218  10.726 -12.486  1.00  0.00     0.020 A 
ATOM     83  C   UNL     1       7.151  11.896 -13.245  1.00  0.00     0.054 A 
BRANCH  83  84
ATOM     84  S   UNL     1       7.087  13.515 -12.428  1.00  0.00     0.124 S 
ATOM     85  O   UNL     1       8.428  14.033 -12.677  1.00  0.00    -0.237 OA
ATOM     86  O   UNL     1       6.005  14.187 -13.143  1.00  0.00    -0.237 OA
ATOM     87  O   UNL     1       6.792  13.182 -11.036  1.00  0.00    -0.744 OA
ENDBRANCH  83  84
ENDBRANCH  55  78
BRANCH  67  88
ATOM     88  C   UNL     1      12.124   6.562 -18.636  1.00  0.00    -0.014 A 
ATOM     89  C   UNL     1      13.249   6.740 -17.811  1.00  0.00     0.010 A 
ATOM     90  C   UNL     1      12.232   6.832 -20.013  1.00  0.00     0.010 A 
ATOM     91  C   UNL     1      14.448   7.215 -18.348  1.00  0.00     0.020 A 
ATOM     92  C   UNL     1      13.438   7.277 -20.558  1.00  0.00     0.020 A 
ATOM     93  C   UNL     1      14.535   7.481 -19.719  1.00  0.00     0.054 A 
BRANCH  93  94
ATOM     94  S   UNL     1      16.115   8.056 -20.397  1.00  0.00     0.124 S 
ATOM     95  O   UNL     1      16.167   9.435 -19.919  1.00  0.00    -0.237 OA
ATOM     96  O   UNL     1      17.078   7.143 -19.786  1.00  0.00    -0.237 OA
ATOM     97  O   UNL     1      15.950   7.902 -21.841  1.00  0.00    -0.744 OA
ENDBRANCH  93  94
ENDBRANCH  67  88
ENDBRANCH  41  42
ENDBRANCH  33  36
ENDBRANCH  31  32
ENDBRANCH  30  31
ENDBRANCH  29  30
ENDBRANCH   3  29
TORSDOF 20
