REMARK SMILES COc1ccc([C@H]2CC(c3ccc(S(C)(=O)=O)cc3)=NN2c2ccc(C(=O)NCCCNC(=O)c3ccc(-c4c5nc(c(-c6ccc(S(=O)(=O)[O-])cc6)c6ccc([nH]6)c(-c6ccc(S(=O)(=O)[O-])cc6)c6nc(c(-c7ccc(S(=O)(=O)[O-])cc7)c7ccc4[nH]7)C=C6)C=C5)cc3)cc2)cc1
REMARK SMILES IDX 30 1 29 2 28 3 26 4 27 5 25 7 22 8 23 9 96 10 24 11 95 12
REMARK SMILES IDX 21 13 7 14 8 15 9 16 20 17 6 18 3 19 4 20 98 21 5 22 97 23
REMARK SMILES IDX 2 24 1 25 10 26 11 27 19 28 12 29 18 30 13 31 14 32 15 33
REMARK SMILES IDX 16 34 17 35 31 36 32 37 33 38 34 40 35 41 36 42 94 43 37 44
REMARK SMILES IDX 93 45 38 46 39 47 40 48 87 49 41 50 92 51 86 52 88 53 42 54
REMARK SMILES IDX 91 55 85 56 84 57 43 59 73 60 54 61 72 62 55 63 58 64 71 65
REMARK SMILES IDX 89 66 56 67 57 68 70 70 90 71 59 72 44 73 45 74 53 75 46 76
REMARK SMILES IDX 52 77 47 78 48 79 49 80 50 81 51 82 74 83 75 84 83 85 76 86
REMARK SMILES IDX 82 87 77 88 78 89 79 90 80 91 81 92 60 93 61 94 69 95 62 96
REMARK SMILES IDX 68 97 63 98 64 99 65 100 66 101 67 102
REMARK H PARENT 28 6 32 39 88 58 58 69
REMARK Flexibility Score: inf
ROOT
ATOM      1  C   UNL     1       0.818   4.077  10.799  1.00  0.00     0.042 C 
ENDROOT
BRANCH   1   2
ATOM      2  C   UNL     1       0.957   4.339   9.300  1.00  0.00     0.118 C 
BRANCH   2   3
ATOM      3  N   UNL     1       2.295   4.792   8.970  1.00  0.00    -0.352 N 
ATOM      4  C   UNL     1       3.384   4.155   8.434  1.00  0.00     0.251 C 
ATOM      5  O   UNL     1       4.385   4.839   8.213  1.00  0.00    -0.269 OA
ATOM      6  H   UNL     1       2.452   5.743   9.170  1.00  0.00     0.163 HD
BRANCH   4   7
ATOM      7  C   UNL     1       3.394   2.713   8.059  1.00  0.00     0.039 A 
ATOM      8  C   UNL     1       3.506   0.029   7.160  1.00  0.00     0.060 A 
ATOM      9  C   UNL     1       4.348   1.003   6.615  1.00  0.00     0.029 A 
ATOM     10  C   UNL     1       2.653   0.404   8.201  1.00  0.00     0.029 A 
ATOM     11  C   UNL     1       4.281   2.332   7.042  1.00  0.00     0.016 A 
ATOM     12  C   UNL     1       2.624   1.723   8.671  1.00  0.00     0.016 A 
BRANCH   8  13
ATOM     13  N   UNL     1       3.545  -1.266   6.674  1.00  0.00    -0.257 N 
ATOM     14  C   UNL     1       2.374  -2.001   6.199  1.00  0.00     0.144 C 
ATOM     15  C   UNL     1       2.908  -3.432   6.057  1.00  0.00     0.091 C 
ATOM     16  C   UNL     1       4.306  -3.241   6.570  1.00  0.00     0.071 C 
ATOM     17  N   UNL     1       4.638  -2.035   6.905  1.00  0.00    -0.176 NA
BRANCH  14  18
ATOM     18  C   UNL     1       1.865  -1.430   4.885  1.00  0.00    -0.023 A 
ATOM     19  C   UNL     1       0.909  -0.351   2.456  1.00  0.00     0.118 A 
ATOM     20  C   UNL     1       0.071  -0.454   3.567  1.00  0.00     0.047 A 
ATOM     21  C   UNL     1       2.236  -0.764   2.564  1.00  0.00     0.047 A 
ATOM     22  C   UNL     1       0.539  -0.993   4.770  1.00  0.00     0.010 A 
ATOM     23  C   UNL     1       2.709  -1.295   3.769  1.00  0.00     0.010 A 
BRANCH  19  24
ATOM     24  O   UNL     1       0.331   0.192   1.342  1.00  0.00    -0.497 OA
ATOM     25  C   UNL     1       0.999  -0.042   0.108  1.00  0.00     0.278 C 
ENDBRANCH  19  24
ENDBRANCH  14  18
BRANCH  16  26
ATOM     26  C   UNL     1       5.218  -4.377   6.712  1.00  0.00    -0.002 A 
ATOM     27  C   UNL     1       5.689  -4.706   7.986  1.00  0.00     0.011 A 
ATOM     28  C   UNL     1       5.627  -5.089   5.583  1.00  0.00     0.011 A 
ATOM     29  C   UNL     1       6.574  -5.773   8.138  1.00  0.00     0.021 A 
ATOM     30  C   UNL     1       6.533  -6.140   5.730  1.00  0.00     0.021 A 
ATOM     31  C   UNL     1       7.005  -6.472   7.005  1.00  0.00     0.067 A 
BRANCH  31  32
ATOM     32  S   UNL     1       8.167  -7.803   7.199  1.00  0.00     0.175 S 
ATOM     33  C   UNL     1       9.594  -7.035   7.920  1.00  0.00     0.163 C 
ATOM     34  O   UNL     1       7.597  -8.722   8.164  1.00  0.00    -0.224 OA
ATOM     35  O   UNL     1       8.541  -8.254   5.871  1.00  0.00    -0.224 OA
ENDBRANCH  31  32
ENDBRANCH  16  26
ENDBRANCH   8  13
ENDBRANCH   4   7
ENDBRANCH   2   3
ENDBRANCH   1   2
BRANCH   1  36
ATOM     36  C   UNL     1       0.759   5.355  11.634  1.00  0.00     0.118 C 
BRANCH  36  37
ATOM     37  N   UNL     1      -0.485   6.081  11.426  1.00  0.00    -0.352 N 
ATOM     38  C   UNL     1      -1.431   6.485  12.334  1.00  0.00     0.251 C 
ATOM     39  H   UNL     1      -0.678   6.319  10.490  1.00  0.00     0.163 HD
ATOM     40  O   UNL     1      -2.520   6.882  11.928  1.00  0.00    -0.269 OA
BRANCH  38  41
ATOM     41  C   UNL     1      -1.156   6.438  13.788  1.00  0.00     0.039 A 
ATOM     42  C   UNL     1      -2.176   6.027  14.651  1.00  0.00     0.014 A 
ATOM     43  C   UNL     1       0.076   6.847  14.308  1.00  0.00     0.014 A 
ATOM     44  C   UNL     1      -1.947   5.981  16.029  1.00  0.00     0.010 A 
ATOM     45  C   UNL     1       0.323   6.744  15.676  1.00  0.00     0.010 A 
ATOM     46  C   UNL     1      -0.687   6.316  16.551  1.00  0.00    -0.014 A 
BRANCH  46  47
ATOM     47  C   UNL     1      -0.410   6.227  18.007  1.00  0.00     0.031 A 
ATOM     48  C   UNL     1      -0.118   7.471  18.802  1.00  0.00     0.074 A 
ATOM     49  C   UNL     1      -0.372   5.019  18.604  1.00  0.00     0.049 A 
ATOM     50  N   UNL     1       0.207   7.585  20.065  1.00  0.00    -0.248 NA
ATOM     51  C   UNL     1      -0.180   8.752  18.080  1.00  0.00     0.031 C 
ATOM     52  C   UNL     1      -0.614   3.737  17.938  1.00  0.00     0.029 A 
ATOM     53  N   UNL     1      -0.112   4.672  19.906  1.00  0.00    -0.354 N 
ATOM     54  C   UNL     1       0.404   8.943  20.285  1.00  0.00     0.074 A 
ATOM     55  C   UNL     1       0.202   9.610  19.017  1.00  0.00     0.031 C 
ATOM     56  C   UNL     1      -0.518   2.748  18.840  1.00  0.00     0.029 A 
ATOM     57  C   UNL     1      -0.169   3.318  20.138  1.00  0.00     0.049 A 
ATOM     58  H   UNL     1       0.096   5.330  20.608  1.00  0.00     0.167 HD
ATOM     59  C   UNL     1       0.710   9.580  21.441  1.00  0.00     0.031 A 
ATOM     60  C   UNL     1       0.041   2.612  21.266  1.00  0.00     0.031 A 
ATOM     61  C   UNL     1       0.898   8.916  22.704  1.00  0.00     0.049 A 
ATOM     62  C   UNL     1       0.390   3.341  22.534  1.00  0.00     0.074 A 
ATOM     63  C   UNL     1       1.170   9.478  23.939  1.00  0.00     0.029 A 
ATOM     64  N   UNL     1       0.831   7.544  22.895  1.00  0.00    -0.354 N 
ATOM     65  N   UNL     1       0.535   4.630  22.728  1.00  0.00    -0.248 NA
ATOM     66  C   UNL     1       0.595   2.520  23.735  1.00  0.00     0.031 C 
ATOM     67  C   UNL     1       1.308   8.443  24.870  1.00  0.00     0.029 A 
ATOM     68  C   UNL     1       1.070   7.240  24.224  1.00  0.00     0.049 A 
ATOM     69  H   UNL     1       0.641   6.884  22.190  1.00  0.00     0.167 HD
ATOM     70  C   UNL     1       0.823   4.777  24.081  1.00  0.00     0.074 A 
ATOM     71  C   UNL     1       0.819   3.447  24.657  1.00  0.00     0.031 C 
ATOM     72  C   UNL     1       1.064   5.911  24.782  1.00  0.00     0.031 A 
BRANCH  59  73
ATOM     73  C   UNL     1       0.861  11.078  21.392  1.00  0.00    -0.014 A 
ATOM     74  C   UNL     1      -0.258  11.913  21.222  1.00  0.00     0.010 A 
ATOM     75  C   UNL     1       2.130  11.660  21.563  1.00  0.00     0.010 A 
ATOM     76  C   UNL     1      -0.105  13.302  21.186  1.00  0.00     0.020 A 
ATOM     77  C   UNL     1       2.283  13.050  21.553  1.00  0.00     0.020 A 
ATOM     78  C   UNL     1       1.165  13.861  21.348  1.00  0.00     0.054 A 
BRANCH  78  79
ATOM     79  S   UNL     1       1.330  15.668  21.323  1.00  0.00     0.124 S 
ATOM     80  O   UNL     1       1.167  15.965  19.902  1.00  0.00    -0.237 OA
ATOM     81  O   UNL     1       0.233  16.103  22.185  1.00  0.00    -0.237 OA
ATOM     82  O   UNL     1       2.669  15.902  21.859  1.00  0.00    -0.744 OA
ENDBRANCH  78  79
ENDBRANCH  59  73
BRANCH  60  83
ATOM     83  C   UNL     1      -0.100   1.131  21.250  1.00  0.00    -0.014 A 
ATOM     84  C   UNL     1      -1.203   0.518  21.870  1.00  0.00     0.010 A 
ATOM     85  C   UNL     1       0.853   0.329  20.599  1.00  0.00     0.010 A 
ATOM     86  C   UNL     1      -1.343  -0.872  21.851  1.00  0.00     0.020 A 
ATOM     87  C   UNL     1       0.703  -1.060  20.555  1.00  0.00     0.020 A 
ATOM     88  C   UNL     1      -0.390  -1.653  21.190  1.00  0.00     0.054 A 
BRANCH  88  89
ATOM     89  S   UNL     1      -0.625  -3.451  21.123  1.00  0.00     0.124 S 
ATOM     90  O   UNL     1      -0.258  -3.855  22.477  1.00  0.00    -0.237 OA
ATOM     91  O   UNL     1      -2.041  -3.573  20.787  1.00  0.00    -0.237 OA
ATOM     92  O   UNL     1       0.295  -3.875  20.070  1.00  0.00    -0.744 OA
ENDBRANCH  88  89
ENDBRANCH  60  83
BRANCH  72  93
ATOM     93  C   UNL     1       1.313   5.771  26.259  1.00  0.00    -0.014 A 
ATOM     94  C   UNL     1       2.527   5.258  26.748  1.00  0.00     0.010 A 
ATOM     95  C   UNL     1       0.334   6.208  27.171  1.00  0.00     0.010 A 
ATOM     96  C   UNL     1       2.747   5.158  28.124  1.00  0.00     0.020 A 
ATOM     97  C   UNL     1       0.561   6.133  28.547  1.00  0.00     0.020 A 
ATOM     98  C   UNL     1       1.761   5.595  29.015  1.00  0.00     0.054 A 
BRANCH  98  99
ATOM     99  S   UNL     1       2.087   5.495  30.797  1.00  0.00     0.124 S 
ATOM    100  O   UNL     1       1.918   4.068  31.057  1.00  0.00    -0.237 OA
ATOM    101  O   UNL     1       3.456   5.996  30.902  1.00  0.00    -0.237 OA
ATOM    102  O   UNL     1       1.067   6.361  31.384  1.00  0.00    -0.744 OA
ENDBRANCH  98  99
ENDBRANCH  72  93
ENDBRANCH  46  47
ENDBRANCH  38  41
ENDBRANCH  36  37
ENDBRANCH   1  36
TORSDOF 18
