REMARK SMILES Cc1cc(C(=O)N(C)[C@H]2CCSC2)sc1/C=C/C(=O)NCCCNC(=O)c1ccc(-c2c3nc(c(-c4ccc(S(=O)(=O)[O-])cc4)c4ccc([nH]4)c(-c4ccc(S(=O)(=O)[O-])cc4)c4nc(c(-c5ccc(S(=O)(=O)[O-])cc5)c5ccc2[nH]5)C=C4)C=C3)cc1
REMARK SMILES IDX 21 1 20 2 18 3 19 4 17 6 16 7 15 8 1 9 2 10 3 11 4 12 14 13
REMARK SMILES IDX 5 14 6 15 7 16 8 17 9 18 10 19 13 20 11 21 12 22 22 23 23 24
REMARK SMILES IDX 24 25 25 26 26 28 27 29 28 30 86 31 29 32 85 33 30 34 31 35
REMARK SMILES IDX 32 36 79 37 33 38 84 39 78 40 80 41 34 42 83 43 77 44 76 45
REMARK SMILES IDX 35 47 65 48 46 49 64 50 47 51 50 52 63 53 81 54 48 55 49 56
REMARK SMILES IDX 62 58 82 59 51 60 36 61 37 62 45 63 38 64 44 65 39 66 40 67
REMARK SMILES IDX 41 68 42 69 43 70 66 71 67 72 75 73 68 74 74 75 69 76 70 77
REMARK SMILES IDX 71 78 72 79 73 80 52 81 53 82 61 83 54 84 60 85 55 86 56 87
REMARK SMILES IDX 57 88 58 89 59 90
REMARK H PARENT 20 5 24 27 80 46 50 57
REMARK Flexibility Score: inf
ROOT
ATOM      1  C   UNL     1      -5.806  -6.456  -2.032  1.00  0.00     0.118 C 
ENDROOT
BRANCH   1   2
ATOM      2  N   UNL     1      -7.066  -5.836  -2.403  1.00  0.00    -0.352 N 
ATOM      3  C   UNL     1      -7.424  -4.526  -2.456  1.00  0.00     0.244 C 
ATOM      4  O   UNL     1      -8.525  -4.210  -2.898  1.00  0.00    -0.270 OA
ATOM      5  H   UNL     1      -7.777  -6.468  -2.657  1.00  0.00     0.163 HD
BRANCH   3   6
ATOM      6  C   UNL     1      -6.463  -3.467  -2.085  1.00  0.00     0.072 C 
ATOM      7  C   UNL     1      -5.740  -3.474  -0.956  1.00  0.00     0.025 C 
BRANCH   7   8
ATOM      8  C   UNL     1      -4.829  -2.438  -0.593  1.00  0.00     0.031 A 
ATOM      9  C   UNL     1      -3.031  -3.796   0.665  1.00  0.00     0.046 C 
ATOM     10  C   UNL     1      -3.676  -2.536   0.179  1.00  0.00    -0.032 A 
ATOM     11  C   UNL     1      -3.161  -1.236   0.499  1.00  0.00     0.029 A 
ATOM     12  C   UNL     1      -3.879  -0.187  -0.054  1.00  0.00     0.093 A 
ATOM     13  S   UNL     1      -5.064  -0.812  -1.098  1.00  0.00    -0.130 S 
BRANCH  12  14
ATOM     14  C   UNL     1      -3.561   1.230   0.154  1.00  0.00     0.263 C 
ATOM     15  O   UNL     1      -2.515   1.520   0.746  1.00  0.00    -0.268 OA
BRANCH  14  16
ATOM     16  N   UNL     1      -4.385   2.291  -0.288  1.00  0.00    -0.337 N 
ATOM     17  C   UNL     1      -5.777   2.168  -0.709  1.00  0.00     0.147 C 
BRANCH  16  18
ATOM     18  C   UNL     1      -3.836   3.654  -0.148  1.00  0.00     0.095 C 
ATOM     19  C   UNL     1      -4.195   4.619  -1.282  1.00  0.00     0.037 C 
ATOM     20  C   UNL     1      -4.271   4.322   1.162  1.00  0.00     0.094 C 
ATOM     21  C   UNL     1      -3.646   5.972  -0.862  1.00  0.00     0.072 C 
ATOM     22  S   UNL     1      -4.040   6.108   0.902  1.00  0.00    -0.160 SA
ENDBRANCH  16  18
ENDBRANCH  14  16
ENDBRANCH  12  14
ENDBRANCH   7   8
ENDBRANCH   3   6
ENDBRANCH   1   2
BRANCH   1  23
ATOM     23  C   UNL     1      -5.911  -7.161  -0.682  1.00  0.00     0.042 C 
BRANCH  23  24
ATOM     24  C   UNL     1      -6.697  -8.467  -0.747  1.00  0.00     0.118 C 
BRANCH  24  25
ATOM     25  N   UNL     1      -5.994  -9.480  -1.522  1.00  0.00    -0.352 N 
ATOM     26  C   UNL     1      -5.551 -10.724  -1.150  1.00  0.00     0.251 C 
ATOM     27  H   UNL     1      -5.809  -9.235  -2.457  1.00  0.00     0.163 HD
ATOM     28  O   UNL     1      -4.761 -11.320  -1.875  1.00  0.00    -0.269 OA
BRANCH  26  29
ATOM     29  C   UNL     1      -6.014 -11.343   0.112  1.00  0.00     0.039 A 
ATOM     30  C   UNL     1      -5.102 -12.078   0.875  1.00  0.00     0.014 A 
ATOM     31  C   UNL     1      -7.348 -11.247   0.517  1.00  0.00     0.014 A 
ATOM     32  C   UNL     1      -5.518 -12.678   2.065  1.00  0.00     0.010 A 
ATOM     33  C   UNL     1      -7.744 -11.784   1.740  1.00  0.00     0.010 A 
ATOM     34  C   UNL     1      -6.837 -12.515   2.520  1.00  0.00    -0.014 A 
BRANCH  34  35
ATOM     35  C   UNL     1      -7.286 -13.108   3.805  1.00  0.00     0.031 A 
ATOM     36  C   UNL     1      -8.350 -14.173   3.816  1.00  0.00     0.074 A 
ATOM     37  C   UNL     1      -6.776 -12.646   4.963  1.00  0.00     0.049 A 
ATOM     38  N   UNL     1      -8.910 -14.767   4.839  1.00  0.00    -0.248 NA
ATOM     39  C   UNL     1      -8.870 -14.610   2.510  1.00  0.00     0.031 C 
ATOM     40  C   UNL     1      -5.769 -11.589   5.084  1.00  0.00     0.029 A 
ATOM     41  N   UNL     1      -7.041 -13.002   6.262  1.00  0.00    -0.354 N 
ATOM     42  C   UNL     1      -9.857 -15.632   4.303  1.00  0.00     0.074 A 
ATOM     43  C   UNL     1      -9.830 -15.450   2.868  1.00  0.00     0.031 C 
ATOM     44  C   UNL     1      -5.484 -11.400   6.382  1.00  0.00     0.029 A 
ATOM     45  C   UNL     1      -6.313 -12.291   7.187  1.00  0.00     0.049 A 
ATOM     46  H   UNL     1      -7.690 -13.700   6.508  1.00  0.00     0.167 HD
ATOM     47  C   UNL     1     -10.663 -16.512   4.944  1.00  0.00     0.031 A 
ATOM     48  C   UNL     1      -6.317 -12.344   8.533  1.00  0.00     0.031 A 
ATOM     49  C   UNL     1     -10.678 -16.696   6.371  1.00  0.00     0.049 A 
ATOM     50  C   UNL     1      -7.219 -13.329   9.223  1.00  0.00     0.074 A 
ATOM     51  C   UNL     1     -11.421 -17.596   7.115  1.00  0.00     0.029 A 
ATOM     52  N   UNL     1      -9.915 -15.968   7.271  1.00  0.00    -0.354 N 
ATOM     53  N   UNL     1      -8.067 -14.179   8.694  1.00  0.00    -0.248 NA
ATOM     54  C   UNL     1      -7.156 -13.371  10.690  1.00  0.00     0.031 C 
ATOM     55  C   UNL     1     -11.141 -17.380   8.469  1.00  0.00     0.029 A 
ATOM     56  C   UNL     1     -10.182 -16.384   8.564  1.00  0.00     0.049 A 
ATOM     57  H   UNL     1      -9.277 -15.259   7.027  1.00  0.00     0.167 HD
ATOM     58  C   UNL     1      -8.621 -14.874   9.763  1.00  0.00     0.074 A 
ATOM     59  C   UNL     1      -7.999 -14.356  10.966  1.00  0.00     0.031 C 
ATOM     60  C   UNL     1      -9.557 -15.855   9.750  1.00  0.00     0.031 A 
BRANCH  47  61
ATOM     61  C   UNL     1     -11.599 -17.340   4.102  1.00  0.00    -0.014 A 
ATOM     62  C   UNL     1     -11.111 -18.351   3.254  1.00  0.00     0.010 A 
ATOM     63  C   UNL     1     -12.988 -17.128   4.182  1.00  0.00     0.010 A 
ATOM     64  C   UNL     1     -11.989 -19.103   2.469  1.00  0.00     0.020 A 
ATOM     65  C   UNL     1     -13.871 -17.898   3.420  1.00  0.00     0.020 A 
ATOM     66  C   UNL     1     -13.364 -18.869   2.554  1.00  0.00     0.054 A 
BRANCH  66  67
ATOM     67  S   UNL     1     -14.481 -19.871   1.535  1.00  0.00     0.124 S 
ATOM     68  O   UNL     1     -14.252 -19.316   0.204  1.00  0.00    -0.237 OA
ATOM     69  O   UNL     1     -13.977 -21.226   1.745  1.00  0.00    -0.237 OA
ATOM     70  O   UNL     1     -15.801 -19.605   2.103  1.00  0.00    -0.744 OA
ENDBRANCH  66  67
ENDBRANCH  47  61
BRANCH  48  71
ATOM     71  C   UNL     1      -5.419 -11.448   9.311  1.00  0.00    -0.014 A 
ATOM     72  C   UNL     1      -4.295 -11.967   9.977  1.00  0.00     0.010 A 
ATOM     73  C   UNL     1      -5.669 -10.065   9.366  1.00  0.00     0.010 A 
ATOM     74  C   UNL     1      -3.445 -11.122  10.696  1.00  0.00     0.020 A 
ATOM     75  C   UNL     1      -4.806  -9.213  10.061  1.00  0.00     0.020 A 
ATOM     76  C   UNL     1      -3.704  -9.749  10.730  1.00  0.00     0.054 A 
BRANCH  76  77
ATOM     77  S   UNL     1      -2.553  -8.663  11.617  1.00  0.00     0.124 S 
ATOM     78  O   UNL     1      -2.878  -8.949  13.011  1.00  0.00    -0.237 OA
ATOM     79  O   UNL     1      -1.251  -9.142  11.159  1.00  0.00    -0.237 OA
ATOM     80  O   UNL     1      -2.916  -7.327  11.150  1.00  0.00    -0.744 OA
ENDBRANCH  76  77
ENDBRANCH  48  71
BRANCH  60  81
ATOM     81  C   UNL     1      -9.947 -16.455  11.075  1.00  0.00    -0.014 A 
ATOM     82  C   UNL     1     -10.733 -15.741  11.996  1.00  0.00     0.010 A 
ATOM     83  C   UNL     1      -9.561 -17.774  11.378  1.00  0.00     0.010 A 
ATOM     84  C   UNL     1     -11.098 -16.324  13.212  1.00  0.00     0.020 A 
ATOM     85  C   UNL     1      -9.947 -18.369  12.580  1.00  0.00     0.020 A 
ATOM     86  C   UNL     1     -10.702 -17.635  13.497  1.00  0.00     0.054 A 
BRANCH  86  87
ATOM     87  S   UNL     1     -11.223 -18.383  15.065  1.00  0.00     0.124 S 
ATOM     88  O   UNL     1     -10.351 -17.713  16.025  1.00  0.00    -0.237 OA
ATOM     89  O   UNL     1     -12.636 -18.022  15.139  1.00  0.00    -0.237 OA
ATOM     90  O   UNL     1     -10.960 -19.808  14.872  1.00  0.00    -0.744 OA
ENDBRANCH  86  87
ENDBRANCH  60  81
ENDBRANCH  34  35
ENDBRANCH  26  29
ENDBRANCH  24  25
ENDBRANCH  23  24
ENDBRANCH   1  23
TORSDOF 17
