REMARK SMILES O=C(NCCCNC(=O)C1CN(S(=O)(=O)c2ccc(F)cc2)C1)c1ccc(-c2c3nc(c(-c4ccc(S(=O)(=O)[O-])cc4)c4ccc([nH]4)c(-c4ccc(S(=O)(=O)[O-])cc4)c4nc(c(-c5ccc(S(=O)(=O)[O-])cc5)c5ccc2[nH]5)C=C4)C=C3)cc1
REMARK SMILES IDX 4 1 3 2 1 3 2 4 24 6 25 7 83 8 26 9 82 10 27 11 28 12 29 13
REMARK SMILES IDX 76 14 30 15 81 16 75 17 77 18 31 19 80 20 74 21 73 22 32 24
REMARK SMILES IDX 62 25 43 26 61 27 44 28 47 29 60 30 78 31 45 32 46 33 59 35
REMARK SMILES IDX 79 36 48 37 33 38 34 39 42 40 35 41 41 42 36 43 37 44 38 45
REMARK SMILES IDX 39 46 40 47 63 48 64 49 72 50 65 51 71 52 66 53 67 54 68 55
REMARK SMILES IDX 69 56 70 57 49 58 50 59 58 60 51 61 57 62 52 63 53 64 54 65
REMARK SMILES IDX 55 66 56 67 5 68 6 69 7 70 8 71 9 73 10 74 11 75 23 76 12 77
REMARK SMILES IDX 13 78 14 79 15 80 16 81 17 82 22 83 18 84 21 85 19 86 20 87
REMARK H PARENT 3 5 77 23 47 34 7 72
REMARK Flexibility Score: inf
ROOT
ATOM      1  C   UNL     1       4.527  -1.198  -0.348  1.00  0.00     0.118 C 
ENDROOT
BRANCH   1   2
ATOM      2  N   UNL     1       3.097  -0.932  -0.451  1.00  0.00    -0.352 N 
ATOM      3  O   UNL     1       1.138   0.107  -0.091  1.00  0.00    -0.269 OA
ATOM      4  C   UNL     1       2.365   0.171  -0.084  1.00  0.00     0.251 C 
ATOM      5  H   UNL     1       2.570  -1.662  -0.849  1.00  0.00     0.163 HD
BRANCH   4   6
ATOM      6  C   UNL     1       3.041   1.417   0.337  1.00  0.00     0.039 A 
ATOM      7  C   UNL     1       4.171   1.882  -0.337  1.00  0.00     0.014 A 
ATOM      8  C   UNL     1       2.522   2.147   1.411  1.00  0.00     0.014 A 
ATOM      9  C   UNL     1       4.878   2.968   0.164  1.00  0.00     0.010 A 
ATOM     10  C   UNL     1       3.178   3.301   1.851  1.00  0.00     0.010 A 
ATOM     11  C   UNL     1       4.385   3.698   1.257  1.00  0.00    -0.014 A 
BRANCH  11  12
ATOM     12  C   UNL     1       5.131   4.894   1.726  1.00  0.00     0.031 A 
ATOM     13  C   UNL     1       5.741   4.942   3.100  1.00  0.00     0.074 A 
ATOM     14  C   UNL     1       5.292   5.930   0.879  1.00  0.00     0.049 A 
ATOM     15  N   UNL     1       6.465   5.888   3.644  1.00  0.00    -0.248 NA
ATOM     16  C   UNL     1       5.505   3.787   3.980  1.00  0.00     0.031 C 
ATOM     17  C   UNL     1       4.747   6.000  -0.480  1.00  0.00     0.029 A 
ATOM     18  N   UNL     1       5.984   7.105   1.019  1.00  0.00    -0.354 N 
ATOM     19  C   UNL     1       6.745   5.459   4.937  1.00  0.00     0.074 A 
ATOM     20  C   UNL     1       6.097   4.175   5.102  1.00  0.00     0.031 C 
ATOM     21  C   UNL     1       5.180   7.123  -1.070  1.00  0.00     0.029 A 
ATOM     22  C   UNL     1       5.976   7.883  -0.114  1.00  0.00     0.049 A 
ATOM     23  H   UNL     1       6.443   7.366   1.850  1.00  0.00     0.167 HD
ATOM     24  C   UNL     1       7.475   6.076   5.897  1.00  0.00     0.031 A 
ATOM     25  C   UNL     1       6.540   9.080  -0.361  1.00  0.00     0.031 A 
ATOM     26  C   UNL     1       8.122   7.352   5.727  1.00  0.00     0.049 A 
ATOM     27  C   UNL     1       7.333   9.749   0.722  1.00  0.00     0.074 A 
ATOM     28  C   UNL     1       8.910   8.046   6.629  1.00  0.00     0.029 A 
ATOM     29  N   UNL     1       8.053   8.128   4.579  1.00  0.00    -0.354 N 
ATOM     30  N   UNL     1       7.604   9.316   1.929  1.00  0.00    -0.248 NA
ATOM     31  C   UNL     1       7.895  11.069   0.409  1.00  0.00     0.031 C 
ATOM     32  C   UNL     1       9.280   9.262   6.043  1.00  0.00     0.029 A 
ATOM     33  C   UNL     1       8.765   9.303   4.756  1.00  0.00     0.049 A 
ATOM     34  H   UNL     1       7.569   7.880   3.758  1.00  0.00     0.167 HD
ATOM     35  C   UNL     1       8.384  10.303   2.518  1.00  0.00     0.074 A 
ATOM     36  C   UNL     1       8.552  11.348   1.527  1.00  0.00     0.031 C 
ATOM     37  C   UNL     1       8.914  10.338   3.765  1.00  0.00     0.031 A 
BRANCH  24  38
ATOM     38  C   UNL     1       7.576   5.393   7.236  1.00  0.00    -0.014 A 
ATOM     39  C   UNL     1       8.346   4.228   7.410  1.00  0.00     0.010 A 
ATOM     40  C   UNL     1       6.895   5.933   8.343  1.00  0.00     0.010 A 
ATOM     41  C   UNL     1       8.387   3.586   8.651  1.00  0.00     0.020 A 
ATOM     42  C   UNL     1       6.955   5.307   9.592  1.00  0.00     0.020 A 
ATOM     43  C   UNL     1       7.681   4.123   9.732  1.00  0.00     0.054 A 
BRANCH  43  44
ATOM     44  S   UNL     1       7.736   3.264  11.329  1.00  0.00     0.124 S 
ATOM     45  O   UNL     1       6.830   2.142  11.095  1.00  0.00    -0.237 OA
ATOM     46  O   UNL     1       9.148   2.913  11.459  1.00  0.00    -0.237 OA
ATOM     47  O   UNL     1       7.256   4.265  12.278  1.00  0.00    -0.744 OA
ENDBRANCH  43  44
ENDBRANCH  24  38
BRANCH  25  48
ATOM     48  C   UNL     1       6.375   9.702  -1.701  1.00  0.00    -0.014 A 
ATOM     49  C   UNL     1       7.454   9.750  -2.600  1.00  0.00     0.010 A 
ATOM     50  C   UNL     1       5.120  10.190  -2.107  1.00  0.00     0.010 A 
ATOM     51  C   UNL     1       7.280  10.274  -3.884  1.00  0.00     0.020 A 
ATOM     52  C   UNL     1       4.936  10.690  -3.398  1.00  0.00     0.020 A 
ATOM     53  C   UNL     1       6.020  10.734  -4.277  1.00  0.00     0.054 A 
BRANCH  53  54
ATOM     54  S   UNL     1       5.795  11.326  -5.977  1.00  0.00     0.124 S 
ATOM     55  O   UNL     1       6.421  12.643  -5.925  1.00  0.00    -0.237 OA
ATOM     56  O   UNL     1       6.504  10.318  -6.761  1.00  0.00    -0.237 OA
ATOM     57  O   UNL     1       4.343  11.327  -6.148  1.00  0.00    -0.744 OA
ENDBRANCH  53  54
ENDBRANCH  25  48
BRANCH  37  58
ATOM     58  C   UNL     1       9.751  11.537   4.117  1.00  0.00    -0.014 A 
ATOM     59  C   UNL     1       9.160  12.788   4.372  1.00  0.00     0.010 A 
ATOM     60  C   UNL     1      11.146  11.400   4.226  1.00  0.00     0.010 A 
ATOM     61  C   UNL     1       9.956  13.890   4.697  1.00  0.00     0.020 A 
ATOM     62  C   UNL     1      11.942  12.494   4.574  1.00  0.00     0.020 A 
ATOM     63  C   UNL     1      11.343  13.736   4.791  1.00  0.00     0.054 A 
BRANCH  63  64
ATOM     64  S   UNL     1      12.354  15.172   5.245  1.00  0.00     0.124 S 
ATOM     65  O   UNL     1      12.386  15.927   3.996  1.00  0.00    -0.237 OA
ATOM     66  O   UNL     1      11.584  15.780   6.328  1.00  0.00    -0.237 OA
ATOM     67  O   UNL     1      13.628  14.582   5.651  1.00  0.00    -0.744 OA
ENDBRANCH  63  64
ENDBRANCH  37  58
ENDBRANCH  11  12
ENDBRANCH   4   6
ENDBRANCH   1   2
BRANCH   1  68
ATOM     68  C   UNL     1       4.851  -2.307   0.643  1.00  0.00     0.042 C 
BRANCH  68  69
ATOM     69  C   UNL     1       4.226  -3.648   0.294  1.00  0.00     0.117 C 
BRANCH  69  70
ATOM     70  N   UNL     1       4.682  -4.166  -0.984  1.00  0.00    -0.356 N 
ATOM     71  C   UNL     1       5.473  -5.262  -1.225  1.00  0.00     0.225 C 
ATOM     72  H   UNL     1       4.386  -3.667  -1.780  1.00  0.00     0.163 HD
ATOM     73  O   UNL     1       5.737  -5.535  -2.400  1.00  0.00    -0.275 OA
BRANCH  71  74
ATOM     74  C   UNL     1       5.977  -6.067  -0.027  1.00  0.00     0.109 C 
ATOM     75  C   UNL     1       4.958  -6.902   0.780  1.00  0.00     0.117 C 
ATOM     76  C   UNL     1       6.626  -7.442  -0.308  1.00  0.00     0.117 C 
ATOM     77  N   UNL     1       5.997  -7.978   0.958  1.00  0.00    -0.196 NA
BRANCH  77  78
ATOM     78  S   UNL     1       6.873  -8.087   2.432  1.00  0.00     0.243 S 
ATOM     79  O   UNL     1       8.034  -7.229   2.333  1.00  0.00    -0.207 OA
ATOM     80  O   UNL     1       5.916  -7.949   3.510  1.00  0.00    -0.207 OA
BRANCH  78  81
ATOM     81  C   UNL     1       7.441  -9.766   2.409  1.00  0.00     0.082 A 
ATOM     82  C   UNL     1       8.284 -10.196   1.378  1.00  0.00     0.025 A 
ATOM     83  C   UNL     1       7.069 -10.635   3.442  1.00  0.00     0.025 A 
ATOM     84  C   UNL     1       8.743 -11.513   1.375  1.00  0.00     0.040 A 
ATOM     85  C   UNL     1       7.541 -11.947   3.436  1.00  0.00     0.040 A 
ATOM     86  C   UNL     1       8.370 -12.374   2.402  1.00  0.00     0.123 A 
ATOM     87  F   UNL     1       8.820 -13.635   2.399  1.00  0.00    -0.207 F 
ENDBRANCH  78  81
ENDBRANCH  77  78
ENDBRANCH  71  74
ENDBRANCH  69  70
ENDBRANCH  68  69
ENDBRANCH   1  68
TORSDOF 15
