REMARK SMILES O=C(NCCCNC(=O)c1ccc(-c2c3nc(c(-c4ccc(S(=O)(=O)[O-])cc4)c4ccc([nH]4)c(-c4ccc(S(=O)(=O)[O-])cc4)c4nc(c(-c5ccc(S(=O)(=O)[O-])cc5)c5ccc2[nH]5)C=C4)C=C3)cc1)C1=Cc2c(ccc(Cl)c2Oc2ccccc2)O[C@H]1C(F)(F)F
REMARK SMILES IDX 5 1 4 2 3 3 1 4 2 5 70 7 71 8 87 9 72 10 86 11 73 12 78 13
REMARK SMILES IDX 74 14 76 15 75 16 77 17 88 18 89 19 90 20 91 21 79 22 80 23
REMARK SMILES IDX 81 24 85 25 82 26 84 27 83 28 6 29 7 30 8 31 9 33 10 34
REMARK SMILES IDX 11 35 69 36 12 37 68 38 13 39 14 40 15 41 62 42 16 43 67 44
REMARK SMILES IDX 61 45 63 46 17 47 66 48 60 49 59 50 18 52 48 53 29 54 47 55
REMARK SMILES IDX 30 56 33 57 46 58 64 59 31 60 32 61 45 63 65 64 34 65 19 66
REMARK SMILES IDX 20 67 28 68 21 69 27 70 22 71 23 72 24 73 25 74 26 75 49 76
REMARK SMILES IDX 50 77 58 78 51 79 57 80 52 81 53 82 54 83 55 84 56 85 35 86
REMARK SMILES IDX 36 87 44 88 37 89 43 90 38 91 39 92 40 93 41 94 42 95
REMARK H PARENT 3 6 7 32 63 51 33 62
REMARK Flexibility Score: inf
ROOT
ATOM      1  C   UNL     1       4.103   0.739   2.983  1.00  0.00     0.042 C 
ENDROOT
BRANCH   1   2
ATOM      2  C   UNL     1       3.403   0.265   1.720  1.00  0.00     0.118 C 
BRANCH   2   3
ATOM      3  N   UNL     1       2.557   1.291   1.129  1.00  0.00    -0.352 N 
ATOM      4  O   UNL     1       1.743   2.726  -0.393  1.00  0.00    -0.270 OA
ATOM      5  C   UNL     1       2.533   1.831  -0.122  1.00  0.00     0.251 C 
ATOM      6  H   UNL     1       1.881   1.660   1.742  1.00  0.00     0.163 HD
BRANCH   5   7
ATOM      7  C   UNL     1       3.502   1.389  -1.143  1.00  0.00     0.067 C 
ATOM      8  C   UNL     1       3.473   0.124  -1.582  1.00  0.00     0.029 C 
ATOM      9  C   UNL     1       4.705   2.254  -1.338  1.00  0.00     0.314 C 
ATOM     10  C   UNL     1       4.714  -0.622  -1.264  1.00  0.00     0.061 A 
ATOM     11  O   UNL     1       5.952   1.502  -1.337  1.00  0.00    -0.475 OA
ATOM     12  C   UNL     1       5.887   0.150  -1.102  1.00  0.00     0.131 A 
ATOM     13  C   UNL     1       4.723  -2.000  -0.940  1.00  0.00     0.156 A 
ATOM     14  C   UNL     1       7.057  -0.426  -0.618  1.00  0.00     0.049 A 
ATOM     15  C   UNL     1       5.916  -2.550  -0.427  1.00  0.00     0.084 A 
ATOM     16  C   UNL     1       7.066  -1.771  -0.260  1.00  0.00     0.028 A 
ATOM     17  Cl  UNL     1       6.000  -4.205   0.076  1.00  0.00    -0.080 Cl
BRANCH   9  18
ATOM     18  C   UNL     1       4.582   3.057  -2.641  1.00  0.00     0.429 C 
ATOM     19  F   UNL     1       4.568   2.250  -3.732  1.00  0.00    -0.167 F 
ATOM     20  F   UNL     1       3.454   3.802  -2.683  1.00  0.00    -0.167 F 
ATOM     21  F   UNL     1       5.621   3.913  -2.792  1.00  0.00    -0.167 F 
ENDBRANCH   9  18
BRANCH  13  22
ATOM     22  O   UNL     1       3.660  -2.894  -0.986  1.00  0.00    -0.455 OA
BRANCH  22  23
ATOM     23  C   UNL     1       2.440  -2.501  -1.464  1.00  0.00     0.127 A 
ATOM     24  C   UNL     1       1.448  -2.116  -0.560  1.00  0.00     0.047 A 
ATOM     25  C   UNL     1       2.187  -2.509  -2.836  1.00  0.00     0.047 A 
ATOM     26  C   UNL     1       0.235  -1.622  -1.038  1.00  0.00     0.004 A 
ATOM     27  C   UNL     1       0.970  -2.017  -3.310  1.00  0.00     0.004 A 
ATOM     28  C   UNL     1       0.004  -1.557  -2.413  1.00  0.00     0.000 A 
ENDBRANCH  22  23
ENDBRANCH  13  22
ENDBRANCH   5   7
ENDBRANCH   2   3
ENDBRANCH   1   2
BRANCH   1  29
ATOM     29  C   UNL     1       4.002  -0.262   4.126  1.00  0.00     0.118 C 
BRANCH  29  30
ATOM     30  N   UNL     1       4.623  -1.554   3.870  1.00  0.00    -0.352 N 
ATOM     31  C   UNL     1       5.406  -2.338   4.692  1.00  0.00     0.251 C 
ATOM     32  H   UNL     1       4.460  -1.925   2.973  1.00  0.00     0.163 HD
ATOM     33  O   UNL     1       5.850  -3.399   4.259  1.00  0.00    -0.269 OA
BRANCH  31  34
ATOM     34  C   UNL     1       5.764  -1.894   6.063  1.00  0.00     0.039 A 
ATOM     35  C   UNL     1       7.056  -2.148   6.537  1.00  0.00     0.014 A 
ATOM     36  C   UNL     1       4.859  -1.214   6.877  1.00  0.00     0.014 A 
ATOM     37  C   UNL     1       7.462  -1.636   7.774  1.00  0.00     0.010 A 
ATOM     38  C   UNL     1       5.298  -0.607   8.050  1.00  0.00     0.010 A 
ATOM     39  C   UNL     1       6.604  -0.812   8.518  1.00  0.00    -0.014 A 
BRANCH  39  40
ATOM     40  C   UNL     1       7.032  -0.166   9.789  1.00  0.00     0.031 A 
ATOM     41  C   UNL     1       6.252  -0.406  11.057  1.00  0.00     0.074 A 
ATOM     42  C   UNL     1       8.051   0.718   9.790  1.00  0.00     0.049 A 
ATOM     43  N   UNL     1       6.362   0.183  12.221  1.00  0.00    -0.248 NA
ATOM     44  C   UNL     1       5.171  -1.403  10.992  1.00  0.00     0.031 C 
ATOM     45  C   UNL     1       8.847   1.107   8.623  1.00  0.00     0.029 A 
ATOM     46  N   UNL     1       8.587   1.458  10.815  1.00  0.00    -0.354 N 
ATOM     47  C   UNL     1       5.321  -0.316  12.997  1.00  0.00     0.074 A 
ATOM     48  C   UNL     1       4.576  -1.234  12.163  1.00  0.00     0.031 C 
ATOM     49  C   UNL     1       9.792   1.982   9.005  1.00  0.00     0.029 A 
ATOM     50  C   UNL     1       9.649   2.244  10.433  1.00  0.00     0.049 A 
ATOM     51  H   UNL     1       8.243   1.430  11.737  1.00  0.00     0.167 HD
ATOM     52  C   UNL     1       5.018  -0.050  14.290  1.00  0.00     0.031 A 
ATOM     53  C   UNL     1      10.426   3.077  11.151  1.00  0.00     0.031 A 
ATOM     54  C   UNL     1       5.807   0.795  15.145  1.00  0.00     0.049 A 
ATOM     55  C   UNL     1      10.167   3.238  12.622  1.00  0.00     0.074 A 
ATOM     56  C   UNL     1       5.631   1.069  16.490  1.00  0.00     0.029 A 
ATOM     57  N   UNL     1       6.945   1.476  14.742  1.00  0.00    -0.354 N 
ATOM     58  N   UNL     1       9.196   2.734  13.344  1.00  0.00    -0.248 NA
ATOM     59  C   UNL     1      11.120   4.063  13.376  1.00  0.00     0.031 C 
ATOM     60  C   UNL     1       6.666   1.919  16.901  1.00  0.00     0.029 A 
ATOM     61  C   UNL     1       7.495   2.154  15.816  1.00  0.00     0.049 A 
ATOM     62  H   UNL     1       7.308   1.478  13.827  1.00  0.00     0.167 HD
ATOM     63  C   UNL     1       9.432   3.165  14.644  1.00  0.00     0.074 A 
ATOM     64  C   UNL     1      10.644   3.958  14.610  1.00  0.00     0.031 C 
ATOM     65  C   UNL     1       8.708   2.927  15.765  1.00  0.00     0.031 A 
BRANCH  52  66
ATOM     66  C   UNL     1       3.777  -0.692  14.848  1.00  0.00    -0.014 A 
ATOM     67  C   UNL     1       3.728  -2.072  15.113  1.00  0.00     0.010 A 
ATOM     68  C   UNL     1       2.636   0.094  15.093  1.00  0.00     0.010 A 
ATOM     69  C   UNL     1       2.541  -2.667  15.548  1.00  0.00     0.020 A 
ATOM     70  C   UNL     1       1.455  -0.493  15.555  1.00  0.00     0.020 A 
ATOM     71  C   UNL     1       1.407  -1.876  15.751  1.00  0.00     0.054 A 
BRANCH  71  72
ATOM     72  S   UNL     1      -0.132  -2.666  16.295  1.00  0.00     0.124 S 
ATOM     73  O   UNL     1      -0.677  -3.156  15.031  1.00  0.00    -0.237 OA
ATOM     74  O   UNL     1       0.336  -3.698  17.217  1.00  0.00    -0.237 OA
ATOM     75  O   UNL     1      -0.877  -1.574  16.916  1.00  0.00    -0.744 OA
ENDBRANCH  71  72
ENDBRANCH  52  66
BRANCH  53  76
ATOM     76  C   UNL     1      11.562   3.775  10.496  1.00  0.00    -0.014 A 
ATOM     77  C   UNL     1      12.873   3.295  10.668  1.00  0.00     0.010 A 
ATOM     78  C   UNL     1      11.342   4.892   9.672  1.00  0.00     0.010 A 
ATOM     79  C   UNL     1      13.947   3.928  10.036  1.00  0.00     0.020 A 
ATOM     80  C   UNL     1      12.412   5.516   9.024  1.00  0.00     0.020 A 
ATOM     81  C   UNL     1      13.709   5.034   9.216  1.00  0.00     0.054 A 
BRANCH  81  82
ATOM     82  S   UNL     1      15.106   5.798   8.344  1.00  0.00     0.124 S 
ATOM     83  O   UNL     1      15.688   6.641   9.383  1.00  0.00    -0.237 OA
ATOM     84  O   UNL     1      15.905   4.642   7.943  1.00  0.00    -0.237 OA
ATOM     85  O   UNL     1      14.464   6.511   7.241  1.00  0.00    -0.744 OA
ENDBRANCH  81  82
ENDBRANCH  53  76
BRANCH  65  86
ATOM     86  C   UNL     1       9.232   3.499  17.050  1.00  0.00    -0.014 A 
ATOM     87  C   UNL     1       9.076   4.863  17.352  1.00  0.00     0.010 A 
ATOM     88  C   UNL     1       9.860   2.652  17.980  1.00  0.00     0.010 A 
ATOM     89  C   UNL     1       9.571   5.378  18.552  1.00  0.00     0.020 A 
ATOM     90  C   UNL     1      10.342   3.161  19.188  1.00  0.00     0.020 A 
ATOM     91  C   UNL     1      10.209   4.525  19.459  1.00  0.00     0.054 A 
BRANCH  91  92
ATOM     92  S   UNL     1      10.823   5.203  21.025  1.00  0.00     0.124 S 
ATOM     93  O   UNL     1      12.105   5.775  20.625  1.00  0.00    -0.237 OA
ATOM     94  O   UNL     1       9.790   6.169  21.391  1.00  0.00    -0.237 OA
ATOM     95  O   UNL     1      10.905   4.032  21.896  1.00  0.00    -0.744 OA
ENDBRANCH  91  92
ENDBRANCH  65  86
ENDBRANCH  39  40
ENDBRANCH  31  34
ENDBRANCH  29  30
ENDBRANCH   1  29
TORSDOF 16
