REMARK SMILES COc1cc([C@@H]2CC(=O)Nc3c(C(=O)NCCCNC(=O)c4ccc(-c5c6nc(c(-c7ccc(S(=O)(=O)[O-])cc7)c7ccc([nH]7)c(-c7ccc(S(=O)(=O)[O-])cc7)c7nc(c(-c8ccc(S(=O)(=O)[O-])cc8)c8ccc5[nH]8)C=C7)C=C6)cc4)cn(-c4ccc(F)cc4)c32)c(OC)c2c1OCO2
REMARK SMILES IDX 17 1 16 2 15 3 13 4 14 5 12 7 6 8 7 9 91 10 8 11 11 12 83 13
REMARK SMILES IDX 9 14 10 15 82 16 5 18 3 19 4 20 96 21 95 22 97 23 92 24
REMARK SMILES IDX 99 25 98 26 2 27 1 28 93 29 94 30 84 31 85 32 90 33 86 34
REMARK SMILES IDX 89 35 87 36 88 37 18 38 19 39 20 40 21 42 22 43 23 44 81 45
REMARK SMILES IDX 24 46 80 47 25 48 26 49 27 50 74 51 28 52 79 53 73 54 75 55
REMARK SMILES IDX 29 56 78 57 72 58 71 59 30 61 60 62 41 63 59 64 42 65 45 66
REMARK SMILES IDX 58 67 76 68 43 69 44 70 57 72 77 73 46 74 31 75 32 76 40 77
REMARK SMILES IDX 33 78 39 79 34 80 35 81 36 82 37 83 38 84 61 85 62 86 70 87
REMARK SMILES IDX 63 88 69 89 64 90 65 91 66 92 67 93 68 94 47 95 48 96 56 97
REMARK SMILES IDX 49 98 55 99 50 100 51 101 52 102 53 103 54 104
REMARK H PARENT 15 6 10 17 19 41 75 60 45 71
REMARK Flexibility Score: inf
ROOT
ATOM      1  C   UNL     1      -0.021 -10.945   1.572  1.00  0.00     0.042 C 
ENDROOT
BRANCH   1   2
ATOM      2  C   UNL     1       1.037 -10.569   0.519  1.00  0.00     0.118 C 
BRANCH   2   3
ATOM      3  N   UNL     1       0.464 -10.397  -0.796  1.00  0.00    -0.352 N 
ATOM      4  C   UNL     1      -0.163  -9.356  -1.428  1.00  0.00     0.254 C 
ATOM      5  O   UNL     1      -0.422  -9.562  -2.618  1.00  0.00    -0.269 OA
ATOM      6  H   UNL     1       0.540 -11.201  -1.358  1.00  0.00     0.163 HD
BRANCH   4   7
ATOM      7  C   UNL     1      -0.489  -8.059  -0.816  1.00  0.00     0.081 A 
ATOM      8  C   UNL     1      -0.779  -5.166   1.528  1.00  0.00     0.082 C 
ATOM      9  C   UNL     1      -1.002  -5.908   2.846  1.00  0.00     0.115 C 
ATOM     10  C   UNL     1      -0.793  -6.131   0.373  1.00  0.00     0.055 A 
ATOM     11  C   UNL     1      -0.280  -7.227   2.900  1.00  0.00     0.225 C 
ATOM     12  C   UNL     1      -0.479  -7.467   0.483  1.00  0.00     0.076 A 
ATOM     13  N   UNL     1      -1.111  -5.869  -0.937  1.00  0.00    -0.317 N 
ATOM     14  O   UNL     1       0.096  -7.727   3.961  1.00  0.00    -0.275 OA
ATOM     15  N   UNL     1      -0.162  -7.929   1.735  1.00  0.00    -0.324 N 
ATOM     16  C   UNL     1      -0.990  -7.041  -1.636  1.00  0.00     0.107 A 
ATOM     17  H   UNL     1       0.180  -8.850   1.800  1.00  0.00     0.170 HD
BRANCH   8  18
ATOM     18  C   UNL     1       0.466  -4.272   1.559  1.00  0.00     0.012 A 
ATOM     19  C   UNL     1       1.220  -1.946   1.384  1.00  0.00     0.165 A 
ATOM     20  C   UNL     1       0.228  -2.880   1.673  1.00  0.00     0.059 A 
ATOM     21  C   UNL     1       2.477  -2.424   1.069  1.00  0.00     0.211 A 
ATOM     22  C   UNL     1       2.758  -3.778   1.063  1.00  0.00     0.211 A 
ATOM     23  O   UNL     1       3.565  -1.674   0.733  1.00  0.00    -0.449 OA
ATOM     24  C   UNL     1       1.785  -4.733   1.325  1.00  0.00     0.168 A 
ATOM     25  O   UNL     1       4.061  -4.015   0.733  1.00  0.00    -0.449 OA
ATOM     26  C   UNL     1       4.549  -2.690   0.491  1.00  0.00     0.468 C 
BRANCH  19  27
ATOM     27  O   UNL     1       0.821  -0.643   1.415  1.00  0.00    -0.493 OA
ATOM     28  C   UNL     1       1.389   0.176   0.399  1.00  0.00     0.278 C 
ENDBRANCH  19  27
BRANCH  24  29
ATOM     29  O   UNL     1       1.987  -6.078   1.367  1.00  0.00    -0.492 OA
ATOM     30  C   UNL     1       3.219  -6.620   0.916  1.00  0.00     0.278 C 
ENDBRANCH  24  29
ENDBRANCH   8  18
BRANCH  13  31
ATOM     31  C   UNL     1      -1.510  -4.633  -1.487  1.00  0.00     0.046 A 
ATOM     32  C   UNL     1      -0.656  -3.532  -1.392  1.00  0.00     0.029 A 
ATOM     33  C   UNL     1      -2.776  -4.507  -2.062  1.00  0.00     0.029 A 
ATOM     34  C   UNL     1      -1.110  -2.269  -1.760  1.00  0.00     0.041 A 
ATOM     35  C   UNL     1      -3.223  -3.237  -2.437  1.00  0.00     0.041 A 
ATOM     36  C   UNL     1      -2.398  -2.129  -2.258  1.00  0.00     0.123 A 
ATOM     37  F   UNL     1      -2.849  -0.908  -2.571  1.00  0.00    -0.207 F 
ENDBRANCH  13  31
ENDBRANCH   4   7
ENDBRANCH   2   3
ENDBRANCH   1   2
BRANCH   1  38
ATOM     38  C   UNL     1      -0.131 -12.431   1.800  1.00  0.00     0.118 C 
BRANCH  38  39
ATOM     39  N   UNL     1       1.037 -12.935   2.541  1.00  0.00    -0.352 N 
ATOM     40  C   UNL     1       1.408 -14.245   2.775  1.00  0.00     0.251 C 
ATOM     41  H   UNL     1       1.633 -12.248   2.919  1.00  0.00     0.163 HD
ATOM     42  O   UNL     1       2.179 -14.533   3.687  1.00  0.00    -0.269 OA
BRANCH  40  43
ATOM     43  C   UNL     1       0.846 -15.276   1.898  1.00  0.00     0.039 A 
ATOM     44  C   UNL     1       0.351 -16.490   2.375  1.00  0.00     0.014 A 
ATOM     45  C   UNL     1       0.697 -14.910   0.569  1.00  0.00     0.014 A 
ATOM     46  C   UNL     1      -0.378 -17.289   1.498  1.00  0.00     0.010 A 
ATOM     47  C   UNL     1      -0.267 -15.527  -0.163  1.00  0.00     0.010 A 
ATOM     48  C   UNL     1      -0.702 -16.780   0.232  1.00  0.00    -0.014 A 
BRANCH  48  49
ATOM     49  C   UNL     1      -1.538 -17.494  -0.716  1.00  0.00     0.031 A 
ATOM     50  C   UNL     1      -2.845 -17.944  -0.184  1.00  0.00     0.074 A 
ATOM     51  C   UNL     1      -1.249 -17.540  -2.036  1.00  0.00     0.049 A 
ATOM     52  N   UNL     1      -3.175 -19.148   0.136  1.00  0.00    -0.248 NA
ATOM     53  C   UNL     1      -3.846 -16.932   0.189  1.00  0.00     0.031 C 
ATOM     54  C   UNL     1      -0.174 -16.864  -2.781  1.00  0.00     0.029 A 
ATOM     55  N   UNL     1      -1.966 -18.112  -3.030  1.00  0.00    -0.354 N 
ATOM     56  C   UNL     1      -4.508 -19.090   0.520  1.00  0.00     0.074 A 
ATOM     57  C   UNL     1      -4.797 -17.693   0.737  1.00  0.00     0.031 C 
ATOM     58  C   UNL     1      -0.479 -16.840  -4.097  1.00  0.00     0.029 A 
ATOM     59  C   UNL     1      -1.652 -17.666  -4.307  1.00  0.00     0.049 A 
ATOM     60  H   UNL     1      -2.658 -18.793  -2.862  1.00  0.00     0.167 HD
ATOM     61  C   UNL     1      -5.333 -20.164   0.376  1.00  0.00     0.031 A 
ATOM     62  C   UNL     1      -2.341 -17.933  -5.445  1.00  0.00     0.031 A 
ATOM     63  C   UNL     1      -4.595 -21.356   0.031  1.00  0.00     0.049 A 
ATOM     64  C   UNL     1      -3.133 -19.163  -5.173  1.00  0.00     0.074 A 
ATOM     65  C   UNL     1      -3.554 -22.051   0.617  1.00  0.00     0.029 A 
ATOM     66  N   UNL     1      -4.600 -21.735  -1.295  1.00  0.00    -0.354 N 
ATOM     67  N   UNL     1      -2.581 -20.323  -4.933  1.00  0.00    -0.248 NA
ATOM     68  C   UNL     1      -4.486 -19.003  -4.660  1.00  0.00     0.031 C 
ATOM     69  C   UNL     1      -2.689 -22.386  -0.467  1.00  0.00     0.029 A 
ATOM     70  C   UNL     1      -3.296 -21.968  -1.654  1.00  0.00     0.049 A 
ATOM     71  H   UNL     1      -5.391 -21.822  -1.875  1.00  0.00     0.167 HD
ATOM     72  C   UNL     1      -3.317 -20.861  -3.885  1.00  0.00     0.074 A 
ATOM     73  C   UNL     1      -4.532 -20.044  -3.821  1.00  0.00     0.031 C 
ATOM     74  C   UNL     1      -2.757 -21.718  -2.977  1.00  0.00     0.031 A 
BRANCH  61  75
ATOM     75  C   UNL     1      -6.818 -20.065   0.143  1.00  0.00    -0.014 A 
ATOM     76  C   UNL     1      -7.577 -21.252   0.110  1.00  0.00     0.010 A 
ATOM     77  C   UNL     1      -7.446 -18.888  -0.312  1.00  0.00     0.010 A 
ATOM     78  C   UNL     1      -8.871 -21.271  -0.422  1.00  0.00     0.020 A 
ATOM     79  C   UNL     1      -8.752 -18.887  -0.802  1.00  0.00     0.020 A 
ATOM     80  C   UNL     1      -9.444 -20.088  -0.888  1.00  0.00     0.054 A 
BRANCH  80  81
ATOM     81  S   UNL     1     -11.071 -20.143  -1.675  1.00  0.00     0.124 S 
ATOM     82  O   UNL     1     -10.793 -20.916  -2.882  1.00  0.00    -0.237 OA
ATOM     83  O   UNL     1     -11.880 -20.816  -0.663  1.00  0.00    -0.237 OA
ATOM     84  O   UNL     1     -11.394 -18.735  -1.891  1.00  0.00    -0.744 OA
ENDBRANCH  80  81
ENDBRANCH  61  75
BRANCH  62  85
ATOM     85  C   UNL     1      -2.603 -17.005  -6.577  1.00  0.00    -0.014 A 
ATOM     86  C   UNL     1      -3.189 -17.463  -7.771  1.00  0.00     0.010 A 
ATOM     87  C   UNL     1      -2.528 -15.608  -6.384  1.00  0.00     0.010 A 
ATOM     88  C   UNL     1      -3.742 -16.562  -8.701  1.00  0.00     0.020 A 
ATOM     89  C   UNL     1      -3.069 -14.705  -7.308  1.00  0.00     0.020 A 
ATOM     90  C   UNL     1      -3.700 -15.187  -8.451  1.00  0.00     0.054 A 
BRANCH  90  91
ATOM     91  S   UNL     1      -4.587 -14.044  -9.553  1.00  0.00     0.124 S 
ATOM     92  O   UNL     1      -3.776 -14.086 -10.765  1.00  0.00    -0.237 OA
ATOM     93  O   UNL     1      -5.907 -14.660  -9.654  1.00  0.00    -0.237 OA
ATOM     94  O   UNL     1      -4.556 -12.774  -8.829  1.00  0.00    -0.744 OA
ENDBRANCH  90  91
ENDBRANCH  62  85
BRANCH  74  95
ATOM     95  C   UNL     1      -1.373 -22.274  -3.243  1.00  0.00    -0.014 A 
ATOM     96  C   UNL     1      -0.218 -21.479  -3.391  1.00  0.00     0.010 A 
ATOM     97  C   UNL     1      -1.210 -23.669  -3.155  1.00  0.00     0.010 A 
ATOM     98  C   UNL     1       1.056 -22.067  -3.472  1.00  0.00     0.020 A 
ATOM     99  C   UNL     1       0.055 -24.259  -3.216  1.00  0.00     0.020 A 
ATOM    100  C   UNL     1       1.183 -23.456  -3.384  1.00  0.00     0.054 A 
BRANCH 100 101
ATOM    101  S   UNL     1       2.832 -24.213  -3.447  1.00  0.00     0.124 S 
ATOM    102  O   UNL     1       3.245 -23.960  -4.825  1.00  0.00    -0.237 OA
ATOM    103  O   UNL     1       3.569 -23.476  -2.424  1.00  0.00    -0.237 OA
ATOM    104  O   UNL     1       2.584 -25.619  -3.127  1.00  0.00    -0.744 OA
ENDBRANCH 100 101
ENDBRANCH  74  95
ENDBRANCH  48  49
ENDBRANCH  40  43
ENDBRANCH  38  39
ENDBRANCH   1  38
TORSDOF 17
