REMARK SMILES CC(C)(C)N(CC(=O)NCCCNC(=O)c1ccc(-c2c3nc(c(-c4ccc(S(=O)(=O)[O-])cc4)c4ccc([nH]4)c(-c4ccc(S(=O)(=O)[O-])cc4)c4nc(c(-c5ccc(S(=O)(=O)[O-])cc5)c5ccc2[nH]5)C=C4)C=C3)cc1)C(=O)C1C[NH2+]C1
REMARK SMILES IDX 11 1 10 2 9 3 7 4 8 5 6 7 5 8 2 9 1 10 3 11 4 12 76 13 77 14
REMARK SMILES IDX 78 15 79 16 81 17 80 18 12 21 13 22 14 23 15 25 16 26 17 27
REMARK SMILES IDX 75 28 18 29 74 30 19 31 20 32 21 33 68 34 22 35 73 36 67 37
REMARK SMILES IDX 69 38 23 39 72 40 66 41 65 42 24 44 54 45 35 46 53 47 36 48
REMARK SMILES IDX 39 49 52 50 70 51 37 52 38 53 51 55 71 56 40 57 25 58 26 59
REMARK SMILES IDX 34 60 27 61 33 62 28 63 29 64 30 65 31 66 32 67 55 68 56 69
REMARK SMILES IDX 64 70 57 71 63 72 58 73 59 74 60 75 61 76 62 77 41 78 42 79
REMARK SMILES IDX 50 80 43 81 49 82 44 83 45 84 46 85 47 86 48 87
REMARK H PARENT 9 6 80 19 80 20 13 24 69 43 39 54
REMARK Flexibility Score: inf
ROOT
ATOM      1  C   UNL     1       3.832   2.860  -0.775  1.00  0.00     0.042 C 
ENDROOT
BRANCH   1   2
ATOM      2  C   UNL     1       3.929   1.591   0.063  1.00  0.00     0.117 C 
BRANCH   2   3
ATOM      3  N   UNL     1       4.040   1.851   1.483  1.00  0.00    -0.354 N 
ATOM      4  C   UNL     1       3.133   1.633   2.474  1.00  0.00     0.239 C 
ATOM      5  O   UNL     1       3.536   1.710   3.640  1.00  0.00    -0.273 OA
ATOM      6  H   UNL     1       4.895   2.243   1.773  1.00  0.00     0.163 HD
BRANCH   4   7
ATOM      7  C   UNL     1       1.689   1.178   2.183  1.00  0.00     0.219 C 
BRANCH   7   8
ATOM      8  N   UNL     1       0.894   1.971   1.227  1.00  0.00    -0.328 N 
BRANCH   8   9
ATOM      9  C   UNL     1       0.115   1.290   0.112  1.00  0.00     0.035 C 
ATOM     10  C   UNL     1       0.435  -0.218  -0.065  1.00  0.00     0.034 C 
ATOM     11  C   UNL     1       0.392   1.945  -1.260  1.00  0.00     0.034 C 
ATOM     12  C   UNL     1      -1.402   1.348   0.410  1.00  0.00     0.034 C 
ENDBRANCH   8   9
BRANCH   8  13
ATOM     13  C   UNL     1       0.559   3.319   1.555  1.00  0.00     0.238 C 
ATOM     14  O   UNL     1      -0.109   4.011   0.776  1.00  0.00    -0.274 OA
BRANCH  13  15
ATOM     15  C   UNL     1       1.023   3.914   2.907  1.00  0.00     0.188 C 
ATOM     16  C   UNL     1       0.635   5.384   3.215  1.00  0.00     0.280 C 
ATOM     17  C   UNL     1       0.171   3.613   4.162  1.00  0.00     0.280 C 
ATOM     18  N   UNL     1       0.429   4.993   4.634  1.00  0.00    -0.345 N 
ATOM     19  H   UNL     1      -0.367   5.442   5.086  1.00  0.00     0.346 HD
ATOM     20  H   UNL     1       1.131   5.189   5.348  1.00  0.00     0.346 HD
ENDBRANCH  13  15
ENDBRANCH   8  13
ENDBRANCH   7   8
ENDBRANCH   4   7
ENDBRANCH   2   3
ENDBRANCH   1   2
BRANCH   1  21
ATOM     21  C   UNL     1       5.121   3.674  -0.823  1.00  0.00     0.118 C 
BRANCH  21  22
ATOM     22  N   UNL     1       6.199   2.972  -1.511  1.00  0.00    -0.352 N 
ATOM     23  C   UNL     1       6.761   3.175  -2.747  1.00  0.00     0.251 C 
ATOM     24  H   UNL     1       6.590   2.225  -1.002  1.00  0.00     0.163 HD
ATOM     25  O   UNL     1       7.507   2.309  -3.211  1.00  0.00    -0.269 OA
BRANCH  23  26
ATOM     26  C   UNL     1       6.478   4.396  -3.534  1.00  0.00     0.039 A 
ATOM     27  C   UNL     1       6.319   4.289  -4.920  1.00  0.00     0.014 A 
ATOM     28  C   UNL     1       6.408   5.652  -2.928  1.00  0.00     0.014 A 
ATOM     29  C   UNL     1       6.003   5.420  -5.679  1.00  0.00     0.010 A 
ATOM     30  C   UNL     1       6.016   6.765  -3.671  1.00  0.00     0.010 A 
ATOM     31  C   UNL     1       5.799   6.660  -5.052  1.00  0.00    -0.014 A 
BRANCH  31  32
ATOM     32  C   UNL     1       5.317   7.848  -5.805  1.00  0.00     0.031 A 
ATOM     33  C   UNL     1       6.160   9.092  -5.890  1.00  0.00     0.074 A 
ATOM     34  C   UNL     1       4.075   7.839  -6.330  1.00  0.00     0.049 A 
ATOM     35  N   UNL     1       5.854  10.262  -6.392  1.00  0.00    -0.248 NA
ATOM     36  C   UNL     1       7.513   9.021  -5.315  1.00  0.00     0.031 C 
ATOM     37  C   UNL     1       3.144   6.709  -6.284  1.00  0.00     0.029 A 
ATOM     38  N   UNL     1       3.372   8.819  -6.986  1.00  0.00    -0.354 N 
ATOM     39  C   UNL     1       6.964  11.070  -6.174  1.00  0.00     0.074 A 
ATOM     40  C   UNL     1       7.936  10.269  -5.462  1.00  0.00     0.031 C 
ATOM     41  C   UNL     1       2.001   7.054  -6.897  1.00  0.00     0.029 A 
ATOM     42  C   UNL     1       2.095   8.443  -7.333  1.00  0.00     0.049 A 
ATOM     43  H   UNL     1       3.746   9.707  -7.188  1.00  0.00     0.167 HD
ATOM     44  C   UNL     1       7.160  12.359  -6.544  1.00  0.00     0.031 A 
ATOM     45  C   UNL     1       1.100   9.141  -7.915  1.00  0.00     0.031 A 
ATOM     46  C   UNL     1       6.194  13.151  -7.260  1.00  0.00     0.049 A 
ATOM     47  C   UNL     1       1.331  10.578  -8.287  1.00  0.00     0.074 A 
ATOM     48  C   UNL     1       6.327  14.443  -7.739  1.00  0.00     0.029 A 
ATOM     49  N   UNL     1       4.915  12.732  -7.592  1.00  0.00    -0.354 N 
ATOM     50  N   UNL     1       2.413  11.304  -8.134  1.00  0.00    -0.248 NA
ATOM     51  C   UNL     1       0.207  11.292  -8.909  1.00  0.00     0.031 C 
ATOM     52  C   UNL     1       5.109  14.825  -8.311  1.00  0.00     0.029 A 
ATOM     53  C   UNL     1       4.235  13.752  -8.237  1.00  0.00     0.049 A 
ATOM     54  H   UNL     1       4.544  11.841  -7.398  1.00  0.00     0.167 HD
ATOM     55  C   UNL     1       2.103  12.557  -8.649  1.00  0.00     0.074 A 
ATOM     56  C   UNL     1       0.741  12.483  -9.140  1.00  0.00     0.031 C 
ATOM     57  C   UNL     1       2.875  13.669  -8.707  1.00  0.00     0.031 A 
BRANCH  44  58
ATOM     58  C   UNL     1       8.470  13.001  -6.169  1.00  0.00    -0.014 A 
ATOM     59  C   UNL     1       9.671  12.625  -6.798  1.00  0.00     0.010 A 
ATOM     60  C   UNL     1       8.496  14.026  -5.205  1.00  0.00     0.010 A 
ATOM     61  C   UNL     1      10.878  13.232  -6.442  1.00  0.00     0.020 A 
ATOM     62  C   UNL     1       9.698  14.655  -4.865  1.00  0.00     0.020 A 
ATOM     63  C   UNL     1      10.885  14.241  -5.474  1.00  0.00     0.054 A 
BRANCH  63  64
ATOM     64  S   UNL     1      12.464  15.023  -5.045  1.00  0.00     0.124 S 
ATOM     65  O   UNL     1      13.117  13.973  -4.267  1.00  0.00    -0.237 OA
ATOM     66  O   UNL     1      13.054  15.294  -6.353  1.00  0.00    -0.237 OA
ATOM     67  O   UNL     1      12.070  16.207  -4.285  1.00  0.00    -0.744 OA
ENDBRANCH  63  64
ENDBRANCH  44  58
BRANCH  45  68
ATOM     68  C   UNL     1      -0.212   8.486  -8.170  1.00  0.00    -0.014 A 
ATOM     69  C   UNL     1      -0.605   8.168  -9.482  1.00  0.00     0.010 A 
ATOM     70  C   UNL     1      -1.065   8.155  -7.101  1.00  0.00     0.010 A 
ATOM     71  C   UNL     1      -1.831   7.540  -9.721  1.00  0.00     0.020 A 
ATOM     72  C   UNL     1      -2.280   7.503  -7.334  1.00  0.00     0.020 A 
ATOM     73  C   UNL     1      -2.659   7.208  -8.644  1.00  0.00     0.054 A 
BRANCH  73  74
ATOM     74  S   UNL     1      -4.215   6.335  -8.975  1.00  0.00     0.124 S 
ATOM     75  O   UNL     1      -5.049   7.399  -9.523  1.00  0.00    -0.237 OA
ATOM     76  O   UNL     1      -3.803   5.302  -9.922  1.00  0.00    -0.237 OA
ATOM     77  O   UNL     1      -4.614   5.838  -7.660  1.00  0.00    -0.744 OA
ENDBRANCH  73  74
ENDBRANCH  45  68
BRANCH  57  78
ATOM     78  C   UNL     1       2.269  14.900  -9.325  1.00  0.00    -0.014 A 
ATOM     79  C   UNL     1       1.296  15.648  -8.638  1.00  0.00     0.010 A 
ATOM     80  C   UNL     1       2.719  15.348 -10.580  1.00  0.00     0.010 A 
ATOM     81  C   UNL     1       0.767  16.809  -9.207  1.00  0.00     0.020 A 
ATOM     82  C   UNL     1       2.211  16.523 -11.140  1.00  0.00     0.020 A 
ATOM     83  C   UNL     1       1.229  17.241 -10.454  1.00  0.00     0.054 A 
BRANCH  83  84
ATOM     84  S   UNL     1       0.567  18.782 -11.144  1.00  0.00     0.124 S 
ATOM     85  O   UNL     1      -0.773  18.377 -11.561  1.00  0.00    -0.237 OA
ATOM     86  O   UNL     1       0.622  19.694 -10.005  1.00  0.00    -0.237 OA
ATOM     87  O   UNL     1       1.488  19.098 -12.233  1.00  0.00    -0.744 OA
ENDBRANCH  83  84
ENDBRANCH  57  78
ENDBRANCH  31  32
ENDBRANCH  23  26
ENDBRANCH  21  22
ENDBRANCH   1  21
TORSDOF 17
