REMARK SMILES O=C(C[C@H]1C[C@H]2CC[C@@H](C1)N2C(=O)NCc1ncn[nH]1)NCCCNC(=O)c1ccc(-c2c3nc(c(-c4ccc(S(=O)(=O)[O-])cc4)c4ccc([nH]4)c(-c4ccc(S(=O)(=O)[O-])cc4)c4nc(c(-c5ccc(S(=O)(=O)[O-])cc5)c5ccc2[nH]5)C=C4)C=C3)cc1
REMARK SMILES IDX 22 1 21 2 1 3 2 4 3 6 4 7 5 8 10 9 6 10 9 11 7 12 11 13 8 14
REMARK SMILES IDX 12 15 13 16 14 17 15 19 16 20 17 21 20 22 18 23 19 24 23 26
REMARK SMILES IDX 24 27 25 28 26 29 27 31 28 32 29 33 87 34 30 35 86 36 31 37
REMARK SMILES IDX 32 38 33 39 80 40 34 41 85 42 79 43 81 44 35 45 84 46 78 47
REMARK SMILES IDX 77 48 36 50 66 51 47 52 65 53 48 54 51 55 64 56 82 57 49 58
REMARK SMILES IDX 50 59 63 61 83 62 52 63 37 64 38 65 46 66 39 67 45 68 40 69
REMARK SMILES IDX 41 70 42 71 43 72 44 73 67 74 68 75 76 76 69 77 75 78 70 79
REMARK SMILES IDX 71 80 72 81 73 82 74 83 53 84 54 85 62 86 55 87 61 88 56 89
REMARK SMILES IDX 57 90 58 91 59 92 60 93
REMARK H PARENT 21 5 14 18 20 25 25 30 81 49 51 60
REMARK Flexibility Score: inf
ROOT
ATOM      1  C   UNL     1       1.967   1.740   1.934  1.00  0.00     0.117 C 
ENDROOT
BRANCH   1   2
ATOM      2  N   UNL     1       2.597   0.950   0.896  1.00  0.00    -0.356 N 
ATOM      3  O   UNL     1       0.755   0.715  -0.448  1.00  0.00    -0.275 OA
ATOM      4  C   UNL     1       1.922   0.443  -0.185  1.00  0.00     0.220 C 
ATOM      5  H   UNL     1       3.562   0.767   0.970  1.00  0.00     0.163 HD
BRANCH   4   6
ATOM      6  C   UNL     1       2.694  -0.605  -0.973  1.00  0.00     0.103 C 
BRANCH   6   7
ATOM      7  C   UNL     1       3.921  -0.107  -1.770  1.00  0.00     0.002 C 
ATOM      8  C   UNL     1       5.259  -0.117  -0.972  1.00  0.00     0.029 C 
ATOM      9  C   UNL     1       4.084  -0.905  -3.099  1.00  0.00     0.029 C 
ATOM     10  C   UNL     1       6.080  -1.421  -1.087  1.00  0.00     0.087 C 
ATOM     11  C   UNL     1       4.979  -2.156  -2.971  1.00  0.00     0.087 C 
ATOM     12  C   UNL     1       5.313  -2.652  -0.612  1.00  0.00     0.027 C 
ATOM     13  N   UNL     1       6.276  -1.707  -2.500  1.00  0.00    -0.319 N 
ATOM     14  C   UNL     1       4.532  -3.109  -1.852  1.00  0.00     0.027 C 
BRANCH  13  15
ATOM     15  C   UNL     1       7.450  -1.389  -3.089  1.00  0.00     0.318 C 
ATOM     16  O   UNL     1       8.373  -0.889  -2.437  1.00  0.00    -0.249 OA
ATOM     17  N   UNL     1       7.724  -1.591  -4.380  1.00  0.00    -0.331 N 
ATOM     18  H   UNL     1       8.630  -1.274  -4.601  1.00  0.00     0.165 HD
BRANCH  17  19
ATOM     19  C   UNL     1       7.074  -2.141  -5.543  1.00  0.00     0.194 C 
BRANCH  19  20
ATOM     20  C   UNL     1       6.934  -1.085  -6.580  1.00  0.00     0.143 A 
ATOM     21  N   UNL     1       7.095   0.219  -6.471  1.00  0.00    -0.218 NA
ATOM     22  N   UNL     1       6.605  -1.375  -7.874  1.00  0.00    -0.262 N 
ATOM     23  C   UNL     1       6.846   0.677  -7.731  1.00  0.00     0.246 A 
ATOM     24  N   UNL     1       6.542  -0.265  -8.626  1.00  0.00    -0.162 NA
ATOM     25  H   UNL     1       6.435  -2.284  -8.213  1.00  0.00     0.192 HD
ENDBRANCH  19  20
ENDBRANCH  17  19
ENDBRANCH  13  15
ENDBRANCH   6   7
ENDBRANCH   4   6
ENDBRANCH   1   2
BRANCH   1  26
ATOM     26  C   UNL     1       2.289   1.194   3.325  1.00  0.00     0.042 C 
BRANCH  26  27
ATOM     27  C   UNL     1       3.776   1.146   3.681  1.00  0.00     0.118 C 
BRANCH  27  28
ATOM     28  N   UNL     1       4.420   2.446   3.622  1.00  0.00    -0.352 N 
ATOM     29  C   UNL     1       5.194   3.101   4.549  1.00  0.00     0.251 C 
ATOM     30  H   UNL     1       4.279   2.939   2.781  1.00  0.00     0.163 HD
ATOM     31  O   UNL     1       5.508   4.269   4.336  1.00  0.00    -0.269 OA
BRANCH  29  32
ATOM     32  C   UNL     1       5.631   2.438   5.800  1.00  0.00     0.039 A 
ATOM     33  C   UNL     1       5.634   3.191   6.979  1.00  0.00     0.014 A 
ATOM     34  C   UNL     1       6.086   1.116   5.824  1.00  0.00     0.014 A 
ATOM     35  C   UNL     1       6.040   2.607   8.182  1.00  0.00     0.010 A 
ATOM     36  C   UNL     1       6.429   0.515   7.038  1.00  0.00     0.010 A 
ATOM     37  C   UNL     1       6.413   1.254   8.230  1.00  0.00    -0.014 A 
BRANCH  37  38
ATOM     38  C   UNL     1       6.769   0.616   9.527  1.00  0.00     0.031 A 
ATOM     39  C   UNL     1       8.165   0.114   9.786  1.00  0.00     0.074 A 
ATOM     40  C   UNL     1       5.819   0.465  10.472  1.00  0.00     0.049 A 
ATOM     41  N   UNL     1       8.653  -0.439  10.869  1.00  0.00    -0.248 NA
ATOM     42  C   UNL     1       9.133   0.227   8.684  1.00  0.00     0.031 C 
ATOM     43  C   UNL     1       4.415   0.860  10.331  1.00  0.00     0.029 A 
ATOM     44  N   UNL     1       5.891  -0.054  11.741  1.00  0.00    -0.354 N 
ATOM     45  C   UNL     1       9.976  -0.748  10.577  1.00  0.00     0.074 A 
ATOM     46  C   UNL     1      10.201  -0.365   9.200  1.00  0.00     0.031 C 
ATOM     47  C   UNL     1       3.769   0.604  11.480  1.00  0.00     0.029 A 
ATOM     48  C   UNL     1       4.701   0.001  12.428  1.00  0.00     0.049 A 
ATOM     49  H   UNL     1       6.717  -0.430  12.123  1.00  0.00     0.167 HD
ATOM     50  C   UNL     1      10.925  -1.283  11.384  1.00  0.00     0.031 A 
ATOM     51  C   UNL     1       4.392  -0.380  13.682  1.00  0.00     0.031 A 
ATOM     52  C   UNL     1      10.707  -1.655  12.758  1.00  0.00     0.049 A 
ATOM     53  C   UNL     1       5.466  -0.949  14.566  1.00  0.00     0.074 A 
ATOM     54  C   UNL     1      11.621  -2.154  13.671  1.00  0.00     0.029 A 
ATOM     55  N   UNL     1       9.491  -1.571  13.420  1.00  0.00    -0.354 N 
ATOM     56  N   UNL     1       6.729  -1.169  14.290  1.00  0.00    -0.248 NA
ATOM     57  C   UNL     1       5.075  -1.303  15.937  1.00  0.00     0.031 C 
ATOM     58  C   UNL     1      10.949  -2.411  14.872  1.00  0.00     0.029 A 
ATOM     59  C   UNL     1       9.627  -2.023  14.722  1.00  0.00     0.049 A 
ATOM     60  H   UNL     1       8.654  -1.238  13.022  1.00  0.00     0.167 HD
ATOM     61  C   UNL     1       7.290  -1.664  15.462  1.00  0.00     0.074 A 
ATOM     62  C   UNL     1       6.233  -1.693  16.453  1.00  0.00     0.031 C 
ATOM     63  C   UNL     1       8.567  -2.058  15.697  1.00  0.00     0.031 A 
BRANCH  50  64
ATOM     64  C   UNL     1      12.296  -1.499  10.796  1.00  0.00    -0.014 A 
ATOM     65  C   UNL     1      13.137  -0.412  10.498  1.00  0.00     0.010 A 
ATOM     66  C   UNL     1      12.765  -2.807  10.575  1.00  0.00     0.010 A 
ATOM     67  C   UNL     1      14.404  -0.626   9.949  1.00  0.00     0.020 A 
ATOM     68  C   UNL     1      14.043  -3.026  10.052  1.00  0.00     0.020 A 
ATOM     69  C   UNL     1      14.848  -1.932   9.725  1.00  0.00     0.054 A 
BRANCH  69  70
ATOM     70  S   UNL     1      16.504  -2.183   9.029  1.00  0.00     0.124 S 
ATOM     71  O   UNL     1      16.301  -1.814   7.630  1.00  0.00    -0.237 OA
ATOM     72  O   UNL     1      17.324  -1.259   9.809  1.00  0.00    -0.237 OA
ATOM     73  O   UNL     1      16.770  -3.599   9.267  1.00  0.00    -0.744 OA
ENDBRANCH  69  70
ENDBRANCH  50  64
BRANCH  51  74
ATOM     74  C   UNL     1       3.005  -0.201  14.190  1.00  0.00    -0.014 A 
ATOM     75  C   UNL     1       2.717   0.792  15.142  1.00  0.00     0.010 A 
ATOM     76  C   UNL     1       1.962  -1.014  13.711  1.00  0.00     0.010 A 
ATOM     77  C   UNL     1       1.414   0.957  15.622  1.00  0.00     0.020 A 
ATOM     78  C   UNL     1       0.653  -0.835  14.169  1.00  0.00     0.020 A 
ATOM     79  C   UNL     1       0.390   0.142  15.131  1.00  0.00     0.054 A 
BRANCH  79  80
ATOM     80  S   UNL     1      -1.303   0.407  15.726  1.00  0.00     0.124 S 
ATOM     81  O   UNL     1      -1.257  -0.198  17.052  1.00  0.00    -0.237 OA
ATOM     82  O   UNL     1      -1.425   1.863  15.697  1.00  0.00    -0.237 OA
ATOM     83  O   UNL     1      -2.123  -0.297  14.742  1.00  0.00    -0.744 OA
ENDBRANCH  79  80
ENDBRANCH  51  74
BRANCH  63  84
ATOM     84  C   UNL     1       8.894  -2.527  17.090  1.00  0.00    -0.014 A 
ATOM     85  C   UNL     1       8.422  -3.760  17.575  1.00  0.00     0.010 A 
ATOM     86  C   UNL     1       9.699  -1.726  17.921  1.00  0.00     0.010 A 
ATOM     87  C   UNL     1       8.708  -4.160  18.883  1.00  0.00     0.020 A 
ATOM     88  C   UNL     1      10.009  -2.136  19.220  1.00  0.00     0.020 A 
ATOM     89  C   UNL     1       9.493  -3.341  19.700  1.00  0.00     0.054 A 
BRANCH  89  90
ATOM     90  S   UNL     1       9.858  -3.884  21.392  1.00  0.00     0.124 S 
ATOM     91  O   UNL     1       8.601  -3.598  22.080  1.00  0.00    -0.237 OA
ATOM     92  O   UNL     1      10.171  -5.300  21.218  1.00  0.00    -0.237 OA
ATOM     93  O   UNL     1      10.989  -3.047  21.787  1.00  0.00    -0.744 OA
ENDBRANCH  89  90
ENDBRANCH  63  84
ENDBRANCH  37  38
ENDBRANCH  29  32
ENDBRANCH  27  28
ENDBRANCH  26  27
ENDBRANCH   1  26
TORSDOF 17
