REMARK SMILES CC(=O)N[C@@H]1[C@H](Oc2ccc(C)c(C)c2)O[C@H]2COC(C)(C)O[C@@H]2[C@H]1O[C@@H](C)C(=O)NCCCNC(=O)c1ccc(-c2c3nc(c(-c4ccc(S(=O)(=O)[O-])cc4)c4ccc([nH]4)c(-c4ccc(S(=O)(=O)[O-])cc4)c4nc(c(-c5ccc(S(=O)(=O)[O-])cc5)c5ccc2[nH]5)C=C4)C=C3)cc1
REMARK SMILES IDX 32 1 31 2 29 3 30 4 27 6 28 7 26 8 25 9 5 10 6 11 16 12
REMARK SMILES IDX 24 13 17 14 23 15 18 16 20 17 19 18 21 19 22 20 4 21 1 22
REMARK SMILES IDX 2 23 3 24 7 26 8 27 9 28 15 29 10 30 13 31 11 32 14 33 12 34
REMARK SMILES IDX 33 35 34 36 35 37 36 38 37 40 38 41 39 42 97 43 40 44 96 45
REMARK SMILES IDX 41 46 42 47 43 48 90 49 44 50 95 51 89 52 91 53 45 54 94 55
REMARK SMILES IDX 88 56 87 57 46 59 76 60 57 61 75 62 58 63 61 64 74 65 92 66
REMARK SMILES IDX 59 67 60 68 73 70 93 71 62 72 47 73 48 74 56 75 49 76 55 77
REMARK SMILES IDX 50 78 51 79 52 80 53 81 54 82 77 83 78 84 86 85 79 86 85 87
REMARK SMILES IDX 80 88 81 89 82 90 83 91 84 92 63 93 64 94 72 95 65 96 71 97
REMARK SMILES IDX 66 98 67 99 68 100 69 101 70 102
REMARK H PARENT 31 5 4 25 35 39 91 58 61 69
REMARK Flexibility Score: inf
ROOT
ATOM      1  C   UNL     1       5.121   4.320   1.398  1.00  0.00     0.117 C 
ENDROOT
BRANCH   1   2
ATOM      2  N   UNL     1       4.611   5.751   1.832  1.00  0.00    -0.354 N 
ATOM      3  C   UNL     1       3.429   6.418   1.970  1.00  0.00     0.248 C 
ATOM      4  O   UNL     1       3.507   7.655   1.934  1.00  0.00    -0.272 OA
ATOM      5  H   UNL     1       5.369   6.332   2.074  1.00  0.00     0.163 HD
BRANCH   3   6
ATOM      6  C   UNL     1       2.095   5.755   2.427  1.00  0.00     0.204 C 
ATOM      7  C   UNL     1       2.226   5.697   3.964  1.00  0.00     0.049 C 
BRANCH   6   8
ATOM      8  O   UNL     1       1.487   4.571   1.918  1.00  0.00    -0.360 OA
BRANCH   8   9
ATOM      9  C   UNL     1       2.339   3.452   2.000  1.00  0.00     0.179 C 
ATOM     10  C   UNL     1       1.657   2.041   2.156  1.00  0.00     0.182 C 
ATOM     11  C   UNL     1       2.721   0.819   2.289  1.00  0.00     0.333 C 
ATOM     12  O   UNL     1       3.923   0.881   1.436  1.00  0.00    -0.332 OA
ATOM     13  C   UNL     1       3.247   3.380   0.771  1.00  0.00     0.184 C 
ATOM     14  C   UNL     1       4.521   2.177   1.480  1.00  0.00     0.180 C 
ATOM     15  O   UNL     1       3.774   4.913  -0.047  1.00  0.00    -0.342 OA
ATOM     16  C   UNL     1       6.336   2.522   1.053  1.00  0.00     0.198 C 
ATOM     17  C   UNL     1       5.511   5.221  -0.505  1.00  0.00     0.163 C 
ATOM     18  O   UNL     1       6.751   4.100   0.196  1.00  0.00    -0.348 OA
ATOM     19  C   UNL     1       6.159   6.596  -0.122  1.00  0.00     0.075 C 
ATOM     20  C   UNL     1       5.500   5.373  -2.076  1.00  0.00     0.075 C 
BRANCH  10  21
ATOM     21  N   UNL     1       0.682   2.080   3.265  1.00  0.00    -0.345 N 
ATOM     22  C   UNL     1      -0.769   0.226   2.519  1.00  0.00     0.114 C 
ATOM     23  C   UNL     1      -0.403   1.296   3.507  1.00  0.00     0.217 C 
ATOM     24  O   UNL     1      -1.058   1.487   4.531  1.00  0.00    -0.275 OA
ATOM     25  H   UNL     1       0.844   2.784   3.935  1.00  0.00     0.164 HD
ENDBRANCH  10  21
BRANCH  11  26
ATOM     26  O   UNL     1       2.937   0.415   3.688  1.00  0.00    -0.463 OA
BRANCH  26  27
ATOM     27  C   UNL     1       4.037   0.950   4.295  1.00  0.00     0.123 A 
ATOM     28  C   UNL     1       3.901   2.130   5.018  1.00  0.00     0.047 A 
ATOM     29  C   UNL     1       5.302   0.406   4.068  1.00  0.00     0.050 A 
ATOM     30  C   UNL     1       5.035   2.901   5.276  1.00  0.00     0.007 A 
ATOM     31  C   UNL     1       6.455   1.170   4.332  1.00  0.00    -0.045 A 
ATOM     32  C   UNL     1       6.307   2.473   4.854  1.00  0.00    -0.048 A 
ATOM     33  C   UNL     1       7.788   0.583   3.949  1.00  0.00     0.045 C 
ATOM     34  C   UNL     1       7.451   3.452   4.908  1.00  0.00     0.044 C 
ENDBRANCH  26  27
ENDBRANCH  11  26
ENDBRANCH   8   9
ENDBRANCH   6   8
ENDBRANCH   3   6
ENDBRANCH   1   2
BRANCH   1  35
ATOM     35  C   UNL     1       5.011   3.220  -0.420  1.00  0.00     0.042 C 
BRANCH  35  36
ATOM     36  C   UNL     1       6.190   2.633  -1.585  1.00  0.00     0.118 C 
BRANCH  36  37
ATOM     37  N   UNL     1       7.598   3.066  -1.585  1.00  0.00    -0.352 N 
ATOM     38  C   UNL     1       8.740   2.309  -1.522  1.00  0.00     0.251 C 
ATOM     39  H   UNL     1       7.739   4.039  -1.637  1.00  0.00     0.163 HD
ATOM     40  O   UNL     1       9.790   2.758  -1.080  1.00  0.00    -0.269 OA
BRANCH  38  41
ATOM     41  C   UNL     1       8.628   0.913  -1.943  1.00  0.00     0.039 A 
ATOM     42  C   UNL     1       9.210  -0.105  -1.185  1.00  0.00     0.014 A 
ATOM     43  C   UNL     1       7.819   0.640  -3.043  1.00  0.00     0.014 A 
ATOM     44  C   UNL     1       8.950  -1.427  -1.533  1.00  0.00     0.010 A 
ATOM     45  C   UNL     1       7.437  -0.656  -3.281  1.00  0.00     0.010 A 
ATOM     46  C   UNL     1       8.051  -1.700  -2.574  1.00  0.00    -0.014 A 
BRANCH  46  47
ATOM     47  C   UNL     1       7.809  -3.056  -3.094  1.00  0.00     0.031 A 
ATOM     48  C   UNL     1       8.117  -3.298  -4.548  1.00  0.00     0.074 A 
ATOM     49  C   UNL     1       7.193  -3.974  -2.331  1.00  0.00     0.049 A 
ATOM     50  N   UNL     1       7.720  -4.265  -5.326  1.00  0.00    -0.248 NA
ATOM     51  C   UNL     1       8.892  -2.249  -5.243  1.00  0.00     0.031 C 
ATOM     52  C   UNL     1       6.807  -3.805  -0.927  1.00  0.00     0.029 A 
ATOM     53  N   UNL     1       6.766  -5.233  -2.647  1.00  0.00    -0.354 N 
ATOM     54  C   UNL     1       8.125  -3.897  -6.604  1.00  0.00     0.074 A 
ATOM     55  C   UNL     1       8.722  -2.587  -6.510  1.00  0.00     0.031 C 
ATOM     56  C   UNL     1       6.229  -4.938  -0.494  1.00  0.00     0.029 A 
ATOM     57  C   UNL     1       6.161  -5.886  -1.601  1.00  0.00     0.049 A 
ATOM     58  H   UNL     1       6.880  -5.634  -3.538  1.00  0.00     0.167 HD
ATOM     59  C   UNL     1       8.042  -4.611  -7.749  1.00  0.00     0.031 A 
ATOM     60  C   UNL     1       5.615  -7.114  -1.560  1.00  0.00     0.031 A 
ATOM     61  C   UNL     1       7.542  -5.955  -7.782  1.00  0.00     0.049 A 
ATOM     62  C   UNL     1       5.631  -7.937  -2.819  1.00  0.00     0.074 A 
ATOM     63  C   UNL     1       7.503  -6.837  -8.844  1.00  0.00     0.029 A 
ATOM     64  N   UNL     1       7.030  -6.623  -6.678  1.00  0.00    -0.354 N 
ATOM     65  N   UNL     1       6.053  -7.600  -4.017  1.00  0.00    -0.248 NA
ATOM     66  C   UNL     1       5.116  -9.307  -2.721  1.00  0.00     0.031 C 
ATOM     67  C   UNL     1       6.944  -8.034  -8.385  1.00  0.00     0.029 A 
ATOM     68  C   UNL     1       6.676  -7.910  -7.029  1.00  0.00     0.049 A 
ATOM     69  H   UNL     1       6.933  -6.236  -5.778  1.00  0.00     0.167 HD
ATOM     70  C   UNL     1       5.879  -8.727  -4.810  1.00  0.00     0.074 A 
ATOM     71  C   UNL     1       5.329  -9.757  -3.950  1.00  0.00     0.031 C 
ATOM     72  C   UNL     1       6.144  -8.902  -6.129  1.00  0.00     0.031 A 
BRANCH  59  73
ATOM     73  C   UNL     1       8.532  -3.964  -9.017  1.00  0.00    -0.014 A 
ATOM     74  C   UNL     1       9.891  -3.643  -9.196  1.00  0.00     0.010 A 
ATOM     75  C   UNL     1       7.623  -3.672 -10.050  1.00  0.00     0.010 A 
ATOM     76  C   UNL     1      10.322  -2.993 -10.354  1.00  0.00     0.020 A 
ATOM     77  C   UNL     1       8.057  -3.054 -11.228  1.00  0.00     0.020 A 
ATOM     78  C   UNL     1       9.401  -2.700 -11.363  1.00  0.00     0.054 A 
BRANCH  78  79
ATOM     79  S   UNL     1       9.995  -1.881 -12.868  1.00  0.00     0.124 S 
ATOM     80  O   UNL     1      10.211  -0.514 -12.401  1.00  0.00    -0.237 OA
ATOM     81  O   UNL     1      11.206  -2.634 -13.186  1.00  0.00    -0.237 OA
ATOM     82  O   UNL     1       8.893  -2.051 -13.812  1.00  0.00    -0.744 OA
ENDBRANCH  78  79
ENDBRANCH  59  73
BRANCH  60  83
ATOM     83  C   UNL     1       5.069  -7.645  -0.283  1.00  0.00    -0.014 A 
ATOM     84  C   UNL     1       5.762  -8.650   0.414  1.00  0.00     0.010 A 
ATOM     85  C   UNL     1       3.881  -7.128   0.266  1.00  0.00     0.010 A 
ATOM     86  C   UNL     1       5.267  -9.148   1.622  1.00  0.00     0.020 A 
ATOM     87  C   UNL     1       3.397  -7.604   1.488  1.00  0.00     0.020 A 
ATOM     88  C   UNL     1       4.087  -8.621   2.153  1.00  0.00     0.054 A 
BRANCH  88  89
ATOM     89  S   UNL     1       3.490  -9.250   3.747  1.00  0.00     0.124 S 
ATOM     90  O   UNL     1       2.980 -10.567   3.380  1.00  0.00    -0.237 OA
ATOM     91  O   UNL     1       4.703  -9.244   4.561  1.00  0.00    -0.237 OA
ATOM     92  O   UNL     1       2.479  -8.272   4.141  1.00  0.00    -0.744 OA
ENDBRANCH  88  89
ENDBRANCH  60  83
BRANCH  72  93
ATOM     93  C   UNL     1       5.879 -10.263  -6.702  1.00  0.00    -0.014 A 
ATOM     94  C   UNL     1       4.567 -10.700  -6.950  1.00  0.00     0.010 A 
ATOM     95  C   UNL     1       6.964 -11.082  -7.063  1.00  0.00     0.010 A 
ATOM     96  C   UNL     1       4.343 -11.951  -7.526  1.00  0.00     0.020 A 
ATOM     97  C   UNL     1       6.744 -12.320  -7.665  1.00  0.00     0.020 A 
ATOM     98  C   UNL     1       5.434 -12.752  -7.880  1.00  0.00     0.054 A 
BRANCH  98  99
ATOM     99  S   UNL     1       5.117 -14.350  -8.673  1.00  0.00     0.124 S 
ATOM    100  O   UNL     1       4.654 -15.159  -7.549  1.00  0.00    -0.237 OA
ATOM    101  O   UNL     1       4.101 -14.017  -9.669  1.00  0.00    -0.237 OA
ATOM    102  O   UNL     1       6.417 -14.728  -9.221  1.00  0.00    -0.744 OA
ENDBRANCH  98  99
ENDBRANCH  72  93
ENDBRANCH  46  47
ENDBRANCH  38  41
ENDBRANCH  36  37
ENDBRANCH  35  36
ENDBRANCH   1  35
TORSDOF 18
