REMARK SMILES Nc1oc2ccc(F)cc2c(=O)c1[C@@H]1[NH2+][C@H](C(=O)NCCCNC(=O)c2ccc(-c3c4nc(c(-c5ccc(S(=O)(=O)[O-])cc5)c5ccc([nH]5)c(-c5ccc(S(=O)(=O)[O-])cc5)c5nc(c(-c6ccc(S(=O)(=O)[O-])cc6)c6ccc3[nH]6)C=C5)C=C4)cc2)CS1
REMARK SMILES IDX 21 1 20 2 19 3 17 4 18 5 16 7 14 8 15 9 87 10 86 13 13 14
REMARK SMILES IDX 2 15 3 16 4 17 11 18 5 19 10 20 12 21 6 22 9 23 7 24 8 25
REMARK SMILES IDX 1 26 22 29 23 30 24 31 25 33 26 34 27 35 85 36 28 37 84 38
REMARK SMILES IDX 29 39 30 40 31 41 78 42 32 43 83 44 77 45 79 46 33 47 82 48
REMARK SMILES IDX 76 49 75 50 34 52 64 53 45 54 63 55 46 56 49 57 62 58 80 59
REMARK SMILES IDX 47 60 48 61 61 63 81 64 50 65 35 66 36 67 44 68 37 69 43 70
REMARK SMILES IDX 38 71 39 72 40 73 41 74 42 75 65 76 66 77 74 78 67 79 73 80
REMARK SMILES IDX 68 81 69 82 70 83 71 84 72 85 51 86 52 87 60 88 53 89 59 90
REMARK SMILES IDX 54 91 55 92 56 93 57 94 58 95
REMARK H PARENT 19 6 15 11 15 12 1 27 1 28 23 32 79 51 49 62
REMARK Flexibility Score: inf
ROOT
ATOM      1  C   UNL     1      -1.730   0.640  -0.897  1.00  0.00     0.042 C 
ENDROOT
BRANCH   1   2
ATOM      2  C   UNL     1      -0.636  -0.236  -0.298  1.00  0.00     0.118 C 
BRANCH   2   3
ATOM      3  N   UNL     1      -0.388  -1.456  -1.040  1.00  0.00    -0.351 N 
ATOM      4  C   UNL     1       0.659  -1.790  -1.853  1.00  0.00     0.279 C 
ATOM      5  O   UNL     1       0.729  -2.978  -2.195  1.00  0.00    -0.268 OA
ATOM      6  H   UNL     1      -1.079  -2.150  -0.945  1.00  0.00     0.163 HD
BRANCH   4   7
ATOM      7  C   UNL     1       1.790  -0.818  -2.268  1.00  0.00     0.283 C 
ATOM      8  C   UNL     1       2.322   1.554  -1.979  1.00  0.00     0.283 C 
ATOM      9  N   UNL     1       1.330   0.573  -2.468  1.00  0.00    -0.320 N 
ATOM     10  S   UNL     1       3.809   0.657  -1.455  1.00  0.00    -0.087 SA
ATOM     11  H   UNL     1       1.174   0.730  -3.464  1.00  0.00     0.348 HD
ATOM     12  H   UNL     1       0.469   0.702  -1.938  1.00  0.00     0.348 HD
ATOM     13  C   UNL     1       2.935  -0.910  -1.274  1.00  0.00     0.151 C 
BRANCH   8  14
ATOM     14  C   UNL     1       1.667   2.418  -0.918  1.00  0.00     0.128 A 
ATOM     15  C   UNL     1       1.606   2.231   0.423  1.00  0.00     0.205 A 
ATOM     16  O   UNL     1       0.726   2.902   1.251  1.00  0.00    -0.440 OA
ATOM     17  C   UNL     1      -0.052   3.900   0.748  1.00  0.00     0.140 A 
ATOM     18  C   UNL     1       0.899   3.568  -1.482  1.00  0.00     0.205 A 
ATOM     19  C   UNL     1      -0.934   4.514   1.634  1.00  0.00     0.051 A 
ATOM     20  C   UNL     1       0.050   4.336  -0.566  1.00  0.00     0.068 A 
ATOM     21  O   UNL     1       0.951   3.867  -2.674  1.00  0.00    -0.288 OA
ATOM     22  C   UNL     1      -1.631   5.645   1.226  1.00  0.00     0.043 A 
ATOM     23  C   UNL     1      -0.657   5.462  -0.987  1.00  0.00     0.055 A 
ATOM     24  C   UNL     1      -1.463   6.124  -0.068  1.00  0.00     0.124 A 
ATOM     25  F   UNL     1      -2.098   7.244  -0.428  1.00  0.00    -0.207 F 
BRANCH  15  26
ATOM     26  N   UNL     1       2.295   1.286   1.123  1.00  0.00    -0.369 N 
ATOM     27  H   UNL     1       2.188   1.223   2.100  1.00  0.00     0.159 HD
ATOM     28  H   UNL     1       2.898   0.667   0.653  1.00  0.00     0.159 HD
ENDBRANCH  15  26
ENDBRANCH   8  14
ENDBRANCH   4   7
ENDBRANCH   2   3
ENDBRANCH   1   2
BRANCH   1  29
ATOM     29  C   UNL     1      -3.082   0.461  -0.213  1.00  0.00     0.118 C 
BRANCH  29  30
ATOM     30  N   UNL     1      -3.151   0.997   1.149  1.00  0.00    -0.352 N 
ATOM     31  C   UNL     1      -3.819   2.059   1.722  1.00  0.00     0.251 C 
ATOM     32  H   UNL     1      -2.603   0.492   1.792  1.00  0.00     0.163 HD
ATOM     33  O   UNL     1      -3.651   2.269   2.924  1.00  0.00    -0.269 OA
BRANCH  31  34
ATOM     34  C   UNL     1      -4.652   2.999   0.929  1.00  0.00     0.039 A 
ATOM     35  C   UNL     1      -5.362   2.599  -0.195  1.00  0.00     0.014 A 
ATOM     36  C   UNL     1      -4.712   4.346   1.317  1.00  0.00     0.014 A 
ATOM     37  C   UNL     1      -5.874   3.547  -1.071  1.00  0.00     0.010 A 
ATOM     38  C   UNL     1      -5.322   5.299   0.493  1.00  0.00     0.010 A 
ATOM     39  C   UNL     1      -5.860   4.909  -0.738  1.00  0.00    -0.014 A 
BRANCH  39  40
ATOM     40  C   UNL     1      -6.562   5.864  -1.627  1.00  0.00     0.031 A 
ATOM     41  C   UNL     1      -5.827   6.888  -2.441  1.00  0.00     0.074 A 
ATOM     42  C   UNL     1      -7.898   5.739  -1.733  1.00  0.00     0.049 A 
ATOM     43  N   UNL     1      -6.304   7.800  -3.246  1.00  0.00    -0.248 NA
ATOM     44  C   UNL     1      -4.364   6.893  -2.337  1.00  0.00     0.031 C 
ATOM     45  C   UNL     1      -8.699   4.744  -1.015  1.00  0.00     0.029 A 
ATOM     46  N   UNL     1      -8.807   6.409  -2.505  1.00  0.00    -0.354 N 
ATOM     47  C   UNL     1      -5.203   8.511  -3.717  1.00  0.00     0.074 A 
ATOM     48  C   UNL     1      -4.034   7.938  -3.087  1.00  0.00     0.031 C 
ATOM     49  C   UNL     1      -9.968   4.825  -1.430  1.00  0.00     0.029 A 
ATOM     50  C   UNL     1     -10.088   5.937  -2.366  1.00  0.00     0.049 A 
ATOM     51  H   UNL     1      -8.566   7.156  -3.100  1.00  0.00     0.167 HD
ATOM     52  C   UNL     1      -5.184   9.532  -4.607  1.00  0.00     0.031 A 
ATOM     53  C   UNL     1     -11.244   6.361  -2.911  1.00  0.00     0.031 A 
ATOM     54  C   UNL     1      -6.367  10.030  -5.266  1.00  0.00     0.049 A 
ATOM     55  C   UNL     1     -11.204   7.512  -3.868  1.00  0.00     0.074 A 
ATOM     56  C   UNL     1      -6.456  11.020  -6.230  1.00  0.00     0.029 A 
ATOM     57  N   UNL     1      -7.659   9.571  -5.047  1.00  0.00    -0.354 N 
ATOM     58  N   UNL     1     -10.159   8.170  -4.309  1.00  0.00    -0.248 NA
ATOM     59  C   UNL     1     -12.488   7.983  -4.399  1.00  0.00     0.031 C 
ATOM     60  C   UNL     1      -7.803  11.210  -6.537  1.00  0.00     0.029 A 
ATOM     61  C   UNL     1      -8.553  10.283  -5.828  1.00  0.00     0.049 A 
ATOM     62  H   UNL     1      -7.903   8.845  -4.428  1.00  0.00     0.167 HD
ATOM     63  C   UNL     1     -10.658   9.135  -5.174  1.00  0.00     0.074 A 
ATOM     64  C   UNL     1     -12.095   8.953  -5.216  1.00  0.00     0.031 C 
ATOM     65  C   UNL     1      -9.984  10.090  -5.858  1.00  0.00     0.031 A 
BRANCH  52  66
ATOM     66  C   UNL     1      -3.869  10.191  -4.958  1.00  0.00    -0.014 A 
ATOM     67  C   UNL     1      -3.680  11.558  -4.667  1.00  0.00     0.010 A 
ATOM     68  C   UNL     1      -2.898   9.525  -5.727  1.00  0.00     0.010 A 
ATOM     69  C   UNL     1      -2.579  12.255  -5.177  1.00  0.00     0.020 A 
ATOM     70  C   UNL     1      -1.776  10.211  -6.211  1.00  0.00     0.020 A 
ATOM     71  C   UNL     1      -1.640  11.579  -5.958  1.00  0.00     0.054 A 
BRANCH  71  72
ATOM     72  S   UNL     1      -0.252  12.514  -6.663  1.00  0.00     0.124 S 
ATOM     73  O   UNL     1      -0.905  13.302  -7.703  1.00  0.00    -0.237 OA
ATOM     74  O   UNL     1       0.240  13.269  -5.513  1.00  0.00    -0.237 OA
ATOM     75  O   UNL     1       0.653  11.472  -7.145  1.00  0.00    -0.744 OA
ENDBRANCH  71  72
ENDBRANCH  52  66
BRANCH  53  76
ATOM     76  C   UNL     1     -12.502   5.661  -2.538  1.00  0.00    -0.014 A 
ATOM     77  C   UNL     1     -12.951   5.683  -1.202  1.00  0.00     0.010 A 
ATOM     78  C   UNL     1     -13.167   4.849  -3.471  1.00  0.00     0.010 A 
ATOM     79  C   UNL     1     -13.985   4.843  -0.788  1.00  0.00     0.020 A 
ATOM     80  C   UNL     1     -14.231   4.036  -3.067  1.00  0.00     0.020 A 
ATOM     81  C   UNL     1     -14.606   4.011  -1.721  1.00  0.00     0.054 A 
BRANCH  81  82
ATOM     82  S   UNL     1     -15.888   2.867  -1.142  1.00  0.00     0.124 S 
ATOM     83  O   UNL     1     -15.095   1.858  -0.445  1.00  0.00    -0.237 OA
ATOM     84  O   UNL     1     -16.712   3.719  -0.289  1.00  0.00    -0.237 OA
ATOM     85  O   UNL     1     -16.528   2.418  -2.375  1.00  0.00    -0.744 OA
ENDBRANCH  81  82
ENDBRANCH  53  76
BRANCH  65  86
ATOM     86  C   UNL     1     -10.779  11.048  -6.705  1.00  0.00    -0.014 A 
ATOM     87  C   UNL     1     -10.623  11.045  -8.104  1.00  0.00     0.010 A 
ATOM     88  C   UNL     1     -11.544  12.060  -6.100  1.00  0.00     0.010 A 
ATOM     89  C   UNL     1     -11.163  12.074  -8.877  1.00  0.00     0.020 A 
ATOM     90  C   UNL     1     -12.115  13.073  -6.875  1.00  0.00     0.020 A 
ATOM     91  C   UNL     1     -11.891  13.092  -8.254  1.00  0.00     0.054 A 
BRANCH  91  92
ATOM     92  S   UNL     1     -12.505  14.467  -9.263  1.00  0.00     0.124 S 
ATOM     93  O   UNL     1     -11.275  15.184  -9.587  1.00  0.00    -0.237 OA
ATOM     94  O   UNL     1     -13.147  13.780 -10.381  1.00  0.00    -0.237 OA
ATOM     95  O   UNL     1     -13.419  15.171  -8.366  1.00  0.00    -0.744 OA
ENDBRANCH  91  92
ENDBRANCH  65  86
ENDBRANCH  39  40
ENDBRANCH  31  34
ENDBRANCH  29  30
ENDBRANCH   1  29
TORSDOF 15
