REMARK SMILES CCOc1c(F)cccc1C(=O)NCCCNC(=O)c1ccc(-c2c3nc(c(-c4ccc(S(=O)(=O)[O-])cc4)c4ccc([nH]4)c(-c4ccc(S(=O)(=O)[O-])cc4)c4nc(c(-c5ccc(S(=O)(=O)[O-])cc5)c5ccc2[nH]5)C=C4)C=C3)cc1
REMARK SMILES IDX 15 1 14 2 13 3 11 4 12 5 10 7 4 8 5 9 6 10 7 11 9 12 8 13
REMARK SMILES IDX 3 14 2 15 1 16 16 17 17 18 18 19 19 21 20 22 21 23 79 24
REMARK SMILES IDX 22 25 78 26 23 27 24 28 25 29 72 30 26 31 77 32 71 33 73 34
REMARK SMILES IDX 27 35 76 36 70 37 69 38 28 40 58 41 39 42 57 43 40 44 43 45
REMARK SMILES IDX 56 46 74 47 41 48 42 49 55 51 75 52 44 53 29 54 30 55 38 56
REMARK SMILES IDX 31 57 37 58 32 59 33 60 34 61 35 62 36 63 59 64 60 65 68 66
REMARK SMILES IDX 61 67 67 68 62 69 63 70 64 71 65 72 66 73 45 74 46 75 54 76
REMARK SMILES IDX 47 77 53 78 48 79 49 80 50 81 51 82 52 83
REMARK H PARENT 13 6 17 20 73 39 43 50
REMARK Flexibility Score: inf
ROOT
ATOM      1  C   UNL     1      -0.933  -0.075   3.546  1.00  0.00     0.042 C 
ENDROOT
BRANCH   1   2
ATOM      2  C   UNL     1      -0.258   1.274   3.794  1.00  0.00     0.118 C 
BRANCH   2   3
ATOM      3  N   UNL     1       0.855   1.128   4.707  1.00  0.00    -0.352 N 
ATOM      4  C   UNL     1       2.207   0.979   4.615  1.00  0.00     0.255 C 
ATOM      5  O   UNL     1       2.747   0.828   5.722  1.00  0.00    -0.269 OA
ATOM      6  H   UNL     1       0.556   1.140   5.645  1.00  0.00     0.163 HD
BRANCH   4   7
ATOM      7  C   UNL     1       3.100   1.016   3.405  1.00  0.00     0.084 A 
ATOM      8  C   UNL     1       2.800   1.030   2.035  1.00  0.00     0.167 A 
ATOM      9  C   UNL     1       3.846   1.192   1.101  1.00  0.00     0.165 A 
ATOM     10  F   UNL     1       3.570   1.358  -0.201  1.00  0.00    -0.203 F 
ATOM     11  C   UNL     1       5.184   1.226   1.472  1.00  0.00     0.043 A 
ATOM     12  C   UNL     1       4.482   1.049   3.752  1.00  0.00     0.018 A 
ATOM     13  C   UNL     1       5.509   1.135   2.809  1.00  0.00     0.004 A 
BRANCH   8  14
ATOM     14  O   UNL     1       1.531   0.983   1.533  1.00  0.00    -0.490 OA
BRANCH  14  15
ATOM     15  C   UNL     1       1.205  -0.265   0.900  1.00  0.00     0.226 C 
ATOM     16  C   UNL     1       1.303  -0.204  -0.614  1.00  0.00     0.049 C 
ENDBRANCH  14  15
ENDBRANCH   8  14
ENDBRANCH   4   7
ENDBRANCH   2   3
ENDBRANCH   1   2
BRANCH   1  17
ATOM     17  C   UNL     1      -1.897  -0.480   4.660  1.00  0.00     0.118 C 
BRANCH  17  18
ATOM     18  N   UNL     1      -3.102   0.341   4.639  1.00  0.00    -0.352 N 
ATOM     19  C   UNL     1      -4.373   0.044   4.215  1.00  0.00     0.251 C 
ATOM     20  H   UNL     1      -2.985   1.255   4.986  1.00  0.00     0.163 HD
ATOM     21  O   UNL     1      -5.149   0.965   3.971  1.00  0.00    -0.269 OA
BRANCH  19  22
ATOM     22  C   UNL     1      -4.824  -1.359   4.057  1.00  0.00     0.039 A 
ATOM     23  C   UNL     1      -5.726  -1.670   3.033  1.00  0.00     0.014 A 
ATOM     24  C   UNL     1      -4.438  -2.350   4.962  1.00  0.00     0.014 A 
ATOM     25  C   UNL     1      -6.204  -2.976   2.894  1.00  0.00     0.010 A 
ATOM     26  C   UNL     1      -4.853  -3.667   4.776  1.00  0.00     0.010 A 
ATOM     27  C   UNL     1      -5.754  -3.993   3.751  1.00  0.00    -0.014 A 
BRANCH  27  28
ATOM     28  C   UNL     1      -6.228  -5.394   3.615  1.00  0.00     0.031 A 
ATOM     29  C   UNL     1      -7.003  -6.042   4.734  1.00  0.00     0.074 A 
ATOM     30  C   UNL     1      -5.901  -6.108   2.519  1.00  0.00     0.049 A 
ATOM     31  N   UNL     1      -7.413  -7.279   4.847  1.00  0.00    -0.248 NA
ATOM     32  C   UNL     1      -7.334  -5.194   5.891  1.00  0.00     0.031 C 
ATOM     33  C   UNL     1      -5.123  -5.609   1.383  1.00  0.00     0.029 A 
ATOM     34  N   UNL     1      -6.172  -7.412   2.187  1.00  0.00    -0.354 N 
ATOM     35  C   UNL     1      -8.020  -7.366   6.095  1.00  0.00     0.074 A 
ATOM     36  C   UNL     1      -7.887  -6.067   6.719  1.00  0.00     0.031 C 
ATOM     37  C   UNL     1      -5.000  -6.586   0.470  1.00  0.00     0.029 A 
ATOM     38  C   UNL     1      -5.651  -7.792   0.973  1.00  0.00     0.049 A 
ATOM     39  H   UNL     1      -6.690  -8.018   2.764  1.00  0.00     0.167 HD
ATOM     40  C   UNL     1      -8.646  -8.423   6.665  1.00  0.00     0.031 A 
ATOM     41  C   UNL     1      -5.686  -8.979   0.337  1.00  0.00     0.031 A 
ATOM     42  C   UNL     1      -8.800  -9.705   6.030  1.00  0.00     0.049 A 
ATOM     43  C   UNL     1      -6.399 -10.135   0.981  1.00  0.00     0.074 A 
ATOM     44  C   UNL     1      -9.472 -10.822   6.495  1.00  0.00     0.029 A 
ATOM     45  N   UNL     1      -8.280 -10.039   4.788  1.00  0.00    -0.354 N 
ATOM     46  N   UNL     1      -7.011 -10.180   2.140  1.00  0.00    -0.248 NA
ATOM     47  C   UNL     1      -6.434 -11.396   0.228  1.00  0.00     0.031 C 
ATOM     48  C   UNL     1      -9.323 -11.845   5.552  1.00  0.00     0.029 A 
ATOM     49  C   UNL     1      -8.601 -11.349   4.478  1.00  0.00     0.049 A 
ATOM     50  H   UNL     1      -7.760  -9.433   4.212  1.00  0.00     0.167 HD
ATOM     51  C   UNL     1      -7.524 -11.468   2.246  1.00  0.00     0.074 A 
ATOM     52  C   UNL     1      -7.164 -12.163   1.027  1.00  0.00     0.031 C 
ATOM     53  C   UNL     1      -8.231 -12.025   3.260  1.00  0.00     0.031 A 
BRANCH  40  54
ATOM     54  C   UNL     1      -9.209  -8.235   8.050  1.00  0.00    -0.014 A 
ATOM     55  C   UNL     1     -10.331  -7.416   8.274  1.00  0.00     0.010 A 
ATOM     56  C   UNL     1      -8.627  -8.908   9.140  1.00  0.00     0.010 A 
ATOM     57  C   UNL     1     -10.828  -7.233   9.567  1.00  0.00     0.020 A 
ATOM     58  C   UNL     1      -9.139  -8.751  10.432  1.00  0.00     0.020 A 
ATOM     59  C   UNL     1     -10.225  -7.897  10.639  1.00  0.00     0.054 A 
BRANCH  59  60
ATOM     60  S   UNL     1     -10.898  -7.651  12.306  1.00  0.00     0.124 S 
ATOM     61  O   UNL     1     -10.419  -6.309  12.627  1.00  0.00    -0.237 OA
ATOM     62  O   UNL     1     -12.338  -7.769  12.093  1.00  0.00    -0.237 OA
ATOM     63  O   UNL     1     -10.296  -8.730  13.086  1.00  0.00    -0.744 OA
ENDBRANCH  59  60
ENDBRANCH  40  54
BRANCH  41  64
ATOM     64  C   UNL     1      -5.038  -9.124  -0.995  1.00  0.00    -0.014 A 
ATOM     65  C   UNL     1      -5.821  -9.238  -2.157  1.00  0.00     0.010 A 
ATOM     66  C   UNL     1      -3.636  -9.126  -1.111  1.00  0.00     0.010 A 
ATOM     67  C   UNL     1      -5.215  -9.363  -3.410  1.00  0.00     0.020 A 
ATOM     68  C   UNL     1      -3.026  -9.225  -2.365  1.00  0.00     0.020 A 
ATOM     69  C   UNL     1      -3.821  -9.353  -3.507  1.00  0.00     0.054 A 
BRANCH  69  70
ATOM     70  S   UNL     1      -3.055  -9.455  -5.149  1.00  0.00     0.124 S 
ATOM     71  O   UNL     1      -3.230 -10.866  -5.478  1.00  0.00    -0.237 OA
ATOM     72  O   UNL     1      -3.858  -8.518  -5.931  1.00  0.00    -0.237 OA
ATOM     73  O   UNL     1      -1.677  -9.032  -4.909  1.00  0.00    -0.744 OA
ENDBRANCH  69  70
ENDBRANCH  41  64
BRANCH  53  74
ATOM     74  C   UNL     1      -8.685 -13.448   3.084  1.00  0.00    -0.014 A 
ATOM     75  C   UNL     1      -7.777 -14.517   3.180  1.00  0.00     0.010 A 
ATOM     76  C   UNL     1     -10.049 -13.720   2.873  1.00  0.00     0.010 A 
ATOM     77  C   UNL     1      -8.222 -15.834   3.038  1.00  0.00     0.020 A 
ATOM     78  C   UNL     1     -10.501 -15.037   2.756  1.00  0.00     0.020 A 
ATOM     79  C   UNL     1      -9.581 -16.085   2.826  1.00  0.00     0.054 A 
BRANCH  79  80
ATOM     80  S   UNL     1     -10.141 -17.805   2.690  1.00  0.00     0.124 S 
ATOM     81  O   UNL     1      -9.698 -18.163   1.345  1.00  0.00    -0.237 OA
ATOM     82  O   UNL     1      -9.428 -18.463   3.782  1.00  0.00    -0.237 OA
ATOM     83  O   UNL     1     -11.589 -17.712   2.866  1.00  0.00    -0.744 OA
ENDBRANCH  79  80
ENDBRANCH  53  74
ENDBRANCH  27  28
ENDBRANCH  19  22
ENDBRANCH  17  18
ENDBRANCH   1  17
TORSDOF 15
