REMARK SMILES [NH3+][C@H](CSCc1ccco1)C(=O)NCCCNC(=O)c1ccc(-c2c3nc(c(-c4ccc(S(=O)(=O)[O-])cc4)c4ccc([nH]4)c(-c4ccc(S(=O)(=O)[O-])cc4)c4nc(c(-c5ccc(S(=O)(=O)[O-])cc5)c5ccc2[nH]5)C=C4)C=C3)cc1
REMARK SMILES IDX 14 1 13 2 11 3 12 4 2 6 1 7 3 11 4 12 5 13 6 14 7 15 10 16
REMARK SMILES IDX 8 17 9 18 15 19 16 20 17 21 18 22 19 24 20 25 21 26 79 27
REMARK SMILES IDX 22 28 78 29 23 30 24 31 25 32 72 33 26 34 77 35 71 36 73 37
REMARK SMILES IDX 27 38 76 39 70 40 69 41 28 43 58 44 39 45 57 46 40 47 43 48
REMARK SMILES IDX 56 49 74 50 41 51 42 52 55 54 75 55 44 56 29 57 30 58 38 59
REMARK SMILES IDX 31 60 37 61 32 62 33 63 34 64 35 65 36 66 59 67 60 68 68 69
REMARK SMILES IDX 61 70 67 71 62 72 63 73 64 74 65 75 66 76 45 77 46 78 54 79
REMARK SMILES IDX 47 80 53 81 48 82 49 83 50 84 51 85 52 86
REMARK H PARENT 13 5 1 8 1 9 1 10 17 23 73 42 43 53
REMARK Flexibility Score: inf
ROOT
ATOM      1  C   UNL     1      -0.737  -2.965   0.632  1.00  0.00     0.118 C 
ENDROOT
BRANCH   1   2
ATOM      2  N   UNL     1      -1.328  -2.129  -0.405  1.00  0.00    -0.351 N 
ATOM      3  C   UNL     1      -0.860  -1.173  -1.251  1.00  0.00     0.279 C 
ATOM      4  O   UNL     1      -1.715  -0.610  -1.949  1.00  0.00    -0.268 OA
ATOM      5  H   UNL     1      -2.292  -2.296  -0.519  1.00  0.00     0.163 HD
BRANCH   3   6
ATOM      6  C   UNL     1       0.604  -0.711  -1.345  1.00  0.00     0.280 C 
BRANCH   6   7
ATOM      7  N   UNL     1       1.601  -1.795  -1.254  1.00  0.00    -0.347 N 
ATOM      8  H   UNL     1       1.304  -2.580  -1.834  1.00  0.00     0.345 HD
ATOM      9  H   UNL     1       1.683  -2.100  -0.284  1.00  0.00     0.345 HD
ATOM     10  H   UNL     1       2.505  -1.453  -1.581  1.00  0.00     0.345 HD
ENDBRANCH   6   7
BRANCH   6  11
ATOM     11  C   UNL     1       0.923   0.546  -0.515  1.00  0.00     0.145 C 
BRANCH  11  12
ATOM     12  S   UNL     1       0.646   0.485   1.285  1.00  0.00    -0.147 SA
BRANCH  12  13
ATOM     13  C   UNL     1      -1.127   0.917   1.390  1.00  0.00     0.145 C 
BRANCH  13  14
ATOM     14  C   UNL     1      -1.432   2.320   1.027  1.00  0.00     0.113 A 
ATOM     15  C   UNL     1      -1.845   2.931  -0.140  1.00  0.00     0.046 A 
ATOM     16  O   UNL     1      -1.392   3.233   2.039  1.00  0.00    -0.468 OA
ATOM     17  C   UNL     1      -2.056   4.294   0.176  1.00  0.00     0.042 A 
ATOM     18  C   UNL     1      -1.774   4.425   1.515  1.00  0.00     0.195 A 
ENDBRANCH  13  14
ENDBRANCH  12  13
ENDBRANCH  11  12
ENDBRANCH   6  11
ENDBRANCH   3   6
ENDBRANCH   1   2
BRANCH   1  19
ATOM     19  C   UNL     1      -1.210  -2.654   2.055  1.00  0.00     0.042 C 
BRANCH  19  20
ATOM     20  C   UNL     1      -2.703  -2.409   2.250  1.00  0.00     0.118 C 
BRANCH  20  21
ATOM     21  N   UNL     1      -3.480  -3.632   2.238  1.00  0.00    -0.352 N 
ATOM     22  C   UNL     1      -4.211  -4.223   3.242  1.00  0.00     0.251 C 
ATOM     23  H   UNL     1      -3.485  -4.114   1.380  1.00  0.00     0.163 HD
ATOM     24  O   UNL     1      -4.629  -5.365   3.071  1.00  0.00    -0.269 OA
BRANCH  22  25
ATOM     25  C   UNL     1      -4.491  -3.523   4.524  1.00  0.00     0.039 A 
ATOM     26  C   UNL     1      -4.452  -4.270   5.706  1.00  0.00     0.014 A 
ATOM     27  C   UNL     1      -4.867  -2.177   4.577  1.00  0.00     0.014 A 
ATOM     28  C   UNL     1      -4.759  -3.667   6.931  1.00  0.00     0.010 A 
ATOM     29  C   UNL     1      -5.110  -1.559   5.809  1.00  0.00     0.010 A 
ATOM     30  C   UNL     1      -5.079  -2.301   6.999  1.00  0.00    -0.014 A 
BRANCH  30  31
ATOM     31  C   UNL     1      -5.408  -1.670   8.307  1.00  0.00     0.031 A 
ATOM     32  C   UNL     1      -6.802  -1.172   8.595  1.00  0.00     0.074 A 
ATOM     33  C   UNL     1      -4.452  -1.544   9.250  1.00  0.00     0.049 A 
ATOM     34  N   UNL     1      -7.284  -0.664   9.702  1.00  0.00    -0.248 NA
ATOM     35  C   UNL     1      -7.776  -1.237   7.495  1.00  0.00     0.031 C 
ATOM     36  C   UNL     1      -3.050  -1.936   9.092  1.00  0.00     0.029 A 
ATOM     37  N   UNL     1      -4.518  -1.059  10.534  1.00  0.00    -0.354 N 
ATOM     38  C   UNL     1      -8.609  -0.343   9.431  1.00  0.00     0.074 A 
ATOM     39  C   UNL     1      -8.842  -0.670   8.040  1.00  0.00     0.031 C 
ATOM     40  C   UNL     1      -2.398  -1.711  10.245  1.00  0.00     0.029 A 
ATOM     41  C   UNL     1      -3.328  -1.142  11.217  1.00  0.00     0.049 A 
ATOM     42  H   UNL     1      -5.340  -0.687  10.928  1.00  0.00     0.167 HD
ATOM     43  C   UNL     1      -9.555   0.157  10.263  1.00  0.00     0.031 A 
ATOM     44  C   UNL     1      -3.018  -0.813  12.487  1.00  0.00     0.031 A 
ATOM     45  C   UNL     1      -9.336   0.474  11.649  1.00  0.00     0.049 A 
ATOM     46  C   UNL     1      -4.090  -0.285  13.400  1.00  0.00     0.074 A 
ATOM     47  C   UNL     1     -10.249   0.935  12.583  1.00  0.00     0.029 A 
ATOM     48  N   UNL     1      -8.119   0.364  12.303  1.00  0.00    -0.354 N 
ATOM     49  N   UNL     1      -5.355  -0.060  13.141  1.00  0.00    -0.248 NA
ATOM     50  C   UNL     1      -3.693   0.011  14.784  1.00  0.00     0.031 C 
ATOM     51  C   UNL     1      -9.575   1.138  13.793  1.00  0.00     0.029 A 
ATOM     52  C   UNL     1      -8.253   0.761  13.624  1.00  0.00     0.049 A 
ATOM     53  H   UNL     1      -7.282   0.050  11.890  1.00  0.00     0.167 HD
ATOM     54  C   UNL     1      -5.912   0.383  14.336  1.00  0.00     0.074 A 
ATOM     55  C   UNL     1      -4.849   0.377  15.321  1.00  0.00     0.031 C 
ATOM     56  C   UNL     1      -7.189   0.759  14.594  1.00  0.00     0.031 A 
BRANCH  43  57
ATOM     57  C   UNL     1     -10.928   0.392   9.688  1.00  0.00    -0.014 A 
ATOM     58  C   UNL     1     -11.774  -0.687   9.372  1.00  0.00     0.010 A 
ATOM     59  C   UNL     1     -11.392   1.706   9.492  1.00  0.00     0.010 A 
ATOM     60  C   UNL     1     -13.041  -0.458   8.830  1.00  0.00     0.020 A 
ATOM     61  C   UNL     1     -12.669   1.939   8.974  1.00  0.00     0.020 A 
ATOM     62  C   UNL     1     -13.478   0.855   8.627  1.00  0.00     0.054 A 
BRANCH  62  63
ATOM     63  S   UNL     1     -15.133   1.126   7.934  1.00  0.00     0.124 S 
ATOM     64  O   UNL     1     -14.921   0.814   6.523  1.00  0.00    -0.237 OA
ATOM     65  O   UNL     1     -15.953   0.170   8.672  1.00  0.00    -0.237 OA
ATOM     66  O   UNL     1     -15.405   2.532   8.228  1.00  0.00    -0.744 OA
ENDBRANCH  62  63
ENDBRANCH  43  57
BRANCH  44  67
ATOM     67  C   UNL     1      -1.631  -1.015  12.985  1.00  0.00    -0.014 A 
ATOM     68  C   UNL     1      -1.339  -2.064  13.875  1.00  0.00     0.010 A 
ATOM     69  C   UNL     1      -0.592  -0.167  12.560  1.00  0.00     0.010 A 
ATOM     70  C   UNL     1      -0.036  -2.253  14.344  1.00  0.00     0.020 A 
ATOM     71  C   UNL     1       0.716  -0.368  13.009  1.00  0.00     0.020 A 
ATOM     72  C   UNL     1       0.984  -1.403  13.907  1.00  0.00     0.054 A 
BRANCH  72  73
ATOM     73  S   UNL     1       2.680  -1.702  14.479  1.00  0.00     0.124 S 
ATOM     74  O   UNL     1       2.646  -1.151  15.829  1.00  0.00    -0.237 OA
ATOM     75  O   UNL     1       2.796  -3.155  14.390  1.00  0.00    -0.237 OA
ATOM     76  O   UNL     1       3.497  -0.962  13.519  1.00  0.00    -0.744 OA
ENDBRANCH  72  73
ENDBRANCH  44  67
BRANCH  56  77
ATOM     77  C   UNL     1      -7.512   1.172  16.005  1.00  0.00    -0.014 A 
ATOM     78  C   UNL     1      -7.067   2.400  16.525  1.00  0.00     0.010 A 
ATOM     79  C   UNL     1      -8.290   0.326  16.816  1.00  0.00     0.010 A 
ATOM     80  C   UNL     1      -7.356   2.756  17.845  1.00  0.00     0.020 A 
ATOM     81  C   UNL     1      -8.602   0.689  18.129  1.00  0.00     0.020 A 
ATOM     82  C   UNL     1      -8.115   1.893  18.642  1.00  0.00     0.054 A 
BRANCH  82  83
ATOM     83  S   UNL     1      -8.493   2.378  20.349  1.00  0.00     0.124 S 
ATOM     84  O   UNL     1      -7.238   2.077  21.034  1.00  0.00    -0.237 OA
ATOM     85  O   UNL     1      -8.813   3.797  20.220  1.00  0.00    -0.237 OA
ATOM     86  O   UNL     1      -9.621   1.522  20.709  1.00  0.00    -0.744 OA
ENDBRANCH  82  83
ENDBRANCH  56  77
ENDBRANCH  30  31
ENDBRANCH  22  25
ENDBRANCH  20  21
ENDBRANCH  19  20
ENDBRANCH   1  19
TORSDOF 18
