REMARK SMILES CCCn1nc(C(=O)NCCCNC(=O)c2ccc(-c3c4nc(c(-c5ccc(S(=O)(=O)[O-])cc5)c5ccc([nH]5)c(-c5ccc(S(=O)(=O)[O-])cc5)c5nc(c(-c6ccc(S(=O)(=O)[O-])cc6)c6ccc3[nH]6)C=C5)C=C4)cc2)c2c1CC[C@@H]([NH+]1CC[NH+](Cc3ccccn3)CC1)C2
REMARK SMILES IDX 11 1 10 2 9 3 7 4 8 5 6 7 4 8 5 9 77 10 76 11 78 12 94 13
REMARK SMILES IDX 79 14 80 15 3 16 2 17 1 18 81 19 82 20 93 21 83 23 92 24
REMARK SMILES IDX 84 25 85 27 86 28 87 29 91 30 88 31 90 32 89 33 12 34 13 35
REMARK SMILES IDX 14 36 15 38 16 39 17 40 75 41 18 42 74 43 19 44 20 45 21 46
REMARK SMILES IDX 68 47 22 48 73 49 67 50 69 51 23 52 72 53 66 54 65 55 24 57
REMARK SMILES IDX 54 58 35 59 53 60 36 61 39 62 52 63 70 64 37 65 38 66 51 68
REMARK SMILES IDX 71 69 40 70 25 71 26 72 34 73 27 74 33 75 28 76 29 77 30 78
REMARK SMILES IDX 31 79 32 80 55 81 56 82 64 83 57 84 63 85 58 86 59 87 60 88
REMARK SMILES IDX 61 89 62 90 41 91 42 92 50 93 43 94 49 95 44 96 45 97 46 98
REMARK SMILES IDX 47 99 48 100
REMARK H PARENT 9 6 81 22 84 26 13 37 69 56 39 67
REMARK Flexibility Score: inf
ROOT
ATOM      1  C   UNL     1      -1.800  -0.828   6.804  1.00  0.00     0.042 C 
ENDROOT
BRANCH   1   2
ATOM      2  C   UNL     1      -0.701  -1.924   6.835  1.00  0.00     0.118 C 
BRANCH   2   3
ATOM      3  N   UNL     1      -0.859  -2.990   5.816  1.00  0.00    -0.351 N 
ATOM      4  C   UNL     1      -0.365  -3.364   4.564  1.00  0.00     0.272 C 
ATOM      5  O   UNL     1      -0.636  -4.538   4.280  1.00  0.00    -0.267 OA
ATOM      6  H   UNL     1      -1.528  -3.646   6.120  1.00  0.00     0.163 HD
BRANCH   4   7
ATOM      7  C   UNL     1       0.375  -2.505   3.574  1.00  0.00     0.153 A 
ATOM      8  N   UNL     1       1.269  -2.006   1.599  1.00  0.00    -0.269 N 
ATOM      9  N   UNL     1       0.893  -3.026   2.434  1.00  0.00    -0.167 NA
ATOM     10  C   UNL     1       1.290  -0.784   2.224  1.00  0.00     0.043 A 
ATOM     11  C   UNL     1       0.527  -1.109   3.506  1.00  0.00     0.012 A 
ATOM     12  C   UNL     1       1.513   1.034   1.521  1.00  0.00     0.062 C 
ATOM     13  C   UNL     1      -0.279  -0.008   4.546  1.00  0.00     0.105 C 
ATOM     14  C   UNL     1       0.421   2.534   2.747  1.00  0.00     0.072 C 
ATOM     15  C   UNL     1      -0.713   1.712   4.117  1.00  0.00     0.189 C 
BRANCH   8  16
ATOM     16  C   UNL     1       1.631  -2.372   0.241  1.00  0.00     0.144 C 
BRANCH  16  17
ATOM     17  C   UNL     1       0.601  -2.091  -0.863  1.00  0.00     0.020 C 
ATOM     18  C   UNL     1       0.646  -0.681  -1.419  1.00  0.00     0.006 C 
ENDBRANCH  16  17
ENDBRANCH   8  16
BRANCH  15  19
ATOM     19  N   UNL     1      -2.203   1.827   3.945  1.00  0.00    -0.323 N 
ATOM     20  C   UNL     1      -3.018   0.744   3.340  1.00  0.00     0.324 C 
ATOM     21  C   UNL     1      -2.649   3.137   3.477  1.00  0.00     0.324 C 
ATOM     22  H   UNL     1      -2.421   1.681   4.931  1.00  0.00     0.348 HD
ATOM     23  C   UNL     1      -3.361   0.816   1.822  1.00  0.00     0.324 C 
ATOM     24  C   UNL     1      -3.208   3.206   2.028  1.00  0.00     0.324 C 
ATOM     25  N   UNL     1      -2.994   2.055   1.148  1.00  0.00    -0.321 N 
ATOM     26  H   UNL     1      -3.653   2.191   0.382  1.00  0.00     0.348 HD
BRANCH  25  27
ATOM     27  C   UNL     1      -1.784   2.021   0.311  1.00  0.00     0.319 C 
BRANCH  27  28
ATOM     28  C   UNL     1      -0.424   1.861   0.954  1.00  0.00     0.095 A 
ATOM     29  C   UNL     1      -0.178   0.819   2.296  1.00  0.00     0.030 A 
ATOM     30  N   UNL     1       0.782   2.973   0.598  1.00  0.00    -0.255 NA
ATOM     31  C   UNL     1       1.422   1.099   3.414  1.00  0.00     0.004 A 
ATOM     32  C   UNL     1       2.167   3.166   1.544  1.00  0.00     0.111 A 
ATOM     33  C   UNL     1       2.576   2.311   2.935  1.00  0.00     0.020 A 
ENDBRANCH  27  28
ENDBRANCH  25  27
ENDBRANCH  15  19
ENDBRANCH   4   7
ENDBRANCH   2   3
ENDBRANCH   1   2
BRANCH   1  34
ATOM     34  C   UNL     1      -2.634  -0.567   8.031  1.00  0.00     0.118 C 
BRANCH  34  35
ATOM     35  N   UNL     1      -1.923   0.164   9.083  1.00  0.00    -0.352 N 
ATOM     36  C   UNL     1      -2.400   0.444  10.355  1.00  0.00     0.251 C 
ATOM     37  H   UNL     1      -1.018   0.486   8.867  1.00  0.00     0.163 HD
ATOM     38  O   UNL     1      -1.970   1.395  10.995  1.00  0.00    -0.269 OA
BRANCH  36  39
ATOM     39  C   UNL     1      -3.467  -0.421  10.888  1.00  0.00     0.039 A 
ATOM     40  C   UNL     1      -4.576   0.102  11.552  1.00  0.00     0.014 A 
ATOM     41  C   UNL     1      -3.400  -1.771  10.564  1.00  0.00     0.014 A 
ATOM     42  C   UNL     1      -5.672  -0.733  11.765  1.00  0.00     0.010 A 
ATOM     43  C   UNL     1      -4.553  -2.509  10.563  1.00  0.00     0.010 A 
ATOM     44  C   UNL     1      -5.678  -2.028  11.216  1.00  0.00    -0.014 A 
BRANCH  44  45
ATOM     45  C   UNL     1      -6.895  -2.838  11.207  1.00  0.00     0.031 A 
ATOM     46  C   UNL     1      -8.120  -2.102  10.802  1.00  0.00     0.074 A 
ATOM     47  C   UNL     1      -6.923  -4.180  11.374  1.00  0.00     0.049 A 
ATOM     48  N   UNL     1      -9.035  -1.640  11.587  1.00  0.00    -0.248 NA
ATOM     49  C   UNL     1      -8.259  -1.667   9.402  1.00  0.00     0.031 C 
ATOM     50  C   UNL     1      -5.791  -5.109  11.495  1.00  0.00     0.029 A 
ATOM     51  N   UNL     1      -7.992  -5.023  11.369  1.00  0.00    -0.354 N 
ATOM     52  C   UNL     1     -10.009  -1.110  10.752  1.00  0.00     0.074 A 
ATOM     53  C   UNL     1      -9.377  -0.938   9.467  1.00  0.00     0.031 C 
ATOM     54  C   UNL     1      -6.216  -6.376  11.299  1.00  0.00     0.029 A 
ATOM     55  C   UNL     1      -7.663  -6.369  11.245  1.00  0.00     0.049 A 
ATOM     56  H   UNL     1      -8.921  -4.706  11.447  1.00  0.00     0.167 HD
ATOM     57  C   UNL     1     -11.326  -1.157  11.098  1.00  0.00     0.031 A 
ATOM     58  C   UNL     1      -8.517  -7.414  11.110  1.00  0.00     0.031 A 
ATOM     59  C   UNL     1     -11.495  -1.504  12.490  1.00  0.00     0.049 A 
ATOM     60  C   UNL     1      -9.820  -6.973  11.656  1.00  0.00     0.074 A 
ATOM     61  C   UNL     1     -11.032  -0.994  13.688  1.00  0.00     0.029 A 
ATOM     62  N   UNL     1     -11.907  -2.789  12.759  1.00  0.00    -0.354 N 
ATOM     63  N   UNL     1     -10.012  -6.707  12.918  1.00  0.00    -0.248 NA
ATOM     64  C   UNL     1     -10.798  -6.407  10.744  1.00  0.00     0.031 C 
ATOM     65  C   UNL     1     -10.752  -2.138  14.493  1.00  0.00     0.029 A 
ATOM     66  C   UNL     1     -11.139  -3.277  13.784  1.00  0.00     0.049 A 
ATOM     67  H   UNL     1     -12.627  -3.274  12.296  1.00  0.00     0.167 HD
ATOM     68  C   UNL     1     -10.836  -5.591  12.919  1.00  0.00     0.074 A 
ATOM     69  C   UNL     1     -11.381  -5.528  11.564  1.00  0.00     0.031 C 
ATOM     70  C   UNL     1     -10.775  -4.672  13.928  1.00  0.00     0.031 A 
BRANCH  57  71
ATOM     71  C   UNL     1     -12.441  -1.358  10.095  1.00  0.00    -0.014 A 
ATOM     72  C   UNL     1     -13.773  -1.378  10.559  1.00  0.00     0.010 A 
ATOM     73  C   UNL     1     -12.220  -1.815   8.779  1.00  0.00     0.010 A 
ATOM     74  C   UNL     1     -14.809  -1.906   9.777  1.00  0.00     0.020 A 
ATOM     75  C   UNL     1     -13.252  -2.298   7.974  1.00  0.00     0.020 A 
ATOM     76  C   UNL     1     -14.536  -2.374   8.492  1.00  0.00     0.054 A 
BRANCH  76  77
ATOM     77  S   UNL     1     -15.858  -3.135   7.523  1.00  0.00     0.124 S 
ATOM     78  O   UNL     1     -16.119  -4.354   8.282  1.00  0.00    -0.237 OA
ATOM     79  O   UNL     1     -16.903  -2.116   7.576  1.00  0.00    -0.237 OA
ATOM     80  O   UNL     1     -15.249  -3.328   6.210  1.00  0.00    -0.744 OA
ENDBRANCH  76  77
ENDBRANCH  57  71
BRANCH  58  81
ATOM     81  C   UNL     1      -8.350  -8.655  10.315  1.00  0.00    -0.014 A 
ATOM     82  C   UNL     1      -9.284  -9.704  10.423  1.00  0.00     0.010 A 
ATOM     83  C   UNL     1      -7.450  -8.689   9.231  1.00  0.00     0.010 A 
ATOM     84  C   UNL     1      -9.376 -10.695   9.432  1.00  0.00     0.020 A 
ATOM     85  C   UNL     1      -7.529  -9.680   8.245  1.00  0.00     0.020 A 
ATOM     86  C   UNL     1      -8.514 -10.661   8.333  1.00  0.00     0.054 A 
BRANCH  86  87
ATOM     87  S   UNL     1      -8.782 -11.812   6.952  1.00  0.00     0.124 S 
ATOM     88  O   UNL     1      -8.348 -13.085   7.519  1.00  0.00    -0.237 OA
ATOM     89  O   UNL     1     -10.216 -11.686   6.705  1.00  0.00    -0.237 OA
ATOM     90  O   UNL     1      -7.927 -11.281   5.892  1.00  0.00    -0.744 OA
ENDBRANCH  86  87
ENDBRANCH  58  81
BRANCH  70  91
ATOM     91  C   UNL     1     -10.097  -5.061  15.224  1.00  0.00    -0.014 A 
ATOM     92  C   UNL     1      -8.755  -5.475  15.333  1.00  0.00     0.010 A 
ATOM     93  C   UNL     1     -10.836  -4.878  16.407  1.00  0.00     0.010 A 
ATOM     94  C   UNL     1      -8.185  -5.734  16.591  1.00  0.00     0.020 A 
ATOM     95  C   UNL     1     -10.270  -5.112  17.660  1.00  0.00     0.020 A 
ATOM     96  C   UNL     1      -8.950  -5.553  17.748  1.00  0.00     0.054 A 
BRANCH  96  97
ATOM     97  S   UNL     1      -8.208  -5.864  19.374  1.00  0.00     0.124 S 
ATOM     98  O   UNL     1      -8.016  -7.311  19.364  1.00  0.00    -0.237 OA
ATOM     99  O   UNL     1      -6.985  -5.066  19.332  1.00  0.00    -0.237 OA
ATOM    100  O   UNL     1      -9.218  -5.383  20.317  1.00  0.00    -0.744 OA
ENDBRANCH  96  97
ENDBRANCH  70  91
ENDBRANCH  44  45
ENDBRANCH  36  39
ENDBRANCH  34  35
ENDBRANCH   1  34
TORSDOF 18
