REMARK SMILES O=C(COc1ccccc1/C=N/NC(=O)c1cc(-c2ccc(F)cc2)nc2ccccc12)NCCCNC(=O)c1ccc(-c2c3nc(c(-c4ccc(S(=O)(=O)[O-])cc4)c4ccc([nH]4)c(-c4ccc(S(=O)(=O)[O-])cc4)c4nc(c(-c5ccc(S(=O)(=O)[O-])cc5)c5ccc2[nH]5)C=C4)C=C3)cc1
REMARK SMILES IDX 1 1 2 2 33 3 3 5 4 6 5 7 6 8 10 9 7 10 9 11 8 12 11 13 12 14
REMARK SMILES IDX 13 15 14 16 15 18 16 19 17 20 32 21 18 22 27 23 31 24 26 25
REMARK SMILES IDX 28 26 30 27 29 28 19 29 20 30 25 31 21 32 24 33 22 34 23 35
REMARK SMILES IDX 34 36 35 37 36 38 37 39 38 40 39 42 40 43 41 44 99 45 42 46
REMARK SMILES IDX 98 47 43 48 44 49 45 50 92 51 46 52 97 53 91 54 93 55 47 56
REMARK SMILES IDX 96 57 90 58 89 59 48 61 78 62 59 63 77 64 60 65 63 66 76 67
REMARK SMILES IDX 94 68 61 69 62 70 75 72 95 73 64 74 49 75 50 76 58 77 51 78
REMARK SMILES IDX 57 79 52 80 53 81 54 82 55 83 56 84 79 85 80 86 88 87 81 88
REMARK SMILES IDX 87 89 82 90 83 91 84 92 85 93 86 94 65 95 66 96 74 97 67 98
REMARK SMILES IDX 73 99 68 100 69 101 70 102 71 103 72 104
REMARK H PARENT 33 4 13 17 37 41 93 60 63 71
REMARK Flexibility Score: inf
ROOT
ATOM      1  O   UNL     1       3.108  -1.576   0.973  1.00  0.00    -0.271 OA
ATOM      2  C   UNL     1       3.444  -0.589   0.348  1.00  0.00     0.257 C 
ATOM      3  N   UNL     1       3.961   0.567   0.912  1.00  0.00    -0.353 N 
ATOM      4  H   UNL     1       4.830   0.905   0.597  1.00  0.00     0.163 HD
ENDROOT
BRANCH   2   5
ATOM      5  C   UNL     1       3.329  -0.517  -1.165  1.00  0.00     0.329 C 
BRANCH   5   6
ATOM      6  O   UNL     1       3.688   0.807  -1.532  1.00  0.00    -0.483 OA
BRANCH   6   7
ATOM      7  C   UNL     1       2.748   1.539  -2.188  1.00  0.00     0.128 A 
ATOM      8  C   UNL     1       3.272   2.027  -3.402  1.00  0.00     0.047 A 
ATOM      9  C   UNL     1       1.532   2.032  -1.695  1.00  0.00     0.037 A 
ATOM     10  C   UNL     1       2.630   3.021  -4.128  1.00  0.00     0.004 A 
ATOM     11  C   UNL     1       0.912   3.063  -2.443  1.00  0.00     0.013 A 
ATOM     12  C   UNL     1       1.453   3.556  -3.636  1.00  0.00     0.001 A 
BRANCH   9  13
ATOM     13  C   UNL     1       0.773   1.751  -0.433  1.00  0.00     0.145 C 
ATOM     14  N   UNL     1       0.583   0.650   0.258  1.00  0.00    -0.180 NA
BRANCH  14  15
ATOM     15  N   UNL     1      -0.427   0.852   1.198  1.00  0.00    -0.243 N 
ATOM     16  C   UNL     1      -0.857   0.210   2.354  1.00  0.00     0.272 C 
ATOM     17  H   UNL     1      -0.970   1.647   0.993  1.00  0.00     0.194 HD
ATOM     18  O   UNL     1      -1.934   0.643   2.781  1.00  0.00    -0.267 OA
BRANCH  16  19
ATOM     19  C   UNL     1      -0.118  -0.814   3.157  1.00  0.00     0.053 A 
ATOM     20  C   UNL     1       0.730  -1.742   2.547  1.00  0.00     0.043 A 
ATOM     21  C   UNL     1      -0.347  -0.920   4.592  1.00  0.00     0.013 A 
ATOM     22  C   UNL     1       1.499  -2.542   3.379  1.00  0.00     0.072 A 
ATOM     23  C   UNL     1       0.571  -1.704   5.304  1.00  0.00     0.072 A 
ATOM     24  C   UNL     1      -1.411  -0.399   5.391  1.00  0.00     0.011 A 
ATOM     25  N   UNL     1       1.522  -2.385   4.717  1.00  0.00    -0.248 NA
ATOM     26  C   UNL     1       0.490  -1.928   6.666  1.00  0.00     0.029 A 
ATOM     27  C   UNL     1      -1.544  -0.700   6.759  1.00  0.00     0.001 A 
ATOM     28  C   UNL     1      -0.581  -1.459   7.403  1.00  0.00     0.002 A 
BRANCH  22  29
ATOM     29  C   UNL     1       2.229  -3.783   3.094  1.00  0.00     0.000 A 
ATOM     30  C   UNL     1       1.543  -4.986   3.374  1.00  0.00     0.013 A 
ATOM     31  C   UNL     1       3.636  -3.788   3.141  1.00  0.00     0.013 A 
ATOM     32  C   UNL     1       2.232  -6.107   3.837  1.00  0.00     0.040 A 
ATOM     33  C   UNL     1       4.325  -4.920   3.584  1.00  0.00     0.040 A 
ATOM     34  C   UNL     1       3.613  -6.051   3.966  1.00  0.00     0.123 A 
ATOM     35  F   UNL     1       4.261  -7.083   4.522  1.00  0.00    -0.207 F 
ENDBRANCH  22  29
ENDBRANCH  16  19
ENDBRANCH  14  15
ENDBRANCH   9  13
ENDBRANCH   6   7
ENDBRANCH   5   6
ENDBRANCH   2   5
BRANCH   3  36
ATOM     36  C   UNL     1       3.263   1.289   1.948  1.00  0.00     0.117 C 
BRANCH  36  37
ATOM     37  C   UNL     1       3.334   0.708   3.332  1.00  0.00     0.042 C 
BRANCH  37  38
ATOM     38  C   UNL     1       4.723   0.763   3.906  1.00  0.00     0.118 C 
BRANCH  38  39
ATOM     39  N   UNL     1       5.198   2.127   4.099  1.00  0.00    -0.352 N 
ATOM     40  C   UNL     1       5.763   2.693   5.212  1.00  0.00     0.251 C 
ATOM     41  H   UNL     1       5.099   2.724   3.322  1.00  0.00     0.163 HD
ATOM     42  O   UNL     1       5.964   3.903   5.246  1.00  0.00    -0.269 OA
BRANCH  40  43
ATOM     43  C   UNL     1       6.096   1.837   6.370  1.00  0.00     0.039 A 
ATOM     44  C   UNL     1       5.873   2.323   7.657  1.00  0.00     0.014 A 
ATOM     45  C   UNL     1       6.601   0.546   6.183  1.00  0.00     0.014 A 
ATOM     46  C   UNL     1       6.122   1.496   8.751  1.00  0.00     0.010 A 
ATOM     47  C   UNL     1       6.709  -0.318   7.260  1.00  0.00     0.010 A 
ATOM     48  C   UNL     1       6.521   0.161   8.559  1.00  0.00    -0.014 A 
BRANCH  48  49
ATOM     49  C   UNL     1       6.816  -0.721   9.710  1.00  0.00     0.031 A 
ATOM     50  C   UNL     1       8.207  -1.274   9.891  1.00  0.00     0.074 A 
ATOM     51  C   UNL     1       5.834  -1.037  10.575  1.00  0.00     0.049 A 
ATOM     52  N   UNL     1       8.678  -2.017  10.859  1.00  0.00    -0.248 NA
ATOM     53  C   UNL     1       9.191  -0.984   8.833  1.00  0.00     0.031 C 
ATOM     54  C   UNL     1       4.431  -0.628  10.456  1.00  0.00     0.029 A 
ATOM     55  N   UNL     1       5.870  -1.761  11.738  1.00  0.00    -0.354 N 
ATOM     56  C   UNL     1       9.995  -2.296  10.514  1.00  0.00     0.074 A 
ATOM     57  C   UNL     1      10.232  -1.705   9.218  1.00  0.00     0.031 C 
ATOM     58  C   UNL     1       3.755  -1.058  11.534  1.00  0.00     0.029 A 
ATOM     59  C   UNL     1       4.668  -1.791  12.404  1.00  0.00     0.049 A 
ATOM     60  H   UNL     1       6.680  -2.216  12.065  1.00  0.00     0.167 HD
ATOM     61  C   UNL     1      10.939  -2.953  11.226  1.00  0.00     0.031 A 
ATOM     62  C   UNL     1       4.349  -2.329  13.596  1.00  0.00     0.031 A 
ATOM     63  C   UNL     1      10.707  -3.509  12.530  1.00  0.00     0.049 A 
ATOM     64  C   UNL     1       5.428  -2.999  14.400  1.00  0.00     0.074 A 
ATOM     65  C   UNL     1      11.604  -4.140  13.372  1.00  0.00     0.029 A 
ATOM     66  N   UNL     1       9.485  -3.491  13.185  1.00  0.00    -0.354 N 
ATOM     67  N   UNL     1       6.691  -3.184  14.093  1.00  0.00    -0.248 NA
ATOM     68  C   UNL     1       5.045  -3.510  15.722  1.00  0.00     0.031 C 
ATOM     69  C   UNL     1      10.915  -4.535  14.524  1.00  0.00     0.029 A 
ATOM     70  C   UNL     1       9.600  -4.106  14.418  1.00  0.00     0.049 A 
ATOM     71  H   UNL     1       8.657  -3.098  12.825  1.00  0.00     0.167 HD
ATOM     72  C   UNL     1       7.258  -3.815  15.194  1.00  0.00     0.074 A 
ATOM     73  C   UNL     1       6.205  -3.956  16.181  1.00  0.00     0.031 C 
ATOM     74  C   UNL     1       8.534  -4.241  15.376  1.00  0.00     0.031 A 
BRANCH  61  75
ATOM     75  C   UNL     1      12.306  -3.088  10.607  1.00  0.00    -0.014 A 
ATOM     76  C   UNL     1      13.142  -1.967  10.444  1.00  0.00     0.010 A 
ATOM     77  C   UNL     1      12.767  -4.350  10.192  1.00  0.00     0.010 A 
ATOM     78  C   UNL     1      14.393  -2.097   9.836  1.00  0.00     0.020 A 
ATOM     79  C   UNL     1      14.031  -4.489   9.611  1.00  0.00     0.020 A 
ATOM     80  C   UNL     1      14.828  -3.358   9.419  1.00  0.00     0.054 A 
BRANCH  80  81
ATOM     81  S   UNL     1      16.466  -3.504   8.652  1.00  0.00     0.124 S 
ATOM     82  O   UNL     1      16.226  -2.950   7.322  1.00  0.00    -0.237 OA
ATOM     83  O   UNL     1      17.305  -2.690   9.528  1.00  0.00    -0.237 OA
ATOM     84  O   UNL     1      16.740  -4.938   8.689  1.00  0.00    -0.744 OA
ENDBRANCH  80  81
ENDBRANCH  61  75
BRANCH  62  85
ATOM     85  C   UNL     1       2.963  -2.201  14.120  1.00  0.00    -0.014 A 
ATOM     86  C   UNL     1       2.683  -1.331  15.189  1.00  0.00     0.010 A 
ATOM     87  C   UNL     1       1.911  -2.930  13.539  1.00  0.00     0.010 A 
ATOM     88  C   UNL     1       1.380  -1.209  15.682  1.00  0.00     0.020 A 
ATOM     89  C   UNL     1       0.603  -2.792  14.012  1.00  0.00     0.020 A 
ATOM     90  C   UNL     1       0.348  -1.940  15.089  1.00  0.00     0.054 A 
BRANCH  90  91
ATOM     91  S   UNL     1      -1.345  -1.727  15.707  1.00  0.00     0.124 S 
ATOM     92  O   UNL     1      -1.316  -2.498  16.946  1.00  0.00    -0.237 OA
ATOM     93  O   UNL     1      -1.446  -0.279  15.865  1.00  0.00    -0.237 OA
ATOM     94  O   UNL     1      -2.170  -2.288  14.639  1.00  0.00    -0.744 OA
ENDBRANCH  90  91
ENDBRANCH  62  85
BRANCH  74  95
ATOM     95  C   UNL     1       8.856  -4.874  16.701  1.00  0.00    -0.014 A 
ATOM     96  C   UNL     1       8.378  -6.154  17.031  1.00  0.00     0.010 A 
ATOM     97  C   UNL     1       9.664  -4.181  17.621  1.00  0.00     0.010 A 
ATOM     98  C   UNL     1       8.657  -6.709  18.282  1.00  0.00     0.020 A 
ATOM     99  C   UNL     1       9.968  -4.745  18.861  1.00  0.00     0.020 A 
ATOM    100  C   UNL     1       9.443  -5.996  19.193  1.00  0.00     0.054 A 
BRANCH 100 101
ATOM    101  S   UNL     1       9.795  -6.734  20.811  1.00  0.00     0.124 S 
ATOM    102  O   UNL     1       8.541  -6.509  21.524  1.00  0.00    -0.237 OA
ATOM    103  O   UNL     1      10.087  -8.125  20.476  1.00  0.00    -0.237 OA
ATOM    104  O   UNL     1      10.937  -5.965  21.300  1.00  0.00    -0.744 OA
ENDBRANCH 100 101
ENDBRANCH  74  95
ENDBRANCH  48  49
ENDBRANCH  40  43
ENDBRANCH  38  39
ENDBRANCH  37  38
ENDBRANCH  36  37
ENDBRANCH   3  36
TORSDOF 19
