REMARK SMILES [NH3+][C@@H](Cc1ccc(OC(F)F)cc1)C(=O)NCCCNC(=O)c1ccc(-c2c3nc(c(-c4ccc(S(=O)(=O)[O-])cc4)c4ccc([nH]4)c(-c4ccc(S(=O)(=O)[O-])cc4)c4nc(c(-c5ccc(S(=O)(=O)[O-])cc5)c5ccc2[nH]5)C=C4)C=C3)cc1
REMARK SMILES IDX 17 1 16 2 14 3 15 4 2 6 1 7 3 11 4 12 5 13 13 14 6 15 12 16
REMARK SMILES IDX 7 17 8 18 9 19 10 20 11 21 18 22 19 23 20 24 21 25 22 27
REMARK SMILES IDX 23 28 24 29 82 30 25 31 81 32 26 33 27 34 28 35 75 36 29 37
REMARK SMILES IDX 80 38 74 39 76 40 30 41 79 42 73 43 72 44 31 46 61 47 42 48
REMARK SMILES IDX 60 49 43 50 46 51 59 52 77 53 44 54 45 55 58 57 78 58 47 59
REMARK SMILES IDX 32 60 33 61 41 62 34 63 40 64 35 65 36 66 37 67 38 68 39 69
REMARK SMILES IDX 62 70 63 71 71 72 64 73 70 74 65 75 66 76 67 77 68 78 69 79
REMARK SMILES IDX 48 80 49 81 57 82 50 83 56 84 51 85 52 86 53 87 54 88 55 89
REMARK H PARENT 16 5 1 8 1 9 1 10 20 26 76 45 46 56
REMARK Flexibility Score: inf
ROOT
ATOM      1  C   UNL     1      -1.235  -1.366   0.132  1.00  0.00     0.118 C 
ENDROOT
BRANCH   1   2
ATOM      2  N   UNL     1      -1.452  -0.070  -0.474  1.00  0.00    -0.351 N 
ATOM      3  C   UNL     1      -0.686   0.573  -1.407  1.00  0.00     0.278 C 
ATOM      4  O   UNL     1      -1.254   1.454  -2.068  1.00  0.00    -0.268 OA
ATOM      5  H   UNL     1      -2.257   0.412  -0.175  1.00  0.00     0.163 HD
BRANCH   3   6
ATOM      6  C   UNL     1       0.811   0.261  -1.690  1.00  0.00     0.275 C 
BRANCH   6   7
ATOM      7  N   UNL     1       1.580  -0.118  -0.486  1.00  0.00    -0.347 N 
ATOM      8  H   UNL     1       2.548  -0.307  -0.747  1.00  0.00     0.345 HD
ATOM      9  H   UNL     1       1.170  -0.955  -0.071  1.00  0.00     0.345 HD
ATOM     10  H   UNL     1       1.553   0.646   0.189  1.00  0.00     0.345 HD
ENDBRANCH   6   7
BRANCH   6  11
ATOM     11  C   UNL     1       1.086  -0.596  -2.958  1.00  0.00     0.111 C 
BRANCH  11  12
ATOM     12  C   UNL     1       0.913  -2.096  -2.839  1.00  0.00    -0.041 A 
ATOM     13  C   UNL     1      -0.358  -2.641  -2.662  1.00  0.00     0.008 A 
ATOM     14  C   UNL     1       2.008  -2.973  -2.880  1.00  0.00     0.008 A 
ATOM     15  C   UNL     1      -0.515  -3.979  -2.295  1.00  0.00     0.047 A 
ATOM     16  C   UNL     1       1.846  -4.336  -2.591  1.00  0.00     0.047 A 
ATOM     17  C   UNL     1       0.590  -4.820  -2.239  1.00  0.00     0.126 A 
BRANCH  17  18
ATOM     18  O   UNL     1       0.395  -6.054  -1.692  1.00  0.00    -0.435 OA
BRANCH  18  19
ATOM     19  C   UNL     1       0.622  -7.134  -2.586  1.00  0.00     0.542 C 
ATOM     20  F   UNL     1       0.125  -6.855  -3.816  1.00  0.00    -0.167 F 
ATOM     21  F   UNL     1       1.955  -7.343  -2.711  1.00  0.00    -0.167 F 
ENDBRANCH  18  19
ENDBRANCH  17  18
ENDBRANCH  11  12
ENDBRANCH   6  11
ENDBRANCH   3   6
ENDBRANCH   1   2
BRANCH   1  22
ATOM     22  C   UNL     1      -2.046  -1.669   1.376  1.00  0.00     0.042 C 
BRANCH  22  23
ATOM     23  C   UNL     1      -3.464  -2.178   1.108  1.00  0.00     0.118 C 
BRANCH  23  24
ATOM     24  N   UNL     1      -3.563  -3.283   0.148  1.00  0.00    -0.352 N 
ATOM     25  C   UNL     1      -3.914  -4.614   0.267  1.00  0.00     0.251 C 
ATOM     26  H   UNL     1      -3.330  -3.022  -0.772  1.00  0.00     0.163 HD
ATOM     27  O   UNL     1      -3.783  -5.350  -0.697  1.00  0.00    -0.269 OA
BRANCH  25  28
ATOM     28  C   UNL     1      -4.420  -5.157   1.549  1.00  0.00     0.039 A 
ATOM     29  C   UNL     1      -4.099  -6.467   1.922  1.00  0.00     0.014 A 
ATOM     30  C   UNL     1      -5.210  -4.381   2.389  1.00  0.00     0.014 A 
ATOM     31  C   UNL     1      -4.467  -6.940   3.187  1.00  0.00     0.010 A 
ATOM     32  C   UNL     1      -5.440  -4.791   3.693  1.00  0.00     0.010 A 
ATOM     33  C   UNL     1      -5.078  -6.078   4.112  1.00  0.00    -0.014 A 
BRANCH  33  34
ATOM     34  C   UNL     1      -5.358  -6.475   5.518  1.00  0.00     0.031 A 
ATOM     35  C   UNL     1      -6.755  -6.333   6.073  1.00  0.00     0.074 A 
ATOM     36  C   UNL     1      -4.343  -6.836   6.329  1.00  0.00     0.049 A 
ATOM     37  N   UNL     1      -7.169  -6.447   7.309  1.00  0.00    -0.248 NA
ATOM     38  C   UNL     1      -7.815  -5.954   5.122  1.00  0.00     0.031 C 
ATOM     39  C   UNL     1      -2.933  -6.940   5.940  1.00  0.00     0.029 A 
ATOM     40  N   UNL     1      -4.339  -7.172   7.660  1.00  0.00    -0.354 N 
ATOM     41  C   UNL     1      -8.516  -6.100   7.288  1.00  0.00     0.074 A 
ATOM     42  C   UNL     1      -8.833  -5.711   5.933  1.00  0.00     0.031 C 
ATOM     43  C   UNL     1      -2.212  -7.355   6.993  1.00  0.00     0.029 A 
ATOM     44  C   UNL     1      -3.094  -7.499   8.144  1.00  0.00     0.049 A 
ATOM     45  H   UNL     1      -5.152  -7.178   8.215  1.00  0.00     0.167 HD
ATOM     46  C   UNL     1      -9.419  -6.131   8.297  1.00  0.00     0.031 A 
ATOM     47  C   UNL     1      -2.705  -7.873   9.379  1.00  0.00     0.031 A 
ATOM     48  C   UNL     1      -9.113  -6.583   9.627  1.00  0.00     0.049 A 
ATOM     49  C   UNL     1      -3.738  -7.974  10.466  1.00  0.00     0.074 A 
ATOM     50  C   UNL     1      -9.969  -6.737  10.703  1.00  0.00     0.029 A 
ATOM     51  N   UNL     1      -7.854  -6.975  10.056  1.00  0.00    -0.354 N 
ATOM     52  N   UNL     1      -5.019  -7.693  10.413  1.00  0.00    -0.248 NA
ATOM     53  C   UNL     1      -3.277  -8.458  11.774  1.00  0.00     0.031 C 
ATOM     54  C   UNL     1      -9.220  -7.196  11.792  1.00  0.00     0.029 A 
ATOM     55  C   UNL     1      -7.908  -7.371  11.380  1.00  0.00     0.049 A 
ATOM     56  H   UNL     1      -7.042  -6.971   9.500  1.00  0.00     0.167 HD
ATOM     57  C   UNL     1      -5.523  -7.994  11.673  1.00  0.00     0.074 A 
ATOM     58  C   UNL     1      -4.412  -8.493  12.459  1.00  0.00     0.031 C 
ATOM     59  C   UNL     1      -6.790  -7.870  12.139  1.00  0.00     0.031 A 
BRANCH  46  60
ATOM     60  C   UNL     1     -10.824  -5.683   7.987  1.00  0.00    -0.014 A 
ATOM     61  C   UNL     1     -11.653  -6.433   7.132  1.00  0.00     0.010 A 
ATOM     62  C   UNL     1     -11.329  -4.505   8.567  1.00  0.00     0.010 A 
ATOM     63  C   UNL     1     -12.938  -5.984   6.816  1.00  0.00     0.020 A 
ATOM     64  C   UNL     1     -12.627  -4.070   8.280  1.00  0.00     0.020 A 
ATOM     65  C   UNL     1     -13.415  -4.802   7.389  1.00  0.00     0.054 A 
BRANCH  65  66
ATOM     66  S   UNL     1     -15.091  -4.249   6.971  1.00  0.00     0.124 S 
ATOM     67  O   UNL     1     -14.908  -3.733   5.617  1.00  0.00    -0.237 OA
ATOM     68  O   UNL     1     -15.870  -5.481   7.072  1.00  0.00    -0.237 OA
ATOM     69  O   UNL     1     -15.388  -3.243   7.987  1.00  0.00    -0.744 OA
ENDBRANCH  65  66
ENDBRANCH  46  60
BRANCH  47  70
ATOM     70  C   UNL     1      -1.282  -8.225   9.638  1.00  0.00    -0.014 A 
ATOM     71  C   UNL     1      -0.912  -9.567   9.837  1.00  0.00     0.010 A 
ATOM     72  C   UNL     1      -0.288  -7.231   9.669  1.00  0.00     0.010 A 
ATOM     73  C   UNL     1       0.420  -9.908  10.085  1.00  0.00     0.020 A 
ATOM     74  C   UNL     1       1.051  -7.571   9.891  1.00  0.00     0.020 A 
ATOM     75  C   UNL     1       1.395  -8.906  10.110  1.00  0.00     0.054 A 
BRANCH  75  76
ATOM     76  S   UNL     1       3.126  -9.378  10.383  1.00  0.00     0.124 S 
ATOM     77  O   UNL     1       3.139  -9.669  11.812  1.00  0.00    -0.237 OA
ATOM     78  O   UNL     1       3.283 -10.531   9.500  1.00  0.00    -0.237 OA
ATOM     79  O   UNL     1       3.871  -8.188   9.977  1.00  0.00    -0.744 OA
ENDBRANCH  75  76
ENDBRANCH  47  70
BRANCH  59  80
ATOM     80  C   UNL     1      -7.050  -8.323  13.549  1.00  0.00    -0.014 A 
ATOM     81  C   UNL     1      -6.594  -7.578  14.651  1.00  0.00     0.010 A 
ATOM     82  C   UNL     1      -7.798  -9.494  13.771  1.00  0.00     0.010 A 
ATOM     83  C   UNL     1      -6.848  -8.019  15.951  1.00  0.00     0.020 A 
ATOM     84  C   UNL     1      -8.076  -9.923  15.070  1.00  0.00     0.020 A 
ATOM     85  C   UNL     1      -7.584  -9.191  16.152  1.00  0.00     0.054 A 
BRANCH  85  86
ATOM     86  S   UNL     1      -7.924  -9.730  17.850  1.00  0.00     0.124 S 
ATOM     87  O   UNL     1      -6.636 -10.285  18.255  1.00  0.00    -0.237 OA
ATOM     88  O   UNL     1      -8.309  -8.486  18.512  1.00  0.00    -0.237 OA
ATOM     89  O   UNL     1      -9.002 -10.704  17.694  1.00  0.00    -0.744 OA
ENDBRANCH  85  86
ENDBRANCH  59  80
ENDBRANCH  33  34
ENDBRANCH  25  28
ENDBRANCH  23  24
ENDBRANCH  22  23
ENDBRANCH   1  22
TORSDOF 18
