REMARK SMILES O=C(NCCCNC(=O)c1ccc(-c2c3nc(c(-c4ccc(S(=O)(=O)[O-])cc4)c4ccc([nH]4)c(-c4ccc(S(=O)(=O)[O-])cc4)c4nc(c(-c5ccc(S(=O)(=O)[O-])cc5)c5ccc2[nH]5)C=C4)C=C3)cc1)C1=Cc2c(ccc(Cl)c2-c2ccccc2)O[C@H]1C(F)(F)F
REMARK SMILES IDX 6 1 5 2 4 3 3 4 1 5 2 6 70 8 71 9 86 10 72 11 85 12 73 13
REMARK SMILES IDX 78 14 74 15 76 16 75 17 77 18 87 19 88 20 89 21 90 22 79 23
REMARK SMILES IDX 80 24 84 25 81 26 83 27 82 28 7 29 8 30 9 32 10 33 11 34
REMARK SMILES IDX 69 35 12 36 68 37 13 38 14 39 15 40 62 41 16 42 67 43 61 44
REMARK SMILES IDX 63 45 17 46 66 47 60 48 59 49 18 51 48 52 29 53 47 54 30 55
REMARK SMILES IDX 33 56 46 57 64 58 31 59 32 60 45 62 65 63 34 64 19 65 20 66
REMARK SMILES IDX 28 67 21 68 27 69 22 70 23 71 24 72 25 73 26 74 49 75 50 76
REMARK SMILES IDX 58 77 51 78 57 79 52 80 53 81 54 82 55 83 56 84 35 85 36 86
REMARK SMILES IDX 44 87 37 88 43 89 38 90 39 91 40 92 41 93 42 94
REMARK H PARENT 3 7 7 31 63 50 33 61
REMARK Flexibility Score: inf
ROOT
ATOM      1  C   UNL     1       3.780   3.988  -0.068  1.00  0.00     0.118 C 
ENDROOT
BRANCH   1   2
ATOM      2  C   UNL     1       4.266   2.980  -1.103  1.00  0.00     0.042 C 
BRANCH   2   3
ATOM      3  C   UNL     1       4.038   1.538  -0.688  1.00  0.00     0.118 C 
BRANCH   3   4
ATOM      4  N   UNL     1       2.682   1.045  -0.857  1.00  0.00    -0.352 N 
ATOM      5  O   UNL     1       1.038  -0.487  -0.976  1.00  0.00    -0.270 OA
ATOM      6  C   UNL     1       2.229  -0.244  -0.804  1.00  0.00     0.251 C 
ATOM      7  H   UNL     1       1.997   1.731  -1.033  1.00  0.00     0.163 HD
BRANCH   6   8
ATOM      8  C   UNL     1       3.160  -1.361  -0.527  1.00  0.00     0.067 C 
ATOM      9  C   UNL     1       3.436  -1.625   0.758  1.00  0.00     0.026 C 
ATOM     10  C   UNL     1       4.138  -1.809  -1.572  1.00  0.00     0.314 C 
ATOM     11  C   UNL     1       4.774  -1.061   1.089  1.00  0.00     0.027 A 
ATOM     12  O   UNL     1       5.536  -1.637  -1.151  1.00  0.00    -0.475 OA
ATOM     13  C   UNL     1       5.756  -1.076   0.086  1.00  0.00     0.128 A 
ATOM     14  C   UNL     1       4.955  -0.361   2.311  1.00  0.00     0.011 A 
ATOM     15  C   UNL     1       6.947  -0.389   0.283  1.00  0.00     0.049 A 
ATOM     16  C   UNL     1       6.154   0.347   2.475  1.00  0.00     0.049 A 
ATOM     17  C   UNL     1       7.136   0.336   1.467  1.00  0.00     0.025 A 
ATOM     18  Cl  UNL     1       6.448   1.310   3.877  1.00  0.00    -0.084 Cl
BRANCH  10  19
ATOM     19  C   UNL     1       3.870  -3.272  -1.990  1.00  0.00     0.429 C 
ATOM     20  F   UNL     1       2.985  -3.904  -1.179  1.00  0.00    -0.167 F 
ATOM     21  F   UNL     1       3.368  -3.338  -3.246  1.00  0.00    -0.167 F 
ATOM     22  F   UNL     1       4.998  -4.022  -1.973  1.00  0.00    -0.167 F 
ENDBRANCH  10  19
BRANCH  14  23
ATOM     23  C   UNL     1       3.796  -0.311   3.226  1.00  0.00    -0.016 A 
ATOM     24  C   UNL     1       2.906   0.774   3.164  1.00  0.00     0.009 A 
ATOM     25  C   UNL     1       3.378  -1.486   3.876  1.00  0.00     0.009 A 
ATOM     26  C   UNL     1       1.594   0.642   3.619  1.00  0.00     0.001 A 
ATOM     27  C   UNL     1       2.062  -1.620   4.318  1.00  0.00     0.001 A 
ATOM     28  C   UNL     1       1.164  -0.566   4.162  1.00  0.00     0.000 A 
ENDBRANCH  14  23
ENDBRANCH   6   8
ENDBRANCH   3   4
ENDBRANCH   2   3
ENDBRANCH   1   2
BRANCH   1  29
ATOM     29  N   UNL     1       4.620   4.076   1.129  1.00  0.00    -0.352 N 
ATOM     30  C   UNL     1       5.603   4.965   1.510  1.00  0.00     0.251 C 
ATOM     31  H   UNL     1       4.451   3.365   1.788  1.00  0.00     0.163 HD
ATOM     32  O   UNL     1       6.215   4.774   2.559  1.00  0.00    -0.269 OA
BRANCH  30  33
ATOM     33  C   UNL     1       5.982   6.101   0.645  1.00  0.00     0.039 A 
ATOM     34  C   UNL     1       7.336   6.403   0.463  1.00  0.00     0.014 A 
ATOM     35  C   UNL     1       5.017   6.843  -0.024  1.00  0.00     0.014 A 
ATOM     36  C   UNL     1       7.717   7.337  -0.506  1.00  0.00     0.010 A 
ATOM     37  C   UNL     1       5.396   7.661  -1.078  1.00  0.00     0.010 A 
ATOM     38  C   UNL     1       6.751   7.906  -1.348  1.00  0.00    -0.014 A 
BRANCH  38  39
ATOM     39  C   UNL     1       7.092   8.743  -2.530  1.00  0.00     0.031 A 
ATOM     40  C   UNL     1       6.458  10.101  -2.681  1.00  0.00     0.074 A 
ATOM     41  C   UNL     1       7.832   8.230  -3.535  1.00  0.00     0.049 A 
ATOM     42  N   UNL     1       6.374  10.864  -3.739  1.00  0.00    -0.248 NA
ATOM     43  C   UNL     1       5.774  10.642  -1.493  1.00  0.00     0.031 C 
ATOM     44  C   UNL     1       8.484   6.918  -3.537  1.00  0.00     0.029 A 
ATOM     45  N   UNL     1       8.143   8.750  -4.768  1.00  0.00    -0.354 N 
ATOM     46  C   UNL     1       5.578  11.940  -3.362  1.00  0.00     0.074 A 
ATOM     47  C   UNL     1       5.166  11.704  -1.996  1.00  0.00     0.031 C 
ATOM     48  C   UNL     1       9.142   6.751  -4.696  1.00  0.00     0.029 A 
ATOM     49  C   UNL     1       8.904   7.910  -5.548  1.00  0.00     0.049 A 
ATOM     50  H   UNL     1       7.848   9.641  -5.066  1.00  0.00     0.167 HD
ATOM     51  C   UNL     1       5.236  13.036  -4.081  1.00  0.00     0.031 A 
ATOM     52  C   UNL     1       9.345   8.046  -6.813  1.00  0.00     0.031 A 
ATOM     53  C   UNL     1       5.693  13.289  -5.420  1.00  0.00     0.049 A 
ATOM     54  C   UNL     1       8.974   9.281  -7.588  1.00  0.00     0.074 A 
ATOM     55  C   UNL     1       5.455  14.393  -6.219  1.00  0.00     0.029 A 
ATOM     56  N   UNL     1       6.504  12.432  -6.150  1.00  0.00    -0.354 N 
ATOM     57  N   UNL     1       8.230  10.293  -7.213  1.00  0.00    -0.248 NA
ATOM     58  C   UNL     1       9.503   9.392  -8.954  1.00  0.00     0.031 C 
ATOM     59  C   UNL     1       6.101  14.191  -7.443  1.00  0.00     0.029 A 
ATOM     60  C   UNL     1       6.778  12.982  -7.389  1.00  0.00     0.049 A 
ATOM     61  H   UNL     1       6.836  11.561  -5.832  1.00  0.00     0.167 HD
ATOM     62  C   UNL     1       8.231  11.179  -8.284  1.00  0.00     0.074 A 
ATOM     63  C   UNL     1       9.050  10.584  -9.320  1.00  0.00     0.031 C 
ATOM     64  C   UNL     1       7.613  12.380  -8.397  1.00  0.00     0.031 A 
BRANCH  51  65
ATOM     65  C   UNL     1       4.322  14.036  -3.421  1.00  0.00    -0.014 A 
ATOM     66  C   UNL     1       4.756  14.803  -2.324  1.00  0.00     0.010 A 
ATOM     67  C   UNL     1       3.010  14.207  -3.897  1.00  0.00     0.010 A 
ATOM     68  C   UNL     1       3.875  15.667  -1.670  1.00  0.00     0.020 A 
ATOM     69  C   UNL     1       2.135  15.098  -3.267  1.00  0.00     0.020 A 
ATOM     70  C   UNL     1       2.566  15.801  -2.140  1.00  0.00     0.054 A 
BRANCH  70  71
ATOM     71  S   UNL     1       1.437  16.918  -1.264  1.00  0.00     0.124 S 
ATOM     72  O   UNL     1       1.104  16.135  -0.077  1.00  0.00    -0.237 OA
ATOM     73  O   UNL     1       2.269  18.095  -1.026  1.00  0.00    -0.237 OA
ATOM     74  O   UNL     1       0.341  17.114  -2.210  1.00  0.00    -0.744 OA
ENDBRANCH  70  71
ENDBRANCH  51  65
BRANCH  52  75
ATOM     75  C   UNL     1      10.213   6.998  -7.417  1.00  0.00    -0.014 A 
ATOM     76  C   UNL     1      11.583   7.250  -7.612  1.00  0.00     0.010 A 
ATOM     77  C   UNL     1       9.692   5.742  -7.777  1.00  0.00     0.010 A 
ATOM     78  C   UNL     1      12.414   6.272  -8.167  1.00  0.00     0.020 A 
ATOM     79  C   UNL     1      10.525   4.752  -8.309  1.00  0.00     0.020 A 
ATOM     80  C   UNL     1      11.879   5.027  -8.509  1.00  0.00     0.054 A 
BRANCH  80  81
ATOM     81  S   UNL     1      12.989   3.753  -9.172  1.00  0.00     0.124 S 
ATOM     82  O   UNL     1      13.228   4.235 -10.528  1.00  0.00    -0.237 OA
ATOM     83  O   UNL     1      14.130   3.825  -8.263  1.00  0.00    -0.237 OA
ATOM     84  O   UNL     1      12.199   2.528  -9.071  1.00  0.00    -0.744 OA
ENDBRANCH  80  81
ENDBRANCH  52  75
BRANCH  64  85
ATOM     85  C   UNL     1       7.843  13.165  -9.659  1.00  0.00    -0.014 A 
ATOM     86  C   UNL     1       7.207  12.817 -10.862  1.00  0.00     0.010 A 
ATOM     87  C   UNL     1       8.643  14.322  -9.610  1.00  0.00     0.010 A 
ATOM     88  C   UNL     1       7.376  13.608 -12.001  1.00  0.00     0.020 A 
ATOM     89  C   UNL     1       8.795  15.127 -10.740  1.00  0.00     0.020 A 
ATOM     90  C   UNL     1       8.166  14.761 -11.931  1.00  0.00     0.054 A 
BRANCH  90  91
ATOM     91  S   UNL     1       8.307  15.813 -13.402  1.00  0.00     0.124 S 
ATOM     92  O   UNL     1       9.208  15.035 -14.247  1.00  0.00    -0.237 OA
ATOM     93  O   UNL     1       6.925  15.900 -13.868  1.00  0.00    -0.237 OA
ATOM     94  O   UNL     1       8.862  17.061 -12.882  1.00  0.00    -0.744 OA
ENDBRANCH  90  91
ENDBRANCH  64  85
ENDBRANCH  38  39
ENDBRANCH  30  33
ENDBRANCH   1  29
TORSDOF 15
