REMARK SMILES COc1ccccc1N1C(=O)CC[C@H]1CC(=O)NCCCNC(=O)c1ccc(-c2c3nc(c(-c4ccc(S(=O)(=O)[O-])cc4)c4ccc([nH]4)c(-c4ccc(S(=O)(=O)[O-])cc4)c4nc(c(-c5ccc(S(=O)(=O)[O-])cc5)c5ccc2[nH]5)C=C4)C=C3)cc1
REMARK SMILES IDX 20 1 19 2 18 3 16 4 17 5 15 7 14 8 9 9 10 10 11 11 12 12
REMARK SMILES IDX 13 13 8 14 3 15 4 16 5 17 7 18 6 19 2 20 1 21 21 22 22 23
REMARK SMILES IDX 23 24 24 26 25 27 26 28 84 29 27 30 83 31 28 32 29 33 30 34
REMARK SMILES IDX 77 35 31 36 82 37 76 38 78 39 32 40 81 41 75 42 74 43 33 45
REMARK SMILES IDX 63 46 44 47 62 48 45 49 48 50 61 51 79 52 46 53 47 54 60 56
REMARK SMILES IDX 80 57 49 58 34 59 35 60 43 61 36 62 42 63 37 64 38 65 39 66
REMARK SMILES IDX 40 67 41 68 64 69 65 70 73 71 66 72 72 73 67 74 68 75 69 76
REMARK SMILES IDX 70 77 71 78 50 79 51 80 59 81 52 82 58 83 53 84 54 85 55 86
REMARK SMILES IDX 56 87 57 88
REMARK H PARENT 18 6 22 25 78 44 48 55
REMARK Flexibility Score: inf
ROOT
ATOM      1  C   UNL     1       6.060   2.489   1.079  1.00  0.00     0.042 C 
ENDROOT
BRANCH   1   2
ATOM      2  C   UNL     1       6.767   1.640   2.125  1.00  0.00     0.117 C 
BRANCH   2   3
ATOM      3  N   UNL     1       6.018   1.501   3.356  1.00  0.00    -0.356 N 
ATOM      4  C   UNL     1       5.238   0.506   3.833  1.00  0.00     0.222 C 
ATOM      5  O   UNL     1       4.962   0.564   5.039  1.00  0.00    -0.275 OA
ATOM      6  H   UNL     1       6.091   2.276   3.958  1.00  0.00     0.163 HD
BRANCH   4   7
ATOM      7  C   UNL     1       4.754  -0.681   3.023  1.00  0.00     0.125 C 
BRANCH   7   8
ATOM      8  C   UNL     1       3.860  -0.586   1.771  1.00  0.00     0.100 C 
ATOM      9  N   UNL     1       3.073   0.589   1.428  1.00  0.00    -0.305 N 
ATOM     10  C   UNL     1       3.168   0.892   0.058  1.00  0.00     0.227 C 
ATOM     11  O   UNL     1       2.697   1.853  -0.533  1.00  0.00    -0.275 OA
ATOM     12  C   UNL     1       4.002  -0.159  -0.620  1.00  0.00     0.103 C 
ATOM     13  C   UNL     1       4.681  -0.894   0.513  1.00  0.00     0.036 C 
BRANCH   9  14
ATOM     14  C   UNL     1       1.956   1.034   2.203  1.00  0.00     0.086 A 
ATOM     15  C   UNL     1       0.646   1.122   1.685  1.00  0.00     0.142 A 
ATOM     16  C   UNL     1      -0.406   1.631   2.460  1.00  0.00     0.048 A 
ATOM     17  C   UNL     1      -0.186   2.037   3.772  1.00  0.00     0.004 A 
ATOM     18  C   UNL     1       2.145   1.461   3.519  1.00  0.00     0.030 A 
ATOM     19  C   UNL     1       1.093   1.955   4.301  1.00  0.00     0.002 A 
BRANCH  15  20
ATOM     20  O   UNL     1       0.309   0.787   0.398  1.00  0.00    -0.495 OA
ATOM     21  C   UNL     1       0.188  -0.617   0.217  1.00  0.00     0.278 C 
ENDBRANCH  15  20
ENDBRANCH   9  14
ENDBRANCH   7   8
ENDBRANCH   4   7
ENDBRANCH   2   3
ENDBRANCH   1   2
BRANCH   1  22
ATOM     22  C   UNL     1       5.814   3.943   1.465  1.00  0.00     0.118 C 
BRANCH  22  23
ATOM     23  N   UNL     1       7.041   4.719   1.469  1.00  0.00    -0.352 N 
ATOM     24  C   UNL     1       7.533   5.627   0.564  1.00  0.00     0.251 C 
ATOM     25  H   UNL     1       7.617   4.570   2.253  1.00  0.00     0.163 HD
ATOM     26  O   UNL     1       8.715   5.954   0.656  1.00  0.00    -0.269 OA
BRANCH  24  27
ATOM     27  C   UNL     1       6.694   6.213  -0.514  1.00  0.00     0.039 A 
ATOM     28  C   UNL     1       7.304   6.518  -1.737  1.00  0.00     0.014 A 
ATOM     29  C   UNL     1       5.355   6.561  -0.318  1.00  0.00     0.014 A 
ATOM     30  C   UNL     1       6.574   7.135  -2.759  1.00  0.00     0.010 A 
ATOM     31  C   UNL     1       4.605   7.105  -1.365  1.00  0.00     0.010 A 
ATOM     32  C   UNL     1       5.210   7.419  -2.591  1.00  0.00    -0.014 A 
BRANCH  32  33
ATOM     33  C   UNL     1       4.421   8.075  -3.670  1.00  0.00     0.031 A 
ATOM     34  C   UNL     1       3.842   9.453  -3.461  1.00  0.00     0.074 A 
ATOM     35  C   UNL     1       4.197   7.428  -4.831  1.00  0.00     0.049 A 
ATOM     36  N   UNL     1       3.106  10.173  -4.272  1.00  0.00    -0.248 NA
ATOM     37  C   UNL     1       4.111  10.098  -2.167  1.00  0.00     0.031 C 
ATOM     38  C   UNL     1       4.681   6.086  -5.158  1.00  0.00     0.029 A 
ATOM     39  N   UNL     1       3.505   7.814  -5.953  1.00  0.00    -0.354 N 
ATOM     40  C   UNL     1       2.812  11.344  -3.581  1.00  0.00     0.074 A 
ATOM     41  C   UNL     1       3.409  11.217  -2.268  1.00  0.00     0.031 C 
ATOM     42  C   UNL     1       4.301   5.774  -6.408  1.00  0.00     0.029 A 
ATOM     43  C   UNL     1       3.511   6.873  -6.956  1.00  0.00     0.049 A 
ATOM     44  H   UNL     1       3.048   8.682  -6.032  1.00  0.00     0.167 HD
ATOM     45  C   UNL     1       2.126  12.435  -4.001  1.00  0.00     0.031 A 
ATOM     46  C   UNL     1       2.943   6.888  -8.178  1.00  0.00     0.031 A 
ATOM     47  C   UNL     1       1.534  12.565  -5.307  1.00  0.00     0.049 A 
ATOM     48  C   UNL     1       2.159   8.096  -8.613  1.00  0.00     0.074 A 
ATOM     49  C   UNL     1       0.851  13.645  -5.840  1.00  0.00     0.029 A 
ATOM     50  N   UNL     1       1.551  11.582  -6.285  1.00  0.00    -0.354 N 
ATOM     51  N   UNL     1       1.933   9.211  -7.961  1.00  0.00    -0.248 NA
ATOM     52  C   UNL     1       1.560   8.049  -9.955  1.00  0.00     0.031 C 
ATOM     53  C   UNL     1       0.416  13.297  -7.124  1.00  0.00     0.029 A 
ATOM     54  C   UNL     1       0.875  12.022  -7.411  1.00  0.00     0.049 A 
ATOM     55  H   UNL     1       1.980  10.700  -6.192  1.00  0.00     0.167 HD
ATOM     56  C   UNL     1       1.193  10.011  -8.826  1.00  0.00     0.074 A 
ATOM     57  C   UNL     1       1.018   9.255 -10.049  1.00  0.00     0.031 C 
ATOM     58  C   UNL     1       0.708  11.261  -8.624  1.00  0.00     0.031 A 
BRANCH  45  59
ATOM     59  C   UNL     1       1.972  13.573  -3.025  1.00  0.00    -0.014 A 
ATOM     60  C   UNL     1       3.075  14.361  -2.648  1.00  0.00     0.010 A 
ATOM     61  C   UNL     1       0.706  13.871  -2.487  1.00  0.00     0.010 A 
ATOM     62  C   UNL     1       2.927  15.387  -1.710  1.00  0.00     0.020 A 
ATOM     63  C   UNL     1       0.548  14.916  -1.571  1.00  0.00     0.020 A 
ATOM     64  C   UNL     1       1.665  15.652  -1.170  1.00  0.00     0.054 A 
BRANCH  64  65
ATOM     65  S   UNL     1       1.502  16.984   0.050  1.00  0.00     0.124 S 
ATOM     66  O   UNL     1       2.098  16.378   1.238  1.00  0.00    -0.237 OA
ATOM     67  O   UNL     1       2.272  18.070  -0.552  1.00  0.00    -0.237 OA
ATOM     68  O   UNL     1       0.062  17.214   0.124  1.00  0.00    -0.744 OA
ENDBRANCH  64  65
ENDBRANCH  45  59
BRANCH  46  69
ATOM     69  C   UNL     1       3.121   5.726  -9.093  1.00  0.00    -0.014 A 
ATOM     70  C   UNL     1       3.941   5.839 -10.230  1.00  0.00     0.010 A 
ATOM     71  C   UNL     1       2.488   4.499  -8.826  1.00  0.00     0.010 A 
ATOM     72  C   UNL     1       4.114   4.751 -11.090  1.00  0.00     0.020 A 
ATOM     73  C   UNL     1       2.680   3.401  -9.670  1.00  0.00     0.020 A 
ATOM     74  C   UNL     1       3.485   3.537 -10.803  1.00  0.00     0.054 A 
BRANCH  74  75
ATOM     75  S   UNL     1       3.773   2.121 -11.901  1.00  0.00     0.124 S 
ATOM     76  O   UNL     1       2.977   2.478 -13.071  1.00  0.00    -0.237 OA
ATOM     77  O   UNL     1       5.222   2.154 -12.086  1.00  0.00    -0.237 OA
ATOM     78  O   UNL     1       3.278   0.983 -11.129  1.00  0.00    -0.744 OA
ENDBRANCH  74  75
ENDBRANCH  46  69
BRANCH  58  79
ATOM     79  C   UNL     1      -0.026  11.913  -9.767  1.00  0.00    -0.014 A 
ATOM     80  C   UNL     1      -1.317  11.499 -10.139  1.00  0.00     0.010 A 
ATOM     81  C   UNL     1       0.570  12.991 -10.447  1.00  0.00     0.010 A 
ATOM     82  C   UNL     1      -1.986  12.132 -11.191  1.00  0.00     0.020 A 
ATOM     83  C   UNL     1      -0.106  13.643 -11.482  1.00  0.00     0.020 A 
ATOM     84  C   UNL     1      -1.375  13.199 -11.856  1.00  0.00     0.054 A 
BRANCH  84  85
ATOM     85  S   UNL     1      -2.280  14.032 -13.190  1.00  0.00     0.124 S 
ATOM     86  O   UNL     1      -2.180  13.063 -14.277  1.00  0.00    -0.237 OA
ATOM     87  O   UNL     1      -3.614  14.199 -12.618  1.00  0.00    -0.237 OA
ATOM     88  O   UNL     1      -1.536  15.274 -13.391  1.00  0.00    -0.744 OA
ENDBRANCH  84  85
ENDBRANCH  58  79
ENDBRANCH  32  33
ENDBRANCH  24  27
ENDBRANCH  22  23
ENDBRANCH   1  22
TORSDOF 16
