REMARK SMILES Cc1c(C(=O)NCCCNC(=O)c2ccc(-c3c4nc(c(-c5ccc(S(=O)(=O)[O-])cc5)c5ccc([nH]5)c(-c5ccc(S(=O)(=O)[O-])cc5)c5nc(c(-c6ccc(S(=O)(=O)[O-])cc6)c6ccc3[nH]6)C=C5)C=C4)cc2)cccc1-n1c(C)cc(/C=C2/C(=O)NC(=S)N=C2O)c1C
REMARK SMILES IDX 8 1 7 2 6 3 4 4 5 5 3 7 1 8 2 9 76 10 73 11 75 12 74 13
REMARK SMILES IDX 77 14 78 15 92 16 79 17 80 18 81 19 93 20 82 21 83 22 84 23
REMARK SMILES IDX 90 24 85 25 86 26 89 27 87 28 88 30 91 31 9 33 10 34 11 35
REMARK SMILES IDX 12 37 13 38 14 39 72 40 15 41 71 42 16 43 17 44 18 45 65 46
REMARK SMILES IDX 19 47 70 48 64 49 66 50 20 51 69 52 63 53 62 54 21 56 51 57
REMARK SMILES IDX 32 58 50 59 33 60 36 61 49 62 67 63 34 64 35 65 48 67 68 68
REMARK SMILES IDX 37 69 22 70 23 71 31 72 24 73 30 74 25 75 26 76 27 77 28 78
REMARK SMILES IDX 29 79 52 80 53 81 61 82 54 83 60 84 55 85 56 86 57 87 58 88
REMARK SMILES IDX 59 89 38 90 39 91 47 92 40 93 46 94 41 95 42 96 43 97 44 98
REMARK SMILES IDX 45 99
REMARK H PARENT 6 6 86 29 91 32 10 36 66 55 36 66
REMARK Flexibility Score: inf
ROOT
ATOM      1  C   UNL     1       4.272  -1.490   0.282  1.00  0.00     0.042 C 
ENDROOT
BRANCH   1   2
ATOM      2  C   UNL     1       3.302  -2.104  -0.734  1.00  0.00     0.118 C 
BRANCH   2   3
ATOM      3  N   UNL     1       2.149  -2.704  -0.072  1.00  0.00    -0.352 N 
ATOM      4  C   UNL     1       0.862  -2.311   0.190  1.00  0.00     0.251 C 
ATOM      5  O   UNL     1       0.144  -3.139   0.760  1.00  0.00    -0.269 OA
ATOM      6  H   UNL     1       2.342  -3.607   0.270  1.00  0.00     0.163 HD
BRANCH   4   7
ATOM      7  C   UNL     1       0.220  -1.010  -0.195  1.00  0.00     0.044 A 
ATOM      8  C   UNL     1       2.110   0.554   0.495  1.00  0.00     0.047 C 
ATOM      9  C   UNL     1       0.747   0.288  -0.048  1.00  0.00    -0.014 A 
ATOM     10  C   UNL     1      -0.071   1.395  -0.385  1.00  0.00     0.049 A 
ATOM     11  C   UNL     1      -1.139  -1.133  -0.570  1.00  0.00     0.014 A 
ATOM     12  C   UNL     1      -1.408   1.255  -0.756  1.00  0.00     0.027 A 
ATOM     13  C   UNL     1      -1.947  -0.020  -0.833  1.00  0.00     0.003 A 
BRANCH  10  14
ATOM     14  N   UNL     1       0.434   2.712  -0.255  1.00  0.00    -0.318 N 
ATOM     15  C   UNL     1       1.211   3.355  -1.203  1.00  0.00     0.020 A 
ATOM     16  C   UNL     1       0.484   3.430   0.940  1.00  0.00     0.027 A 
ATOM     17  C   UNL     1       1.597   2.745  -2.506  1.00  0.00     0.065 C 
ATOM     18  C   UNL     1       1.570   4.578  -0.676  1.00  0.00     0.031 A 
ATOM     19  C   UNL     1       1.108   4.638   0.667  1.00  0.00    -0.003 A 
ATOM     20  C   UNL     1       0.002   2.819   2.219  1.00  0.00     0.065 C 
BRANCH  19  21
ATOM     21  C   UNL     1       1.472   5.695   1.558  1.00  0.00     0.029 C 
ATOM     22  C   UNL     1       0.855   6.236   2.623  1.00  0.00     0.102 C 
ATOM     23  C   UNL     1       1.643   7.233   3.393  1.00  0.00     0.262 C 
ATOM     24  C   UNL     1      -0.453   5.948   3.212  1.00  0.00     0.226 C 
ATOM     25  O   UNL     1       2.637   7.811   2.970  1.00  0.00    -0.269 OA
ATOM     26  N   UNL     1       1.173   7.449   4.661  1.00  0.00    -0.297 N 
ATOM     27  N   UNL     1      -0.848   6.253   4.394  1.00  0.00    -0.184 NA
ATOM     28  C   UNL     1       0.015   6.945   5.200  1.00  0.00     0.203 C 
ATOM     29  H   UNL     1       1.719   8.024   5.244  1.00  0.00     0.172 HD
ATOM     30  S   UNL     1      -0.299   7.279   6.812  1.00  0.00    -0.038 S 
BRANCH  24  31
ATOM     31  O   UNL     1      -1.352   5.372   2.412  1.00  0.00    -0.493 OA
ATOM     32  H   UNL     1      -1.115   5.128   1.538  1.00  0.00     0.295 HD
ENDBRANCH  24  31
ENDBRANCH  19  21
ENDBRANCH  10  14
ENDBRANCH   4   7
ENDBRANCH   2   3
ENDBRANCH   1   2
BRANCH   1  33
ATOM     33  C   UNL     1       5.596  -2.197   0.480  1.00  0.00     0.118 C 
BRANCH  33  34
ATOM     34  N   UNL     1       6.714  -1.242   0.449  1.00  0.00    -0.352 N 
ATOM     35  C   UNL     1       8.019  -1.432   0.877  1.00  0.00     0.251 C 
ATOM     36  H   UNL     1       6.509  -0.353   0.077  1.00  0.00     0.163 HD
ATOM     37  O   UNL     1       8.865  -0.568   0.789  1.00  0.00    -0.269 OA
BRANCH  35  38
ATOM     38  C   UNL     1       8.321  -2.765   1.430  1.00  0.00     0.039 A 
ATOM     39  C   UNL     1       9.002  -3.672   0.615  1.00  0.00     0.014 A 
ATOM     40  C   UNL     1       7.569  -3.178   2.522  1.00  0.00     0.014 A 
ATOM     41  C   UNL     1       8.764  -5.035   0.776  1.00  0.00     0.010 A 
ATOM     42  C   UNL     1       7.232  -4.513   2.584  1.00  0.00     0.010 A 
ATOM     43  C   UNL     1       7.798  -5.443   1.692  1.00  0.00    -0.014 A 
BRANCH  43  44
ATOM     44  C   UNL     1       7.258  -6.796   1.800  1.00  0.00     0.031 A 
ATOM     45  C   UNL     1       7.459  -7.542   3.070  1.00  0.00     0.074 A 
ATOM     46  C   UNL     1       6.458  -7.332   0.848  1.00  0.00     0.049 A 
ATOM     47  N   UNL     1       7.195  -8.794   3.229  1.00  0.00    -0.248 NA
ATOM     48  C   UNL     1       8.057  -6.939   4.260  1.00  0.00     0.031 C 
ATOM     49  C   UNL     1       5.505  -8.426   1.039  1.00  0.00     0.029 A 
ATOM     50  N   UNL     1       6.480  -7.158  -0.537  1.00  0.00    -0.354 N 
ATOM     51  C   UNL     1       7.276  -9.072   4.572  1.00  0.00     0.074 A 
ATOM     52  C   UNL     1       7.917  -7.920   5.153  1.00  0.00     0.031 C 
ATOM     53  C   UNL     1       5.277  -9.015  -0.142  1.00  0.00     0.029 A 
ATOM     54  C   UNL     1       6.188  -8.419  -1.099  1.00  0.00     0.049 A 
ATOM     55  H   UNL     1       6.662  -6.323  -1.025  1.00  0.00     0.167 HD
ATOM     56  C   UNL     1       6.684 -10.201   5.052  1.00  0.00     0.031 A 
ATOM     57  C   UNL     1       7.011  -9.111  -1.943  1.00  0.00     0.031 A 
ATOM     58  C   UNL     1       6.241 -11.086   3.974  1.00  0.00     0.049 A 
ATOM     59  C   UNL     1       7.358 -10.512  -1.469  1.00  0.00     0.074 A 
ATOM     60  C   UNL     1       5.019 -11.487   3.461  1.00  0.00     0.029 A 
ATOM     61  N   UNL     1       7.194 -11.546   3.083  1.00  0.00    -0.354 N 
ATOM     62  N   UNL     1       6.914 -11.053  -0.369  1.00  0.00    -0.248 NA
ATOM     63  C   UNL     1       8.345 -11.364  -2.140  1.00  0.00     0.031 C 
ATOM     64  C   UNL     1       5.261 -12.227   2.265  1.00  0.00     0.029 A 
ATOM     65  C   UNL     1       6.628 -12.283   2.066  1.00  0.00     0.049 A 
ATOM     66  H   UNL     1       8.159 -11.368   3.165  1.00  0.00     0.167 HD
ATOM     67  C   UNL     1       7.618 -12.201  -0.110  1.00  0.00     0.074 A 
ATOM     68  C   UNL     1       8.475 -12.378  -1.266  1.00  0.00     0.031 C 
ATOM     69  C   UNL     1       7.512 -12.871   1.074  1.00  0.00     0.031 A 
BRANCH  56  70
ATOM     70  C   UNL     1       6.353 -10.453   6.508  1.00  0.00    -0.014 A 
ATOM     71  C   UNL     1       5.492 -11.519   6.845  1.00  0.00     0.010 A 
ATOM     72  C   UNL     1       6.780  -9.650   7.582  1.00  0.00     0.010 A 
ATOM     73  C   UNL     1       5.029 -11.722   8.155  1.00  0.00     0.020 A 
ATOM     74  C   UNL     1       6.329  -9.838   8.895  1.00  0.00     0.020 A 
ATOM     75  C   UNL     1       5.437 -10.863   9.171  1.00  0.00     0.054 A 
BRANCH  75  76
ATOM     76  S   UNL     1       4.780 -11.080  10.843  1.00  0.00     0.124 S 
ATOM     77  O   UNL     1       3.349 -10.869  10.644  1.00  0.00    -0.237 OA
ATOM     78  O   UNL     1       5.181 -12.446  11.165  1.00  0.00    -0.237 OA
ATOM     79  O   UNL     1       5.454 -10.039  11.617  1.00  0.00    -0.744 OA
ENDBRANCH  75  76
ENDBRANCH  56  70
BRANCH  57  80
ATOM     80  C   UNL     1       7.925  -8.244  -2.732  1.00  0.00    -0.014 A 
ATOM     81  C   UNL     1       7.347  -7.447  -3.742  1.00  0.00     0.010 A 
ATOM     82  C   UNL     1       9.169  -7.877  -2.189  1.00  0.00     0.010 A 
ATOM     83  C   UNL     1       7.892  -6.199  -4.044  1.00  0.00     0.020 A 
ATOM     84  C   UNL     1       9.722  -6.631  -2.501  1.00  0.00     0.020 A 
ATOM     85  C   UNL     1       9.032  -5.772  -3.361  1.00  0.00     0.054 A 
BRANCH  85  86
ATOM     86  S   UNL     1       9.428  -3.999  -3.406  1.00  0.00     0.124 S 
ATOM     87  O   UNL     1       9.621  -3.755  -4.831  1.00  0.00    -0.237 OA
ATOM     88  O   UNL     1       8.222  -3.417  -2.820  1.00  0.00    -0.237 OA
ATOM     89  O   UNL     1      10.626  -3.901  -2.578  1.00  0.00    -0.744 OA
ENDBRANCH  85  86
ENDBRANCH  57  80
BRANCH  69  90
ATOM     90  C   UNL     1       8.307 -14.098   1.442  1.00  0.00    -0.014 A 
ATOM     91  C   UNL     1       8.545 -15.152   0.547  1.00  0.00     0.010 A 
ATOM     92  C   UNL     1       8.739 -14.279   2.778  1.00  0.00     0.010 A 
ATOM     93  C   UNL     1       9.225 -16.310   0.958  1.00  0.00     0.020 A 
ATOM     94  C   UNL     1       9.400 -15.434   3.202  1.00  0.00     0.020 A 
ATOM     95  C   UNL     1       9.652 -16.441   2.282  1.00  0.00     0.054 A 
BRANCH  95  96
ATOM     96  S   UNL     1      10.483 -17.963   2.804  1.00  0.00     0.124 S 
ATOM     97  O   UNL     1       9.613 -19.003   2.260  1.00  0.00    -0.237 OA
ATOM     98  O   UNL     1      11.786 -17.833   2.155  1.00  0.00    -0.237 OA
ATOM     99  O   UNL     1      10.502 -17.872   4.261  1.00  0.00    -0.744 OA
ENDBRANCH  95  96
ENDBRANCH  69  90
ENDBRANCH  43  44
ENDBRANCH  35  38
ENDBRANCH  33  34
ENDBRANCH   1  33
TORSDOF 16
