REMARK SMILES CC[C@]1(C(=O)NCCCNC(=O)c2ccc(-c3c4nc(c(-c5ccc(S(=O)(=O)[O-])cc5)c5ccc([nH]5)c(-c5ccc(S(=O)(=O)[O-])cc5)c5nc(c(-c6ccc(S(=O)(=O)[O-])cc6)c6ccc3[nH]6)C=C5)C=C4)cc2)CCCN(C(=O)C[C@H](C)COC)C1
REMARK SMILES IDX 7 1 6 2 4 3 5 4 3 6 73 7 85 8 74 9 76 10 75 11 2 12 1 13
REMARK SMILES IDX 77 14 78 15 79 16 80 17 81 18 82 19 83 20 84 21 8 22 9 23
REMARK SMILES IDX 10 24 11 25 12 27 13 28 14 29 72 30 15 31 71 32 16 33 17 34
REMARK SMILES IDX 18 35 65 36 19 37 70 38 64 39 66 40 20 41 69 42 63 43 62 44
REMARK SMILES IDX 21 46 51 47 32 48 50 49 33 50 36 51 49 52 67 53 34 54 35 55
REMARK SMILES IDX 48 57 68 58 37 59 22 60 23 61 31 62 24 63 30 64 25 65 26 66
REMARK SMILES IDX 27 67 28 68 29 69 52 70 53 71 61 72 54 73 60 74 55 75 56 76
REMARK SMILES IDX 57 77 58 78 59 79 38 80 39 81 47 82 40 83 46 84 41 85 42 86
REMARK SMILES IDX 43 87 44 88 45 89
REMARK H PARENT 6 5 10 26 66 45 36 56
REMARK Flexibility Score: inf
ROOT
ATOM      1  C   UNL     1       6.192   0.950  -6.148  1.00  0.00     0.117 C 
ENDROOT
BRANCH   1   2
ATOM      2  N   UNL     1       7.563   0.644  -5.766  1.00  0.00    -0.355 N 
ATOM      3  C   UNL     1       8.204   0.627  -4.562  1.00  0.00     0.228 C 
ATOM      4  O   UNL     1       9.383   0.261  -4.594  1.00  0.00    -0.274 OA
ATOM      5  H   UNL     1       8.140   0.402  -6.525  1.00  0.00     0.163 HD
BRANCH   3   6
ATOM      6  C   UNL     1       7.496   1.003  -3.235  1.00  0.00     0.066 C 
ATOM      7  C   UNL     1       6.864   2.416  -3.366  1.00  0.00     0.020 C 
ATOM      8  C   UNL     1       6.478  -0.128  -2.952  1.00  0.00     0.136 C 
ATOM      9  C   UNL     1       5.497   2.641  -2.713  1.00  0.00     0.023 C 
ATOM     10  N   UNL     1       5.408   0.286  -2.050  1.00  0.00    -0.342 N 
ATOM     11  C   UNL     1       4.624   1.399  -2.559  1.00  0.00     0.119 C 
BRANCH   6  12
ATOM     12  C   UNL     1       8.582   0.990  -2.099  1.00  0.00     0.015 C 
ATOM     13  C   UNL     1       8.264   1.779  -0.839  1.00  0.00     0.005 C 
ENDBRANCH   6  12
BRANCH  10  14
ATOM     14  C   UNL     1       5.233  -0.394  -0.858  1.00  0.00     0.222 C 
ATOM     15  O   UNL     1       6.014  -1.282  -0.501  1.00  0.00    -0.275 OA
BRANCH  14  16
ATOM     16  C   UNL     1       4.052  -0.071   0.048  1.00  0.00     0.106 C 
BRANCH  16  17
ATOM     17  C   UNL     1       4.298   0.972   1.157  1.00  0.00     0.021 C 
ATOM     18  C   UNL     1       4.173   2.402   0.649  1.00  0.00     0.010 C 
BRANCH  17  19
ATOM     19  C   UNL     1       5.602   0.717   1.938  1.00  0.00     0.163 C 
BRANCH  19  20
ATOM     20  O   UNL     1       5.833   1.679   2.972  1.00  0.00    -0.384 OA
ATOM     21  C   UNL     1       6.616   2.799   2.572  1.00  0.00     0.194 C 
ENDBRANCH  19  20
ENDBRANCH  17  19
ENDBRANCH  16  17
ENDBRANCH  14  16
ENDBRANCH  10  14
ENDBRANCH   3   6
ENDBRANCH   1   2
BRANCH   1  22
ATOM     22  C   UNL     1       6.065   2.251  -6.932  1.00  0.00     0.042 C 
BRANCH  22  23
ATOM     23  C   UNL     1       6.804   2.236  -8.257  1.00  0.00     0.118 C 
BRANCH  23  24
ATOM     24  N   UNL     1       6.237   1.269  -9.184  1.00  0.00    -0.352 N 
ATOM     25  C   UNL     1       5.567   1.481 -10.365  1.00  0.00     0.251 C 
ATOM     26  H   UNL     1       6.351   0.325  -8.929  1.00  0.00     0.163 HD
ATOM     27  O   UNL     1       4.942   0.562 -10.880  1.00  0.00    -0.269 OA
BRANCH  25  28
ATOM     28  C   UNL     1       5.590   2.820 -10.995  1.00  0.00     0.039 A 
ATOM     29  C   UNL     1       4.423   3.320 -11.576  1.00  0.00     0.014 A 
ATOM     30  C   UNL     1       6.764   3.576 -11.018  1.00  0.00     0.014 A 
ATOM     31  C   UNL     1       4.422   4.603 -12.127  1.00  0.00     0.010 A 
ATOM     32  C   UNL     1       6.734   4.889 -11.471  1.00  0.00     0.010 A 
ATOM     33  C   UNL     1       5.568   5.411 -12.048  1.00  0.00    -0.014 A 
BRANCH  33  34
ATOM     34  C   UNL     1       5.591   6.792 -12.592  1.00  0.00     0.031 A 
ATOM     35  C   UNL     1       6.555   7.143 -13.696  1.00  0.00     0.074 A 
ATOM     36  C   UNL     1       4.805   7.743 -12.049  1.00  0.00     0.049 A 
ATOM     37  N   UNL     1       6.801   8.307 -14.237  1.00  0.00    -0.248 NA
ATOM     38  C   UNL     1       7.371   6.044 -14.242  1.00  0.00     0.031 C 
ATOM     39  C   UNL     1       3.854   7.536 -10.954  1.00  0.00     0.029 A 
ATOM     40  N   UNL     1       4.688   9.079 -12.340  1.00  0.00    -0.354 N 
ATOM     41  C   UNL     1       7.811   8.086 -15.167  1.00  0.00     0.074 A 
ATOM     42  C   UNL     1       8.172   6.689 -15.076  1.00  0.00     0.031 C 
ATOM     43  C   UNL     1       3.232   8.696 -10.686  1.00  0.00     0.029 A 
ATOM     44  C   UNL     1       3.774   9.738 -11.552  1.00  0.00     0.049 A 
ATOM     45  H   UNL     1       5.209   9.524 -13.047  1.00  0.00     0.167 HD
ATOM     46  C   UNL     1       8.371   8.960 -16.036  1.00  0.00     0.031 A 
ATOM     47  C   UNL     1       3.421  11.038 -11.520  1.00  0.00     0.031 A 
ATOM     48  C   UNL     1       7.996  10.345 -16.133  1.00  0.00     0.049 A 
ATOM     49  C   UNL     1       4.073  11.996 -12.481  1.00  0.00     0.074 A 
ATOM     50  C   UNL     1       8.467  11.303 -17.013  1.00  0.00     0.029 A 
ATOM     51  N   UNL     1       7.059  10.969 -15.323  1.00  0.00    -0.354 N 
ATOM     52  N   UNL     1       4.987  11.755 -13.392  1.00  0.00    -0.248 NA
ATOM     53  C   UNL     1       3.639  13.398 -12.419  1.00  0.00     0.031 C 
ATOM     54  C   UNL     1       7.857  12.520 -16.698  1.00  0.00     0.029 A 
ATOM     55  C   UNL     1       6.955  12.306 -15.668  1.00  0.00     0.049 A 
ATOM     56  H   UNL     1       6.545  10.528 -14.609  1.00  0.00     0.167 HD
ATOM     57  C   UNL     1       5.210  12.968 -14.034  1.00  0.00     0.074 A 
ATOM     58  C   UNL     1       4.327  13.936 -13.416  1.00  0.00     0.031 C 
ATOM     59  C   UNL     1       6.064  13.254 -15.047  1.00  0.00     0.031 A 
BRANCH  46  60
ATOM     60  C   UNL     1       9.453   8.443 -16.948  1.00  0.00    -0.014 A 
ATOM     61  C   UNL     1       9.163   7.527 -17.977  1.00  0.00     0.010 A 
ATOM     62  C   UNL     1      10.772   8.911 -16.805  1.00  0.00     0.010 A 
ATOM     63  C   UNL     1      10.177   7.059 -18.816  1.00  0.00     0.020 A 
ATOM     64  C   UNL     1      11.783   8.471 -17.663  1.00  0.00     0.020 A 
ATOM     65  C   UNL     1      11.481   7.534 -18.654  1.00  0.00     0.054 A 
BRANCH  65  66
ATOM     66  S   UNL     1      12.769   6.932 -19.779  1.00  0.00     0.124 S 
ATOM     67  O   UNL     1      12.939   5.552 -19.331  1.00  0.00    -0.237 OA
ATOM     68  O   UNL     1      12.148   7.094 -21.091  1.00  0.00    -0.237 OA
ATOM     69  O   UNL     1      13.902   7.815 -19.515  1.00  0.00    -0.744 OA
ENDBRANCH  65  66
ENDBRANCH  46  60
BRANCH  47  70
ATOM     70  C   UNL     1       2.392  11.510 -10.552  1.00  0.00    -0.014 A 
ATOM     71  C   UNL     1       1.133  11.946 -11.002  1.00  0.00     0.010 A 
ATOM     72  C   UNL     1       2.666  11.524  -9.172  1.00  0.00     0.010 A 
ATOM     73  C   UNL     1       0.177  12.410 -10.093  1.00  0.00     0.020 A 
ATOM     74  C   UNL     1       1.701  11.957  -8.258  1.00  0.00     0.020 A 
ATOM     75  C   UNL     1       0.467  12.411  -8.726  1.00  0.00     0.054 A 
BRANCH  75  76
ATOM     76  S   UNL     1      -0.805  12.978  -7.563  1.00  0.00     0.124 S 
ATOM     77  O   UNL     1      -0.816  14.417  -7.803  1.00  0.00    -0.237 OA
ATOM     78  O   UNL     1      -1.989  12.250  -8.012  1.00  0.00    -0.237 OA
ATOM     79  O   UNL     1      -0.285  12.564  -6.261  1.00  0.00    -0.744 OA
ENDBRANCH  75  76
ENDBRANCH  47  70
BRANCH  59  80
ATOM     80  C   UNL     1       6.055  14.659 -15.591  1.00  0.00    -0.014 A 
ATOM     81  C   UNL     1       6.577  15.736 -14.854  1.00  0.00     0.010 A 
ATOM     82  C   UNL     1       5.573  14.888 -16.894  1.00  0.00     0.010 A 
ATOM     83  C   UNL     1       6.588  17.023 -15.399  1.00  0.00     0.020 A 
ATOM     84  C   UNL     1       5.612  16.167 -17.454  1.00  0.00     0.020 A 
ATOM     85  C   UNL     1       6.108  17.229 -16.696  1.00  0.00     0.054 A 
BRANCH  85  86
ATOM     86  S   UNL     1       6.181  18.900 -17.398  1.00  0.00     0.124 S 
ATOM     87  O   UNL     1       5.136  19.591 -16.647  1.00  0.00    -0.237 OA
ATOM     88  O   UNL     1       7.550  19.313 -17.097  1.00  0.00    -0.237 OA
ATOM     89  O   UNL     1       5.896  18.694 -18.816  1.00  0.00    -0.744 OA
ENDBRANCH  85  86
ENDBRANCH  59  80
ENDBRANCH  33  34
ENDBRANCH  25  28
ENDBRANCH  23  24
ENDBRANCH  22  23
ENDBRANCH   1  22
TORSDOF 19
