REMARK SMILES Cc1c(F)cc(C(=O)NCCCNC(=O)c2ccc(-c3c4nc(c(-c5ccc(S(=O)(=O)[O-])cc5)c5ccc([nH]5)c(-c5ccc(S(=O)(=O)[O-])cc5)c5nc(c(-c6ccc(S(=O)(=O)[O-])cc6)c6ccc3[nH]6)C=C5)C=C4)cc2)cc1S(=O)(=O)NC#N
REMARK SMILES IDX 11 1 10 2 9 3 7 4 8 5 6 7 1 8 2 9 3 10 77 11 4 12 5 13 76 14
REMARK SMILES IDX 78 15 79 16 80 17 81 18 82 20 83 21 12 22 13 23 14 24 15 26
REMARK SMILES IDX 16 27 17 28 75 29 18 30 74 31 19 32 20 33 21 34 68 35 22 36
REMARK SMILES IDX 73 37 67 38 69 39 23 40 72 41 66 42 65 43 24 45 54 46 35 47
REMARK SMILES IDX 53 48 36 49 39 50 52 51 70 52 37 53 38 54 51 56 71 57 40 58
REMARK SMILES IDX 25 59 26 60 34 61 27 62 33 63 28 64 29 65 30 66 31 67 32 68
REMARK SMILES IDX 55 69 56 70 64 71 57 72 63 73 58 74 59 75 60 76 61 77 62 78
REMARK SMILES IDX 41 79 42 80 50 81 43 82 49 83 44 84 45 85 46 86 47 87 48 88
REMARK H PARENT 9 6 81 19 13 25 69 44 39 55
REMARK Flexibility Score: inf
ROOT
ATOM      1  C   UNL     1      -5.444   0.593  -0.765  1.00  0.00     0.042 C 
ENDROOT
BRANCH   1   2
ATOM      2  C   UNL     1      -4.780   0.082   0.512  1.00  0.00     0.118 C 
BRANCH   2   3
ATOM      3  N   UNL     1      -4.199  -1.229   0.292  1.00  0.00    -0.352 N 
ATOM      4  C   UNL     1      -2.939  -1.676   0.008  1.00  0.00     0.251 C 
ATOM      5  O   UNL     1      -2.805  -2.891  -0.151  1.00  0.00    -0.269 OA
ATOM      6  H   UNL     1      -4.857  -1.958   0.364  1.00  0.00     0.163 HD
BRANCH   4   7
ATOM      7  C   UNL     1      -1.728  -0.812  -0.067  1.00  0.00     0.044 A 
ATOM      8  C   UNL     1       2.070   1.286  -0.234  1.00  0.00     0.049 C 
ATOM      9  C   UNL     1       0.709   0.680  -0.145  1.00  0.00     0.005 A 
ATOM     10  C   UNL     1       0.680  -0.723  -0.013  1.00  0.00     0.128 A 
ATOM     11  C   UNL     1      -0.521   1.343  -0.172  1.00  0.00     0.095 A 
ATOM     12  F   UNL     1       1.834  -1.402   0.081  1.00  0.00    -0.207 F 
ATOM     13  C   UNL     1      -0.498  -1.456   0.042  1.00  0.00     0.053 A 
ATOM     14  C   UNL     1      -1.715   0.573  -0.221  1.00  0.00     0.036 A 
BRANCH  11  15
ATOM     15  S   UNL     1      -0.892   3.088   0.016  1.00  0.00     0.270 S 
ATOM     16  O   UNL     1      -1.778   3.381  -1.095  1.00  0.00    -0.201 OA
ATOM     17  O   UNL     1      -1.373   3.250   1.371  1.00  0.00    -0.201 OA
BRANCH  15  18
ATOM     18  N   UNL     1       0.355   4.131  -0.250  1.00  0.00    -0.215 NA
ATOM     19  H   UNL     1       0.290   4.766  -1.000  1.00  0.00     0.193 HD
BRANCH  18  20
ATOM     20  C   UNL     1       1.437   4.146   0.506  1.00  0.00     0.191 C 
ATOM     21  N   UNL     1       2.477   4.185   1.002  1.00  0.00    -0.172 NA
ENDBRANCH  18  20
ENDBRANCH  15  18
ENDBRANCH  11  15
ENDBRANCH   4   7
ENDBRANCH   2   3
ENDBRANCH   1   2
BRANCH   1  22
ATOM     22  C   UNL     1      -6.770  -0.113  -1.051  1.00  0.00     0.118 C 
BRANCH  22  23
ATOM     23  N   UNL     1      -7.751   0.142  -0.001  1.00  0.00    -0.352 N 
ATOM     24  C   UNL     1      -8.952   0.800  -0.059  1.00  0.00     0.251 C 
ATOM     25  H   UNL     1      -7.514  -0.213   0.886  1.00  0.00     0.163 HD
ATOM     26  O   UNL     1      -9.493   1.169   0.979  1.00  0.00    -0.269 OA
BRANCH  24  27
ATOM     27  C   UNL     1      -9.588   1.054  -1.365  1.00  0.00     0.039 A 
ATOM     28  C   UNL     1     -10.218   2.280  -1.589  1.00  0.00     0.014 A 
ATOM     29  C   UNL     1      -9.582   0.071  -2.357  1.00  0.00     0.014 A 
ATOM     30  C   UNL     1     -10.790   2.540  -2.834  1.00  0.00     0.010 A 
ATOM     31  C   UNL     1     -10.072   0.365  -3.623  1.00  0.00     0.010 A 
ATOM     32  C   UNL     1     -10.686   1.600  -3.873  1.00  0.00    -0.014 A 
BRANCH  32  33
ATOM     33  C   UNL     1     -11.201   1.895  -5.232  1.00  0.00     0.031 A 
ATOM     34  C   UNL     1     -12.293   1.049  -5.827  1.00  0.00     0.074 A 
ATOM     35  C   UNL     1     -10.635   2.884  -5.952  1.00  0.00     0.049 A 
ATOM     36  N   UNL     1     -12.826   1.115  -7.020  1.00  0.00    -0.248 NA
ATOM     37  C   UNL     1     -12.841  -0.026  -4.984  1.00  0.00     0.031 C 
ATOM     38  C   UNL     1      -9.546   3.749  -5.491  1.00  0.00     0.029 A 
ATOM     39  N   UNL     1     -10.893   3.327  -7.224  1.00  0.00    -0.354 N 
ATOM     40  C   UNL     1     -13.761   0.088  -7.074  1.00  0.00     0.074 A 
ATOM     41  C   UNL     1     -13.681  -0.623  -5.817  1.00  0.00     0.031 C 
ATOM     42  C   UNL     1      -9.254   4.639  -6.452  1.00  0.00     0.029 A 
ATOM     43  C   UNL     1     -10.091   4.372  -7.618  1.00  0.00     0.049 A 
ATOM     44  H   UNL     1     -11.588   2.934  -7.801  1.00  0.00     0.167 HD
ATOM     45  C   UNL     1     -14.619  -0.224  -8.073  1.00  0.00     0.031 A 
ATOM     46  C   UNL     1     -10.022   5.032  -8.790  1.00  0.00     0.031 A 
ATOM     47  C   UNL     1     -14.684   0.487  -9.323  1.00  0.00     0.049 A 
ATOM     48  C   UNL     1     -10.954   4.636  -9.902  1.00  0.00     0.074 A 
ATOM     49  C   UNL     1     -15.549   0.281 -10.383  1.00  0.00     0.029 A 
ATOM     50  N   UNL     1     -13.846   1.531  -9.688  1.00  0.00    -0.354 N 
ATOM     51  N   UNL     1     -11.881   3.707  -9.909  1.00  0.00    -0.248 NA
ATOM     52  C   UNL     1     -10.839   5.382 -11.162  1.00  0.00     0.031 C 
ATOM     53  C   UNL     1     -15.183   1.146 -11.418  1.00  0.00     0.029 A 
ATOM     54  C   UNL     1     -14.148   1.953 -10.972  1.00  0.00     0.049 A 
ATOM     55  H   UNL     1     -13.141   1.915  -9.118  1.00  0.00     0.167 HD
ATOM     56  C   UNL     1     -12.480   3.779 -11.161  1.00  0.00     0.074 A 
ATOM     57  C   UNL     1     -11.823   4.854 -11.876  1.00  0.00     0.031 C 
ATOM     58  C   UNL     1     -13.485   3.026 -11.672  1.00  0.00     0.031 A 
BRANCH  45  59
ATOM     59  C   UNL     1     -15.546  -1.394  -7.864  1.00  0.00    -0.014 A 
ATOM     60  C   UNL     1     -16.572  -1.353  -6.901  1.00  0.00     0.010 A 
ATOM     61  C   UNL     1     -15.422  -2.536  -8.677  1.00  0.00     0.010 A 
ATOM     62  C   UNL     1     -17.427  -2.445  -6.729  1.00  0.00     0.020 A 
ATOM     63  C   UNL     1     -16.298  -3.615  -8.533  1.00  0.00     0.020 A 
ATOM     64  C   UNL     1     -17.286  -3.568  -7.549  1.00  0.00     0.054 A 
BRANCH  64  65
ATOM     65  S   UNL     1     -18.433  -4.954  -7.323  1.00  0.00     0.124 S 
ATOM     66  O   UNL     1     -18.029  -5.471  -6.017  1.00  0.00    -0.237 OA
ATOM     67  O   UNL     1     -19.737  -4.297  -7.362  1.00  0.00    -0.237 OA
ATOM     68  O   UNL     1     -18.146  -5.833  -8.454  1.00  0.00    -0.744 OA
ENDBRANCH  64  65
ENDBRANCH  45  59
BRANCH  46  69
ATOM     69  C   UNL     1      -9.033   6.132  -8.971  1.00  0.00    -0.014 A 
ATOM     70  C   UNL     1      -9.460   7.461  -9.139  1.00  0.00     0.010 A 
ATOM     71  C   UNL     1      -7.653   5.855  -8.969  1.00  0.00     0.010 A 
ATOM     72  C   UNL     1      -8.528   8.487  -9.325  1.00  0.00     0.020 A 
ATOM     73  C   UNL     1      -6.718   6.882  -9.116  1.00  0.00     0.020 A 
ATOM     74  C   UNL     1      -7.162   8.191  -9.306  1.00  0.00     0.054 A 
BRANCH  74  75
ATOM     75  S   UNL     1      -5.972   9.546  -9.500  1.00  0.00     0.124 S 
ATOM     76  O   UNL     1      -6.172   9.929 -10.894  1.00  0.00    -0.237 OA
ATOM     77  O   UNL     1      -6.433  10.511  -8.505  1.00  0.00    -0.237 OA
ATOM     78  O   UNL     1      -4.686   8.919  -9.201  1.00  0.00    -0.744 OA
ENDBRANCH  74  75
ENDBRANCH  46  69
BRANCH  58  79
ATOM     79  C   UNL     1     -13.971   3.358 -13.059  1.00  0.00    -0.014 A 
ATOM     80  C   UNL     1     -13.178   3.116 -14.195  1.00  0.00     0.010 A 
ATOM     81  C   UNL     1     -15.275   3.860 -13.231  1.00  0.00     0.010 A 
ATOM     82  C   UNL     1     -13.669   3.396 -15.473  1.00  0.00     0.020 A 
ATOM     83  C   UNL     1     -15.784   4.105 -14.508  1.00  0.00     0.020 A 
ATOM     84  C   UNL     1     -14.972   3.882 -15.621  1.00  0.00     0.054 A 
BRANCH  84  85
ATOM     85  S   UNL     1     -15.605   4.178 -17.294  1.00  0.00     0.124 S 
ATOM     86  O   UNL     1     -14.812   5.328 -17.721  1.00  0.00    -0.237 OA
ATOM     87  O   UNL     1     -15.304   2.921 -17.974  1.00  0.00    -0.237 OA
ATOM     88  O   UNL     1     -17.026   4.445 -17.087  1.00  0.00    -0.744 OA
ENDBRANCH  84  85
ENDBRANCH  58  79
ENDBRANCH  32  33
ENDBRANCH  24  27
ENDBRANCH  22  23
ENDBRANCH   1  22
TORSDOF 16
