REMARK SMILES O=C(NCCCNC(=O)c1ccc(-c2c3nc(c(-c4ccc(S(=O)(=O)[O-])cc4)c4ccc([nH]4)c(-c4ccc(S(=O)(=O)[O-])cc4)c4nc(c(-c5ccc(S(=O)(=O)[O-])cc5)c5ccc2[nH]5)C=C4)C=C3)cc1)C1=NN(c2ccc(S(=O)(=O)[O-])cc2)C(=O)/C1=C/Nc1ccccc1
REMARK SMILES IDX 5 1 4 2 3 3 1 4 2 5 70 7 71 8 85 9 72 10 83 11 86 12 84 13
REMARK SMILES IDX 73 14 74 15 82 16 75 17 81 18 76 19 77 20 78 21 79 22 80 23
REMARK SMILES IDX 87 24 88 26 89 27 93 28 90 29 92 30 91 31 6 32 7 33 8 34
REMARK SMILES IDX 9 36 10 37 11 38 69 39 12 40 68 41 13 42 14 43 15 44 62 45
REMARK SMILES IDX 16 46 67 47 61 48 63 49 17 50 66 51 60 52 59 53 18 55 48 56
REMARK SMILES IDX 29 57 47 58 30 59 33 60 46 61 64 62 31 63 32 64 45 66 65 67
REMARK SMILES IDX 34 68 19 69 20 70 28 71 21 72 27 73 22 74 23 75 24 76 25 77
REMARK SMILES IDX 26 78 49 79 50 80 58 81 51 82 57 83 52 84 53 85 54 86 55 87
REMARK SMILES IDX 56 88 35 89 36 90 44 91 37 92 43 93 38 94 39 95 40 96 41 97
REMARK SMILES IDX 42 98
REMARK H PARENT 3 6 87 25 7 35 63 54 33 65
REMARK Flexibility Score: inf
ROOT
ATOM      1  C   UNL     1       5.089  -1.974   1.514  1.00  0.00     0.042 C 
ENDROOT
BRANCH   1   2
ATOM      2  C   UNL     1       4.598  -1.141   0.342  1.00  0.00     0.118 C 
BRANCH   2   3
ATOM      3  N   UNL     1       3.155  -0.964   0.333  1.00  0.00    -0.351 N 
ATOM      4  O   UNL     1       1.230   0.169  -0.052  1.00  0.00    -0.267 OA
ATOM      5  C   UNL     1       2.445   0.187   0.104  1.00  0.00     0.272 C 
ATOM      6  H   UNL     1       2.621  -1.771   0.513  1.00  0.00     0.163 HD
BRANCH   5   7
ATOM      7  C   UNL     1       3.165   1.487  -0.048  1.00  0.00     0.163 C 
ATOM      8  N   UNL     1       3.056   2.481   0.796  1.00  0.00    -0.158 NA
ATOM      9  C   UNL     1       4.034   1.798  -1.182  1.00  0.00     0.091 C 
ATOM     10  N   UNL     1       3.819   3.517   0.247  1.00  0.00    -0.196 N 
ATOM     11  C   UNL     1       4.527   3.159  -0.912  1.00  0.00     0.282 C 
ATOM     12  C   UNL     1       4.329   1.106  -2.285  1.00  0.00     0.099 C 
ATOM     13  O   UNL     1       5.313   3.776  -1.609  1.00  0.00    -0.267 OA
BRANCH  10  14
ATOM     14  C   UNL     1       3.615   4.830   0.735  1.00  0.00     0.069 A 
ATOM     15  C   UNL     1       3.042   5.048   1.998  1.00  0.00     0.030 A 
ATOM     16  C   UNL     1       3.881   5.940  -0.082  1.00  0.00     0.030 A 
ATOM     17  C   UNL     1       2.728   6.344   2.427  1.00  0.00     0.021 A 
ATOM     18  C   UNL     1       3.545   7.233   0.326  1.00  0.00     0.021 A 
ATOM     19  C   UNL     1       2.970   7.428   1.580  1.00  0.00     0.054 A 
BRANCH  19  20
ATOM     20  S   UNL     1       2.467   9.048   2.080  1.00  0.00     0.124 S 
ATOM     21  O   UNL     1       1.089   8.981   2.510  1.00  0.00    -0.237 OA
ATOM     22  O   UNL     1       3.503   9.598   2.925  1.00  0.00    -0.237 OA
ATOM     23  O   UNL     1       2.483   9.943   0.735  1.00  0.00    -0.744 OA
ENDBRANCH  19  20
ENDBRANCH  10  14
BRANCH  12  24
ATOM     24  N   UNL     1       3.777  -0.062  -2.743  1.00  0.00    -0.361 N 
ATOM     25  H   UNL     1       2.952  -0.365  -2.299  1.00  0.00     0.166 HD
BRANCH  24  26
ATOM     26  C   UNL     1       4.267  -0.869  -3.780  1.00  0.00     0.038 A 
ATOM     27  C   UNL     1       3.359  -1.449  -4.674  1.00  0.00     0.026 A 
ATOM     28  C   UNL     1       5.636  -1.065  -3.994  1.00  0.00     0.026 A 
ATOM     29  C   UNL     1       3.805  -2.225  -5.745  1.00  0.00     0.002 A 
ATOM     30  C   UNL     1       6.085  -1.863  -5.049  1.00  0.00     0.002 A 
ATOM     31  C   UNL     1       5.169  -2.439  -5.927  1.00  0.00     0.000 A 
ENDBRANCH  24  26
ENDBRANCH  12  24
ENDBRANCH   5   7
ENDBRANCH   2   3
ENDBRANCH   1   2
BRANCH   1  32
ATOM     32  C   UNL     1       4.561  -3.403   1.553  1.00  0.00     0.118 C 
BRANCH  32  33
ATOM     33  N   UNL     1       4.983  -4.213   0.420  1.00  0.00    -0.352 N 
ATOM     34  C   UNL     1       5.667  -5.407   0.386  1.00  0.00     0.251 C 
ATOM     35  H   UNL     1       4.741  -3.850  -0.462  1.00  0.00     0.163 HD
ATOM     36  O   UNL     1       6.024  -5.859  -0.700  1.00  0.00    -0.269 OA
BRANCH  34  37
ATOM     37  C   UNL     1       6.008  -6.130   1.633  1.00  0.00     0.039 A 
ATOM     38  C   UNL     1       7.263  -6.737   1.734  1.00  0.00     0.014 A 
ATOM     39  C   UNL     1       5.107  -6.229   2.696  1.00  0.00     0.014 A 
ATOM     40  C   UNL     1       7.638  -7.372   2.921  1.00  0.00     0.010 A 
ATOM     41  C   UNL     1       5.516  -6.778   3.911  1.00  0.00     0.010 A 
ATOM     42  C   UNL     1       6.784  -7.363   4.036  1.00  0.00    -0.014 A 
BRANCH  42  43
ATOM     43  C   UNL     1       7.207  -7.959   5.331  1.00  0.00     0.031 A 
ATOM     44  C   UNL     1       6.454  -9.124   5.920  1.00  0.00     0.074 A 
ATOM     45  C   UNL     1       8.244  -7.422   6.005  1.00  0.00     0.049 A 
ATOM     46  N   UNL     1       6.675  -9.767   7.039  1.00  0.00    -0.248 NA
ATOM     47  C   UNL     1       5.285  -9.613   5.171  1.00  0.00     0.031 C 
ATOM     48  C   UNL     1       9.020  -6.254   5.578  1.00  0.00     0.029 A 
ATOM     49  N   UNL     1       8.828  -7.790   7.191  1.00  0.00    -0.354 N 
ATOM     50  C   UNL     1       5.667 -10.719   7.136  1.00  0.00     0.074 A 
ATOM     51  C   UNL     1       4.803 -10.535   5.991  1.00  0.00     0.031 C 
ATOM     52  C   UNL     1      10.001  -6.028   6.467  1.00  0.00     0.029 A 
ATOM     53  C   UNL     1       9.907  -7.011   7.540  1.00  0.00     0.049 A 
ATOM     54  H   UNL     1       8.505  -8.540   7.741  1.00  0.00     0.167 HD
ATOM     55  C   UNL     1       5.487 -11.678   8.077  1.00  0.00     0.031 A 
ATOM     56  C   UNL     1      10.736  -7.085   8.600  1.00  0.00     0.031 A 
ATOM     57  C   UNL     1       6.356 -11.876   9.206  1.00  0.00     0.049 A 
ATOM     58  C   UNL     1      10.538  -8.180   9.611  1.00  0.00     0.074 A 
ATOM     59  C   UNL     1       6.292 -12.856  10.182  1.00  0.00     0.029 A 
ATOM     60  N   UNL     1       7.453 -11.084   9.508  1.00  0.00    -0.354 N 
ATOM     61  N   UNL     1       9.616  -9.112   9.648  1.00  0.00    -0.248 NA
ATOM     62  C   UNL     1      11.508  -8.243  10.713  1.00  0.00     0.031 C 
ATOM     63  C   UNL     1       7.329 -12.632  11.096  1.00  0.00     0.029 A 
ATOM     64  C   UNL     1       8.067 -11.544  10.660  1.00  0.00     0.049 A 
ATOM     65  H   UNL     1       7.752 -10.308   8.980  1.00  0.00     0.167 HD
ATOM     66  C   UNL     1       9.910  -9.888  10.763  1.00  0.00     0.074 A 
ATOM     67  C   UNL     1      11.105  -9.328  11.360  1.00  0.00     0.031 C 
ATOM     68  C   UNL     1       9.250 -10.970  11.249  1.00  0.00     0.031 A 
BRANCH  55  69
ATOM     69  C   UNL     1       4.298 -12.590   7.916  1.00  0.00    -0.014 A 
ATOM     70  C   UNL     1       4.255 -13.549   6.886  1.00  0.00     0.010 A 
ATOM     71  C   UNL     1       3.223 -12.508   8.819  1.00  0.00     0.010 A 
ATOM     72  C   UNL     1       3.139 -14.374   6.733  1.00  0.00     0.020 A 
ATOM     73  C   UNL     1       2.116 -13.352   8.686  1.00  0.00     0.020 A 
ATOM     74  C   UNL     1       2.073 -14.267   7.631  1.00  0.00     0.054 A 
BRANCH  74  75
ATOM     75  S   UNL     1       0.641 -15.360   7.418  1.00  0.00     0.124 S 
ATOM     76  O   UNL     1      -0.031 -14.754   6.271  1.00  0.00    -0.237 OA
ATOM     77  O   UNL     1       1.262 -16.658   7.167  1.00  0.00    -0.237 OA
ATOM     78  O   UNL     1      -0.072 -15.249   8.688  1.00  0.00    -0.744 OA
ENDBRANCH  74  75
ENDBRANCH  55  69
BRANCH  56  79
ATOM     79  C   UNL     1      11.857  -6.116   8.734  1.00  0.00    -0.014 A 
ATOM     80  C   UNL     1      13.183  -6.528   8.512  1.00  0.00     0.010 A 
ATOM     81  C   UNL     1      11.603  -4.774   9.070  1.00  0.00     0.010 A 
ATOM     82  C   UNL     1      14.238  -5.620   8.643  1.00  0.00     0.020 A 
ATOM     83  C   UNL     1      12.653  -3.858   9.175  1.00  0.00     0.020 A 
ATOM     84  C   UNL     1      13.966  -4.290   8.972  1.00  0.00     0.054 A 
BRANCH  84  85
ATOM     85  S   UNL     1      15.344  -3.114   9.081  1.00  0.00     0.124 S 
ATOM     86  O   UNL     1      15.940  -3.463  10.366  1.00  0.00    -0.237 OA
ATOM     87  O   UNL     1      16.139  -3.448   7.902  1.00  0.00    -0.237 OA
ATOM     88  O   UNL     1      14.684  -1.811   9.027  1.00  0.00    -0.744 OA
ENDBRANCH  84  85
ENDBRANCH  56  79
BRANCH  68  89
ATOM     89  C   UNL     1       9.829 -11.631  12.470  1.00  0.00    -0.014 A 
ATOM     90  C   UNL     1       9.761 -11.019  13.734  1.00  0.00     0.010 A 
ATOM     91  C   UNL     1      10.443 -12.891  12.350  1.00  0.00     0.010 A 
ATOM     92  C   UNL     1      10.344 -11.630  14.847  1.00  0.00     0.020 A 
ATOM     93  C   UNL     1      11.003 -13.518  13.466  1.00  0.00     0.020 A 
ATOM     94  C   UNL     1      10.969 -12.872  14.703  1.00  0.00     0.054 A 
BRANCH  94  95
ATOM     95  S   UNL     1      11.718 -13.651  16.161  1.00  0.00     0.124 S 
ATOM     96  O   UNL     1      12.962 -12.899  16.299  1.00  0.00    -0.237 OA
ATOM     97  O   UNL     1      10.721 -13.414  17.202  1.00  0.00    -0.237 OA
ATOM     98  O   UNL     1      11.874 -15.048  15.763  1.00  0.00    -0.744 OA
ENDBRANCH  94  95
ENDBRANCH  68  89
ENDBRANCH  42  43
ENDBRANCH  34  37
ENDBRANCH  32  33
ENDBRANCH   1  32
TORSDOF 17
