REMARK SMILES CS(=O)(=O)c1ccc(/C=C(/C(=O)NCCCNC(=O)c2ccc(-c3c4nc(c(-c5ccc(S(=O)(=O)[O-])cc5)c5ccc([nH]5)c(-c5ccc(S(=O)(=O)[O-])cc5)c5nc(c(-c6ccc(S(=O)(=O)[O-])cc6)c6ccc3[nH]6)C=C5)C=C4)cc2)c2ccc(O)cc2)cc1
REMARK SMILES IDX 15 1 14 2 13 3 11 4 12 5 10 7 9 8 8 9 5 10 6 11 88 12 7 13
REMARK SMILES IDX 87 14 2 15 1 16 3 17 4 18 80 19 81 20 86 21 82 22 85 23
REMARK SMILES IDX 83 24 84 25 16 27 17 28 18 29 19 31 20 32 21 33 79 34 22 35
REMARK SMILES IDX 78 36 23 37 24 38 25 39 72 40 26 41 77 42 71 43 73 44 27 45
REMARK SMILES IDX 76 46 70 47 69 48 28 50 58 51 39 52 57 53 40 54 43 55 56 56
REMARK SMILES IDX 74 57 41 58 42 59 55 61 75 62 44 63 29 64 30 65 38 66 31 67
REMARK SMILES IDX 37 68 32 69 33 70 34 71 35 72 36 73 59 74 60 75 68 76 61 77
REMARK SMILES IDX 67 78 62 79 63 80 64 81 65 82 66 83 45 84 46 85 54 86 47 87
REMARK SMILES IDX 53 88 48 89 49 90 50 91 51 92 52 93
REMARK H PARENT 13 6 84 26 17 30 73 49 43 60
REMARK Flexibility Score: inf
ROOT
ATOM      1  C   UNL     1       1.615   6.246   7.843  1.00  0.00     0.042 C 
ENDROOT
BRANCH   1   2
ATOM      2  C   UNL     1       2.817   5.328   7.608  1.00  0.00     0.118 C 
BRANCH   2   3
ATOM      3  N   UNL     1       2.750   4.148   8.453  1.00  0.00    -0.352 N 
ATOM      4  C   UNL     1       2.426   2.845   8.240  1.00  0.00     0.251 C 
ATOM      5  O   UNL     1       2.505   2.103   9.222  1.00  0.00    -0.269 OA
ATOM      6  H   UNL     1       2.994   4.334   9.389  1.00  0.00     0.163 HD
BRANCH   4   7
ATOM      7  C   UNL     1       2.070   2.279   6.885  1.00  0.00     0.047 C 
ATOM      8  C   UNL     1       1.373   2.995   5.973  1.00  0.00     0.022 C 
BRANCH   8   9
ATOM      9  C   UNL     1       1.004   2.637   4.585  1.00  0.00    -0.025 A 
ATOM     10  C   UNL     1       0.449   2.067   1.891  1.00  0.00     0.067 A 
ATOM     11  C   UNL     1       0.171   1.116   2.874  1.00  0.00     0.021 A 
ATOM     12  C   UNL     1       0.954   3.318   2.243  1.00  0.00     0.021 A 
ATOM     13  C   UNL     1       0.433   1.412   4.216  1.00  0.00     0.009 A 
ATOM     14  C   UNL     1       1.226   3.599   3.586  1.00  0.00     0.009 A 
BRANCH  10  15
ATOM     15  S   UNL     1       0.173   1.686   0.178  1.00  0.00     0.175 S 
ATOM     16  C   UNL     1       0.965   0.121  -0.080  1.00  0.00     0.163 C 
ATOM     17  O   UNL     1       0.905   2.657  -0.610  1.00  0.00    -0.224 OA
ATOM     18  O   UNL     1      -1.257   1.500   0.008  1.00  0.00    -0.224 OA
ENDBRANCH  10  15
ENDBRANCH   8   9
BRANCH   7  19
ATOM     19  C   UNL     1       2.347   0.837   6.660  1.00  0.00    -0.013 A 
ATOM     20  C   UNL     1       1.620  -0.113   7.399  1.00  0.00     0.013 A 
ATOM     21  C   UNL     1       3.235   0.390   5.672  1.00  0.00     0.013 A 
ATOM     22  C   UNL     1       1.742  -1.475   7.128  1.00  0.00     0.047 A 
ATOM     23  C   UNL     1       3.350  -0.977   5.392  1.00  0.00     0.047 A 
ATOM     24  C   UNL     1       2.590  -1.894   6.113  1.00  0.00     0.115 A 
BRANCH  24  25
ATOM     25  O   UNL     1       2.635  -3.229   5.841  1.00  0.00    -0.508 OA
ATOM     26  H   UNL     1       2.114  -3.828   6.340  1.00  0.00     0.293 HD
ENDBRANCH  24  25
ENDBRANCH   7  19
ENDBRANCH   4   7
ENDBRANCH   2   3
ENDBRANCH   1   2
BRANCH   1  27
ATOM     27  C   UNL     1       1.597   6.910   9.222  1.00  0.00     0.118 C 
BRANCH  27  28
ATOM     28  N   UNL     1       2.672   7.878   9.383  1.00  0.00    -0.352 N 
ATOM     29  C   UNL     1       2.621   9.214   9.694  1.00  0.00     0.251 C 
ATOM     30  H   UNL     1       3.578   7.518   9.247  1.00  0.00     0.163 HD
ATOM     31  O   UNL     1       3.638   9.893   9.570  1.00  0.00    -0.269 OA
BRANCH  29  32
ATOM     32  C   UNL     1       1.366   9.845  10.162  1.00  0.00     0.039 A 
ATOM     33  C   UNL     1       1.041  11.121   9.690  1.00  0.00     0.014 A 
ATOM     34  C   UNL     1       0.541   9.221  11.102  1.00  0.00     0.014 A 
ATOM     35  C   UNL     1      -0.133  11.748  10.120  1.00  0.00     0.010 A 
ATOM     36  C   UNL     1      -0.658   9.823  11.487  1.00  0.00     0.010 A 
ATOM     37  C   UNL     1      -1.006  11.093  11.003  1.00  0.00    -0.014 A 
BRANCH  37  38
ATOM     38  C   UNL     1      -2.289  11.720  11.418  1.00  0.00     0.031 A 
ATOM     39  C   UNL     1      -2.517  12.119  12.851  1.00  0.00     0.074 A 
ATOM     40  C   UNL     1      -3.274  11.878  10.511  1.00  0.00     0.049 A 
ATOM     41  N   UNL     1      -3.588  12.629  13.404  1.00  0.00    -0.248 NA
ATOM     42  C   UNL     1      -1.404  11.898  13.788  1.00  0.00     0.031 C 
ATOM     43  C   UNL     1      -3.193  11.499   9.099  1.00  0.00     0.029 A 
ATOM     44  N   UNL     1      -4.539  12.393  10.645  1.00  0.00    -0.354 N 
ATOM     45  C   UNL     1      -3.288  12.771  14.754  1.00  0.00     0.074 A 
ATOM     46  C   UNL     1      -1.947  12.259  14.943  1.00  0.00     0.031 C 
ATOM     47  C   UNL     1      -4.350  11.813   8.493  1.00  0.00     0.029 A 
ATOM     48  C   UNL     1      -5.265  12.381   9.477  1.00  0.00     0.049 A 
ATOM     49  H   UNL     1      -4.893  12.738  11.496  1.00  0.00     0.167 HD
ATOM     50  C   UNL     1      -4.051  13.294  15.745  1.00  0.00     0.031 A 
ATOM     51  C   UNL     1      -6.528  12.777   9.225  1.00  0.00     0.031 A 
ATOM     52  C   UNL     1      -5.380  13.814  15.555  1.00  0.00     0.049 A 
ATOM     53  C   UNL     1      -7.355  13.356  10.339  1.00  0.00     0.074 A 
ATOM     54  C   UNL     1      -6.211  14.414  16.485  1.00  0.00     0.029 A 
ATOM     55  N   UNL     1      -6.073  13.797  14.354  1.00  0.00    -0.354 N 
ATOM     56  N   UNL     1      -7.030  13.536  11.597  1.00  0.00    -0.248 NA
ATOM     57  C   UNL     1      -8.714  13.797   9.996  1.00  0.00     0.031 C 
ATOM     58  C   UNL     1      -7.423  14.721  15.857  1.00  0.00     0.029 A 
ATOM     59  C   UNL     1      -7.328  14.357  14.523  1.00  0.00     0.049 A 
ATOM     60  H   UNL     1      -5.724  13.438  13.506  1.00  0.00     0.167 HD
ATOM     61  C   UNL     1      -8.137  14.130  12.191  1.00  0.00     0.074 A 
ATOM     62  C   UNL     1      -9.134  14.293  11.152  1.00  0.00     0.031 C 
ATOM     63  C   UNL     1      -8.312  14.508  13.481  1.00  0.00     0.031 A 
BRANCH  50  64
ATOM     64  C   UNL     1      -3.465  13.320  17.132  1.00  0.00    -0.014 A 
ATOM     65  C   UNL     1      -2.420  14.203  17.461  1.00  0.00     0.010 A 
ATOM     66  C   UNL     1      -3.985  12.475  18.128  1.00  0.00     0.010 A 
ATOM     67  C   UNL     1      -1.875  14.207  18.748  1.00  0.00     0.020 A 
ATOM     68  C   UNL     1      -3.460  12.494  19.424  1.00  0.00     0.020 A 
ATOM     69  C   UNL     1      -2.394  13.346  19.720  1.00  0.00     0.054 A 
BRANCH  69  70
ATOM     70  S   UNL     1      -1.676  13.377  21.386  1.00  0.00     0.124 S 
ATOM     71  O   UNL     1      -0.417  12.665  21.182  1.00  0.00    -0.237 OA
ATOM     72  O   UNL     1      -1.550  14.807  21.656  1.00  0.00    -0.237 OA
ATOM     73  O   UNL     1      -2.663  12.677  22.202  1.00  0.00    -0.744 OA
ENDBRANCH  69  70
ENDBRANCH  50  64
BRANCH  51  74
ATOM     74  C   UNL     1      -7.080  12.653   7.850  1.00  0.00    -0.014 A 
ATOM     75  C   UNL     1      -7.264  13.796   7.053  1.00  0.00     0.010 A 
ATOM     76  C   UNL     1      -7.400  11.390   7.321  1.00  0.00     0.010 A 
ATOM     77  C   UNL     1      -7.771  13.680   5.755  1.00  0.00     0.020 A 
ATOM     78  C   UNL     1      -7.884  11.267   6.016  1.00  0.00     0.020 A 
ATOM     79  C   UNL     1      -8.076  12.415   5.244  1.00  0.00     0.054 A 
BRANCH  79  80
ATOM     80  S   UNL     1      -8.672  12.281   3.536  1.00  0.00     0.124 S 
ATOM     81  O   UNL     1     -10.058  12.720   3.664  1.00  0.00    -0.237 OA
ATOM     82  O   UNL     1      -7.783  13.191   2.817  1.00  0.00    -0.237 OA
ATOM     83  O   UNL     1      -8.488  10.866   3.222  1.00  0.00    -0.744 OA
ENDBRANCH  79  80
ENDBRANCH  51  74
BRANCH  63  84
ATOM     84  C   UNL     1      -9.621  15.158  13.838  1.00  0.00    -0.014 A 
ATOM     85  C   UNL     1     -10.803  14.403  13.940  1.00  0.00     0.010 A 
ATOM     86  C   UNL     1      -9.659  16.536  14.118  1.00  0.00     0.010 A 
ATOM     87  C   UNL     1     -12.007  15.022  14.285  1.00  0.00     0.020 A 
ATOM     88  C   UNL     1     -10.856  17.154  14.487  1.00  0.00     0.020 A 
ATOM     89  C   UNL     1     -12.027  16.395  14.554  1.00  0.00     0.054 A 
BRANCH  89  90
ATOM     90  S   UNL     1     -13.594  17.170  15.039  1.00  0.00     0.124 S 
ATOM     91  O   UNL     1     -14.293  17.266  13.761  1.00  0.00    -0.237 OA
ATOM     92  O   UNL     1     -14.149  16.209  15.989  1.00  0.00    -0.237 OA
ATOM     93  O   UNL     1     -13.182  18.445  15.622  1.00  0.00    -0.744 OA
ENDBRANCH  89  90
ENDBRANCH  63  84
ENDBRANCH  37  38
ENDBRANCH  29  32
ENDBRANCH  27  28
ENDBRANCH   1  27
TORSDOF 17
