REMARK SMILES C[C@H](C(=O)NCCCNC(=O)c1ccc(-c2c3nc(c(-c4ccc(S(=O)(=O)[O-])cc4)c4ccc([nH]4)c(-c4ccc(S(=O)(=O)[O-])cc4)c4nc(c(-c5ccc(S(=O)(=O)[O-])cc5)c5ccc2[nH]5)C=C4)C=C3)cc1)c1ccc2c3cc(Cl)ccc3n(C(=O)c3ccc(Cl)cc3)c2c1
REMARK SMILES IDX 7 1 6 2 5 3 3 4 4 5 2 7 1 8 72 9 73 10 94 11 74 12 93 13
REMARK SMILES IDX 75 14 83 15 76 16 82 17 77 18 81 19 78 20 80 21 79 22 84 23
REMARK SMILES IDX 85 24 86 25 87 26 92 27 88 28 91 29 89 30 90 31 8 32 9 33
REMARK SMILES IDX 10 34 11 36 12 37 13 38 71 39 14 40 70 41 15 42 16 43 17 44
REMARK SMILES IDX 64 45 18 46 69 47 63 48 65 49 19 50 68 51 62 52 61 53 20 55
REMARK SMILES IDX 50 56 31 57 49 58 32 59 35 60 48 61 66 62 33 63 34 64 47 66
REMARK SMILES IDX 67 67 36 68 21 69 22 70 30 71 23 72 29 73 24 74 25 75 26 76
REMARK SMILES IDX 27 77 28 78 51 79 52 80 60 81 53 82 59 83 54 84 55 85 56 86
REMARK SMILES IDX 57 87 58 88 37 89 38 90 46 91 39 92 45 93 40 94 41 95 42 96
REMARK SMILES IDX 43 97 44 98
REMARK H PARENT 5 6 9 35 65 54 35 65
REMARK Flexibility Score: inf
ROOT
ATOM      1  C   UNL     1      -0.772  -2.045  -2.378  1.00  0.00     0.042 C 
ENDROOT
BRANCH   1   2
ATOM      2  C   UNL     1      -0.653  -1.235  -1.096  1.00  0.00     0.117 C 
BRANCH   2   3
ATOM      3  N   UNL     1       0.697  -1.004  -0.613  1.00  0.00    -0.356 N 
ATOM      4  C   UNL     1       1.194  -0.010   0.180  1.00  0.00     0.227 C 
ATOM      5  O   UNL     1       2.272  -0.260   0.738  1.00  0.00    -0.274 OA
ATOM      6  H   UNL     1       1.360  -1.671  -0.904  1.00  0.00     0.163 HD
BRANCH   4   7
ATOM      7  C   UNL     1       0.613   1.412   0.278  1.00  0.00     0.105 C 
ATOM      8  C   UNL     1       1.222   2.189  -0.903  1.00  0.00     0.023 C 
BRANCH   7   9
ATOM      9  C   UNL     1      -0.898   1.580   0.425  1.00  0.00    -0.034 A 
ATOM     10  C   UNL     1      -1.563   2.688  -0.113  1.00  0.00     0.005 A 
ATOM     11  C   UNL     1      -1.660   0.610   1.098  1.00  0.00     0.032 A 
ATOM     12  C   UNL     1      -2.958   2.752  -0.158  1.00  0.00     0.011 A 
ATOM     13  C   UNL     1      -3.064   0.607   0.936  1.00  0.00     0.057 A 
ATOM     14  C   UNL     1      -3.715   1.660   0.303  1.00  0.00     0.008 A 
ATOM     15  N   UNL     1      -4.013  -0.397   1.189  1.00  0.00    -0.276 N 
ATOM     16  C   UNL     1      -5.103   1.359   0.282  1.00  0.00     0.009 A 
ATOM     17  C   UNL     1      -5.281   0.107   0.880  1.00  0.00     0.057 A 
ATOM     18  C   UNL     1      -6.222   2.069  -0.204  1.00  0.00     0.031 A 
ATOM     19  C   UNL     1      -6.576  -0.406   1.095  1.00  0.00     0.029 A 
ATOM     20  C   UNL     1      -7.496   1.536  -0.034  1.00  0.00     0.041 A 
ATOM     21  C   UNL     1      -7.674   0.321   0.616  1.00  0.00     0.023 A 
ATOM     22  Cl  UNL     1      -8.863   2.412  -0.604  1.00  0.00    -0.084 Cl
BRANCH  15  23
ATOM     23  C   UNL     1      -3.662  -1.698   1.633  1.00  0.00     0.262 C 
ATOM     24  O   UNL     1      -2.725  -1.754   2.432  1.00  0.00    -0.268 OA
BRANCH  23  25
ATOM     25  C   UNL     1      -4.228  -3.009   1.178  1.00  0.00     0.040 A 
ATOM     26  C   UNL     1      -3.709  -4.173   1.782  1.00  0.00     0.015 A 
ATOM     27  C   UNL     1      -5.136  -3.160   0.124  1.00  0.00     0.015 A 
ATOM     28  C   UNL     1      -4.115  -5.447   1.374  1.00  0.00     0.021 A 
ATOM     29  C   UNL     1      -5.574  -4.438  -0.258  1.00  0.00     0.021 A 
ATOM     30  C   UNL     1      -5.062  -5.574   0.367  1.00  0.00     0.041 A 
ATOM     31  Cl  UNL     1      -5.591  -7.137  -0.118  1.00  0.00    -0.084 Cl
ENDBRANCH  23  25
ENDBRANCH  15  23
ENDBRANCH   7   9
ENDBRANCH   4   7
ENDBRANCH   2   3
ENDBRANCH   1   2
BRANCH   1  32
ATOM     32  C   UNL     1      -0.026  -3.371  -2.422  1.00  0.00     0.118 C 
BRANCH  32  33
ATOM     33  N   UNL     1      -0.546  -4.398  -1.528  1.00  0.00    -0.352 N 
ATOM     34  C   UNL     1      -1.162  -5.603  -1.790  1.00  0.00     0.251 C 
ATOM     35  H   UNL     1      -0.439  -4.196  -0.570  1.00  0.00     0.163 HD
ATOM     36  O   UNL     1      -1.542  -6.296  -0.848  1.00  0.00    -0.269 OA
BRANCH  34  37
ATOM     37  C   UNL     1      -1.434  -6.047  -3.181  1.00  0.00     0.039 A 
ATOM     38  C   UNL     1      -2.690  -6.588  -3.476  1.00  0.00     0.014 A 
ATOM     39  C   UNL     1      -0.489  -5.923  -4.199  1.00  0.00     0.014 A 
ATOM     40  C   UNL     1      -3.041  -6.865  -4.803  1.00  0.00     0.010 A 
ATOM     41  C   UNL     1      -0.868  -6.111  -5.529  1.00  0.00     0.010 A 
ATOM     42  C   UNL     1      -2.160  -6.553  -5.850  1.00  0.00    -0.014 A 
BRANCH  42  43
ATOM     43  C   UNL     1      -2.590  -6.598  -7.277  1.00  0.00     0.031 A 
ATOM     44  C   UNL     1      -1.879  -7.478  -8.272  1.00  0.00     0.074 A 
ATOM     45  C   UNL     1      -3.553  -5.751  -7.703  1.00  0.00     0.049 A 
ATOM     46  N   UNL     1      -2.031  -7.539  -9.571  1.00  0.00    -0.248 NA
ATOM     47  C   UNL     1      -0.847  -8.387  -7.747  1.00  0.00     0.031 C 
ATOM     48  C   UNL     1      -4.287  -4.804  -6.858  1.00  0.00     0.029 A 
ATOM     49  N   UNL     1      -4.064  -5.530  -8.960  1.00  0.00    -0.354 N 
ATOM     50  C   UNL     1      -1.099  -8.466 -10.021  1.00  0.00     0.074 A 
ATOM     51  C   UNL     1      -0.367  -8.925  -8.861  1.00  0.00     0.031 C 
ATOM     52  C   UNL     1      -5.157  -4.116  -7.615  1.00  0.00     0.029 A 
ATOM     53  C   UNL     1      -5.011  -4.531  -9.005  1.00  0.00     0.049 A 
ATOM     54  H   UNL     1      -3.780  -6.038  -9.754  1.00  0.00     0.167 HD
ATOM     55  C   UNL     1      -0.879  -8.903 -11.284  1.00  0.00     0.031 A 
ATOM     56  C   UNL     1      -5.671  -3.986 -10.046  1.00  0.00     0.031 A 
ATOM     57  C   UNL     1      -1.631  -8.476 -12.435  1.00  0.00     0.049 A 
ATOM     58  C   UNL     1      -5.399  -4.487 -11.438  1.00  0.00     0.074 A 
ATOM     59  C   UNL     1      -1.546  -8.946 -13.735  1.00  0.00     0.029 A 
ATOM     60  N   UNL     1      -2.592  -7.479 -12.432  1.00  0.00    -0.354 N 
ATOM     61  N   UNL     1      -4.580  -5.435 -11.825  1.00  0.00    -0.248 NA
ATOM     62  C   UNL     1      -6.136  -3.841 -12.534  1.00  0.00     0.031 C 
ATOM     63  C   UNL     1      -2.417  -8.194 -14.530  1.00  0.00     0.029 A 
ATOM     64  C   UNL     1      -3.079  -7.291 -13.715  1.00  0.00     0.049 A 
ATOM     65  H   UNL     1      -2.886  -6.980 -11.637  1.00  0.00     0.167 HD
ATOM     66  C   UNL     1      -4.715  -5.507 -13.207  1.00  0.00     0.074 A 
ATOM     67  C   UNL     1      -5.710  -4.526 -13.586  1.00  0.00     0.031 C 
ATOM     68  C   UNL     1      -4.066  -6.311 -14.083  1.00  0.00     0.031 A 
BRANCH  55  69
ATOM     69  C   UNL     1       0.222  -9.905 -11.509  1.00  0.00    -0.014 A 
ATOM     70  C   UNL     1       0.064 -11.251 -11.135  1.00  0.00     0.010 A 
ATOM     71  C   UNL     1       1.383  -9.517 -12.202  1.00  0.00     0.010 A 
ATOM     72  C   UNL     1       1.055 -12.188 -11.438  1.00  0.00     0.020 A 
ATOM     73  C   UNL     1       2.367 -10.455 -12.526  1.00  0.00     0.020 A 
ATOM     74  C   UNL     1       2.199 -11.785 -12.135  1.00  0.00     0.054 A 
BRANCH  74  75
ATOM     75  S   UNL     1       3.435 -13.038 -12.575  1.00  0.00     0.124 S 
ATOM     76  O   UNL     1       4.059 -13.312 -11.282  1.00  0.00    -0.237 OA
ATOM     77  O   UNL     1       2.617 -14.119 -13.118  1.00  0.00    -0.237 OA
ATOM     78  O   UNL     1       4.289 -12.358 -13.546  1.00  0.00    -0.744 OA
ENDBRANCH  74  75
ENDBRANCH  55  69
BRANCH  56  79
ATOM     79  C   UNL     1      -6.633  -2.872  -9.826  1.00  0.00    -0.014 A 
ATOM     80  C   UNL     1      -8.013  -3.070 -10.013  1.00  0.00     0.010 A 
ATOM     81  C   UNL     1      -6.170  -1.595  -9.457  1.00  0.00     0.010 A 
ATOM     82  C   UNL     1      -8.907  -2.006  -9.868  1.00  0.00     0.020 A 
ATOM     83  C   UNL     1      -7.064  -0.536  -9.283  1.00  0.00     0.020 A 
ATOM     84  C   UNL     1      -8.426  -0.744  -9.509  1.00  0.00     0.054 A 
BRANCH  84  85
ATOM     85  S   UNL     1      -9.603   0.622  -9.305  1.00  0.00     0.124 S 
ATOM     86  O   UNL     1      -9.885   0.986 -10.689  1.00  0.00    -0.237 OA
ATOM     87  O   UNL     1     -10.701  -0.011  -8.579  1.00  0.00    -0.237 OA
ATOM     88  O   UNL     1      -8.846   1.609  -8.537  1.00  0.00    -0.744 OA
ENDBRANCH  84  85
ENDBRANCH  56  79
BRANCH  68  89
ATOM     89  C   UNL     1      -4.415  -6.175 -15.540  1.00  0.00    -0.014 A 
ATOM     90  C   UNL     1      -3.965  -5.074 -16.288  1.00  0.00     0.010 A 
ATOM     91  C   UNL     1      -5.144  -7.192 -16.183  1.00  0.00     0.010 A 
ATOM     92  C   UNL     1      -4.254  -4.981 -17.652  1.00  0.00     0.020 A 
ATOM     93  C   UNL     1      -5.414  -7.115 -17.552  1.00  0.00     0.020 A 
ATOM     94  C   UNL     1      -4.975  -6.004 -18.276  1.00  0.00     0.054 A 
BRANCH  94  95
ATOM     95  S   UNL     1      -5.285  -5.889 -20.059  1.00  0.00     0.124 S 
ATOM     96  O   UNL     1      -6.330  -4.871 -20.121  1.00  0.00    -0.237 OA
ATOM     97  O   UNL     1      -3.983  -5.487 -20.587  1.00  0.00    -0.237 OA
ATOM     98  O   UNL     1      -5.708  -7.240 -20.424  1.00  0.00    -0.744 OA
ENDBRANCH  94  95
ENDBRANCH  68  89
ENDBRANCH  42  43
ENDBRANCH  34  37
ENDBRANCH  32  33
ENDBRANCH   1  32
TORSDOF 16
