REMARK SMILES CN1C(=O)C[C@@H](C(=O)NCCCNC(=O)c2ccc(-c3c4nc(c(-c5ccc(S(=O)(=O)[O-])cc5)c5ccc([nH]5)c(-c5ccc(S(=O)(=O)[O-])cc5)c5nc(c(-c6ccc(S(=O)(=O)[O-])cc6)c6ccc3[nH]6)C=C5)C=C4)cc2)C12CCN(c1ccc(Cl)cn1)CC2
REMARK SMILES IDX 12 1 11 2 10 3 9 4 7 5 8 6 6 8 1 9 2 10 3 11 76 12 4 13 5 14
REMARK SMILES IDX 77 15 88 16 78 17 87 18 79 19 80 20 81 21 86 22 82 23 85 24
REMARK SMILES IDX 83 25 84 26 13 27 14 28 15 30 16 31 17 32 75 33 18 34 74 35
REMARK SMILES IDX 19 36 20 37 21 38 68 39 22 40 73 41 67 42 69 43 23 44 72 45
REMARK SMILES IDX 66 46 65 47 24 49 54 50 35 51 53 52 36 53 39 54 52 55 70 56
REMARK SMILES IDX 37 57 38 58 51 60 71 61 40 62 25 63 26 64 34 65 27 66 33 67
REMARK SMILES IDX 28 68 29 69 30 70 31 71 32 72 55 73 56 74 64 75 57 76 63 77
REMARK SMILES IDX 58 78 59 79 60 80 61 81 62 82 41 83 42 84 50 85 43 86 49 87
REMARK SMILES IDX 44 88 45 89 46 90 47 91 48 92
REMARK H PARENT 9 7 13 29 69 48 39 59
REMARK Flexibility Score: inf
ROOT
ATOM      1  C   UNL     1      -2.378  -2.356   2.010  1.00  0.00     0.118 C 
ENDROOT
BRANCH   1   2
ATOM      2  C   UNL     1      -1.512  -1.511   1.085  1.00  0.00     0.042 C 
BRANCH   2   3
ATOM      3  C   UNL     1      -2.281  -0.403   0.367  1.00  0.00     0.117 C 
BRANCH   3   4
ATOM      4  N   UNL     1      -2.826   0.612   1.258  1.00  0.00    -0.356 N 
ATOM      5  C   UNL     1      -2.522   1.905   1.519  1.00  0.00     0.226 C 
ATOM      6  O   UNL     1      -3.279   2.484   2.309  1.00  0.00    -0.275 OA
ATOM      7  H   UNL     1      -3.587   0.284   1.789  1.00  0.00     0.163 HD
BRANCH   5   8
ATOM      8  C   UNL     1      -1.326   2.676   0.962  1.00  0.00     0.113 C 
ATOM      9  C   UNL     1       1.576   0.474   0.155  1.00  0.00     0.147 C 
ATOM     10  N   UNL     1       0.473   1.418   0.191  1.00  0.00    -0.339 N 
ATOM     11  C   UNL     1      -0.197   1.815  -0.958  1.00  0.00     0.223 C 
ATOM     12  C   UNL     1       0.088   2.206   1.373  1.00  0.00     0.058 C 
ATOM     13  O   UNL     1       0.030   1.453  -2.104  1.00  0.00    -0.275 OA
ATOM     14  C   UNL     1      -1.307   2.751  -0.564  1.00  0.00     0.116 C 
ATOM     15  C   UNL     1       0.131   1.407   2.695  1.00  0.00     0.051 C 
ATOM     16  C   UNL     1       1.054   3.434   1.483  1.00  0.00     0.051 C 
ATOM     17  C   UNL     1      -0.088   2.289   3.913  1.00  0.00     0.120 C 
ATOM     18  C   UNL     1       0.887   4.244   2.780  1.00  0.00     0.120 C 
ATOM     19  N   UNL     1       0.943   3.306   3.882  1.00  0.00    -0.356 N 
BRANCH  19  20
ATOM     20  C   UNL     1       1.536   3.648   5.077  1.00  0.00     0.128 A 
ATOM     21  C   UNL     1       2.272   2.675   5.762  1.00  0.00     0.048 A 
ATOM     22  N   UNL     1       1.403   4.899   5.561  1.00  0.00    -0.238 NA
ATOM     23  C   UNL     1       2.870   2.974   6.982  1.00  0.00     0.026 A 
ATOM     24  C   UNL     1       1.968   5.161   6.769  1.00  0.00     0.134 A 
ATOM     25  C   UNL     1       2.702   4.243   7.505  1.00  0.00     0.059 A 
ATOM     26  Cl  UNL     1       3.390   4.662   9.019  1.00  0.00    -0.083 Cl
ENDBRANCH  19  20
ENDBRANCH   5   8
ENDBRANCH   3   4
ENDBRANCH   2   3
ENDBRANCH   1   2
BRANCH   1  27
ATOM     27  N   UNL     1      -3.296  -3.189   1.251  1.00  0.00    -0.352 N 
ATOM     28  C   UNL     1      -3.272  -4.541   1.021  1.00  0.00     0.251 C 
ATOM     29  H   UNL     1      -4.051  -2.709   0.839  1.00  0.00     0.163 HD
ATOM     30  O   UNL     1      -3.918  -4.993   0.079  1.00  0.00    -0.269 OA
BRANCH  28  31
ATOM     31  C   UNL     1      -2.489  -5.452   1.889  1.00  0.00     0.039 A 
ATOM     32  C   UNL     1      -1.913  -6.590   1.319  1.00  0.00     0.014 A 
ATOM     33  C   UNL     1      -2.383  -5.239   3.267  1.00  0.00     0.014 A 
ATOM     34  C   UNL     1      -1.212  -7.492   2.123  1.00  0.00     0.010 A 
ATOM     35  C   UNL     1      -1.603  -6.089   4.051  1.00  0.00     0.010 A 
ATOM     36  C   UNL     1      -1.029  -7.238   3.494  1.00  0.00    -0.014 A 
BRANCH  36  37
ATOM     37  C   UNL     1      -0.244  -8.178   4.337  1.00  0.00     0.031 A 
ATOM     38  C   UNL     1      -0.890  -8.911   5.485  1.00  0.00     0.074 A 
ATOM     39  C   UNL     1       1.064  -8.364   4.070  1.00  0.00     0.049 A 
ATOM     40  N   UNL     1      -0.372  -9.812   6.281  1.00  0.00    -0.248 NA
ATOM     41  C   UNL     1      -2.289  -8.574   5.797  1.00  0.00     0.031 C 
ATOM     42  C   UNL     1       1.821  -7.668   3.025  1.00  0.00     0.029 A 
ATOM     43  N   UNL     1       1.987  -9.204   4.641  1.00  0.00    -0.354 N 
ATOM     44  C   UNL     1      -1.374 -10.141   7.188  1.00  0.00     0.074 A 
ATOM     45  C   UNL     1      -2.509  -9.299   6.884  1.00  0.00     0.031 C 
ATOM     46  C   UNL     1       3.073  -8.149   2.994  1.00  0.00     0.029 A 
ATOM     47  C   UNL     1       3.222  -9.156   4.038  1.00  0.00     0.049 A 
ATOM     48  H   UNL     1       1.784  -9.785   5.409  1.00  0.00     0.167 HD
ATOM     49  C   UNL     1      -1.361 -11.076   8.170  1.00  0.00     0.031 A 
ATOM     50  C   UNL     1       4.348  -9.852   4.289  1.00  0.00     0.031 A 
ATOM     51  C   UNL     1      -0.230 -11.916   8.465  1.00  0.00     0.049 A 
ATOM     52  C   UNL     1       4.334 -10.892   5.374  1.00  0.00     0.074 A 
ATOM     53  C   UNL     1      -0.133 -12.934   9.398  1.00  0.00     0.029 A 
ATOM     54  N   UNL     1       1.004 -11.832   7.837  1.00  0.00    -0.354 N 
ATOM     55  N   UNL     1       3.349 -11.245   6.166  1.00  0.00    -0.248 NA
ATOM     56  C   UNL     1       5.580 -11.639   5.587  1.00  0.00     0.031 C 
ATOM     57  C   UNL     1       1.178 -13.424   9.376  1.00  0.00     0.029 A 
ATOM     58  C   UNL     1       1.878 -12.758   8.382  1.00  0.00     0.049 A 
ATOM     59  H   UNL     1       1.226 -11.207   7.110  1.00  0.00     0.167 HD
ATOM     60  C   UNL     1       3.852 -12.268   6.961  1.00  0.00     0.074 A 
ATOM     61  C   UNL     1       5.217 -12.497   6.529  1.00  0.00     0.031 C 
ATOM     62  C   UNL     1       3.242 -12.956   7.960  1.00  0.00     0.031 A 
BRANCH  49  63
ATOM     63  C   UNL     1      -2.611 -11.235   9.001  1.00  0.00    -0.014 A 
ATOM     64  C   UNL     1      -3.796 -11.753   8.445  1.00  0.00     0.010 A 
ATOM     65  C   UNL     1      -2.591 -10.897  10.367  1.00  0.00     0.010 A 
ATOM     66  C   UNL     1      -4.947 -11.889   9.226  1.00  0.00     0.020 A 
ATOM     67  C   UNL     1      -3.732 -11.061  11.160  1.00  0.00     0.020 A 
ATOM     68  C   UNL     1      -4.908 -11.539  10.579  1.00  0.00     0.054 A 
BRANCH  68  69
ATOM     69  S   UNL     1      -6.411 -11.746  11.573  1.00  0.00     0.124 S 
ATOM     70  O   UNL     1      -7.261 -10.674  11.062  1.00  0.00    -0.237 OA
ATOM     71  O   UNL     1      -6.837 -13.101  11.231  1.00  0.00    -0.237 OA
ATOM     72  O   UNL     1      -5.947 -11.571  12.947  1.00  0.00    -0.744 OA
ENDBRANCH  68  69
ENDBRANCH  49  63
BRANCH  50  73
ATOM     73  C   UNL     1       5.571  -9.601   3.477  1.00  0.00    -0.014 A 
ATOM     74  C   UNL     1       6.041 -10.567   2.570  1.00  0.00     0.010 A 
ATOM     75  C   UNL     1       6.261  -8.381   3.594  1.00  0.00     0.010 A 
ATOM     76  C   UNL     1       7.189 -10.324   1.808  1.00  0.00     0.020 A 
ATOM     77  C   UNL     1       7.389  -8.121   2.812  1.00  0.00     0.020 A 
ATOM     78  C   UNL     1       7.853  -9.100   1.932  1.00  0.00     0.054 A 
BRANCH  78  79
ATOM     79  S   UNL     1       9.305  -8.783   0.892  1.00  0.00     0.124 S 
ATOM     80  O   UNL     1      10.313  -9.640   1.508  1.00  0.00    -0.237 OA
ATOM     81  O   UNL     1       8.843  -9.197  -0.430  1.00  0.00    -0.237 OA
ATOM     82  O   UNL     1       9.526  -7.347   1.044  1.00  0.00    -0.744 OA
ENDBRANCH  78  79
ENDBRANCH  50  73
BRANCH  62  83
ATOM     83  C   UNL     1       4.053 -14.026   8.643  1.00  0.00    -0.014 A 
ATOM     84  C   UNL     1       5.149 -13.700   9.462  1.00  0.00     0.010 A 
ATOM     85  C   UNL     1       3.708 -15.379   8.469  1.00  0.00     0.010 A 
ATOM     86  C   UNL     1       5.923 -14.707  10.043  1.00  0.00     0.020 A 
ATOM     87  C   UNL     1       4.458 -16.389   9.077  1.00  0.00     0.020 A 
ATOM     88  C   UNL     1       5.576 -16.047   9.840  1.00  0.00     0.054 A 
BRANCH  88  89
ATOM     89  S   UNL     1       6.598 -17.337  10.601  1.00  0.00     0.124 S 
ATOM     90  O   UNL     1       7.796 -17.305   9.767  1.00  0.00    -0.237 OA
ATOM     91  O   UNL     1       6.768 -16.847  11.967  1.00  0.00    -0.237 OA
ATOM     92  O   UNL     1       5.782 -18.543  10.476  1.00  0.00    -0.744 OA
ENDBRANCH  88  89
ENDBRANCH  62  83
ENDBRANCH  36  37
ENDBRANCH  28  31
ENDBRANCH   1  27
TORSDOF 14
