REMARK SMILES CCC[C@H](Cc1ccn(-c2ccccc2)n1)C(=O)NCCCNC(=O)c1ccc(-c2c3nc(c(-c4ccc(S(=O)(=O)[O-])cc4)c4ccc([nH]4)c(-c4ccc(S(=O)(=O)[O-])cc4)c4nc(c(-c5ccc(S(=O)(=O)[O-])cc5)c5ccc2[nH]5)C=C4)C=C3)cc1
REMARK SMILES IDX 21 1 20 2 19 3 17 4 18 5 4 7 3 8 2 9 1 10 5 11 6 12 7 13
REMARK SMILES IDX 16 14 8 15 9 16 10 17 11 18 15 19 12 20 14 21 13 22 22 23
REMARK SMILES IDX 23 24 24 25 25 27 26 28 27 29 85 30 28 31 84 32 29 33 30 34
REMARK SMILES IDX 31 35 78 36 32 37 83 38 77 39 79 40 33 41 82 42 76 43 75 44
REMARK SMILES IDX 34 46 64 47 45 48 63 49 46 50 49 51 62 52 80 53 47 54 48 55
REMARK SMILES IDX 61 57 81 58 50 59 35 60 36 61 44 62 37 63 43 64 38 65 39 66
REMARK SMILES IDX 40 67 41 68 42 69 65 70 66 71 74 72 67 73 73 74 68 75 69 76
REMARK SMILES IDX 70 77 71 78 72 79 51 80 52 81 60 82 53 83 59 84 54 85 55 86
REMARK SMILES IDX 56 87 57 88 58 89
REMARK H PARENT 19 6 23 26 79 45 49 56
REMARK Flexibility Score: inf
ROOT
ATOM      1  C   UNL     1       0.334   1.996   5.876  1.00  0.00     0.042 C 
ENDROOT
BRANCH   1   2
ATOM      2  C   UNL     1      -0.395   2.828   4.826  1.00  0.00     0.117 C 
BRANCH   2   3
ATOM      3  N   UNL     1       0.540   3.450   3.906  1.00  0.00    -0.356 N 
ATOM      4  C   UNL     1       0.919   3.115   2.649  1.00  0.00     0.223 C 
ATOM      5  O   UNL     1       1.841   3.776   2.157  1.00  0.00    -0.275 OA
ATOM      6  H   UNL     1       0.976   4.259   4.258  1.00  0.00     0.163 HD
BRANCH   4   7
ATOM      7  C   UNL     1       0.278   2.001   1.826  1.00  0.00     0.084 C 
BRANCH   7   8
ATOM      8  C   UNL     1      -1.231   2.156   1.583  1.00  0.00     0.013 C 
BRANCH   8   9
ATOM      9  C   UNL     1      -1.572   3.172   0.482  1.00  0.00    -0.003 C 
ATOM     10  C   UNL     1      -1.207   2.687  -0.914  1.00  0.00     0.004 C 
ENDBRANCH   8   9
ENDBRANCH   7   8
BRANCH   7  11
ATOM     11  C   UNL     1       0.774   0.593   2.172  1.00  0.00     0.071 C 
BRANCH  11  12
ATOM     12  C   UNL     1       0.291  -0.125   3.389  1.00  0.00     0.064 A 
ATOM     13  C   UNL     1       1.115  -0.855   4.282  1.00  0.00     0.046 A 
ATOM     14  N   UNL     1      -1.005  -0.214   3.730  1.00  0.00    -0.173 NA
ATOM     15  C   UNL     1       0.249  -1.437   5.170  1.00  0.00     0.115 A 
ATOM     16  N   UNL     1      -1.015  -1.042   4.804  1.00  0.00    -0.241 N 
BRANCH  16  17
ATOM     17  C   UNL     1      -2.175  -1.342   5.543  1.00  0.00     0.065 A 
ATOM     18  C   UNL     1      -2.827  -0.332   6.258  1.00  0.00     0.028 A 
ATOM     19  C   UNL     1      -2.521  -2.685   5.721  1.00  0.00     0.028 A 
ATOM     20  C   UNL     1      -3.788  -0.685   7.207  1.00  0.00     0.002 A 
ATOM     21  C   UNL     1      -3.520  -3.022   6.631  1.00  0.00     0.002 A 
ATOM     22  C   UNL     1      -4.133  -2.026   7.392  1.00  0.00     0.000 A 
ENDBRANCH  16  17
ENDBRANCH  11  12
ENDBRANCH   7  11
ENDBRANCH   4   7
ENDBRANCH   2   3
ENDBRANCH   1   2
BRANCH   1  23
ATOM     23  C   UNL     1       0.634   2.787   7.121  1.00  0.00     0.118 C 
BRANCH  23  24
ATOM     24  N   UNL     1      -0.488   2.853   8.068  1.00  0.00    -0.352 N 
ATOM     25  C   UNL     1      -0.434   3.200   9.414  1.00  0.00     0.251 C 
ATOM     26  H   UNL     1      -1.376   2.625   7.710  1.00  0.00     0.163 HD
ATOM     27  O   UNL     1      -1.384   2.985  10.159  1.00  0.00    -0.269 OA
BRANCH  25  28
ATOM     28  C   UNL     1       0.820   3.799   9.920  1.00  0.00     0.039 A 
ATOM     29  C   UNL     1       1.417   3.403  11.117  1.00  0.00     0.014 A 
ATOM     30  C   UNL     1       1.497   4.630   9.048  1.00  0.00     0.014 A 
ATOM     31  C   UNL     1       2.758   3.736  11.334  1.00  0.00     0.010 A 
ATOM     32  C   UNL     1       2.861   4.666   9.119  1.00  0.00     0.010 A 
ATOM     33  C   UNL     1       3.505   4.319  10.294  1.00  0.00    -0.014 A 
BRANCH  33  34
ATOM     34  C   UNL     1       4.953   4.519  10.372  1.00  0.00     0.031 A 
ATOM     35  C   UNL     1       5.729   3.424  11.007  1.00  0.00     0.074 A 
ATOM     36  C   UNL     1       5.628   5.524   9.764  1.00  0.00     0.049 A 
ATOM     37  N   UNL     1       6.172   3.389  12.219  1.00  0.00    -0.248 NA
ATOM     38  C   UNL     1       5.931   2.174  10.260  1.00  0.00     0.031 C 
ATOM     39  C   UNL     1       5.131   6.557   8.842  1.00  0.00     0.029 A 
ATOM     40  N   UNL     1       6.967   5.768   9.773  1.00  0.00    -0.354 N 
ATOM     41  C   UNL     1       6.934   2.231  12.310  1.00  0.00     0.074 A 
ATOM     42  C   UNL     1       6.569   1.429  11.166  1.00  0.00     0.031 C 
ATOM     43  C   UNL     1       6.164   7.126   8.188  1.00  0.00     0.029 A 
ATOM     44  C   UNL     1       7.388   6.680   8.816  1.00  0.00     0.049 A 
ATOM     45  H   UNL     1       7.585   5.333  10.404  1.00  0.00     0.167 HD
ATOM     46  C   UNL     1       8.001   2.146  13.155  1.00  0.00     0.031 A 
ATOM     47  C   UNL     1       8.654   7.087   8.569  1.00  0.00     0.031 A 
ATOM     48  C   UNL     1       8.053   3.266  14.066  1.00  0.00     0.049 A 
ATOM     49  C   UNL     1       9.428   6.844   9.806  1.00  0.00     0.074 A 
ATOM     50  C   UNL     1       7.186   3.826  14.984  1.00  0.00     0.029 A 
ATOM     51  N   UNL     1       8.993   4.236  13.801  1.00  0.00    -0.354 N 
ATOM     52  N   UNL     1       9.213   7.485  10.921  1.00  0.00    -0.248 NA
ATOM     53  C   UNL     1      10.173   5.604   9.936  1.00  0.00     0.031 C 
ATOM     54  C   UNL     1       7.365   5.237  14.850  1.00  0.00     0.029 A 
ATOM     55  C   UNL     1       8.380   5.458  13.916  1.00  0.00     0.049 A 
ATOM     56  H   UNL     1       9.938   4.081  13.570  1.00  0.00     0.167 HD
ATOM     57  C   UNL     1       9.392   6.536  11.915  1.00  0.00     0.074 A 
ATOM     58  C   UNL     1      10.110   5.445  11.261  1.00  0.00     0.031 C 
ATOM     59  C   UNL     1       8.700   6.608  13.093  1.00  0.00     0.031 A 
BRANCH  46  60
ATOM     60  C   UNL     1       9.222   1.295  12.888  1.00  0.00    -0.014 A 
ATOM     61  C   UNL     1      10.223   1.209  13.879  1.00  0.00     0.010 A 
ATOM     62  C   UNL     1       9.550   0.805  11.607  1.00  0.00     0.010 A 
ATOM     63  C   UNL     1      11.505   0.728  13.580  1.00  0.00     0.020 A 
ATOM     64  C   UNL     1      10.808   0.277  11.311  1.00  0.00     0.020 A 
ATOM     65  C   UNL     1      11.791   0.279  12.290  1.00  0.00     0.054 A 
BRANCH  65  66
ATOM     66  S   UNL     1      13.477  -0.233  11.879  1.00  0.00     0.124 S 
ATOM     67  O   UNL     1      14.194   1.038  11.936  1.00  0.00    -0.237 OA
ATOM     68  O   UNL     1      13.782  -1.183  12.945  1.00  0.00    -0.237 OA
ATOM     69  O   UNL     1      13.340  -0.820  10.549  1.00  0.00    -0.744 OA
ENDBRANCH  65  66
ENDBRANCH  46  60
BRANCH  47  70
ATOM     70  C   UNL     1       9.268   7.471   7.282  1.00  0.00    -0.014 A 
ATOM     71  C   UNL     1      10.525   8.097   7.255  1.00  0.00     0.010 A 
ATOM     72  C   UNL     1       8.759   6.951   6.073  1.00  0.00     0.010 A 
ATOM     73  C   UNL     1      11.295   8.111   6.083  1.00  0.00     0.020 A 
ATOM     74  C   UNL     1       9.518   6.971   4.897  1.00  0.00     0.020 A 
ATOM     75  C   UNL     1      10.799   7.518   4.920  1.00  0.00     0.054 A 
BRANCH  75  76
ATOM     76  S   UNL     1      11.897   7.329   3.485  1.00  0.00     0.124 S 
ATOM     77  O   UNL     1      12.004   8.699   2.993  1.00  0.00    -0.237 OA
ATOM     78  O   UNL     1      13.109   6.776   4.085  1.00  0.00    -0.237 OA
ATOM     79  O   UNL     1      11.169   6.409   2.613  1.00  0.00    -0.744 OA
ENDBRANCH  75  76
ENDBRANCH  47  70
BRANCH  59  80
ATOM     80  C   UNL     1       8.026   7.918  13.452  1.00  0.00    -0.014 A 
ATOM     81  C   UNL     1       7.072   8.567  12.643  1.00  0.00     0.010 A 
ATOM     82  C   UNL     1       8.309   8.468  14.715  1.00  0.00     0.010 A 
ATOM     83  C   UNL     1       6.462   9.760  13.064  1.00  0.00     0.020 A 
ATOM     84  C   UNL     1       7.690   9.643  15.151  1.00  0.00     0.020 A 
ATOM     85  C   UNL     1       6.783  10.295  14.315  1.00  0.00     0.054 A 
BRANCH  85  86
ATOM     86  S   UNL     1       5.993  11.837  14.856  1.00  0.00     0.124 S 
ATOM     87  O   UNL     1       6.577  12.827  13.954  1.00  0.00    -0.237 OA
ATOM     88  O   UNL     1       4.572  11.564  14.654  1.00  0.00    -0.237 OA
ATOM     89  O   UNL     1       6.397  11.964  16.256  1.00  0.00    -0.744 OA
ENDBRANCH  85  86
ENDBRANCH  59  80
ENDBRANCH  33  34
ENDBRANCH  25  28
ENDBRANCH  23  24
ENDBRANCH   1  23
TORSDOF 18
