REMARK SMILES Cc1ccc(NC(=O)C[N@@H+]2CC[C@@H](C(=O)NCCCNC(=O)c3ccc(-c4c5nc(c(-c6ccc(S(=O)(=O)[O-])cc6)c6ccc([nH]6)c(-c6ccc(S(=O)(=O)[O-])cc6)c6nc(c(-c7ccc(S(=O)(=O)[O-])cc7)c7ccc4[nH]7)C=C6)C=C5)cc3)[C@@H]2C)cc1
REMARK SMILES IDX 18 1 17 2 16 3 14 4 15 5 13 7 10 8 11 9 83 10 12 12 84 13
REMARK SMILES IDX 9 14 7 15 6 16 8 18 5 19 1 20 2 21 3 22 86 23 4 24 85 25
REMARK SMILES IDX 19 26 20 27 21 28 22 30 23 31 24 32 82 33 25 34 81 35 26 36
REMARK SMILES IDX 27 37 28 38 75 39 29 40 80 41 74 42 76 43 30 44 79 45 73 46
REMARK SMILES IDX 72 47 31 49 61 50 42 51 60 52 43 53 46 54 59 55 77 56 44 57
REMARK SMILES IDX 45 58 58 60 78 61 47 62 32 63 33 64 41 65 34 66 40 67 35 68
REMARK SMILES IDX 36 69 37 70 38 71 39 72 62 73 63 74 71 75 64 76 70 77 65 78
REMARK SMILES IDX 66 79 67 80 68 81 69 82 48 83 49 84 57 85 50 86 56 87 51 88
REMARK SMILES IDX 52 89 53 90 54 91 55 92
REMARK H PARENT 16 6 10 11 6 17 20 29 76 48 46 59
REMARK Flexibility Score: inf
ROOT
ATOM      1  C   UNL     1      -2.049  -2.712   2.439  1.00  0.00     0.042 C 
ENDROOT
BRANCH   1   2
ATOM      2  C   UNL     1      -1.124  -1.835   1.602  1.00  0.00     0.117 C 
BRANCH   2   3
ATOM      3  N   UNL     1       0.117  -2.465   1.147  1.00  0.00    -0.356 N 
ATOM      4  C   UNL     1       0.569  -2.769  -0.106  1.00  0.00     0.229 C 
ATOM      5  O   UNL     1       1.794  -2.682  -0.280  1.00  0.00    -0.275 OA
ATOM      6  H   UNL     1       0.735  -2.712   1.873  1.00  0.00     0.163 HD
BRANCH   4   7
ATOM      7  C   UNL     1      -0.281  -3.313  -1.272  1.00  0.00     0.142 C 
ATOM      8  N   UNL     1      -2.318  -2.369  -1.526  1.00  0.00    -0.324 N 
ATOM      9  C   UNL     1      -1.763  -2.051  -2.814  1.00  0.00     0.263 C 
ATOM     10  C   UNL     1      -1.749  -3.611  -1.018  1.00  0.00     0.194 C 
ATOM     11  H   UNL     1      -2.071  -1.557  -0.960  1.00  0.00     0.348 HD
ATOM     12  C   UNL     1      -0.291  -2.466  -2.580  1.00  0.00     0.081 C 
ATOM     13  C   UNL     1      -2.130  -4.895  -1.775  1.00  0.00     0.076 C 
BRANCH   8  14
ATOM     14  C   UNL     1      -3.557  -1.841  -1.002  1.00  0.00     0.364 C 
BRANCH  14  15
ATOM     15  C   UNL     1      -3.852  -0.325  -1.161  1.00  0.00     0.279 C 
ATOM     16  N   UNL     1      -3.202   0.717  -0.543  1.00  0.00    -0.321 N 
ATOM     17  H   UNL     1      -3.832   1.400  -0.218  1.00  0.00     0.170 HD
ATOM     18  O   UNL     1      -4.917  -0.019  -1.730  1.00  0.00    -0.268 OA
BRANCH  16  19
ATOM     19  C   UNL     1      -1.861   1.062  -0.253  1.00  0.00     0.041 A 
ATOM     20  C   UNL     1       2.268   2.278   0.400  1.00  0.00     0.044 C 
ATOM     21  C   UNL     1       0.836   1.909   0.161  1.00  0.00    -0.051 A 
ATOM     22  C   UNL     1       0.552   0.725  -0.494  1.00  0.00     0.005 A 
ATOM     23  C   UNL     1      -0.239   2.668   0.634  1.00  0.00     0.005 A 
ATOM     24  C   UNL     1      -0.774   0.342  -0.696  1.00  0.00     0.026 A 
ATOM     25  C   UNL     1      -1.574   2.251   0.424  1.00  0.00     0.026 A 
ENDBRANCH  16  19
ENDBRANCH  14  15
ENDBRANCH   8  14
ENDBRANCH   4   7
ENDBRANCH   2   3
ENDBRANCH   1   2
BRANCH   1  26
ATOM     26  C   UNL     1      -2.123  -2.284   3.900  1.00  0.00     0.118 C 
BRANCH  26  27
ATOM     27  N   UNL     1      -3.440  -1.801   4.332  1.00  0.00    -0.352 N 
ATOM     28  C   UNL     1      -3.882  -1.563   5.633  1.00  0.00     0.251 C 
ATOM     29  H   UNL     1      -4.091  -1.625   3.615  1.00  0.00     0.163 HD
ATOM     30  O   UNL     1      -5.030  -1.246   5.879  1.00  0.00    -0.269 OA
BRANCH  28  31
ATOM     31  C   UNL     1      -2.872  -1.664   6.711  1.00  0.00     0.039 A 
ATOM     32  C   UNL     1      -2.456  -0.489   7.344  1.00  0.00     0.014 A 
ATOM     33  C   UNL     1      -2.114  -2.823   6.780  1.00  0.00     0.014 A 
ATOM     34  C   UNL     1      -1.155  -0.414   7.838  1.00  0.00     0.010 A 
ATOM     35  C   UNL     1      -0.780  -2.688   7.100  1.00  0.00     0.010 A 
ATOM     36  C   UNL     1      -0.282  -1.474   7.595  1.00  0.00    -0.014 A 
BRANCH  36  37
ATOM     37  C   UNL     1       1.172  -1.392   7.737  1.00  0.00     0.031 A 
ATOM     38  C   UNL     1       1.861  -2.264   8.726  1.00  0.00     0.074 A 
ATOM     39  C   UNL     1       1.915  -0.610   6.918  1.00  0.00     0.049 A 
ATOM     40  N   UNL     1       3.029  -2.026   9.226  1.00  0.00    -0.248 NA
ATOM     41  C   UNL     1       1.243  -3.462   9.288  1.00  0.00     0.031 C 
ATOM     42  C   UNL     1       3.364  -0.685   6.729  1.00  0.00     0.029 A 
ATOM     43  N   UNL     1       1.555   0.549   6.225  1.00  0.00    -0.354 N 
ATOM     44  C   UNL     1       3.431  -3.157   9.904  1.00  0.00     0.074 A 
ATOM     45  C   UNL     1       2.251  -3.980   9.989  1.00  0.00     0.031 C 
ATOM     46  C   UNL     1       3.802   0.495   6.266  1.00  0.00     0.029 A 
ATOM     47  C   UNL     1       2.670   1.405   6.264  1.00  0.00     0.049 A 
ATOM     48  H   UNL     1       0.689   0.731   5.794  1.00  0.00     0.167 HD
ATOM     49  C   UNL     1       4.750  -3.339  10.197  1.00  0.00     0.031 A 
ATOM     50  C   UNL     1       2.669   2.662   6.797  1.00  0.00     0.031 A 
ATOM     51  C   UNL     1       5.543  -2.160   9.855  1.00  0.00     0.049 A 
ATOM     52  C   UNL     1       3.675   2.831   7.914  1.00  0.00     0.074 A 
ATOM     53  C   UNL     1       6.378  -1.863   8.791  1.00  0.00     0.029 A 
ATOM     54  N   UNL     1       5.316  -0.965  10.527  1.00  0.00    -0.354 N 
ATOM     55  N   UNL     1       4.298   1.837   8.481  1.00  0.00    -0.248 NA
ATOM     56  C   UNL     1       4.010   4.115   8.527  1.00  0.00     0.031 C 
ATOM     57  C   UNL     1       6.582  -0.460   8.777  1.00  0.00     0.029 A 
ATOM     58  C   UNL     1       5.898   0.088   9.848  1.00  0.00     0.049 A 
ATOM     59  H   UNL     1       4.812  -0.880  11.369  1.00  0.00     0.167 HD
ATOM     60  C   UNL     1       5.052   2.299   9.525  1.00  0.00     0.074 A 
ATOM     61  C   UNL     1       4.858   3.737   9.501  1.00  0.00     0.031 C 
ATOM     62  C   UNL     1       5.753   1.454  10.335  1.00  0.00     0.031 A 
BRANCH  49  63
ATOM     63  C   UNL     1       5.367  -4.687  10.527  1.00  0.00    -0.014 A 
ATOM     64  C   UNL     1       6.750  -4.883  10.322  1.00  0.00     0.010 A 
ATOM     65  C   UNL     1       4.650  -5.817  10.960  1.00  0.00     0.010 A 
ATOM     66  C   UNL     1       7.353  -6.146  10.442  1.00  0.00     0.020 A 
ATOM     67  C   UNL     1       5.229  -7.092  11.056  1.00  0.00     0.020 A 
ATOM     68  C   UNL     1       6.579  -7.252  10.780  1.00  0.00     0.054 A 
BRANCH  68  69
ATOM     69  S   UNL     1       7.346  -8.891  10.850  1.00  0.00     0.124 S 
ATOM     70  O   UNL     1       7.878  -9.046   9.498  1.00  0.00    -0.237 OA
ATOM     71  O   UNL     1       8.340  -8.728  11.906  1.00  0.00    -0.237 OA
ATOM     72  O   UNL     1       6.233  -9.781  11.178  1.00  0.00    -0.744 OA
ENDBRANCH  68  69
ENDBRANCH  49  63
BRANCH  50  73
ATOM     73  C   UNL     1       1.362   3.365   6.716  1.00  0.00    -0.014 A 
ATOM     74  C   UNL     1       0.951   3.806   5.441  1.00  0.00     0.010 A 
ATOM     75  C   UNL     1       0.399   3.183   7.724  1.00  0.00     0.010 A 
ATOM     76  C   UNL     1      -0.405   3.864   5.120  1.00  0.00     0.020 A 
ATOM     77  C   UNL     1      -0.964   3.244   7.402  1.00  0.00     0.020 A 
ATOM     78  C   UNL     1      -1.348   3.508   6.084  1.00  0.00     0.054 A 
BRANCH  78  79
ATOM     79  S   UNL     1      -3.043   3.169   5.523  1.00  0.00     0.124 S 
ATOM     80  O   UNL     1      -3.418   4.424   4.879  1.00  0.00    -0.237 OA
ATOM     81  O   UNL     1      -2.833   2.038   4.621  1.00  0.00    -0.237 OA
ATOM     82  O   UNL     1      -3.749   2.858   6.761  1.00  0.00    -0.744 OA
ENDBRANCH  78  79
ENDBRANCH  50  73
BRANCH  62  83
ATOM     83  C   UNL     1       6.436   1.842  11.621  1.00  0.00    -0.014 A 
ATOM     84  C   UNL     1       6.037   2.920  12.427  1.00  0.00     0.010 A 
ATOM     85  C   UNL     1       7.463   1.008  12.124  1.00  0.00     0.010 A 
ATOM     86  C   UNL     1       6.684   3.200  13.639  1.00  0.00     0.020 A 
ATOM     87  C   UNL     1       8.086   1.252  13.351  1.00  0.00     0.020 A 
ATOM     88  C   UNL     1       7.711   2.369  14.089  1.00  0.00     0.054 A 
BRANCH  88  89
ATOM     89  S   UNL     1       8.518   2.712  15.673  1.00  0.00     0.124 S 
ATOM     90  O   UNL     1       9.588   3.622  15.274  1.00  0.00    -0.237 OA
ATOM     91  O   UNL     1       7.447   3.315  16.465  1.00  0.00    -0.237 OA
ATOM     92  O   UNL     1       8.951   1.394  16.128  1.00  0.00    -0.744 OA
ENDBRANCH  88  89
ENDBRANCH  62  83
ENDBRANCH  36  37
ENDBRANCH  28  31
ENDBRANCH  26  27
ENDBRANCH   1  26
TORSDOF 16
