REMARK SMILES O=C(NCCCNC(=O)c1ccc([C@H]2CCCN(C(=O)c3ccc4[nH]ccc4c3)C2)cc1)c1ccc(-c2c3nc(c(-c4ccc(S(=O)(=O)[O-])cc4)c4ccc([nH]4)c(-c4ccc(S(=O)(=O)[O-])cc4)c4nc(c(-c5ccc(S(=O)(=O)[O-])cc5)c5ccc2[nH]5)C=C4)C=C3)cc1
REMARK SMILES IDX 5 1 4 2 3 3 1 4 2 5 33 7 34 8 92 9 35 10 91 11 36 12 37 13
REMARK SMILES IDX 38 14 85 15 39 16 90 17 84 18 86 19 40 20 89 21 83 22 82 23
REMARK SMILES IDX 41 25 71 26 52 27 70 28 53 29 56 30 69 31 87 32 54 33 55 34
REMARK SMILES IDX 68 36 88 37 57 38 42 39 43 40 51 41 44 42 50 43 45 44 46 45
REMARK SMILES IDX 47 46 48 47 49 48 72 49 73 50 81 51 74 52 80 53 75 54 76 55
REMARK SMILES IDX 77 56 78 57 79 58 58 59 59 60 67 61 60 62 66 63 61 64 62 65
REMARK SMILES IDX 63 66 64 67 65 68 6 69 7 70 8 71 9 73 10 74 11 75 32 76
REMARK SMILES IDX 12 77 31 78 13 79 14 80 15 81 30 82 16 83 18 84 17 85 19 86
REMARK SMILES IDX 20 87 21 88 22 89 29 90 23 91 28 92 24 93 27 94 25 95 26 96
REMARK H PARENT 3 6 86 24 56 35 7 72 25 97
REMARK Flexibility Score: inf
ROOT
ATOM      1  C   UNL     1      12.051  -5.371  13.348  1.00  0.00     0.042 C 
ENDROOT
BRANCH   1   2
ATOM      2  C   UNL     1      13.368  -5.877  13.916  1.00  0.00     0.118 C 
BRANCH   2   3
ATOM      3  N   UNL     1      14.292  -4.801  14.246  1.00  0.00    -0.352 N 
ATOM      4  O   UNL     1      15.399  -3.329  15.534  1.00  0.00    -0.269 OA
ATOM      5  C   UNL     1      14.762  -4.376  15.465  1.00  0.00     0.251 C 
ATOM      6  H   UNL     1      14.635  -4.299  13.472  1.00  0.00     0.163 HD
BRANCH   5   7
ATOM      7  C   UNL     1      14.483  -5.157  16.690  1.00  0.00     0.039 A 
ATOM      8  C   UNL     1      14.584  -6.550  16.699  1.00  0.00     0.014 A 
ATOM      9  C   UNL     1      14.141  -4.475  17.861  1.00  0.00     0.014 A 
ATOM     10  C   UNL     1      14.192  -7.268  17.825  1.00  0.00     0.010 A 
ATOM     11  C   UNL     1      13.837  -5.195  19.019  1.00  0.00     0.010 A 
ATOM     12  C   UNL     1      13.827  -6.599  19.001  1.00  0.00    -0.014 A 
BRANCH  12  13
ATOM     13  C   UNL     1      13.481  -7.368  20.223  1.00  0.00     0.031 A 
ATOM     14  C   UNL     1      12.107  -7.272  20.828  1.00  0.00     0.074 A 
ATOM     15  C   UNL     1      14.422  -8.136  20.803  1.00  0.00     0.049 A 
ATOM     16  N   UNL     1      11.654  -7.810  21.931  1.00  0.00    -0.248 NA
ATOM     17  C   UNL     1      11.117  -6.461  20.104  1.00  0.00     0.031 C 
ATOM     18  C   UNL     1      15.788  -8.318  20.304  1.00  0.00     0.029 A 
ATOM     19  N   UNL     1      14.380  -8.902  21.940  1.00  0.00    -0.354 N 
ATOM     20  C   UNL     1      10.337  -7.381  22.051  1.00  0.00     0.074 A 
ATOM     21  C   UNL     1      10.073  -6.517  20.920  1.00  0.00     0.031 C 
ATOM     22  C   UNL     1      16.446  -9.154  21.120  1.00  0.00     0.029 A 
ATOM     23  C   UNL     1      15.576  -9.510  22.236  1.00  0.00     0.049 A 
ATOM     24  H   UNL     1      13.570  -9.006  22.491  1.00  0.00     0.167 HD
ATOM     25  C   UNL     1       9.433  -7.679  23.017  1.00  0.00     0.031 A 
ATOM     26  C   UNL     1      15.951 -10.242  23.302  1.00  0.00     0.031 A 
ATOM     27  C   UNL     1       9.714  -8.525  24.148  1.00  0.00     0.049 A 
ATOM     28  C   UNL     1      14.953 -10.515  24.388  1.00  0.00     0.074 A 
ATOM     29  C   UNL     1       8.861  -8.910  25.167  1.00  0.00     0.029 A 
ATOM     30  N   UNL     1      10.945  -9.108  24.418  1.00  0.00    -0.354 N 
ATOM     31  N   UNL     1      13.703 -10.124  24.472  1.00  0.00    -0.248 NA
ATOM     32  C   UNL     1      15.408 -11.333  25.519  1.00  0.00     0.031 C 
ATOM     33  C   UNL     1       9.592  -9.669  26.087  1.00  0.00     0.029 A 
ATOM     34  C   UNL     1      10.881  -9.825  25.601  1.00  0.00     0.049 A 
ATOM     35  H   UNL     1      11.746  -9.023  23.851  1.00  0.00     0.167 HD
ATOM     36  C   UNL     1      13.212 -10.676  25.649  1.00  0.00     0.074 A 
ATOM     37  C   UNL     1      14.299 -11.430  26.242  1.00  0.00     0.031 C 
ATOM     38  C   UNL     1      11.969 -10.576  26.181  1.00  0.00     0.031 A 
BRANCH  25  39
ATOM     39  C   UNL     1       8.070  -7.040  22.915  1.00  0.00    -0.014 A 
ATOM     40  C   UNL     1       7.170  -7.384  21.889  1.00  0.00     0.010 A 
ATOM     41  C   UNL     1       7.676  -6.086  23.872  1.00  0.00     0.010 A 
ATOM     42  C   UNL     1       5.934  -6.740  21.784  1.00  0.00     0.020 A 
ATOM     43  C   UNL     1       6.427  -5.464  23.791  1.00  0.00     0.020 A 
ATOM     44  C   UNL     1       5.575  -5.776  22.731  1.00  0.00     0.054 A 
BRANCH  44  45
ATOM     45  S   UNL     1       3.975  -4.938  22.556  1.00  0.00     0.124 S 
ATOM     46  O   UNL     1       4.213  -4.078  21.398  1.00  0.00    -0.237 OA
ATOM     47  O   UNL     1       3.054  -6.048  22.333  1.00  0.00    -0.237 OA
ATOM     48  O   UNL     1       3.808  -4.237  23.827  1.00  0.00    -0.744 OA
ENDBRANCH  44  45
ENDBRANCH  25  39
BRANCH  26  49
ATOM     49  C   UNL     1      17.348 -10.748  23.379  1.00  0.00    -0.014 A 
ATOM     50  C   UNL     1      17.626 -12.115  23.209  1.00  0.00     0.010 A 
ATOM     51  C   UNL     1      18.417  -9.848  23.553  1.00  0.00     0.010 A 
ATOM     52  C   UNL     1      18.947 -12.572  23.209  1.00  0.00     0.020 A 
ATOM     53  C   UNL     1      19.739 -10.297  23.522  1.00  0.00     0.020 A 
ATOM     54  C   UNL     1      19.995 -11.659  23.355  1.00  0.00     0.054 A 
BRANCH  54  55
ATOM     55  S   UNL     1      21.702 -12.267  23.263  1.00  0.00     0.124 S 
ATOM     56  O   UNL     1      21.831 -13.001  24.517  1.00  0.00    -0.237 OA
ATOM     57  O   UNL     1      21.678 -13.083  22.051  1.00  0.00    -0.237 OA
ATOM     58  O   UNL     1      22.497 -11.045  23.166  1.00  0.00    -0.744 OA
ENDBRANCH  54  55
ENDBRANCH  26  49
BRANCH  38  59
ATOM     59  C   UNL     1      11.684 -11.343  27.445  1.00  0.00    -0.014 A 
ATOM     60  C   UNL     1      12.208 -10.943  28.686  1.00  0.00     0.010 A 
ATOM     61  C   UNL     1      10.801 -12.439  27.395  1.00  0.00     0.010 A 
ATOM     62  C   UNL     1      11.863 -11.633  29.853  1.00  0.00     0.020 A 
ATOM     63  C   UNL     1      10.431 -13.112  28.561  1.00  0.00     0.020 A 
ATOM     64  C   UNL     1      10.971 -12.708  29.783  1.00  0.00     0.054 A 
BRANCH  64  65
ATOM     65  S   UNL     1      10.478 -13.536  31.320  1.00  0.00     0.124 S 
ATOM     66  O   UNL     1      11.695 -14.258  31.682  1.00  0.00    -0.237 OA
ATOM     67  O   UNL     1      10.130 -12.415  32.189  1.00  0.00    -0.237 OA
ATOM     68  O   UNL     1       9.353 -14.377  30.917  1.00  0.00    -0.744 OA
ENDBRANCH  64  65
ENDBRANCH  38  59
ENDBRANCH  12  13
ENDBRANCH   5   7
ENDBRANCH   2   3
ENDBRANCH   1   2
BRANCH   1  69
ATOM     69  C   UNL     1      12.186  -4.608  12.039  1.00  0.00     0.118 C 
BRANCH  69  70
ATOM     70  N   UNL     1      12.773  -5.412  10.974  1.00  0.00    -0.352 N 
ATOM     71  C   UNL     1      12.241  -5.805   9.770  1.00  0.00     0.251 C 
ATOM     72  H   UNL     1      13.692  -5.721  11.144  1.00  0.00     0.163 HD
ATOM     73  O   UNL     1      12.828  -6.627   9.075  1.00  0.00    -0.269 OA
BRANCH  71  74
ATOM     74  C   UNL     1      10.947  -5.254   9.323  1.00  0.00     0.039 A 
ATOM     75  C   UNL     1       9.973  -6.122   8.835  1.00  0.00     0.014 A 
ATOM     76  C   UNL     1      10.694  -3.884   9.377  1.00  0.00     0.014 A 
ATOM     77  C   UNL     1       8.706  -5.628   8.516  1.00  0.00     0.005 A 
ATOM     78  C   UNL     1       9.419  -3.400   9.092  1.00  0.00     0.005 A 
ATOM     79  C   UNL     1       8.388  -4.269   8.704  1.00  0.00    -0.043 A 
BRANCH  79  80
ATOM     80  C   UNL     1       6.953  -3.792   8.488  1.00  0.00     0.039 C 
ATOM     81  C   UNL     1       5.961  -4.633   9.333  1.00  0.00     0.012 C 
ATOM     82  C   UNL     1       6.728  -2.293   8.795  1.00  0.00     0.128 C 
ATOM     83  C   UNL     1       4.516  -4.150   9.186  1.00  0.00     0.022 C 
ATOM     84  N   UNL     1       5.329  -1.917   8.636  1.00  0.00    -0.338 N 
ATOM     85  C   UNL     1       4.395  -2.660   9.479  1.00  0.00     0.120 C 
BRANCH  84  86
ATOM     86  C   UNL     1       4.991  -0.991   7.659  1.00  0.00     0.253 C 
ATOM     87  O   UNL     1       5.799  -0.445   6.911  1.00  0.00    -0.269 OA
BRANCH  86  88
ATOM     88  C   UNL     1       3.571  -0.665   7.466  1.00  0.00     0.040 A 
ATOM     89  C   UNL     1       2.909  -1.224   6.372  1.00  0.00     0.016 A 
ATOM     90  C   UNL     1       2.934   0.220   8.347  1.00  0.00     0.024 A 
ATOM     91  C   UNL     1       1.556  -0.956   6.155  1.00  0.00     0.027 A 
ATOM     92  C   UNL     1       1.581   0.527   8.116  1.00  0.00     0.000 A 
ATOM     93  C   UNL     1       0.921  -0.082   7.046  1.00  0.00     0.045 A 
ATOM     94  C   UNL     1       0.646   1.397   8.743  1.00  0.00     0.028 A 
ATOM     95  N   UNL     1      -0.384   0.354   7.077  1.00  0.00    -0.361 N 
ATOM     96  C   UNL     1      -0.549   1.284   8.069  1.00  0.00     0.083 A 
ATOM     97  H   UNL     1      -1.097   0.043   6.474  1.00  0.00     0.166 HD
ENDBRANCH  86  88
ENDBRANCH  84  86
ENDBRANCH  79  80
ENDBRANCH  71  74
ENDBRANCH  69  70
ENDBRANCH   1  69
TORSDOF 16
