REMARK SMILES Cc1ccc(S(=O)(=O)N2c3ccc(C(=O)NCCCNC(=O)c4ccc(-c5c6nc(c(-c7ccc(S(=O)(=O)[O-])cc7)c7ccc([nH]7)c(-c7ccc(S(=O)(=O)[O-])cc7)c7nc(c(-c8ccc(S(=O)(=O)[O-])cc8)c8ccc5[nH]8)C=C7)C=C6)cc4)cc3C[C@H]2C)cc1
REMARK SMILES IDX 18 1 17 2 16 3 14 4 15 5 13 7 9 8 10 9 86 10 11 11 84 12
REMARK SMILES IDX 85 13 87 14 12 15 83 16 6 17 7 18 8 19 5 20 1 21 2 22 3 23
REMARK SMILES IDX 89 24 4 25 88 26 19 27 20 28 21 29 22 31 23 32 24 33 82 34
REMARK SMILES IDX 25 35 81 36 26 37 27 38 28 39 75 40 29 41 80 42 74 43 76 44
REMARK SMILES IDX 30 45 79 46 73 47 72 48 31 50 61 51 42 52 60 53 43 54 46 55
REMARK SMILES IDX 59 56 77 57 44 58 45 59 58 61 78 62 47 63 32 64 33 65 41 66
REMARK SMILES IDX 34 67 40 68 35 69 36 70 37 71 38 72 39 73 62 74 63 75 71 76
REMARK SMILES IDX 64 77 70 78 65 79 66 80 67 81 68 82 69 83 48 84 49 85 57 86
REMARK SMILES IDX 50 87 56 88 51 89 52 90 53 91 54 92 55 93
REMARK H PARENT 16 6 20 30 76 49 46 60
REMARK Flexibility Score: inf
ROOT
ATOM      1  C   UNL     1     -10.327   0.289   2.470  1.00  0.00     0.042 C 
ENDROOT
BRANCH   1   2
ATOM      2  C   UNL     1     -10.596   0.218   0.966  1.00  0.00     0.118 C 
BRANCH   2   3
ATOM      3  N   UNL     1     -10.571   1.530   0.335  1.00  0.00    -0.352 N 
ATOM      4  C   UNL     1      -9.562   2.319  -0.159  1.00  0.00     0.251 C 
ATOM      5  O   UNL     1      -9.900   3.342  -0.761  1.00  0.00    -0.269 OA
ATOM      6  H   UNL     1     -11.463   1.936   0.243  1.00  0.00     0.163 HD
BRANCH   4   7
ATOM      7  C   UNL     1      -8.094   2.048  -0.009  1.00  0.00     0.040 A 
ATOM      8  N   UNL     1      -3.867   1.783   0.233  1.00  0.00    -0.263 N 
ATOM      9  C   UNL     1      -5.313   1.780   0.251  1.00  0.00     0.055 A 
ATOM     10  C   UNL     1      -3.520   3.081  -0.488  1.00  0.00     0.101 C 
ATOM     11  C   UNL     1      -6.133   0.940   0.972  1.00  0.00     0.028 A 
ATOM     12  C   UNL     1      -5.848   2.743  -0.595  1.00  0.00    -0.021 A 
ATOM     13  C   UNL     1      -4.765   3.467  -1.320  1.00  0.00     0.063 C 
ATOM     14  C   UNL     1      -3.228   4.154   0.572  1.00  0.00     0.032 C 
ATOM     15  C   UNL     1      -7.520   1.073   0.826  1.00  0.00     0.016 A 
ATOM     16  C   UNL     1      -7.223   2.888  -0.735  1.00  0.00     0.019 A 
BRANCH   8  17
ATOM     17  S   UNL     1      -3.263   0.337  -0.501  1.00  0.00     0.264 S 
ATOM     18  O   UNL     1      -3.404   0.472  -1.938  1.00  0.00    -0.201 OA
ATOM     19  O   UNL     1      -3.821  -0.802   0.202  1.00  0.00    -0.201 OA
BRANCH  17  20
ATOM     20  C   UNL     1      -1.510   0.240  -0.192  1.00  0.00     0.088 A 
ATOM     21  C   UNL     1       2.751  -0.231   0.208  1.00  0.00     0.044 C 
ATOM     22  C   UNL     1       1.264  -0.069   0.092  1.00  0.00    -0.051 A 
ATOM     23  C   UNL     1       0.467  -1.164  -0.254  1.00  0.00     0.005 A 
ATOM     24  C   UNL     1       0.652   1.164   0.353  1.00  0.00     0.005 A 
ATOM     25  C   UNL     1      -0.911  -1.011  -0.400  1.00  0.00     0.022 A 
ATOM     26  C   UNL     1      -0.732   1.317   0.222  1.00  0.00     0.022 A 
ENDBRANCH  17  20
ENDBRANCH   8  17
ENDBRANCH   4   7
ENDBRANCH   2   3
ENDBRANCH   1   2
BRANCH   1  27
ATOM     27  C   UNL     1     -11.591   0.429   3.303  1.00  0.00     0.118 C 
BRANCH  27  28
ATOM     28  N   UNL     1     -11.778  -0.688   4.219  1.00  0.00    -0.352 N 
ATOM     29  C   UNL     1     -12.718  -0.794   5.224  1.00  0.00     0.251 C 
ATOM     30  H   UNL     1     -11.165  -1.452   4.110  1.00  0.00     0.163 HD
ATOM     31  O   UNL     1     -12.664  -1.652   6.090  1.00  0.00    -0.269 OA
BRANCH  29  32
ATOM     32  C   UNL     1     -13.880   0.109   5.123  1.00  0.00     0.039 A 
ATOM     33  C   UNL     1     -15.070  -0.449   4.649  1.00  0.00     0.014 A 
ATOM     34  C   UNL     1     -13.709   1.488   5.205  1.00  0.00     0.014 A 
ATOM     35  C   UNL     1     -16.053   0.386   4.123  1.00  0.00     0.010 A 
ATOM     36  C   UNL     1     -14.654   2.308   4.607  1.00  0.00     0.010 A 
ATOM     37  C   UNL     1     -15.809   1.760   4.026  1.00  0.00    -0.014 A 
BRANCH  37  38
ATOM     38  C   UNL     1     -16.645   2.652   3.219  1.00  0.00     0.031 A 
ATOM     39  C   UNL     1     -17.526   3.670   3.851  1.00  0.00     0.074 A 
ATOM     40  C   UNL     1     -16.692   2.559   1.869  1.00  0.00     0.049 A 
ATOM     41  N   UNL     1     -18.684   4.010   3.373  1.00  0.00    -0.248 NA
ATOM     42  C   UNL     1     -17.185   4.363   5.091  1.00  0.00     0.031 C 
ATOM     43  C   UNL     1     -17.284   3.545   0.967  1.00  0.00     0.029 A 
ATOM     44  N   UNL     1     -16.422   1.469   1.040  1.00  0.00    -0.354 N 
ATOM     45  C   UNL     1     -19.089   5.130   4.057  1.00  0.00     0.074 A 
ATOM     46  C   UNL     1     -18.172   5.261   5.168  1.00  0.00     0.031 C 
ATOM     47  C   UNL     1     -17.629   2.932  -0.173  1.00  0.00     0.029 A 
ATOM     48  C   UNL     1     -17.351   1.516  -0.012  1.00  0.00     0.049 A 
ATOM     49  H   UNL     1     -15.714   0.796   1.169  1.00  0.00     0.167 HD
ATOM     50  C   UNL     1     -20.052   5.958   3.567  1.00  0.00     0.031 A 
ATOM     51  C   UNL     1     -18.160   0.494  -0.412  1.00  0.00     0.031 A 
ATOM     52  C   UNL     1     -20.555   5.572   2.259  1.00  0.00     0.049 A 
ATOM     53  C   UNL     1     -19.618   0.868  -0.512  1.00  0.00     0.074 A 
ATOM     54  C   UNL     1     -20.286   6.033   0.980  1.00  0.00     0.029 A 
ATOM     55  N   UNL     1     -21.311   4.417   2.111  1.00  0.00    -0.354 N 
ATOM     56  N   UNL     1     -20.113   1.976  -0.040  1.00  0.00    -0.248 NA
ATOM     57  C   UNL     1     -20.648  -0.007  -1.067  1.00  0.00     0.031 C 
ATOM     58  C   UNL     1     -20.878   5.143   0.054  1.00  0.00     0.029 A 
ATOM     59  C   UNL     1     -21.501   4.138   0.770  1.00  0.00     0.049 A 
ATOM     60  H   UNL     1     -21.661   3.874   2.853  1.00  0.00     0.167 HD
ATOM     61  C   UNL     1     -21.478   1.955  -0.157  1.00  0.00     0.074 A 
ATOM     62  C   UNL     1     -21.764   0.708  -0.839  1.00  0.00     0.031 C 
ATOM     63  C   UNL     1     -22.247   2.962   0.350  1.00  0.00     0.031 A 
BRANCH  50  64
ATOM     64  C   UNL     1     -20.275   7.314   4.182  1.00  0.00    -0.014 A 
ATOM     65  C   UNL     1     -20.362   8.455   3.361  1.00  0.00     0.010 A 
ATOM     66  C   UNL     1     -20.343   7.516   5.574  1.00  0.00     0.010 A 
ATOM     67  C   UNL     1     -20.401   9.745   3.899  1.00  0.00     0.020 A 
ATOM     68  C   UNL     1     -20.348   8.806   6.125  1.00  0.00     0.020 A 
ATOM     69  C   UNL     1     -20.360   9.915   5.280  1.00  0.00     0.054 A 
BRANCH  69  70
ATOM     70  S   UNL     1     -20.248  11.597   5.947  1.00  0.00     0.124 S 
ATOM     71  O   UNL     1     -19.199  12.197   5.125  1.00  0.00    -0.237 OA
ATOM     72  O   UNL     1     -21.594  12.113   5.722  1.00  0.00    -0.237 OA
ATOM     73  O   UNL     1     -19.882  11.388   7.347  1.00  0.00    -0.744 OA
ENDBRANCH  69  70
ENDBRANCH  50  64
BRANCH  51  74
ATOM     74  C   UNL     1     -17.663  -0.862  -0.079  1.00  0.00    -0.014 A 
ATOM     75  C   UNL     1     -16.555  -1.343  -0.803  1.00  0.00     0.010 A 
ATOM     76  C   UNL     1     -17.988  -1.448   1.157  1.00  0.00     0.010 A 
ATOM     77  C   UNL     1     -15.685  -2.268  -0.226  1.00  0.00     0.020 A 
ATOM     78  C   UNL     1     -17.116  -2.377   1.737  1.00  0.00     0.020 A 
ATOM     79  C   UNL     1     -15.937  -2.724   1.069  1.00  0.00     0.054 A 
BRANCH  79  80
ATOM     80  S   UNL     1     -14.607  -3.612   1.930  1.00  0.00     0.124 S 
ATOM     81  O   UNL     1     -14.331  -4.721   1.023  1.00  0.00    -0.237 OA
ATOM     82  O   UNL     1     -13.565  -2.588   2.008  1.00  0.00    -0.237 OA
ATOM     83  O   UNL     1     -15.218  -3.976   3.205  1.00  0.00    -0.744 OA
ENDBRANCH  79  80
ENDBRANCH  51  74
BRANCH  63  84
ATOM     84  C   UNL     1     -23.754   2.993   0.429  1.00  0.00    -0.014 A 
ATOM     85  C   UNL     1     -24.570   1.851   0.432  1.00  0.00     0.010 A 
ATOM     86  C   UNL     1     -24.399   4.239   0.624  1.00  0.00     0.010 A 
ATOM     87  C   UNL     1     -25.965   1.950   0.561  1.00  0.00     0.020 A 
ATOM     88  C   UNL     1     -25.784   4.346   0.791  1.00  0.00     0.020 A 
ATOM     89  C   UNL     1     -26.564   3.197   0.735  1.00  0.00     0.054 A 
BRANCH  89  90
ATOM     90  S   UNL     1     -28.357   3.323   0.969  1.00  0.00     0.124 S 
ATOM     91  O   UNL     1     -28.822   3.586  -0.390  1.00  0.00    -0.237 OA
ATOM     92  O   UNL     1     -28.716   2.013   1.508  1.00  0.00    -0.237 OA
ATOM     93  O   UNL     1     -28.496   4.433   1.908  1.00  0.00    -0.744 OA
ENDBRANCH  89  90
ENDBRANCH  63  84
ENDBRANCH  37  38
ENDBRANCH  29  32
ENDBRANCH  27  28
ENDBRANCH   1  27
TORSDOF 15
