REMARK SMILES O=C(NCCCNC(=O)c1cc(S(=O)(=O)Nc2ccccc2-n2cc(Br)cn2)c[nH]1)c1ccc(-c2c3nc(c(-c4ccc(S(=O)(=O)[O-])cc4)c4ccc([nH]4)c(-c4ccc(S(=O)(=O)[O-])cc4)c4nc(c(-c5ccc(S(=O)(=O)[O-])cc5)c5ccc2[nH]5)C=C4)C=C3)cc1
REMARK SMILES IDX 5 1 4 2 3 3 1 4 2 5 31 7 32 8 90 9 33 10 89 11 34 12 35 13
REMARK SMILES IDX 36 14 83 15 37 16 88 17 82 18 84 19 38 20 87 21 81 22 80 23
REMARK SMILES IDX 39 25 69 26 50 27 68 28 51 29 54 30 67 31 85 32 52 33 53 34
REMARK SMILES IDX 66 36 86 37 55 38 40 39 41 40 49 41 42 42 48 43 43 44 44 45
REMARK SMILES IDX 45 46 46 47 47 48 70 49 71 50 79 51 72 52 78 53 73 54 74 55
REMARK SMILES IDX 75 56 76 57 77 58 56 59 57 60 65 61 58 62 64 63 59 64 60 65
REMARK SMILES IDX 61 66 62 67 63 68 6 69 7 70 8 71 9 73 10 74 11 75 30 76
REMARK SMILES IDX 12 77 29 78 13 80 14 81 15 82 16 83 17 85 18 86 22 87 19 88
REMARK SMILES IDX 21 89 20 90 23 91 24 92 28 93 25 94 27 95 26 96
REMARK H PARENT 3 6 84 24 54 35 7 72 30 79 16 84
REMARK Flexibility Score: inf
ROOT
ATOM      1  C   UNL     1       4.895  -1.963  -0.761  1.00  0.00     0.042 C 
ENDROOT
BRANCH   1   2
ATOM      2  C   UNL     1       4.641  -0.494  -1.099  1.00  0.00     0.118 C 
BRANCH   2   3
ATOM      3  N   UNL     1       3.246  -0.079  -1.111  1.00  0.00    -0.352 N 
ATOM      4  O   UNL     1       1.196   0.514  -0.488  1.00  0.00    -0.269 OA
ATOM      5  C   UNL     1       2.275   0.027  -0.147  1.00  0.00     0.251 C 
ATOM      6  H   UNL     1       2.931   0.184  -2.006  1.00  0.00     0.163 HD
BRANCH   5   7
ATOM      7  C   UNL     1       2.434  -0.484   1.238  1.00  0.00     0.039 A 
ATOM      8  C   UNL     1       3.659  -0.560   1.900  1.00  0.00     0.014 A 
ATOM      9  C   UNL     1       1.270  -0.901   1.911  1.00  0.00     0.014 A 
ATOM     10  C   UNL     1       3.746  -1.152   3.155  1.00  0.00     0.010 A 
ATOM     11  C   UNL     1       1.342  -1.451   3.192  1.00  0.00     0.010 A 
ATOM     12  C   UNL     1       2.588  -1.588   3.808  1.00  0.00    -0.014 A 
BRANCH  12  13
ATOM     13  C   UNL     1       2.729  -1.964   5.234  1.00  0.00     0.031 A 
ATOM     14  C   UNL     1       2.863  -0.722   6.129  1.00  0.00     0.074 A 
ATOM     15  C   UNL     1       2.844  -3.292   5.536  1.00  0.00     0.049 A 
ATOM     16  N   UNL     1       3.538  -0.564   7.225  1.00  0.00    -0.248 NA
ATOM     17  C   UNL     1       2.249   0.562   5.688  1.00  0.00     0.031 C 
ATOM     18  C   UNL     1       2.688  -4.393   4.560  1.00  0.00     0.029 A 
ATOM     19  N   UNL     1       3.125  -3.991   6.694  1.00  0.00    -0.354 N 
ATOM     20  C   UNL     1       3.305   0.752   7.686  1.00  0.00     0.074 A 
ATOM     21  C   UNL     1       2.589   1.426   6.647  1.00  0.00     0.031 C 
ATOM     22  C   UNL     1       2.942  -5.589   5.137  1.00  0.00     0.029 A 
ATOM     23  C   UNL     1       3.275  -5.394   6.536  1.00  0.00     0.049 A 
ATOM     24  H   UNL     1       3.215  -3.548   7.569  1.00  0.00     0.167 HD
ATOM     25  C   UNL     1       3.612   1.170   8.949  1.00  0.00     0.031 A 
ATOM     26  C   UNL     1       3.679  -6.332   7.447  1.00  0.00     0.031 A 
ATOM     27  C   UNL     1       4.242   0.122   9.675  1.00  0.00     0.049 A 
ATOM     28  C   UNL     1       3.825  -5.627   8.731  1.00  0.00     0.074 A 
ATOM     29  C   UNL     1       5.485  -0.450   9.620  1.00  0.00     0.029 A 
ATOM     30  N   UNL     1       3.410  -0.680  10.416  1.00  0.00    -0.354 N 
ATOM     31  N   UNL     1       2.846  -5.209   9.471  1.00  0.00    -0.248 NA
ATOM     32  C   UNL     1       5.178  -5.342   9.232  1.00  0.00     0.031 C 
ATOM     33  C   UNL     1       5.241  -1.804   9.935  1.00  0.00     0.029 A 
ATOM     34  C   UNL     1       3.900  -1.956  10.308  1.00  0.00     0.049 A 
ATOM     35  H   UNL     1       2.616  -0.396  10.925  1.00  0.00     0.167 HD
ATOM     36  C   UNL     1       3.464  -4.297  10.289  1.00  0.00     0.074 A 
ATOM     37  C   UNL     1       4.863  -4.662  10.331  1.00  0.00     0.031 C 
ATOM     38  C   UNL     1       2.953  -3.044  10.386  1.00  0.00     0.031 A 
BRANCH  25  39
ATOM     39  C   UNL     1       3.172   2.373   9.746  1.00  0.00    -0.014 A 
ATOM     40  C   UNL     1       3.844   2.603  10.976  1.00  0.00     0.010 A 
ATOM     41  C   UNL     1       1.954   3.036   9.543  1.00  0.00     0.010 A 
ATOM     42  C   UNL     1       3.252   3.315  12.018  1.00  0.00     0.020 A 
ATOM     43  C   UNL     1       1.371   3.794  10.574  1.00  0.00     0.020 A 
ATOM     44  C   UNL     1       1.994   3.871  11.823  1.00  0.00     0.054 A 
BRANCH  44  45
ATOM     45  S   UNL     1       1.153   4.612  13.249  1.00  0.00     0.124 S 
ATOM     46  O   UNL     1       0.756   3.434  14.014  1.00  0.00    -0.237 OA
ATOM     47  O   UNL     1       2.208   5.424  13.854  1.00  0.00    -0.237 OA
ATOM     48  O   UNL     1       0.062   5.372  12.646  1.00  0.00    -0.744 OA
ENDBRANCH  44  45
ENDBRANCH  25  39
BRANCH  26  49
ATOM     49  C   UNL     1       4.101  -7.787   7.467  1.00  0.00    -0.014 A 
ATOM     50  C   UNL     1       4.140  -8.657   6.372  1.00  0.00     0.010 A 
ATOM     51  C   UNL     1       4.639  -8.308   8.681  1.00  0.00     0.010 A 
ATOM     52  C   UNL     1       4.814  -9.901   6.451  1.00  0.00     0.020 A 
ATOM     53  C   UNL     1       5.354  -9.504   8.760  1.00  0.00     0.020 A 
ATOM     54  C   UNL     1       5.463 -10.289   7.628  1.00  0.00     0.054 A 
BRANCH  54  55
ATOM     55  S   UNL     1       6.570 -11.729   7.665  1.00  0.00     0.124 S 
ATOM     56  O   UNL     1       5.656 -12.818   7.994  1.00  0.00    -0.237 OA
ATOM     57  O   UNL     1       7.121 -11.752   6.313  1.00  0.00    -0.237 OA
ATOM     58  O   UNL     1       7.535 -11.386   8.710  1.00  0.00    -0.744 OA
ENDBRANCH  54  55
ENDBRANCH  26  49
BRANCH  38  59
ATOM     59  C   UNL     1       1.461  -2.930  10.103  1.00  0.00    -0.014 A 
ATOM     60  C   UNL     1       0.541  -3.618  10.914  1.00  0.00     0.010 A 
ATOM     61  C   UNL     1       0.945  -2.229   8.994  1.00  0.00     0.010 A 
ATOM     62  C   UNL     1      -0.834  -3.613  10.628  1.00  0.00     0.020 A 
ATOM     63  C   UNL     1      -0.430  -2.214   8.699  1.00  0.00     0.020 A 
ATOM     64  C   UNL     1      -1.313  -2.911   9.521  1.00  0.00     0.054 A 
BRANCH  64  65
ATOM     65  S   UNL     1      -3.097  -2.942   9.169  1.00  0.00     0.124 S 
ATOM     66  O   UNL     1      -3.371  -4.369   9.013  1.00  0.00    -0.237 OA
ATOM     67  O   UNL     1      -3.666  -2.325  10.364  1.00  0.00    -0.237 OA
ATOM     68  O   UNL     1      -3.228  -2.155   7.943  1.00  0.00    -0.744 OA
ENDBRANCH  64  65
ENDBRANCH  38  59
ENDBRANCH  12  13
ENDBRANCH   5   7
ENDBRANCH   2   3
ENDBRANCH   1   2
BRANCH   1  69
ATOM     69  C   UNL     1       4.331  -2.918  -1.802  1.00  0.00     0.118 C 
BRANCH  69  70
ATOM     70  N   UNL     1       5.172  -2.955  -2.981  1.00  0.00    -0.351 N 
ATOM     71  C   UNL     1       6.181  -3.788  -3.379  1.00  0.00     0.267 C 
ATOM     72  H   UNL     1       4.978  -2.237  -3.625  1.00  0.00     0.163 HD
ATOM     73  O   UNL     1       6.864  -3.391  -4.328  1.00  0.00    -0.268 OA
BRANCH  71  74
ATOM     74  C   UNL     1       6.431  -5.086  -2.786  1.00  0.00     0.105 A 
ATOM     75  C   UNL     1       5.826  -5.858  -1.811  1.00  0.00     0.055 A 
ATOM     76  N   UNL     1       7.467  -5.869  -3.275  1.00  0.00    -0.356 N 
ATOM     77  C   UNL     1       6.323  -7.184  -1.915  1.00  0.00     0.106 A 
ATOM     78  C   UNL     1       7.387  -7.147  -2.789  1.00  0.00     0.105 A 
ATOM     79  H   UNL     1       8.167  -5.549  -3.889  1.00  0.00     0.166 HD
BRANCH  77  80
ATOM     80  S   UNL     1       5.670  -8.552  -1.079  1.00  0.00     0.263 S 
ATOM     81  O   UNL     1       6.418  -9.677  -1.566  1.00  0.00    -0.201 OA
ATOM     82  O   UNL     1       5.698  -8.150   0.320  1.00  0.00    -0.201 OA
BRANCH  80  83
ATOM     83  N   UNL     1       4.032  -8.845  -1.476  1.00  0.00    -0.277 N 
ATOM     84  H   UNL     1       3.695  -9.767  -1.555  1.00  0.00     0.180 HD
BRANCH  83  85
ATOM     85  C   UNL     1       3.155  -7.727  -1.693  1.00  0.00     0.075 A 
ATOM     86  C   UNL     1       2.494  -7.182  -0.583  1.00  0.00     0.029 A 
ATOM     87  C   UNL     1       3.051  -7.079  -2.942  1.00  0.00     0.089 A 
ATOM     88  C   UNL     1       1.724  -6.022  -0.711  1.00  0.00     0.002 A 
ATOM     89  C   UNL     1       2.304  -5.891  -3.050  1.00  0.00     0.030 A 
ATOM     90  C   UNL     1       1.629  -5.378  -1.942  1.00  0.00     0.002 A 
BRANCH  87  91
ATOM     91  N   UNL     1       3.729  -7.551  -4.099  1.00  0.00    -0.238 N 
ATOM     92  C   UNL     1       4.160  -8.830  -4.379  1.00  0.00     0.130 A 
ATOM     93  N   UNL     1       4.091  -6.685  -5.093  1.00  0.00    -0.175 NA
ATOM     94  C   UNL     1       5.014  -8.721  -5.440  1.00  0.00     0.056 A 
ATOM     95  C   UNL     1       4.959  -7.383  -5.831  1.00  0.00     0.151 A 
ATOM     96  Br  UNL     1       6.048 -10.058  -6.223  1.00  0.00    -0.047 Br
ENDBRANCH  87  91
ENDBRANCH  83  85
ENDBRANCH  80  83
ENDBRANCH  77  80
ENDBRANCH  71  74
ENDBRANCH  69  70
ENDBRANCH   1  69
TORSDOF 17
