REMARK SMILES O=C(NCCCNC(=O)c1ccc(-c2c3nc(c(-c4ccc(S(=O)(=O)[O-])cc4)c4ccc([nH]4)c(-c4ccc(S(=O)(=O)[O-])cc4)c4nc(c(-c5ccc(S(=O)(=O)[O-])cc5)c5ccc2[nH]5)C=C4)C=C3)cc1)C1=Cc2ccc(Cl)c(Cl)c2O[C@@H]1C(F)(F)F
REMARK SMILES IDX 6 1 5 2 4 3 3 4 1 5 2 6 70 8 71 9 81 10 72 11 80 12 73 13
REMARK SMILES IDX 79 14 74 15 77 16 75 17 78 18 76 19 82 20 83 21 84 22 85 23
REMARK SMILES IDX 7 24 8 25 9 27 10 28 11 29 69 30 12 31 68 32 13 33 14 34
REMARK SMILES IDX 15 35 62 36 16 37 67 38 61 39 63 40 17 41 66 42 60 43 59 44
REMARK SMILES IDX 18 46 48 47 29 48 47 49 30 50 33 51 46 52 64 53 31 54 32 55
REMARK SMILES IDX 45 57 65 58 34 59 19 60 20 61 28 62 21 63 27 64 22 65 23 66
REMARK SMILES IDX 24 67 25 68 26 69 49 70 50 71 58 72 51 73 57 74 52 75 53 76
REMARK SMILES IDX 54 77 55 78 56 79 35 80 36 81 44 82 37 83 43 84 38 85 39 86
REMARK SMILES IDX 40 87 41 88 42 89
REMARK H PARENT 3 7 7 26 63 45 33 56
REMARK Flexibility Score: inf
ROOT
ATOM      1  C   UNL     1       3.880  -3.386  -2.523  1.00  0.00     0.118 C 
ENDROOT
BRANCH   1   2
ATOM      2  C   UNL     1       3.991  -2.631  -1.201  1.00  0.00     0.042 C 
BRANCH   2   3
ATOM      3  C   UNL     1       3.211  -1.320  -1.202  1.00  0.00     0.118 C 
BRANCH   3   4
ATOM      4  N   UNL     1       2.223  -1.231  -0.122  1.00  0.00    -0.352 N 
ATOM      5  O   UNL     1       1.096  -0.267   1.597  1.00  0.00    -0.270 OA
ATOM      6  C   UNL     1       2.102  -0.325   0.904  1.00  0.00     0.251 C 
ATOM      7  H   UNL     1       1.534  -1.935  -0.134  1.00  0.00     0.163 HD
BRANCH   6   8
ATOM      8  C   UNL     1       3.215   0.621   1.095  1.00  0.00     0.067 C 
ATOM      9  C   UNL     1       4.366   0.121   1.559  1.00  0.00     0.025 C 
ATOM     10  C   UNL     1       3.118   1.941   0.402  1.00  0.00     0.314 C 
ATOM     11  C   UNL     1       5.527   0.526   0.759  1.00  0.00     0.019 A 
ATOM     12  O   UNL     1       4.231   2.184  -0.488  1.00  0.00    -0.474 OA
ATOM     13  C   UNL     1       6.652  -0.302   0.817  1.00  0.00     0.013 A 
ATOM     14  C   UNL     1       5.366   1.419  -0.322  1.00  0.00     0.148 A 
ATOM     15  C   UNL     1       7.552  -0.324  -0.247  1.00  0.00     0.023 A 
ATOM     16  C   UNL     1       6.288   1.408  -1.383  1.00  0.00     0.102 A 
ATOM     17  C   UNL     1       7.361   0.507  -1.354  1.00  0.00     0.063 A 
ATOM     18  Cl  UNL     1       5.983   2.393  -2.781  1.00  0.00    -0.079 Cl
ATOM     19  Cl  UNL     1       8.437   0.303  -2.691  1.00  0.00    -0.083 Cl
BRANCH  10  20
ATOM     20  C   UNL     1       2.975   3.088   1.416  1.00  0.00     0.429 C 
ATOM     21  F   UNL     1       2.718   4.263   0.791  1.00  0.00    -0.167 F 
ATOM     22  F   UNL     1       1.955   2.878   2.281  1.00  0.00    -0.167 F 
ATOM     23  F   UNL     1       4.098   3.264   2.152  1.00  0.00    -0.167 F 
ENDBRANCH  10  20
ENDBRANCH   6   8
ENDBRANCH   3   4
ENDBRANCH   2   3
ENDBRANCH   1   2
BRANCH   1  24
ATOM     24  N   UNL     1       4.495  -2.702  -3.655  1.00  0.00    -0.352 N 
ATOM     25  C   UNL     1       5.372  -3.168  -4.618  1.00  0.00     0.251 C 
ATOM     26  H   UNL     1       4.246  -1.754  -3.748  1.00  0.00     0.163 HD
ATOM     27  O   UNL     1       5.804  -2.399  -5.458  1.00  0.00    -0.269 OA
BRANCH  25  28
ATOM     28  C   UNL     1       5.819  -4.583  -4.604  1.00  0.00     0.039 A 
ATOM     29  C   UNL     1       7.162  -4.872  -4.868  1.00  0.00     0.014 A 
ATOM     30  C   UNL     1       4.934  -5.619  -4.311  1.00  0.00     0.014 A 
ATOM     31  C   UNL     1       7.630  -6.184  -4.736  1.00  0.00     0.010 A 
ATOM     32  C   UNL     1       5.424  -6.896  -4.061  1.00  0.00     0.010 A 
ATOM     33  C   UNL     1       6.777  -7.199  -4.274  1.00  0.00    -0.014 A 
BRANCH  33  34
ATOM     34  C   UNL     1       7.258  -8.583  -4.014  1.00  0.00     0.031 A 
ATOM     35  C   UNL     1       6.605  -9.747  -4.718  1.00  0.00     0.074 A 
ATOM     36  C   UNL     1       8.203  -8.805  -3.078  1.00  0.00     0.049 A 
ATOM     37  N   UNL     1       6.776 -11.030  -4.526  1.00  0.00    -0.248 NA
ATOM     38  C   UNL     1       5.590  -9.427  -5.737  1.00  0.00     0.031 C 
ATOM     39  C   UNL     1       8.871  -7.773  -2.278  1.00  0.00     0.029 A 
ATOM     40  N   UNL     1       8.761  -9.977  -2.629  1.00  0.00    -0.354 N 
ATOM     41  C   UNL     1       5.863 -11.662  -5.364  1.00  0.00     0.074 A 
ATOM     42  C   UNL     1       5.103 -10.625  -6.023  1.00  0.00     0.031 C 
ATOM     43  C   UNL     1       9.768  -8.354  -1.465  1.00  0.00     0.029 A 
ATOM     44  C   UNL     1       9.710  -9.800  -1.648  1.00  0.00     0.049 A 
ATOM     45  H   UNL     1       8.506 -10.862  -2.977  1.00  0.00     0.167 HD
ATOM     46  C   UNL     1       5.690 -12.986  -5.588  1.00  0.00     0.031 A 
ATOM     47  C   UNL     1      10.447 -10.699  -0.968  1.00  0.00     0.031 A 
ATOM     48  C   UNL     1       6.489 -14.013  -4.975  1.00  0.00     0.049 A 
ATOM     49  C   UNL     1      10.274 -12.163  -1.272  1.00  0.00     0.074 A 
ATOM     50  C   UNL     1       6.455 -15.377  -5.199  1.00  0.00     0.029 A 
ATOM     51  N   UNL     1       7.477 -13.785  -4.030  1.00  0.00    -0.354 N 
ATOM     52  N   UNL     1       9.449 -12.735  -2.116  1.00  0.00    -0.248 NA
ATOM     53  C   UNL     1      11.139 -13.100  -0.542  1.00  0.00     0.031 C 
ATOM     54  C   UNL     1       7.397 -15.980  -4.359  1.00  0.00     0.029 A 
ATOM     55  C   UNL     1       8.052 -14.985  -3.651  1.00  0.00     0.049 A 
ATOM     56  H   UNL     1       7.732 -12.900  -3.681  1.00  0.00     0.167 HD
ATOM     57  C   UNL     1       9.714 -14.098  -2.037  1.00  0.00     0.074 A 
ATOM     58  C   UNL     1      10.787 -14.261  -1.077  1.00  0.00     0.031 C 
ATOM     59  C   UNL     1       9.122 -15.123  -2.697  1.00  0.00     0.031 A 
BRANCH  46  60
ATOM     60  C   UNL     1       4.605 -13.399  -6.548  1.00  0.00    -0.014 A 
ATOM     61  C   UNL     1       4.716 -13.141  -7.926  1.00  0.00     0.010 A 
ATOM     62  C   UNL     1       3.475 -14.089  -6.072  1.00  0.00     0.010 A 
ATOM     63  C   UNL     1       3.701 -13.527  -8.804  1.00  0.00     0.020 A 
ATOM     64  C   UNL     1       2.471 -14.505  -6.951  1.00  0.00     0.020 A 
ATOM     65  C   UNL     1       2.583 -14.206  -8.310  1.00  0.00     0.054 A 
BRANCH  65  66
ATOM     66  S   UNL     1       1.296 -14.725  -9.479  1.00  0.00     0.124 S 
ATOM     67  O   UNL     1       0.643 -13.455  -9.789  1.00  0.00    -0.237 OA
ATOM     68  O   UNL     1       2.071 -15.314 -10.568  1.00  0.00    -0.237 OA
ATOM     69  O   UNL     1       0.490 -15.669  -8.709  1.00  0.00    -0.744 OA
ENDBRANCH  65  66
ENDBRANCH  46  60
BRANCH  47  70
ATOM     70  C   UNL     1      11.431 -10.243   0.053  1.00  0.00    -0.014 A 
ATOM     71  C   UNL     1      12.812 -10.341  -0.195  1.00  0.00     0.010 A 
ATOM     72  C   UNL     1      10.995  -9.703   1.276  1.00  0.00     0.010 A 
ATOM     73  C   UNL     1      13.738  -9.930   0.769  1.00  0.00     0.020 A 
ATOM     74  C   UNL     1      11.917  -9.265   2.231  1.00  0.00     0.020 A 
ATOM     75  C   UNL     1      13.284  -9.394   1.977  1.00  0.00     0.054 A 
BRANCH  75  76
ATOM     76  S   UNL     1      14.501  -8.824   3.196  1.00  0.00     0.124 S 
ATOM     77  O   UNL     1      14.992 -10.084   3.746  1.00  0.00    -0.237 OA
ATOM     78  O   UNL     1      15.450  -8.079   2.373  1.00  0.00    -0.237 OA
ATOM     79  O   UNL     1      13.708  -8.006   4.112  1.00  0.00    -0.744 OA
ENDBRANCH  75  76
ENDBRANCH  47  70
BRANCH  59  80
ATOM     80  C   UNL     1       9.644 -16.508  -2.433  1.00  0.00    -0.014 A 
ATOM     81  C   UNL     1       9.372 -17.169  -1.222  1.00  0.00     0.010 A 
ATOM     82  C   UNL     1      10.369 -17.178  -3.436  1.00  0.00     0.010 A 
ATOM     83  C   UNL     1       9.844 -18.466  -1.007  1.00  0.00     0.020 A 
ATOM     84  C   UNL     1      10.819 -18.484  -3.234  1.00  0.00     0.020 A 
ATOM     85  C   UNL     1      10.566 -19.114  -2.014  1.00  0.00     0.054 A 
BRANCH  85  86
ATOM     86  S   UNL     1      11.131 -20.813  -1.726  1.00  0.00     0.124 S 
ATOM     87  O   UNL     1      12.252 -20.609  -0.812  1.00  0.00    -0.237 OA
ATOM     88  O   UNL     1       9.953 -21.450  -1.144  1.00  0.00    -0.237 OA
ATOM     89  O   UNL     1      11.493 -21.288  -3.060  1.00  0.00    -0.744 OA
ENDBRANCH  85  86
ENDBRANCH  59  80
ENDBRANCH  33  34
ENDBRANCH  25  28
ENDBRANCH   1  24
TORSDOF 14
