REMARK SMILES O=C(CCc1ccc(S(=O)(=O)Nc2cccc(I)c2)cc1)NCCCNC(=O)c1ccc(-c2c3nc(c(-c4ccc(S(=O)(=O)[O-])cc4)c4ccc([nH]4)c(-c4ccc(S(=O)(=O)[O-])cc4)c4nc(c(-c5ccc(S(=O)(=O)[O-])cc5)c5ccc2[nH]5)C=C4)C=C3)cc1
REMARK SMILES IDX 23 1 22 2 1 3 2 4 3 6 4 7 5 8 6 9 21 10 7 11 20 12 8 13 9 14
REMARK SMILES IDX 10 15 11 16 12 17 13 19 14 20 19 21 15 22 17 23 16 24 18 25
REMARK SMILES IDX 24 26 25 27 26 28 27 29 28 31 29 32 30 33 88 34 31 35 87 36
REMARK SMILES IDX 32 37 33 38 34 39 81 40 35 41 86 42 80 43 82 44 36 45 85 46
REMARK SMILES IDX 79 47 78 48 37 50 67 51 48 52 66 53 49 54 52 55 65 56 83 57
REMARK SMILES IDX 50 58 51 59 64 61 84 62 53 63 38 64 39 65 47 66 40 67 46 68
REMARK SMILES IDX 41 69 42 70 43 71 44 72 45 73 68 74 69 75 77 76 70 77 76 78
REMARK SMILES IDX 71 79 72 80 73 81 74 82 75 83 54 84 55 85 63 86 56 87 62 88
REMARK SMILES IDX 57 89 58 90 59 91 60 92 61 93
REMARK H PARENT 22 5 12 18 26 30 82 49 52 60
REMARK Flexibility Score: inf
ROOT
ATOM      1  C   UNL     1       1.873  -1.909  -1.540  1.00  0.00     0.117 C 
ENDROOT
BRANCH   1   2
ATOM      2  N   UNL     1       2.456  -0.743  -0.911  1.00  0.00    -0.356 N 
ATOM      3  O   UNL     1       0.782  -0.399   0.630  1.00  0.00    -0.275 OA
ATOM      4  C   UNL     1       1.880  -0.112   0.168  1.00  0.00     0.220 C 
ATOM      5  H   UNL     1       3.300  -0.386  -1.271  1.00  0.00     0.163 HD
BRANCH   4   6
ATOM      6  C   UNL     1       2.757   0.960   0.782  1.00  0.00     0.105 C 
BRANCH   6   7
ATOM      7  C   UNL     1       3.755   0.352   1.768  1.00  0.00     0.045 C 
BRANCH   7   8
ATOM      8  C   UNL     1       4.803  -0.533   1.129  1.00  0.00    -0.047 A 
ATOM      9  C   UNL     1       4.940  -1.870   1.528  1.00  0.00     0.005 A 
ATOM     10  C   UNL     1       5.645  -0.037   0.125  1.00  0.00     0.005 A 
ATOM     11  C   UNL     1       5.930  -2.680   0.966  1.00  0.00     0.022 A 
ATOM     12  C   UNL     1       6.593  -0.862  -0.482  1.00  0.00     0.022 A 
ATOM     13  C   UNL     1       6.774  -2.167  -0.025  1.00  0.00     0.087 A 
BRANCH  13  14
ATOM     14  S   UNL     1       8.135  -3.199  -0.541  1.00  0.00     0.261 S 
ATOM     15  O   UNL     1       8.895  -3.512   0.653  1.00  0.00    -0.201 OA
ATOM     16  O   UNL     1       7.566  -4.240  -1.362  1.00  0.00    -0.201 OA
BRANCH  14  17
ATOM     17  N   UNL     1       9.098  -2.297  -1.569  1.00  0.00    -0.280 N 
ATOM     18  H   UNL     1       9.288  -2.678  -2.456  1.00  0.00     0.180 HD
BRANCH  17  19
ATOM     19  C   UNL     1       9.665  -1.028  -1.271  1.00  0.00     0.050 A 
ATOM     20  C   UNL     1       9.955  -0.199  -2.361  1.00  0.00     0.027 A 
ATOM     21  C   UNL     1       9.851  -0.549   0.027  1.00  0.00     0.041 A 
ATOM     22  C   UNL     1      10.337   1.127  -2.158  1.00  0.00     0.003 A 
ATOM     23  C   UNL     1      10.215   0.785   0.224  1.00  0.00     0.015 A 
ATOM     24  C   UNL     1      10.447   1.628  -0.862  1.00  0.00     0.015 A 
ATOM     25  I   UNL     1      10.341   1.539   2.158  1.00  0.00    -0.044 I 
ENDBRANCH  17  19
ENDBRANCH  14  17
ENDBRANCH  13  14
ENDBRANCH   7   8
ENDBRANCH   6   7
ENDBRANCH   4   6
ENDBRANCH   1   2
BRANCH   1  26
ATOM     26  C   UNL     1       2.217  -2.006  -3.021  1.00  0.00     0.042 C 
BRANCH  26  27
ATOM     27  C   UNL     1       3.703  -2.183  -3.335  1.00  0.00     0.118 C 
BRANCH  27  28
ATOM     28  N   UNL     1       4.232  -3.474  -2.927  1.00  0.00    -0.352 N 
ATOM     29  C   UNL     1       4.901  -4.421  -3.671  1.00  0.00     0.251 C 
ATOM     30  H   UNL     1       4.092  -3.706  -1.981  1.00  0.00     0.163 HD
ATOM     31  O   UNL     1       5.055  -5.551  -3.216  1.00  0.00    -0.269 OA
BRANCH  29  32
ATOM     32  C   UNL     1       5.382  -4.104  -5.038  1.00  0.00     0.039 A 
ATOM     33  C   UNL     1       5.212  -5.062  -6.043  1.00  0.00     0.014 A 
ATOM     34  C   UNL     1       5.978  -2.877  -5.345  1.00  0.00     0.014 A 
ATOM     35  C   UNL     1       5.537  -4.753  -7.367  1.00  0.00     0.010 A 
ATOM     36  C   UNL     1       6.246  -2.547  -6.674  1.00  0.00     0.010 A 
ATOM     37  C   UNL     1       6.003  -3.472  -7.701  1.00  0.00    -0.014 A 
BRANCH  37  38
ATOM     38  C   UNL     1       6.173  -3.058  -9.119  1.00  0.00     0.031 A 
ATOM     39  C   UNL     1       7.529  -2.709  -9.662  1.00  0.00     0.074 A 
ATOM     40  C   UNL     1       5.082  -2.910  -9.898  1.00  0.00     0.049 A 
ATOM     41  N   UNL     1       7.846  -2.220 -10.834  1.00  0.00    -0.248 NA
ATOM     42  C   UNL     1       8.677  -2.916  -8.766  1.00  0.00     0.031 C 
ATOM     43  C   UNL     1       3.702  -3.181  -9.486  1.00  0.00     0.029 A 
ATOM     44  N   UNL     1       4.959  -2.481 -11.197  1.00  0.00    -0.354 N 
ATOM     45  C   UNL     1       9.223  -2.037 -10.810  1.00  0.00     0.074 A 
ATOM     46  C   UNL     1       9.678  -2.444  -9.497  1.00  0.00     0.031 C 
ATOM     47  C   UNL     1       2.877  -2.927 -10.514  1.00  0.00     0.029 A 
ATOM     48  C   UNL     1       3.660  -2.437 -11.644  1.00  0.00     0.049 A 
ATOM     49  H   UNL     1       5.730  -2.228 -11.755  1.00  0.00     0.167 HD
ATOM     50  C   UNL     1      10.036  -1.582 -11.794  1.00  0.00     0.031 A 
ATOM     51  C   UNL     1       3.148  -2.037 -12.824  1.00  0.00     0.031 A 
ATOM     52  C   UNL     1       9.590  -1.198 -13.107  1.00  0.00     0.049 A 
ATOM     53  C   UNL     1       4.070  -1.540 -13.901  1.00  0.00     0.074 A 
ATOM     54  C   UNL     1      10.351  -0.772 -14.183  1.00  0.00     0.029 A 
ATOM     55  N   UNL     1       8.269  -1.195 -13.526  1.00  0.00    -0.354 N 
ATOM     56  N   UNL     1       5.374  -1.413 -13.870  1.00  0.00    -0.248 NA
ATOM     57  C   UNL     1       3.452  -1.137 -15.172  1.00  0.00     0.031 C 
ATOM     58  C   UNL     1       9.485  -0.481 -15.243  1.00  0.00     0.029 A 
ATOM     59  C   UNL     1       8.190  -0.762 -14.839  1.00  0.00     0.049 A 
ATOM     60  H   UNL     1       7.500  -1.462 -12.972  1.00  0.00     0.167 HD
ATOM     61  C   UNL     1       5.736  -0.937 -15.124  1.00  0.00     0.074 A 
ATOM     62  C   UNL     1       4.516  -0.803 -15.893  1.00  0.00     0.031 C 
ATOM     63  C   UNL     1       6.971  -0.639 -15.595  1.00  0.00     0.031 A 
BRANCH  50  64
ATOM     64  C   UNL     1      11.501  -1.463 -11.478  1.00  0.00    -0.014 A 
ATOM     65  C   UNL     1      12.316  -2.605 -11.382  1.00  0.00     0.010 A 
ATOM     66  C   UNL     1      12.076  -0.192 -11.305  1.00  0.00     0.010 A 
ATOM     67  C   UNL     1      13.672  -2.480 -11.072  1.00  0.00     0.020 A 
ATOM     68  C   UNL     1      13.437  -0.061 -11.017  1.00  0.00     0.020 A 
ATOM     69  C   UNL     1      14.222  -1.209 -10.881  1.00  0.00     0.054 A 
BRANCH  69  70
ATOM     70  S   UNL     1      15.985  -1.069 -10.477  1.00  0.00     0.124 S 
ATOM     71  O   UNL     1      15.991  -1.406  -9.055  1.00  0.00    -0.237 OA
ATOM     72  O   UNL     1      16.600  -2.056 -11.360  1.00  0.00    -0.237 OA
ATOM     73  O   UNL     1      16.300   0.323 -10.789  1.00  0.00    -0.744 OA
ENDBRANCH  69  70
ENDBRANCH  50  64
BRANCH  51  74
ATOM     74  C   UNL     1       1.680  -2.096 -13.049  1.00  0.00    -0.014 A 
ATOM     75  C   UNL     1       1.128  -3.101 -13.862  1.00  0.00     0.010 A 
ATOM     76  C   UNL     1       0.826  -1.166 -12.429  1.00  0.00     0.010 A 
ATOM     77  C   UNL     1      -0.254  -3.168 -14.061  1.00  0.00     0.020 A 
ATOM     78  C   UNL     1      -0.557  -1.243 -12.610  1.00  0.00     0.020 A 
ATOM     79  C   UNL     1      -1.088  -2.239 -13.433  1.00  0.00     0.054 A 
BRANCH  79  80
ATOM     80  S   UNL     1      -2.884  -2.380 -13.652  1.00  0.00     0.124 S 
ATOM     81  O   UNL     1      -3.076  -1.780 -14.968  1.00  0.00    -0.237 OA
ATOM     82  O   UNL     1      -3.103  -3.822 -13.575  1.00  0.00    -0.237 OA
ATOM     83  O   UNL     1      -3.422  -1.616 -12.528  1.00  0.00    -0.744 OA
ENDBRANCH  79  80
ENDBRANCH  51  74
BRANCH  63  84
ATOM     84  C   UNL     1       7.077  -0.168 -17.018  1.00  0.00    -0.014 A 
ATOM     85  C   UNL     1       6.746   1.152 -17.370  1.00  0.00     0.010 A 
ATOM     86  C   UNL     1       7.586  -1.037 -18.000  1.00  0.00     0.010 A 
ATOM     87  C   UNL     1       6.912   1.592 -18.686  1.00  0.00     0.020 A 
ATOM     88  C   UNL     1       7.769  -0.594 -19.313  1.00  0.00     0.020 A 
ATOM     89  C   UNL     1       7.424   0.717 -19.649  1.00  0.00     0.054 A 
BRANCH  89  90
ATOM     90  S   UNL     1       7.699   1.330 -21.334  1.00  0.00     0.124 S 
ATOM     91  O   UNL     1       6.348   1.313 -21.887  1.00  0.00    -0.237 OA
ATOM     92  O   UNL     1       8.269   2.656 -21.107  1.00  0.00    -0.237 OA
ATOM     93  O   UNL     1       8.621   0.353 -21.910  1.00  0.00    -0.744 OA
ENDBRANCH  89  90
ENDBRANCH  63  84
ENDBRANCH  37  38
ENDBRANCH  29  32
ENDBRANCH  27  28
ENDBRANCH  26  27
ENDBRANCH   1  26
TORSDOF 18
