REMARK SMILES Cc1nc(NC(=O)[C@H]2[C@@H]3CC[C@@H](C3)[C@@H]2C(=O)NCCCNC(=O)c2ccc(-c3c4nc(c(-c5ccc(S(=O)(=O)[O-])cc5)c5ccc([nH]5)c(-c5ccc(S(=O)(=O)[O-])cc5)c5nc(c(-c6ccc(S(=O)(=O)[O-])cc6)c6ccc3[nH]6)C=C5)C=C4)cc2)sc1-c1ccccc1
REMARK SMILES IDX 19 1 18 2 17 3 15 4 16 5 14 7 8 8 9 9 10 10 13 11 12 12
REMARK SMILES IDX 11 13 6 14 5 15 7 17 4 18 1 19 2 20 3 21 85 22 84 23 86 24
REMARK SMILES IDX 87 25 91 26 88 27 90 28 89 29 20 30 21 31 22 32 23 34 24 35
REMARK SMILES IDX 25 36 83 37 26 38 82 39 27 40 28 41 29 42 76 43 30 44 81 45
REMARK SMILES IDX 75 46 77 47 31 48 80 49 74 50 73 51 32 53 62 54 43 55 61 56
REMARK SMILES IDX 44 57 47 58 60 59 78 60 45 61 46 62 59 64 79 65 48 66 33 67
REMARK SMILES IDX 34 68 42 69 35 70 41 71 36 72 37 73 38 74 39 75 40 76 63 77
REMARK SMILES IDX 64 78 72 79 65 80 71 81 66 82 67 83 68 84 69 85 70 86 49 87
REMARK SMILES IDX 50 88 58 89 51 90 57 91 52 92 53 93 54 94 55 95 56 96
REMARK H PARENT 17 6 5 16 21 33 77 52 47 63
REMARK Flexibility Score: inf
ROOT
ATOM      1  C   UNL     1      -4.608  -0.490  -0.935  1.00  0.00     0.042 C 
ENDROOT
BRANCH   1   2
ATOM      2  C   UNL     1      -4.713   0.998  -0.632  1.00  0.00     0.117 C 
BRANCH   2   3
ATOM      3  N   UNL     1      -3.893   1.431   0.484  1.00  0.00    -0.356 N 
ATOM      4  C   UNL     1      -2.765   2.184   0.587  1.00  0.00     0.224 C 
ATOM      5  O   UNL     1      -2.483   2.534   1.738  1.00  0.00    -0.275 OA
ATOM      6  H   UNL     1      -4.225   1.112   1.354  1.00  0.00     0.163 HD
BRANCH   4   7
ATOM      7  C   UNL     1      -1.881   2.562  -0.620  1.00  0.00     0.094 C 
ATOM      8  C   UNL     1      -0.780   3.604  -0.192  1.00  0.00     0.094 C 
ATOM      9  C   UNL     1      -1.185   4.833  -1.075  1.00  0.00     0.002 C 
ATOM     10  C   UNL     1      -2.557   5.392  -0.652  1.00  0.00     0.005 C 
ATOM     11  C   UNL     1      -1.510   4.142  -2.397  1.00  0.00     0.009 C 
ATOM     12  C   UNL     1      -2.614   3.290  -1.777  1.00  0.00     0.002 C 
ATOM     13  C   UNL     1      -3.546   4.379  -1.233  1.00  0.00     0.005 C 
BRANCH   8  14
ATOM     14  C   UNL     1       0.722   3.330  -0.458  1.00  0.00     0.230 C 
ATOM     15  N   UNL     1       1.359   2.145  -0.349  1.00  0.00    -0.302 N 
ATOM     16  H   UNL     1       2.293   2.136  -0.660  1.00  0.00     0.172 HD
ATOM     17  O   UNL     1       1.461   4.271  -0.795  1.00  0.00    -0.274 OA
BRANCH  15  18
ATOM     18  C   UNL     1       0.894   0.968   0.129  1.00  0.00     0.190 A 
ATOM     19  C   UNL     1      -1.629  -1.102   1.550  1.00  0.00     0.068 C 
ATOM     20  C   UNL     1      -0.379  -0.617   0.924  1.00  0.00     0.058 A 
ATOM     21  N   UNL     1      -0.183   0.745   0.823  1.00  0.00    -0.225 NA
ATOM     22  C   UNL     1       0.570  -1.395   0.282  1.00  0.00     0.059 A 
ATOM     23  S   UNL     1       1.823  -0.398  -0.313  1.00  0.00    -0.096 S 
BRANCH  22  24
ATOM     24  C   UNL     1       0.509  -2.829   0.045  1.00  0.00    -0.006 A 
ATOM     25  C   UNL     1       0.899  -3.730   1.041  1.00  0.00     0.009 A 
ATOM     26  C   UNL     1      -0.165  -3.303  -1.091  1.00  0.00     0.009 A 
ATOM     27  C   UNL     1       0.579  -5.083   0.921  1.00  0.00     0.001 A 
ATOM     28  C   UNL     1      -0.484  -4.655  -1.207  1.00  0.00     0.001 A 
ATOM     29  C   UNL     1      -0.125  -5.541  -0.193  1.00  0.00     0.000 A 
ENDBRANCH  22  24
ENDBRANCH  15  18
ENDBRANCH   8  14
ENDBRANCH   4   7
ENDBRANCH   2   3
ENDBRANCH   1   2
BRANCH   1  30
ATOM     30  C   UNL     1      -5.005  -1.408   0.220  1.00  0.00     0.118 C 
BRANCH  30  31
ATOM     31  N   UNL     1      -6.424  -1.379   0.521  1.00  0.00    -0.352 N 
ATOM     32  C   UNL     1      -7.348  -2.394   0.510  1.00  0.00     0.251 C 
ATOM     33  H   UNL     1      -6.778  -0.495   0.772  1.00  0.00     0.163 HD
ATOM     34  O   UNL     1      -8.534  -2.126   0.683  1.00  0.00    -0.269 OA
BRANCH  32  35
ATOM     35  C   UNL     1      -6.940  -3.797   0.267  1.00  0.00     0.039 A 
ATOM     36  C   UNL     1      -7.707  -4.565  -0.615  1.00  0.00     0.014 A 
ATOM     37  C   UNL     1      -5.854  -4.377   0.930  1.00  0.00     0.014 A 
ATOM     38  C   UNL     1      -7.363  -5.896  -0.863  1.00  0.00     0.010 A 
ATOM     39  C   UNL     1      -5.477  -5.690   0.637  1.00  0.00     0.010 A 
ATOM     40  C   UNL     1      -6.234  -6.466  -0.253  1.00  0.00    -0.014 A 
BRANCH  40  41
ATOM     41  C   UNL     1      -5.859  -7.880  -0.521  1.00  0.00     0.031 A 
ATOM     42  C   UNL     1      -5.960  -8.912   0.570  1.00  0.00     0.074 A 
ATOM     43  C   UNL     1      -5.404  -8.233  -1.740  1.00  0.00     0.049 A 
ATOM     44  N   UNL     1      -5.661 -10.186   0.529  1.00  0.00    -0.248 NA
ATOM     45  C   UNL     1      -6.442  -8.450   1.881  1.00  0.00     0.031 C 
ATOM     46  C   UNL     1      -5.236  -7.326  -2.877  1.00  0.00     0.029 A 
ATOM     47  N   UNL     1      -5.000  -9.452  -2.225  1.00  0.00    -0.354 N 
ATOM     48  C   UNL     1      -5.907 -10.675   1.807  1.00  0.00     0.074 A 
ATOM     49  C   UNL     1      -6.337  -9.551   2.612  1.00  0.00     0.031 C 
ATOM     50  C   UNL     1      -4.787  -8.025  -3.933  1.00  0.00     0.029 A 
ATOM     51  C   UNL     1      -4.605  -9.420  -3.541  1.00  0.00     0.049 A 
ATOM     52  H   UNL     1      -4.993 -10.273  -1.681  1.00  0.00     0.167 HD
ATOM     53  C   UNL     1      -5.802 -11.945   2.268  1.00  0.00     0.031 A 
ATOM     54  C   UNL     1      -4.148 -10.400  -4.345  1.00  0.00     0.031 A 
ATOM     55  C   UNL     1      -5.387 -13.066   1.467  1.00  0.00     0.049 A 
ATOM     56  C   UNL     1      -4.033 -11.801  -3.810  1.00  0.00     0.074 A 
ATOM     57  C   UNL     1      -5.291 -14.398   1.835  1.00  0.00     0.029 A 
ATOM     58  N   UNL     1      -4.999 -12.990   0.139  1.00  0.00    -0.354 N 
ATOM     59  N   UNL     1      -4.318 -12.250  -2.611  1.00  0.00    -0.248 NA
ATOM     60  C   UNL     1      -3.547 -12.830  -4.741  1.00  0.00     0.031 C 
ATOM     61  C   UNL     1      -4.805 -15.120   0.739  1.00  0.00     0.029 A 
ATOM     62  C   UNL     1      -4.646 -14.246  -0.324  1.00  0.00     0.049 A 
ATOM     63  H   UNL     1      -4.978 -12.164  -0.397  1.00  0.00     0.167 HD
ATOM     64  C   UNL     1      -4.069 -13.618  -2.651  1.00  0.00     0.074 A 
ATOM     65  C   UNL     1      -3.623 -13.924  -3.995  1.00  0.00     0.031 C 
ATOM     66  C   UNL     1      -4.202 -14.537  -1.663  1.00  0.00     0.031 A 
BRANCH  53  67
ATOM     67  C   UNL     1      -6.138 -12.187   3.716  1.00  0.00    -0.014 A 
ATOM     68  C   UNL     1      -7.468 -12.126   4.172  1.00  0.00     0.010 A 
ATOM     69  C   UNL     1      -5.117 -12.512   4.627  1.00  0.00     0.010 A 
ATOM     70  C   UNL     1      -7.764 -12.341   5.520  1.00  0.00     0.020 A 
ATOM     71  C   UNL     1      -5.412 -12.753   5.971  1.00  0.00     0.020 A 
ATOM     72  C   UNL     1      -6.733 -12.647   6.413  1.00  0.00     0.054 A 
BRANCH  72  73
ATOM     73  S   UNL     1      -7.145 -12.933   8.156  1.00  0.00     0.124 S 
ATOM     74  O   UNL     1      -7.394 -11.574   8.632  1.00  0.00    -0.237 OA
ATOM     75  O   UNL     1      -8.323 -13.793   8.072  1.00  0.00    -0.237 OA
ATOM     76  O   UNL     1      -5.948 -13.573   8.695  1.00  0.00    -0.744 OA
ENDBRANCH  72  73
ENDBRANCH  53  67
BRANCH  54  77
ATOM     77  C   UNL     1      -3.778 -10.091  -5.752  1.00  0.00    -0.014 A 
ATOM     78  C   UNL     1      -4.589 -10.527  -6.815  1.00  0.00     0.010 A 
ATOM     79  C   UNL     1      -2.619  -9.347  -6.035  1.00  0.00     0.010 A 
ATOM     80  C   UNL     1      -4.241 -10.235  -8.137  1.00  0.00     0.020 A 
ATOM     81  C   UNL     1      -2.281  -9.032  -7.354  1.00  0.00     0.020 A 
ATOM     82  C   UNL     1      -3.089  -9.487  -8.398  1.00  0.00     0.054 A 
BRANCH  82  83
ATOM     83  S   UNL     1      -2.686  -9.067 -10.116  1.00  0.00     0.124 S 
ATOM     84  O   UNL     1      -2.150 -10.328 -10.619  1.00  0.00    -0.237 OA
ATOM     85  O   UNL     1      -3.982  -8.668 -10.658  1.00  0.00    -0.237 OA
ATOM     86  O   UNL     1      -1.716  -7.982  -9.981  1.00  0.00    -0.744 OA
ENDBRANCH  82  83
ENDBRANCH  54  77
BRANCH  66  87
ATOM     87  C   UNL     1      -3.889 -15.969  -2.003  1.00  0.00    -0.014 A 
ATOM     88  C   UNL     1      -2.563 -16.404  -2.171  1.00  0.00     0.010 A 
ATOM     89  C   UNL     1      -4.936 -16.904  -2.103  1.00  0.00     0.010 A 
ATOM     90  C   UNL     1      -2.291 -17.744  -2.462  1.00  0.00     0.020 A 
ATOM     91  C   UNL     1      -4.667 -18.248  -2.369  1.00  0.00     0.020 A 
ATOM     92  C   UNL     1      -3.345 -18.657  -2.560  1.00  0.00     0.054 A 
BRANCH  92  93
ATOM     93  S   UNL     1      -2.965 -20.400  -2.893  1.00  0.00     0.124 S 
ATOM     94  O   UNL     1      -2.653 -20.375  -4.319  1.00  0.00    -0.237 OA
ATOM     95  O   UNL     1      -1.833 -20.658  -2.006  1.00  0.00    -0.237 OA
ATOM     96  O   UNL     1      -4.199 -21.097  -2.537  1.00  0.00    -0.744 OA
ENDBRANCH  92  93
ENDBRANCH  66  87
ENDBRANCH  40  41
ENDBRANCH  32  35
ENDBRANCH  30  31
ENDBRANCH   1  30
TORSDOF 16
