REMARK SMILES CC[C@H]1CC(=O)N(CCn2cc(C(=O)NCCCNC(=O)c3ccc(-c4c5nc(c(-c6ccc(S(=O)(=O)[O-])cc6)c6ccc([nH]6)c(-c6ccc(S(=O)(=O)[O-])cc6)c6nc(c(-c7ccc(S(=O)(=O)[O-])cc7)c7ccc4[nH]7)C=C6)C=C5)cc3)nn2)C1
REMARK SMILES IDX 16 1 15 2 13 3 14 4 12 6 10 7 11 8 83 9 82 10 9 11 8 12 7 13
REMARK SMILES IDX 3 14 4 15 84 16 5 17 6 18 2 19 1 20 17 21 18 22 19 23 20 24
REMARK SMILES IDX 21 26 22 27 23 28 81 29 24 30 80 31 25 32 26 33 27 34 74 35
REMARK SMILES IDX 28 36 79 37 73 38 75 39 29 40 78 41 72 42 71 43 30 45 60 46
REMARK SMILES IDX 41 47 59 48 42 49 45 50 58 51 76 52 43 53 44 54 57 56 77 57
REMARK SMILES IDX 46 58 31 59 32 60 40 61 33 62 39 63 34 64 35 65 36 66 37 67
REMARK SMILES IDX 38 68 61 69 62 70 70 71 63 72 69 73 64 74 65 75 66 76 67 77
REMARK SMILES IDX 68 78 47 79 48 80 56 81 49 82 55 83 50 84 51 85 52 86 53 87
REMARK SMILES IDX 54 88
REMARK H PARENT 15 5 19 25 75 44 45 55
REMARK Flexibility Score: inf
ROOT
ATOM      1  C   UNL     1       1.863  -0.018   0.974  1.00  0.00     0.118 C 
ENDROOT
BRANCH   1   2
ATOM      2  N   UNL     1       2.904   0.074   1.975  1.00  0.00    -0.351 N 
ATOM      3  C   UNL     1       3.802  -0.912   2.351  1.00  0.00     0.273 C 
ATOM      4  O   UNL     1       4.833  -0.565   2.919  1.00  0.00    -0.267 OA
ATOM      5  H   UNL     1       2.983   0.937   2.443  1.00  0.00     0.163 HD
BRANCH   3   6
ATOM      6  C   UNL     1       3.528  -2.307   2.005  1.00  0.00     0.170 A 
ATOM      7  N   UNL     1       2.633  -4.186   1.387  1.00  0.00    -0.250 N 
ATOM      8  C   UNL     1       2.333  -3.008   2.007  1.00  0.00     0.145 A 
ATOM      9  N   UNL     1       3.959  -4.303   1.202  1.00  0.00    -0.067 NA
ATOM     10  N   UNL     1       4.518  -3.159   1.572  1.00  0.00    -0.125 NA
BRANCH   7  11
ATOM     11  C   UNL     1       1.755  -5.220   0.875  1.00  0.00     0.167 C 
BRANCH  11  12
ATOM     12  C   UNL     1       0.456  -4.757   0.189  1.00  0.00     0.143 C 
BRANCH  12  13
ATOM     13  N   UNL     1       0.612  -4.005  -1.059  1.00  0.00    -0.341 N 
ATOM     14  C   UNL     1       0.828  -2.053  -2.375  1.00  0.00     0.017 C 
ATOM     15  C   UNL     1       0.412  -3.224  -3.264  1.00  0.00     0.105 C 
ATOM     16  C   UNL     1       1.256  -2.730  -1.088  1.00  0.00     0.123 C 
ATOM     17  C   UNL     1       0.013  -4.301  -2.272  1.00  0.00     0.222 C 
ATOM     18  O   UNL     1      -0.689  -5.266  -2.516  1.00  0.00    -0.275 OA
BRANCH  14  19
ATOM     19  C   UNL     1       1.847  -1.084  -2.997  1.00  0.00     0.002 C 
ATOM     20  C   UNL     1       3.312  -1.492  -2.914  1.00  0.00     0.004 C 
ENDBRANCH  14  19
ENDBRANCH  12  13
ENDBRANCH  11  12
ENDBRANCH   7  11
ENDBRANCH   3   6
ENDBRANCH   1   2
BRANCH   1  21
ATOM     21  C   UNL     1       0.444  -0.096   1.553  1.00  0.00     0.042 C 
BRANCH  21  22
ATOM     22  C   UNL     1      -0.231   1.264   1.544  1.00  0.00     0.118 C 
BRANCH  22  23
ATOM     23  N   UNL     1      -0.635   1.699   0.193  1.00  0.00    -0.352 N 
ATOM     24  C   UNL     1      -1.198   2.918  -0.189  1.00  0.00     0.251 C 
ATOM     25  H   UNL     1      -0.489   1.048  -0.531  1.00  0.00     0.163 HD
ATOM     26  O   UNL     1      -1.800   3.036  -1.237  1.00  0.00    -0.269 OA
BRANCH  24  27
ATOM     27  C   UNL     1      -1.009   4.061   0.724  1.00  0.00     0.039 A 
ATOM     28  C   UNL     1      -2.012   4.978   1.057  1.00  0.00     0.014 A 
ATOM     29  C   UNL     1       0.226   4.104   1.344  1.00  0.00     0.014 A 
ATOM     30  C   UNL     1      -1.763   5.880   2.096  1.00  0.00     0.010 A 
ATOM     31  C   UNL     1       0.322   4.728   2.544  1.00  0.00     0.010 A 
ATOM     32  C   UNL     1      -0.589   5.728   2.844  1.00  0.00    -0.014 A 
BRANCH  32  33
ATOM     33  C   UNL     1      -0.232   6.534   4.002  1.00  0.00     0.031 A 
ATOM     34  C   UNL     1      -1.144   6.379   5.167  1.00  0.00     0.074 A 
ATOM     35  C   UNL     1       1.013   7.063   4.098  1.00  0.00     0.049 A 
ATOM     36  N   UNL     1      -1.913   7.269   5.697  1.00  0.00    -0.248 NA
ATOM     37  C   UNL     1      -1.344   5.024   5.716  1.00  0.00     0.031 C 
ATOM     38  C   UNL     1       2.139   6.939   3.152  1.00  0.00     0.029 A 
ATOM     39  N   UNL     1       1.601   7.694   5.144  1.00  0.00    -0.354 N 
ATOM     40  C   UNL     1      -2.518   6.652   6.790  1.00  0.00     0.074 A 
ATOM     41  C   UNL     1      -2.306   5.239   6.615  1.00  0.00     0.031 C 
ATOM     42  C   UNL     1       3.301   7.235   3.776  1.00  0.00     0.029 A 
ATOM     43  C   UNL     1       2.993   7.750   5.095  1.00  0.00     0.049 A 
ATOM     44  H   UNL     1       1.082   8.085   5.884  1.00  0.00     0.167 HD
ATOM     45  C   UNL     1      -2.918   7.363   7.883  1.00  0.00     0.031 A 
ATOM     46  C   UNL     1       3.829   8.164   6.084  1.00  0.00     0.031 A 
ATOM     47  C   UNL     1      -2.875   8.780   7.624  1.00  0.00     0.049 A 
ATOM     48  C   UNL     1       2.995   8.937   7.040  1.00  0.00     0.074 A 
ATOM     49  C   UNL     1      -3.514   9.625   6.740  1.00  0.00     0.029 A 
ATOM     50  N   UNL     1      -1.748   9.450   8.046  1.00  0.00    -0.354 N 
ATOM     51  N   UNL     1       2.396  10.053   6.726  1.00  0.00    -0.248 NA
ATOM     52  C   UNL     1       2.414   8.214   8.161  1.00  0.00     0.031 C 
ATOM     53  C   UNL     1      -2.502  10.530   6.307  1.00  0.00     0.029 A 
ATOM     54  C   UNL     1      -1.329  10.255   7.017  1.00  0.00     0.049 A 
ATOM     55  H   UNL     1      -1.319   9.366   8.928  1.00  0.00     0.167 HD
ATOM     56  C   UNL     1       1.137   9.960   7.303  1.00  0.00     0.074 A 
ATOM     57  C   UNL     1       1.236   8.842   8.244  1.00  0.00     0.031 C 
ATOM     58  C   UNL     1       0.056  10.597   6.758  1.00  0.00     0.031 A 
BRANCH  45  59
ATOM     59  C   UNL     1      -2.963   6.819   9.292  1.00  0.00    -0.014 A 
ATOM     60  C   UNL     1      -3.416   7.664  10.326  1.00  0.00     0.010 A 
ATOM     61  C   UNL     1      -2.343   5.615   9.683  1.00  0.00     0.010 A 
ATOM     62  C   UNL     1      -3.188   7.358  11.675  1.00  0.00     0.020 A 
ATOM     63  C   UNL     1      -2.148   5.278  11.025  1.00  0.00     0.020 A 
ATOM     64  C   UNL     1      -2.539   6.171  12.013  1.00  0.00     0.054 A 
BRANCH  64  65
ATOM     65  S   UNL     1      -2.149   5.837  13.747  1.00  0.00     0.124 S 
ATOM     66  O   UNL     1      -1.191   6.895  14.049  1.00  0.00    -0.237 OA
ATOM     67  O   UNL     1      -3.456   5.961  14.387  1.00  0.00    -0.237 OA
ATOM     68  O   UNL     1      -1.600   4.483  13.719  1.00  0.00    -0.744 OA
ENDBRANCH  64  65
ENDBRANCH  45  59
BRANCH  46  69
ATOM     69  C   UNL     1       5.194   7.673   6.417  1.00  0.00    -0.014 A 
ATOM     70  C   UNL     1       6.071   8.417   7.230  1.00  0.00     0.010 A 
ATOM     71  C   UNL     1       5.534   6.328   6.158  1.00  0.00     0.010 A 
ATOM     72  C   UNL     1       7.217   7.826   7.799  1.00  0.00     0.020 A 
ATOM     73  C   UNL     1       6.673   5.732   6.722  1.00  0.00     0.020 A 
ATOM     74  C   UNL     1       7.501   6.479   7.556  1.00  0.00     0.054 A 
BRANCH  74  75
ATOM     75  S   UNL     1       8.889   5.680   8.424  1.00  0.00     0.124 S 
ATOM     76  O   UNL     1      10.050   6.309   7.801  1.00  0.00    -0.237 OA
ATOM     77  O   UNL     1       8.645   6.043   9.817  1.00  0.00    -0.237 OA
ATOM     78  O   UNL     1       8.714   4.261   8.118  1.00  0.00    -0.744 OA
ENDBRANCH  74  75
ENDBRANCH  46  69
BRANCH  58  79
ATOM     79  C   UNL     1       0.294  11.599   5.645  1.00  0.00    -0.014 A 
ATOM     80  C   UNL     1       0.834  11.270   4.384  1.00  0.00     0.010 A 
ATOM     81  C   UNL     1      -0.213  12.895   5.833  1.00  0.00     0.010 A 
ATOM     82  C   UNL     1       0.883  12.223   3.351  1.00  0.00     0.020 A 
ATOM     83  C   UNL     1      -0.185  13.841   4.806  1.00  0.00     0.020 A 
ATOM     84  C   UNL     1       0.372  13.505   3.572  1.00  0.00     0.054 A 
BRANCH  84  85
ATOM     85  S   UNL     1       0.400  14.729   2.230  1.00  0.00     0.124 S 
ATOM     86  O   UNL     1       1.826  15.006   2.084  1.00  0.00    -0.237 OA
ATOM     87  O   UNL     1      -0.219  14.010   1.119  1.00  0.00    -0.237 OA
ATOM     88  O   UNL     1      -0.394  15.839   2.756  1.00  0.00    -0.744 OA
ENDBRANCH  84  85
ENDBRANCH  58  79
ENDBRANCH  32  33
ENDBRANCH  24  27
ENDBRANCH  22  23
ENDBRANCH  21  22
ENDBRANCH   1  21
TORSDOF 17
