REMARK SMILES COc1cc(Cl)cc(/C=C/C(=O)NCCCNC(=O)c2ccc(-c3c4nc(c(-c5ccc(S(=O)(=O)[O-])cc5)c5ccc([nH]5)c(-c5ccc(S(=O)(=O)[O-])cc5)c5nc(c(-c6ccc(S(=O)(=O)[O-])cc6)c6ccc3[nH]6)C=C5)C=C4)cc2)c1OC
REMARK SMILES IDX 15 1 14 2 13 3 11 4 12 5 10 7 9 8 8 9 3 10 4 11 80 12 5 13
REMARK SMILES IDX 6 14 7 15 2 16 1 17 81 18 82 19 16 20 17 21 18 22 19 24
REMARK SMILES IDX 20 25 21 26 79 27 22 28 78 29 23 30 24 31 25 32 72 33 26 34
REMARK SMILES IDX 77 35 71 36 73 37 27 38 76 39 70 40 69 41 28 43 58 44 39 45
REMARK SMILES IDX 57 46 40 47 43 48 56 49 74 50 41 51 42 52 55 54 75 55 44 56
REMARK SMILES IDX 29 57 30 58 38 59 31 60 37 61 32 62 33 63 34 64 35 65 36 66
REMARK SMILES IDX 59 67 60 68 68 69 61 70 67 71 62 72 63 73 64 74 65 75 66 76
REMARK SMILES IDX 45 77 46 78 54 79 47 80 53 81 48 82 49 83 50 84 51 85 52 86
REMARK H PARENT 13 6 17 23 73 42 43 53
REMARK Flexibility Score: inf
ROOT
ATOM      1  C   UNL     1      -4.105  -6.396  -0.759  1.00  0.00     0.042 C 
ENDROOT
BRANCH   1   2
ATOM      2  C   UNL     1      -3.056  -7.118   0.083  1.00  0.00     0.118 C 
BRANCH   2   3
ATOM      3  N   UNL     1      -2.341  -8.116  -0.697  1.00  0.00    -0.352 N 
ATOM      4  C   UNL     1      -1.050  -8.149  -1.119  1.00  0.00     0.244 C 
ATOM      5  O   UNL     1      -0.615  -9.158  -1.671  1.00  0.00    -0.270 OA
ATOM      6  H   UNL     1      -2.881  -8.895  -0.962  1.00  0.00     0.163 HD
BRANCH   4   7
ATOM      7  C   UNL     1      -0.126  -7.030  -0.837  1.00  0.00     0.072 C 
ATOM      8  C   UNL     1      -0.402  -5.738  -1.066  1.00  0.00     0.018 C 
BRANCH   8   9
ATOM      9  C   UNL     1       0.544  -4.640  -0.783  1.00  0.00     0.022 A 
ATOM     10  C   UNL     1       1.028  -2.405   0.055  1.00  0.00     0.162 A 
ATOM     11  C   UNL     1       2.369  -2.567  -0.319  1.00  0.00     0.071 A 
ATOM     12  C   UNL     1       0.103  -3.446  -0.156  1.00  0.00     0.168 A 
ATOM     13  C   UNL     1       2.785  -3.737  -0.943  1.00  0.00     0.045 A 
ATOM     14  Cl  UNL     1       4.434  -3.920  -1.403  1.00  0.00    -0.084 Cl
ATOM     15  C   UNL     1       1.883  -4.765  -1.187  1.00  0.00     0.032 A 
BRANCH  10  16
ATOM     16  O   UNL     1       0.663  -1.261   0.721  1.00  0.00    -0.493 OA
ATOM     17  C   UNL     1       0.955  -0.070  -0.014  1.00  0.00     0.278 C 
ENDBRANCH  10  16
BRANCH  12  18
ATOM     18  O   UNL     1      -1.222  -3.458   0.210  1.00  0.00    -0.492 OA
ATOM     19  C   UNL     1      -1.838  -2.253   0.639  1.00  0.00     0.278 C 
ENDBRANCH  12  18
ENDBRANCH   8   9
ENDBRANCH   4   7
ENDBRANCH   2   3
ENDBRANCH   1   2
BRANCH   1  20
ATOM     20  C   UNL     1      -5.321  -7.260  -1.091  1.00  0.00     0.118 C 
BRANCH  20  21
ATOM     21  N   UNL     1      -6.118  -7.565   0.090  1.00  0.00    -0.352 N 
ATOM     22  C   UNL     1      -7.425  -7.255   0.380  1.00  0.00     0.251 C 
ATOM     23  H   UNL     1      -5.647  -8.072   0.790  1.00  0.00     0.163 HD
ATOM     24  O   UNL     1      -7.841  -7.406   1.525  1.00  0.00    -0.269 OA
BRANCH  22  25
ATOM     25  C   UNL     1      -8.325  -6.732  -0.670  1.00  0.00     0.039 A 
ATOM     26  C   UNL     1      -9.189  -5.678  -0.357  1.00  0.00     0.014 A 
ATOM     27  C   UNL     1      -8.348  -7.298  -1.948  1.00  0.00     0.014 A 
ATOM     28  C   UNL     1     -10.024  -5.147  -1.344  1.00  0.00     0.010 A 
ATOM     29  C   UNL     1      -9.133  -6.726  -2.947  1.00  0.00     0.010 A 
ATOM     30  C   UNL     1      -9.975  -5.642  -2.657  1.00  0.00    -0.014 A 
BRANCH  30  31
ATOM     31  C   UNL     1     -10.771  -5.024  -3.748  1.00  0.00     0.031 A 
ATOM     32  C   UNL     1     -11.844  -5.814  -4.449  1.00  0.00     0.074 A 
ATOM     33  C   UNL     1     -10.470  -3.777  -4.162  1.00  0.00     0.049 A 
ATOM     34  N   UNL     1     -12.571  -5.477  -5.482  1.00  0.00    -0.248 NA
ATOM     35  C   UNL     1     -12.118  -7.165  -3.934  1.00  0.00     0.031 C 
ATOM     36  C   UNL     1      -9.430  -2.921  -3.585  1.00  0.00     0.029 A 
ATOM     37  N   UNL     1     -10.999  -3.016  -5.175  1.00  0.00    -0.354 N 
ATOM     38  C   UNL     1     -13.376  -6.578  -5.754  1.00  0.00     0.074 A 
ATOM     39  C   UNL     1     -13.018  -7.607  -4.802  1.00  0.00     0.031 C 
ATOM     40  C   UNL     1      -9.409  -1.750  -4.241  1.00  0.00     0.029 A 
ATOM     41  C   UNL     1     -10.399  -1.787  -5.313  1.00  0.00     0.049 A 
ATOM     42  H   UNL     1     -11.739  -3.322  -5.748  1.00  0.00     0.167 HD
ATOM     43  C   UNL     1     -14.334  -6.714  -6.702  1.00  0.00     0.031 A 
ATOM     44  C   UNL     1     -10.606  -0.804  -6.211  1.00  0.00     0.031 A 
ATOM     45  C   UNL     1     -14.690  -5.685  -7.643  1.00  0.00     0.049 A 
ATOM     46  C   UNL     1     -11.656  -0.989  -7.271  1.00  0.00     0.074 A 
ATOM     47  C   UNL     1     -15.687  -5.705  -8.604  1.00  0.00     0.029 A 
ATOM     48  N   UNL     1     -14.060  -4.454  -7.747  1.00  0.00    -0.354 N 
ATOM     49  N   UNL     1     -12.451  -2.014  -7.470  1.00  0.00    -0.248 NA
ATOM     50  C   UNL     1     -11.841   0.114  -8.223  1.00  0.00     0.031 C 
ATOM     51  C   UNL     1     -15.623  -4.508  -9.324  1.00  0.00     0.029 A 
ATOM     52  C   UNL     1     -14.625  -3.718  -8.775  1.00  0.00     0.049 A 
ATOM     53  H   UNL     1     -13.320  -4.148  -7.174  1.00  0.00     0.167 HD
ATOM     54  C   UNL     1     -13.243  -1.670  -8.560  1.00  0.00     0.074 A 
ATOM     55  C   UNL     1     -12.844  -0.338  -8.965  1.00  0.00     0.031 C 
ATOM     56  C   UNL     1     -14.214  -2.394  -9.169  1.00  0.00     0.031 A 
BRANCH  43  57
ATOM     57  C   UNL     1     -15.062  -8.031  -6.775  1.00  0.00    -0.014 A 
ATOM     58  C   UNL     1     -15.969  -8.416  -5.771  1.00  0.00     0.010 A 
ATOM     59  C   UNL     1     -14.870  -8.877  -7.883  1.00  0.00     0.010 A 
ATOM     60  C   UNL     1     -16.638  -9.641  -5.852  1.00  0.00     0.020 A 
ATOM     61  C   UNL     1     -15.559 -10.090  -7.982  1.00  0.00     0.020 A 
ATOM     62  C   UNL     1     -16.425 -10.472  -6.956  1.00  0.00     0.054 A 
BRANCH  62  63
ATOM     63  S   UNL     1     -17.322 -12.047  -7.043  1.00  0.00     0.124 S 
ATOM     64  O   UNL     1     -16.631 -12.842  -6.031  1.00  0.00    -0.237 OA
ATOM     65  O   UNL     1     -18.689 -11.656  -6.709  1.00  0.00    -0.237 OA
ATOM     66  O   UNL     1     -17.122 -12.485  -8.422  1.00  0.00    -0.744 OA
ENDBRANCH  62  63
ENDBRANCH  43  57
BRANCH  44  67
ATOM     67  C   UNL     1      -9.798   0.444  -6.143  1.00  0.00    -0.014 A 
ATOM     68  C   UNL     1     -10.386   1.652  -5.731  1.00  0.00     0.010 A 
ATOM     69  C   UNL     1      -8.429   0.426  -6.470  1.00  0.00     0.010 A 
ATOM     70  C   UNL     1      -9.623   2.822  -5.657  1.00  0.00     0.020 A 
ATOM     71  C   UNL     1      -7.657   1.587  -6.371  1.00  0.00     0.020 A 
ATOM     72  C   UNL     1      -8.262   2.781  -5.975  1.00  0.00     0.054 A 
BRANCH  72  73
ATOM     73  S   UNL     1      -7.279   4.297  -5.812  1.00  0.00     0.124 S 
ATOM     74  O   UNL     1      -7.717   5.069  -6.970  1.00  0.00    -0.237 OA
ATOM     75  O   UNL     1      -7.702   4.810  -4.511  1.00  0.00    -0.237 OA
ATOM     76  O   UNL     1      -5.900   3.816  -5.863  1.00  0.00    -0.744 OA
ENDBRANCH  72  73
ENDBRANCH  44  67
BRANCH  56  77
ATOM     77  C   UNL     1     -14.930  -1.758 -10.330  1.00  0.00    -0.014 A 
ATOM     78  C   UNL     1     -14.302  -1.617 -11.580  1.00  0.00     0.010 A 
ATOM     79  C   UNL     1     -16.272  -1.360 -10.186  1.00  0.00     0.010 A 
ATOM     80  C   UNL     1     -14.999  -1.073 -12.662  1.00  0.00     0.020 A 
ATOM     81  C   UNL     1     -16.980  -0.840 -11.272  1.00  0.00     0.020 A 
ATOM     82  C   UNL     1     -16.335  -0.691 -12.502  1.00  0.00     0.054 A 
BRANCH  82  83
ATOM     83  S   UNL     1     -17.236  -0.048 -13.939  1.00  0.00     0.124 S 
ATOM     84  O   UNL     1     -16.659   1.285 -14.088  1.00  0.00    -0.237 OA
ATOM     85  O   UNL     1     -16.889  -1.004 -14.989  1.00  0.00    -0.237 OA
ATOM     86  O   UNL     1     -18.634  -0.079 -13.514  1.00  0.00    -0.744 OA
ENDBRANCH  82  83
ENDBRANCH  56  77
ENDBRANCH  30  31
ENDBRANCH  22  25
ENDBRANCH  20  21
ENDBRANCH   1  20
TORSDOF 16
