REMARK SMILES C#CCN(CC(=O)NCCCNC(=O)c1ccc(-c2c3nc(c(-c4ccc(S(=O)(=O)[O-])cc4)c4ccc([nH]4)c(-c4ccc(S(=O)(=O)[O-])cc4)c4nc(c(-c5ccc(S(=O)(=O)[O-])cc5)c5ccc2[nH]5)C=C4)C=C3)cc1)C(=O)[C@H]1C[NH2+]C[C@H]1C
REMARK SMILES IDX 10 1 9 2 8 3 6 4 7 5 5 7 4 8 3 9 2 10 1 11 75 12 76 13 77 14
REMARK SMILES IDX 78 15 81 16 79 17 80 18 82 19 11 22 12 23 13 24 14 26 15 27
REMARK SMILES IDX 16 28 74 29 17 30 73 31 18 32 19 33 20 34 67 35 21 36 72 37
REMARK SMILES IDX 66 38 68 39 22 40 71 41 65 42 64 43 23 45 53 46 34 47 52 48
REMARK SMILES IDX 35 49 38 50 51 51 69 52 36 53 37 54 50 56 70 57 39 58 24 59
REMARK SMILES IDX 25 60 33 61 26 62 32 63 27 64 28 65 29 66 30 67 31 68 54 69
REMARK SMILES IDX 55 70 63 71 56 72 62 73 57 74 58 75 59 76 60 77 61 78 40 79
REMARK SMILES IDX 41 80 49 81 42 82 48 83 43 84 44 85 45 86 46 87 47 88
REMARK H PARENT 8 6 79 20 79 21 12 25 68 44 38 55
REMARK Flexibility Score: inf
ROOT
ATOM      1  C   UNL     1      -5.067   0.470   1.427  1.00  0.00     0.042 C 
ENDROOT
BRANCH   1   2
ATOM      2  C   UNL     1      -5.291  -0.037   0.004  1.00  0.00     0.117 C 
BRANCH   2   3
ATOM      3  N   UNL     1      -5.464   1.023  -0.969  1.00  0.00    -0.354 N 
ATOM      4  C   UNL     1      -4.591   1.506  -1.899  1.00  0.00     0.239 C 
ATOM      5  O   UNL     1      -5.037   2.260  -2.769  1.00  0.00    -0.273 OA
ATOM      6  H   UNL     1      -6.346   1.461  -0.958  1.00  0.00     0.163 HD
BRANCH   4   7
ATOM      7  C   UNL     1      -3.118   1.066  -1.934  1.00  0.00     0.220 C 
BRANCH   7   8
ATOM      8  N   UNL     1      -2.417   1.259  -0.664  1.00  0.00    -0.322 N 
BRANCH   8   9
ATOM      9  C   UNL     1      -1.890   0.075   0.004  1.00  0.00     0.209 C 
BRANCH   9  10
ATOM     10  C   UNL     1      -0.370   0.075   0.004  1.00  0.00    -0.085 C 
ATOM     11  C   UNL     1       0.934   0.075   0.004  1.00  0.00     0.006 C 
ENDBRANCH   9  10
ENDBRANCH   8   9
BRANCH   8  12
ATOM     12  C   UNL     1      -2.184   2.500  -0.071  1.00  0.00     0.233 C 
ATOM     13  O   UNL     1      -1.760   2.575   1.083  1.00  0.00    -0.274 OA
BRANCH  12  14
ATOM     14  C   UNL     1      -2.508   3.768  -0.859  1.00  0.00     0.142 C 
ATOM     15  C   UNL     1      -3.657   4.521  -0.195  1.00  0.00     0.274 C 
ATOM     16  C   UNL     1      -1.397   4.833  -0.988  1.00  0.00     0.059 C 
ATOM     17  N   UNL     1      -3.514   5.896  -0.692  1.00  0.00    -0.345 N 
ATOM     18  C   UNL     1      -2.073   6.148  -0.582  1.00  0.00     0.264 C 
ATOM     19  C   UNL     1      -0.101   4.615  -0.220  1.00  0.00     0.015 C 
ATOM     20  H   UNL     1      -4.044   6.550  -0.116  1.00  0.00     0.346 HD
ATOM     21  H   UNL     1      -3.868   6.015  -1.641  1.00  0.00     0.346 HD
ENDBRANCH  12  14
ENDBRANCH   8  12
ENDBRANCH   7   8
ENDBRANCH   4   7
ENDBRANCH   2   3
ENDBRANCH   1   2
BRANCH   1  22
ATOM     22  C   UNL     1      -6.274   1.148   2.070  1.00  0.00     0.118 C 
BRANCH  22  23
ATOM     23  N   UNL     1      -7.411   0.252   2.207  1.00  0.00    -0.352 N 
ATOM     24  C   UNL     1      -8.120  -0.140   3.312  1.00  0.00     0.251 C 
ATOM     25  H   UNL     1      -7.725  -0.140   1.360  1.00  0.00     0.163 HD
ATOM     26  O   UNL     1      -8.922  -1.068   3.188  1.00  0.00    -0.269 OA
BRANCH  24  27
ATOM     27  C   UNL     1      -7.949   0.509   4.633  1.00  0.00     0.039 A 
ATOM     28  C   UNL     1      -8.088  -0.280   5.782  1.00  0.00     0.014 A 
ATOM     29  C   UNL     1      -7.742   1.885   4.768  1.00  0.00     0.014 A 
ATOM     30  C   UNL     1      -7.988   0.298   7.050  1.00  0.00     0.010 A 
ATOM     31  C   UNL     1      -7.573   2.450   6.035  1.00  0.00     0.010 A 
ATOM     32  C   UNL     1      -7.711   1.667   7.189  1.00  0.00    -0.014 A 
BRANCH  32  33
ATOM     33  C   UNL     1      -7.590   2.288   8.534  1.00  0.00     0.031 A 
ATOM     34  C   UNL     1      -8.595   3.311   8.995  1.00  0.00     0.074 A 
ATOM     35  C   UNL     1      -6.557   1.955   9.333  1.00  0.00     0.049 A 
ATOM     36  N   UNL     1      -8.642   3.970  10.126  1.00  0.00    -0.248 NA
ATOM     37  C   UNL     1      -9.676   3.654   8.058  1.00  0.00     0.031 C 
ATOM     38  C   UNL     1      -5.495   1.006   8.992  1.00  0.00     0.029 A 
ATOM     39  N   UNL     1      -6.229   2.379  10.597  1.00  0.00    -0.354 N 
ATOM     40  C   UNL     1      -9.743   4.815  10.029  1.00  0.00     0.074 A 
ATOM     41  C   UNL     1     -10.310   4.616   8.713  1.00  0.00     0.031 C 
ATOM     42  C   UNL     1      -4.650   0.899  10.031  1.00  0.00     0.029 A 
ATOM     43  C   UNL     1      -5.090   1.794  11.097  1.00  0.00     0.049 A 
ATOM     44  H   UNL     1      -6.760   3.040  11.098  1.00  0.00     0.167 HD
ATOM     45  C   UNL     1     -10.248   5.665  10.955  1.00  0.00     0.031 A 
ATOM     46  C   UNL     1      -4.468   1.958  12.281  1.00  0.00     0.031 A 
ATOM     47  C   UNL     1      -9.694   5.853  12.270  1.00  0.00     0.049 A 
ATOM     48  C   UNL     1      -5.050   2.902  13.295  1.00  0.00     0.074 A 
ATOM     49  C   UNL     1     -10.166   6.650  13.298  1.00  0.00     0.029 A 
ATOM     50  N   UNL     1      -8.545   5.235  12.739  1.00  0.00    -0.354 N 
ATOM     51  N   UNL     1      -6.127   3.646  13.205  1.00  0.00    -0.248 NA
ATOM     52  C   UNL     1      -4.339   3.020  14.576  1.00  0.00     0.031 C 
ATOM     53  C   UNL     1      -9.280   6.545  14.376  1.00  0.00     0.029 A 
ATOM     54  C   UNL     1      -8.282   5.646  14.035  1.00  0.00     0.049 A 
ATOM     55  H   UNL     1      -7.997   4.597  12.227  1.00  0.00     0.167 HD
ATOM     56  C   UNL     1      -6.234   4.304  14.425  1.00  0.00     0.074 A 
ATOM     57  C   UNL     1      -5.123   3.858  15.241  1.00  0.00     0.031 C 
ATOM     58  C   UNL     1      -7.169   5.198  14.832  1.00  0.00     0.031 A 
BRANCH  45  59
ATOM     59  C   UNL     1     -11.467   6.463  10.572  1.00  0.00    -0.014 A 
ATOM     60  C   UNL     1     -12.725   5.845  10.442  1.00  0.00     0.010 A 
ATOM     61  C   UNL     1     -11.362   7.851  10.370  1.00  0.00     0.010 A 
ATOM     62  C   UNL     1     -13.846   6.593  10.072  1.00  0.00     0.020 A 
ATOM     63  C   UNL     1     -12.487   8.607  10.025  1.00  0.00     0.020 A 
ATOM     64  C   UNL     1     -13.718   7.969   9.859  1.00  0.00     0.054 A 
BRANCH  64  65
ATOM     65  S   UNL     1     -15.192   8.919   9.393  1.00  0.00     0.124 S 
ATOM     66  O   UNL     1     -15.357   8.545   7.990  1.00  0.00    -0.237 OA
ATOM     67  O   UNL     1     -16.211   8.402  10.303  1.00  0.00    -0.237 OA
ATOM     68  O   UNL     1     -14.799  10.306   9.626  1.00  0.00    -0.744 OA
ENDBRANCH  64  65
ENDBRANCH  45  59
BRANCH  46  69
ATOM     69  C   UNL     1      -3.231   1.187  12.579  1.00  0.00    -0.014 A 
ATOM     70  C   UNL     1      -3.261   0.122  13.497  1.00  0.00     0.010 A 
ATOM     71  C   UNL     1      -2.022   1.502  11.934  1.00  0.00     0.010 A 
ATOM     72  C   UNL     1      -2.100  -0.604  13.777  1.00  0.00     0.020 A 
ATOM     73  C   UNL     1      -0.864   0.762  12.194  1.00  0.00     0.020 A 
ATOM     74  C   UNL     1      -0.908  -0.280  13.122  1.00  0.00     0.054 A 
BRANCH  74  75
ATOM     75  S   UNL     1       0.574  -1.272  13.457  1.00  0.00     0.124 S 
ATOM     76  O   UNL     1       0.990  -0.766  14.761  1.00  0.00    -0.237 OA
ATOM     77  O   UNL     1       0.052  -2.636  13.444  1.00  0.00    -0.237 OA
ATOM     78  O   UNL     1       1.461  -0.944  12.343  1.00  0.00    -0.744 OA
ENDBRANCH  74  75
ENDBRANCH  46  69
BRANCH  58  79
ATOM     79  C   UNL     1      -7.043   5.736  16.232  1.00  0.00    -0.014 A 
ATOM     80  C   UNL     1      -6.050   6.675  16.562  1.00  0.00     0.010 A 
ATOM     81  C   UNL     1      -7.956   5.325  17.220  1.00  0.00     0.010 A 
ATOM     82  C   UNL     1      -5.952   7.170  17.865  1.00  0.00     0.020 A 
ATOM     83  C   UNL     1      -7.876   5.836  18.518  1.00  0.00     0.020 A 
ATOM     84  C   UNL     1      -6.864   6.744  18.836  1.00  0.00     0.054 A 
BRANCH  84  85
ATOM     85  S   UNL     1      -6.740   7.425  20.513  1.00  0.00     0.124 S 
ATOM     86  O   UNL     1      -5.605   6.685  21.058  1.00  0.00    -0.237 OA
ATOM     87  O   UNL     1      -6.504   8.846  20.268  1.00  0.00    -0.237 OA
ATOM     88  O   UNL     1      -8.035   7.110  21.110  1.00  0.00    -0.744 OA
ENDBRANCH  84  85
ENDBRANCH  58  79
ENDBRANCH  32  33
ENDBRANCH  24  27
ENDBRANCH  22  23
ENDBRANCH   1  22
TORSDOF 18
