REMARK SMILES NS(=O)(=O)c1ccc(N2N=C(C(=O)NCCCNC(=O)c3ccc(-c4c5nc(c(-c6ccc(S(=O)(=O)[O-])cc6)c6ccc([nH]6)c(-c6ccc(S(=O)(=O)[O-])cc6)c6nc(c(-c7ccc(S(=O)(=O)[O-])cc7)c7ccc4[nH]7)C=C6)C=C5)cc3)C[C@H]2c2ccco2)cc1
REMARK SMILES IDX 16 1 15 2 14 3 12 4 13 5 11 7 9 8 10 9 82 10 81 11 8 12 5 13
REMARK SMILES IDX 6 14 89 15 7 16 88 17 2 18 3 19 4 20 1 21 83 24 84 25 87 26
REMARK SMILES IDX 85 27 86 28 17 29 18 30 19 31 20 33 21 34 22 35 80 36 23 37
REMARK SMILES IDX 79 38 24 39 25 40 26 41 73 42 27 43 78 44 72 45 74 46 28 47
REMARK SMILES IDX 77 48 71 49 70 50 29 52 59 53 40 54 58 55 41 56 44 57 57 58
REMARK SMILES IDX 75 59 42 60 43 61 56 63 76 64 45 65 30 66 31 67 39 68 32 69
REMARK SMILES IDX 38 70 33 71 34 72 35 73 36 74 37 75 60 76 61 77 69 78 62 79
REMARK SMILES IDX 68 80 63 81 64 82 65 83 66 84 67 85 46 86 47 87 55 88 48 89
REMARK SMILES IDX 54 90 49 91 50 92 51 93 52 94 53 95
REMARK H PARENT 14 6 1 22 1 23 18 32 74 51 44 62
REMARK Flexibility Score: inf
ROOT
ATOM      1  C   UNL     1       4.268   9.079  -7.907  1.00  0.00     0.042 C 
ENDROOT
BRANCH   1   2
ATOM      2  C   UNL     1       2.842   8.707  -7.527  1.00  0.00     0.118 C 
BRANCH   2   3
ATOM      3  N   UNL     1       2.399   7.511  -8.223  1.00  0.00    -0.351 N 
ATOM      4  C   UNL     1       2.168   6.209  -7.858  1.00  0.00     0.267 C 
ATOM      5  O   UNL     1       1.868   5.416  -8.748  1.00  0.00    -0.268 OA
ATOM      6  H   UNL     1       2.225   7.672  -9.179  1.00  0.00     0.163 HD
BRANCH   4   7
ATOM      7  C   UNL     1       2.206   5.708  -6.424  1.00  0.00     0.128 C 
ATOM      8  N   UNL     1       1.794   4.446  -4.761  1.00  0.00    -0.254 N 
ATOM      9  N   UNL     1       1.770   4.522  -6.116  1.00  0.00    -0.171 NA
ATOM     10  C   UNL     1       2.465   5.571  -4.106  1.00  0.00     0.180 C 
ATOM     11  C   UNL     1       2.691   6.528  -5.279  1.00  0.00     0.099 C 
BRANCH   8  12
ATOM     12  C   UNL     1       1.508   3.255  -4.114  1.00  0.00     0.060 A 
ATOM     13  C   UNL     1       0.956   0.907  -2.688  1.00  0.00     0.082 A 
ATOM     14  C   UNL     1       1.988   0.917  -3.629  1.00  0.00     0.024 A 
ATOM     15  C   UNL     1       0.165   2.037  -2.487  1.00  0.00     0.024 A 
ATOM     16  C   UNL     1       2.254   2.091  -4.343  1.00  0.00     0.029 A 
ATOM     17  C   UNL     1       0.446   3.199  -3.201  1.00  0.00     0.029 A 
BRANCH  13  18
ATOM     18  S   UNL     1       0.613  -0.545  -1.746  1.00  0.00     0.238 S 
ATOM     19  O   UNL     1       1.395  -1.652  -2.246  1.00  0.00    -0.207 OA
ATOM     20  O   UNL     1      -0.810  -0.641  -1.517  1.00  0.00    -0.207 OA
BRANCH  18  21
ATOM     21  N   UNL     1       1.290  -0.149  -0.259  1.00  0.00    -0.225 NA
ATOM     22  H   UNL     1       1.157  -0.923   0.393  1.00  0.00     0.137 HD
ATOM     23  H   UNL     1       0.836   0.687   0.110  1.00  0.00     0.137 HD
ENDBRANCH  18  21
ENDBRANCH  13  18
ENDBRANCH   8  12
BRANCH  10  24
ATOM     24  C   UNL     1       1.746   6.228  -2.959  1.00  0.00     0.128 A 
ATOM     25  C   UNL     1       1.624   5.907  -1.619  1.00  0.00     0.048 A 
ATOM     26  O   UNL     1       1.037   7.370  -3.212  1.00  0.00    -0.467 OA
ATOM     27  C   UNL     1       0.788   6.891  -1.039  1.00  0.00     0.042 A 
ATOM     28  C   UNL     1       0.473   7.769  -2.046  1.00  0.00     0.195 A 
ENDBRANCH  10  24
ENDBRANCH   4   7
ENDBRANCH   2   3
ENDBRANCH   1   2
BRANCH   1  29
ATOM     29  C   UNL     1       4.367   9.693  -9.297  1.00  0.00     0.118 C 
BRANCH  29  30
ATOM     30  N   UNL     1       3.666  10.970  -9.380  1.00  0.00    -0.352 N 
ATOM     31  C   UNL     1       4.154  12.242  -9.551  1.00  0.00     0.251 C 
ATOM     32  H   UNL     1       2.687  10.910  -9.301  1.00  0.00     0.163 HD
ATOM     33  O   UNL     1       3.418  13.201  -9.337  1.00  0.00    -0.269 OA
BRANCH  31  34
ATOM     34  C   UNL     1       5.552  12.456  -9.979  1.00  0.00     0.039 A 
ATOM     35  C   UNL     1       6.279  13.512  -9.424  1.00  0.00     0.014 A 
ATOM     36  C   UNL     1       6.138  11.636 -10.947  1.00  0.00     0.014 A 
ATOM     37  C   UNL     1       7.613  13.702  -9.792  1.00  0.00     0.010 A 
ATOM     38  C   UNL     1       7.490  11.768 -11.241  1.00  0.00     0.010 A 
ATOM     39  C   UNL     1       8.241  12.807 -10.674  1.00  0.00    -0.014 A 
BRANCH  39  40
ATOM     40  C   UNL     1       9.678  12.941 -11.024  1.00  0.00     0.031 A 
ATOM     41  C   UNL     1      10.086  13.184 -12.453  1.00  0.00     0.074 A 
ATOM     42  C   UNL     1      10.614  12.771 -10.069  1.00  0.00     0.049 A 
ATOM     43  N   UNL     1      11.288  13.248 -12.966  1.00  0.00    -0.248 NA
ATOM     44  C   UNL     1       9.004  13.351 -13.439  1.00  0.00     0.031 C 
ATOM     45  C   UNL     1      10.345  12.488  -8.657  1.00  0.00     0.029 A 
ATOM     46  N   UNL     1      11.984  12.804 -10.143  1.00  0.00    -0.354 N 
ATOM     47  C   UNL     1      11.107  13.443 -14.331  1.00  0.00     0.074 A 
ATOM     48  C   UNL     1       9.681  13.433 -14.575  1.00  0.00     0.031 C 
ATOM     49  C   UNL     1      11.510  12.402  -7.995  1.00  0.00     0.029 A 
ATOM     50  C   UNL     1      12.608  12.575  -8.940  1.00  0.00     0.049 A 
ATOM     51  H   UNL     1      12.474  12.975 -10.980  1.00  0.00     0.167 HD
ATOM     52  C   UNL     1      12.041  13.635 -15.291  1.00  0.00     0.031 A 
ATOM     53  C   UNL     1      13.918  12.503  -8.631  1.00  0.00     0.031 A 
ATOM     54  C   UNL     1      13.458  13.660 -15.041  1.00  0.00     0.049 A 
ATOM     55  C   UNL     1      14.936  12.709  -9.719  1.00  0.00     0.074 A 
ATOM     56  C   UNL     1      14.485  13.901 -15.937  1.00  0.00     0.029 A 
ATOM     57  N   UNL     1      14.048  13.438 -13.806  1.00  0.00    -0.354 N 
ATOM     58  N   UNL     1      14.742  12.953 -10.993  1.00  0.00    -0.248 NA
ATOM     59  C   UNL     1      16.350  12.641  -9.325  1.00  0.00     0.031 C 
ATOM     60  C   UNL     1      15.698  13.773 -15.255  1.00  0.00     0.029 A 
ATOM     61  C   UNL     1      15.425  13.515 -13.920  1.00  0.00     0.049 A 
ATOM     62  H   UNL     1      13.559  13.254 -12.971  1.00  0.00     0.167 HD
ATOM     63  C   UNL     1      16.010  13.098 -11.547  1.00  0.00     0.074 A 
ATOM     64  C   UNL     1      16.960  12.930 -10.466  1.00  0.00     0.031 C 
ATOM     65  C   UNL     1      16.356  13.349 -12.833  1.00  0.00     0.031 A 
BRANCH  52  66
ATOM     66  C   UNL     1      11.561  13.836 -16.705  1.00  0.00    -0.014 A 
ATOM     67  C   UNL     1      10.885  15.011 -17.082  1.00  0.00     0.010 A 
ATOM     68  C   UNL     1      11.836  12.863 -17.683  1.00  0.00     0.010 A 
ATOM     69  C   UNL     1      10.461  15.193 -18.401  1.00  0.00     0.020 A 
ATOM     70  C   UNL     1      11.440  13.054 -19.011  1.00  0.00     0.020 A 
ATOM     71  C   UNL     1      10.742  14.213 -19.357  1.00  0.00     0.054 A 
BRANCH  71  72
ATOM     72  S   UNL     1      10.211  14.494 -21.069  1.00  0.00     0.124 S 
ATOM     73  O   UNL     1       8.764  14.328 -20.966  1.00  0.00    -0.237 OA
ATOM     74  O   UNL     1      10.669  15.858 -21.325  1.00  0.00    -0.237 OA
ATOM     75  O   UNL     1      10.906  13.454 -21.823  1.00  0.00    -0.744 OA
ENDBRANCH  71  72
ENDBRANCH  52  66
BRANCH  53  76
ATOM     76  C   UNL     1      14.341  12.232  -7.229  1.00  0.00    -0.014 A 
ATOM     77  C   UNL     1      14.967  13.233  -6.466  1.00  0.00     0.010 A 
ATOM     78  C   UNL     1      14.118  10.970  -6.649  1.00  0.00     0.010 A 
ATOM     79  C   UNL     1      15.387  12.969  -5.158  1.00  0.00     0.020 A 
ATOM     80  C   UNL     1      14.508  10.711  -5.332  1.00  0.00     0.020 A 
ATOM     81  C   UNL     1      15.154  11.709  -4.600  1.00  0.00     0.054 A 
BRANCH  81  82
ATOM     82  S   UNL     1      15.671  11.401  -2.888  1.00  0.00     0.124 S 
ATOM     83  O   UNL     1      17.121  11.303  -3.023  1.00  0.00    -0.237 OA
ATOM     84  O   UNL     1      15.177  12.586  -2.191  1.00  0.00    -0.237 OA
ATOM     85  O   UNL     1      14.988  10.156  -2.545  1.00  0.00    -0.744 OA
ENDBRANCH  81  82
ENDBRANCH  53  76
BRANCH  65  86
ATOM     86  C   UNL     1      17.823  13.498 -13.140  1.00  0.00    -0.014 A 
ATOM     87  C   UNL     1      18.688  12.390 -13.132  1.00  0.00     0.010 A 
ATOM     88  C   UNL     1      18.328  14.762 -13.498  1.00  0.00     0.010 A 
ATOM     89  C   UNL     1      20.040  12.550 -13.445  1.00  0.00     0.020 A 
ATOM     90  C   UNL     1      19.673  14.919 -13.841  1.00  0.00     0.020 A 
ATOM     91  C   UNL     1      20.524  13.814 -13.798  1.00  0.00     0.054 A 
BRANCH  91  92
ATOM     92  S   UNL     1      22.273  13.985 -14.243  1.00  0.00     0.124 S 
ATOM     93  O   UNL     1      22.931  13.860 -12.945  1.00  0.00    -0.237 OA
ATOM     94  O   UNL     1      22.481  12.869 -15.163  1.00  0.00    -0.237 OA
ATOM     95  O   UNL     1      22.348  15.310 -14.854  1.00  0.00    -0.744 OA
ENDBRANCH  91  92
ENDBRANCH  65  86
ENDBRANCH  39  40
ENDBRANCH  31  34
ENDBRANCH  29  30
ENDBRANCH   1  29
TORSDOF 17
