REMARK SMILES CS(=O)(=O)c1ccc(C2=NN(c3ccc(C(=O)NCCCNC(=O)c4ccc(-c5c6nc(c(-c7ccc(S(=O)(=O)[O-])cc7)c7ccc([nH]7)c(-c7ccc(S(=O)(=O)[O-])cc7)c7nc(c(-c8ccc(S(=O)(=O)[O-])cc8)c8ccc5[nH]8)C=C7)C=C6)cc4)cc3)[C@H](c3ccc(Cl)cc3)C2)cc1
REMARK SMILES IDX 20 1 19 2 18 3 16 4 17 5 15 7 12 8 13 9 86 10 14 11 85 12
REMARK SMILES IDX 11 13 9 14 10 15 95 16 87 17 8 18 5 19 6 20 97 21 7 22 96 23
REMARK SMILES IDX 2 24 1 25 3 26 4 27 88 28 89 29 94 30 90 31 93 32 91 33
REMARK SMILES IDX 92 34 21 35 22 36 23 37 24 39 25 40 26 41 84 42 27 43 83 44
REMARK SMILES IDX 28 45 29 46 30 47 77 48 31 49 82 50 76 51 78 52 32 53 81 54
REMARK SMILES IDX 75 55 74 56 33 58 63 59 44 60 62 61 45 62 48 63 61 64 79 65
REMARK SMILES IDX 46 66 47 67 60 69 80 70 49 71 34 72 35 73 43 74 36 75 42 76
REMARK SMILES IDX 37 77 38 78 39 79 40 80 41 81 64 82 65 83 73 84 66 85 72 86
REMARK SMILES IDX 67 87 68 88 69 89 70 90 71 91 50 92 51 93 59 94 52 95 58 96
REMARK SMILES IDX 53 97 54 98 55 99 56 100 57 101
REMARK H PARENT 18 6 22 38 78 57 48 68
REMARK Flexibility Score: inf
ROOT
ATOM      1  C   UNL     1       2.105 -14.851  -1.626  1.00  0.00     0.042 C 
ENDROOT
BRANCH   1   2
ATOM      2  C   UNL     1       3.442 -14.447  -1.008  1.00  0.00     0.118 C 
BRANCH   2   3
ATOM      3  N   UNL     1       4.279 -13.748  -1.969  1.00  0.00    -0.352 N 
ATOM      4  C   UNL     1       4.583 -12.417  -2.115  1.00  0.00     0.251 C 
ATOM      5  O   UNL     1       5.410 -12.101  -2.969  1.00  0.00    -0.269 OA
ATOM      6  H   UNL     1       4.704 -14.334  -2.635  1.00  0.00     0.163 HD
BRANCH   4   7
ATOM      7  C   UNL     1       4.007 -11.366  -1.234  1.00  0.00     0.039 A 
ATOM      8  C   UNL     1       3.104  -9.381   0.553  1.00  0.00     0.060 A 
ATOM      9  C   UNL     1       4.361  -9.273  -0.048  1.00  0.00     0.029 A 
ATOM     10  C   UNL     1       2.275 -10.441   0.179  1.00  0.00     0.029 A 
ATOM     11  C   UNL     1       4.812 -10.258  -0.934  1.00  0.00     0.016 A 
ATOM     12  C   UNL     1       2.712 -11.414  -0.720  1.00  0.00     0.016 A 
BRANCH   8  13
ATOM     13  N   UNL     1       2.655  -8.474   1.502  1.00  0.00    -0.257 N 
ATOM     14  C   UNL     1       2.331  -6.459   2.089  1.00  0.00     0.071 C 
ATOM     15  N   UNL     1       2.249  -7.257   1.074  1.00  0.00    -0.176 NA
ATOM     16  C   UNL     1       2.912  -7.048   3.343  1.00  0.00     0.091 C 
ATOM     17  C   UNL     1       3.088  -8.515   2.905  1.00  0.00     0.144 C 
BRANCH  14  18
ATOM     18  C   UNL     1       1.870  -5.066   2.013  1.00  0.00    -0.002 A 
ATOM     19  C   UNL     1       0.937  -2.461   1.772  1.00  0.00     0.067 A 
ATOM     20  C   UNL     1       0.175  -3.511   1.256  1.00  0.00     0.021 A 
ATOM     21  C   UNL     1       2.156  -2.705   2.417  1.00  0.00     0.021 A 
ATOM     22  C   UNL     1       0.654  -4.816   1.364  1.00  0.00     0.011 A 
ATOM     23  C   UNL     1       2.624  -4.016   2.542  1.00  0.00     0.011 A 
BRANCH  19  24
ATOM     24  S   UNL     1       0.319  -0.797   1.661  1.00  0.00     0.175 S 
ATOM     25  C   UNL     1       0.946  -0.222   0.106  1.00  0.00     0.163 C 
ATOM     26  O   UNL     1       0.952  -0.030   2.715  1.00  0.00    -0.224 OA
ATOM     27  O   UNL     1      -1.128  -0.874   1.567  1.00  0.00    -0.224 OA
ENDBRANCH  19  24
ENDBRANCH  14  18
BRANCH  17  28
ATOM     28  C   UNL     1       2.335  -9.600   3.677  1.00  0.00    -0.023 A 
ATOM     29  C   UNL     1       1.268  -9.351   4.555  1.00  0.00     0.007 A 
ATOM     30  C   UNL     1       2.705 -10.947   3.473  1.00  0.00     0.007 A 
ATOM     31  C   UNL     1       0.602 -10.403   5.200  1.00  0.00     0.021 A 
ATOM     32  C   UNL     1       2.022 -11.999   4.089  1.00  0.00     0.021 A 
ATOM     33  C   UNL     1       0.974 -11.721   4.957  1.00  0.00     0.041 A 
ATOM     34  Cl  UNL     1       0.135 -13.009   5.728  1.00  0.00    -0.084 Cl
ENDBRANCH  17  28
ENDBRANCH   8  13
ENDBRANCH   4   7
ENDBRANCH   2   3
ENDBRANCH   1   2
BRANCH   1  35
ATOM     35  C   UNL     1       2.220 -16.024  -2.594  1.00  0.00     0.118 C 
BRANCH  35  36
ATOM     36  N   UNL     1       2.566 -17.262  -1.910  1.00  0.00    -0.352 N 
ATOM     37  C   UNL     1       1.882 -18.450  -1.839  1.00  0.00     0.251 C 
ATOM     38  H   UNL     1       3.421 -17.244  -1.423  1.00  0.00     0.163 HD
ATOM     39  O   UNL     1       2.226 -19.293  -1.016  1.00  0.00    -0.269 OA
BRANCH  37  40
ATOM     40  C   UNL     1       0.737 -18.713  -2.738  1.00  0.00     0.039 A 
ATOM     41  C   UNL     1      -0.385 -19.371  -2.228  1.00  0.00     0.014 A 
ATOM     42  C   UNL     1       0.779 -18.347  -4.087  1.00  0.00     0.014 A 
ATOM     43  C   UNL     1      -1.485 -19.611  -3.055  1.00  0.00     0.010 A 
ATOM     44  C   UNL     1      -0.347 -18.516  -4.888  1.00  0.00     0.010 A 
ATOM     45  C   UNL     1      -1.489 -19.154  -4.383  1.00  0.00    -0.014 A 
BRANCH  45  46
ATOM     46  C   UNL     1      -2.676 -19.336  -5.259  1.00  0.00     0.031 A 
ATOM     47  C   UNL     1      -2.578 -20.179  -6.503  1.00  0.00     0.074 A 
ATOM     48  C   UNL     1      -3.827 -18.700  -4.959  1.00  0.00     0.049 A 
ATOM     49  N   UNL     1      -3.482 -20.398  -7.423  1.00  0.00    -0.248 NA
ATOM     50  C   UNL     1      -1.291 -20.849  -6.757  1.00  0.00     0.031 C 
ATOM     51  C   UNL     1      -4.041 -17.836  -3.795  1.00  0.00     0.029 A 
ATOM     52  N   UNL     1      -5.035 -18.680  -5.610  1.00  0.00    -0.354 N 
ATOM     53  C   UNL     1      -2.875 -21.225  -8.362  1.00  0.00     0.074 A 
ATOM     54  C   UNL     1      -1.508 -21.419  -7.933  1.00  0.00     0.031 C 
ATOM     55  C   UNL     1      -5.310 -17.397  -3.799  1.00  0.00     0.029 A 
ATOM     56  C   UNL     1      -5.986 -17.904  -4.989  1.00  0.00     0.049 A 
ATOM     57  H   UNL     1      -5.206 -19.174  -6.445  1.00  0.00     0.167 HD
ATOM     58  C   UNL     1      -3.414 -21.793  -9.467  1.00  0.00     0.031 A 
ATOM     59  C   UNL     1      -7.255 -17.622  -5.342  1.00  0.00     0.031 A 
ATOM     60  C   UNL     1      -4.776 -21.599  -9.890  1.00  0.00     0.049 A 
ATOM     61  C   UNL     1      -7.811 -18.223  -6.607  1.00  0.00     0.074 A 
ATOM     62  C   UNL     1      -5.424 -22.149 -10.982  1.00  0.00     0.029 A 
ATOM     63  N   UNL     1      -5.701 -20.796  -9.239  1.00  0.00    -0.354 N 
ATOM     64  N   UNL     1      -7.233 -19.040  -7.455  1.00  0.00    -0.248 NA
ATOM     65  C   UNL     1      -9.194 -17.870  -6.957  1.00  0.00     0.031 C 
ATOM     66  C   UNL     1      -6.724 -21.638 -11.022  1.00  0.00     0.029 A 
ATOM     67  C   UNL     1      -6.908 -20.822  -9.917  1.00  0.00     0.049 A 
ATOM     68  H   UNL     1      -5.526 -20.284  -8.417  1.00  0.00     0.167 HD
ATOM     69  C   UNL     1      -8.197 -19.329  -8.416  1.00  0.00     0.074 A 
ATOM     70  C   UNL     1      -9.396 -18.614  -8.035  1.00  0.00     0.031 C 
ATOM     71  C   UNL     1      -8.098 -20.116  -9.515  1.00  0.00     0.031 A 
BRANCH  58  72
ATOM     72  C   UNL     1      -2.533 -22.694 -10.294  1.00  0.00    -0.014 A 
ATOM     73  C   UNL     1      -2.125 -23.948  -9.805  1.00  0.00     0.010 A 
ATOM     74  C   UNL     1      -2.167 -22.317 -11.599  1.00  0.00     0.010 A 
ATOM     75  C   UNL     1      -1.344 -24.797 -10.594  1.00  0.00     0.020 A 
ATOM     76  C   UNL     1      -1.411 -23.176 -12.403  1.00  0.00     0.020 A 
ATOM     77  C   UNL     1      -0.995 -24.407 -11.890  1.00  0.00     0.054 A 
BRANCH  77  78
ATOM     78  S   UNL     1      -0.023 -25.553 -12.905  1.00  0.00     0.124 S 
ATOM     79  O   UNL     1       1.278 -25.516 -12.241  1.00  0.00    -0.237 OA
ATOM     80  O   UNL     1      -0.762 -26.805 -12.768  1.00  0.00    -0.237 OA
ATOM     81  O   UNL     1      -0.058 -24.954 -14.237  1.00  0.00    -0.744 OA
ENDBRANCH  77  78
ENDBRANCH  58  72
BRANCH  59  82
ATOM     82  C   UNL     1      -8.098 -16.730  -4.496  1.00  0.00    -0.014 A 
ATOM     83  C   UNL     1      -9.235 -17.233  -3.838  1.00  0.00     0.010 A 
ATOM     84  C   UNL     1      -7.790 -15.363  -4.372  1.00  0.00     0.010 A 
ATOM     85  C   UNL     1     -10.072 -16.380  -3.114  1.00  0.00     0.020 A 
ATOM     86  C   UNL     1      -8.604 -14.513  -3.619  1.00  0.00     0.020 A 
ATOM     87  C   UNL     1      -9.754 -15.023  -3.013  1.00  0.00     0.054 A 
BRANCH  87  88
ATOM     88  S   UNL     1     -10.855 -13.934  -2.068  1.00  0.00     0.124 S 
ATOM     89  O   UNL     1     -12.014 -13.839  -2.949  1.00  0.00    -0.237 OA
ATOM     90  O   UNL     1     -11.057 -14.686  -0.833  1.00  0.00    -0.237 OA
ATOM     91  O   UNL     1     -10.076 -12.706  -1.921  1.00  0.00    -0.744 OA
ENDBRANCH  87  88
ENDBRANCH  59  82
BRANCH  71  92
ATOM     92  C   UNL     1      -9.335 -20.294 -10.357  1.00  0.00    -0.014 A 
ATOM     93  C   UNL     1      -9.844 -19.245 -11.144  1.00  0.00     0.010 A 
ATOM     94  C   UNL     1      -9.965 -21.551 -10.401  1.00  0.00     0.010 A 
ATOM     95  C   UNL     1     -10.980 -19.443 -11.933  1.00  0.00     0.020 A 
ATOM     96  C   UNL     1     -11.081 -21.762 -11.214  1.00  0.00     0.020 A 
ATOM     97  C   UNL     1     -11.590 -20.701 -11.965  1.00  0.00     0.054 A 
BRANCH  97  98
ATOM     98  S   UNL     1     -13.033 -20.943 -13.036  1.00  0.00     0.124 S 
ATOM     99  O   UNL     1     -14.066 -20.191 -12.330  1.00  0.00    -0.237 OA
ATOM    100  O   UNL     1     -12.590 -20.365 -14.303  1.00  0.00    -0.237 OA
ATOM    101  O   UNL     1     -13.217 -22.392 -13.050  1.00  0.00    -0.744 OA
ENDBRANCH  97  98
ENDBRANCH  71  92
ENDBRANCH  45  46
ENDBRANCH  37  40
ENDBRANCH  35  36
ENDBRANCH   1  35
TORSDOF 17
