REMARK SMILES CC(C)(Cn1ccnc1C(N)=S)C(=O)NCCCNC(=O)c1ccc(-c2c3nc(c(-c4ccc(S(=O)(=O)[O-])cc4)c4ccc([nH]4)c(-c4ccc(S(=O)(=O)[O-])cc4)c4nc(c(-c5ccc(S(=O)(=O)[O-])cc5)c5ccc2[nH]5)C=C4)C=C3)cc1
REMARK SMILES IDX 16 1 15 2 13 3 14 4 2 6 1 7 3 8 4 9 5 10 6 11 9 12 7 13 8 14
REMARK SMILES IDX 10 15 12 16 11 17 17 20 18 21 19 22 20 23 21 25 22 26 23 27
REMARK SMILES IDX 81 28 24 29 80 30 25 31 26 32 27 33 74 34 28 35 79 36 73 37
REMARK SMILES IDX 75 38 29 39 78 40 72 41 71 42 30 44 60 45 41 46 59 47 42 48
REMARK SMILES IDX 45 49 58 50 76 51 43 52 44 53 57 55 77 56 46 57 31 58 32 59
REMARK SMILES IDX 40 60 33 61 39 62 34 63 35 64 36 65 37 66 38 67 61 68 62 69
REMARK SMILES IDX 70 70 63 71 69 72 64 73 65 74 66 75 67 76 68 77 47 78 48 79
REMARK SMILES IDX 56 80 49 81 55 82 50 83 51 84 52 85 53 86 54 87
REMARK H PARENT 15 5 11 18 11 19 19 24 75 43 45 54
REMARK Flexibility Score: inf
ROOT
ATOM      1  C   UNL     1      -0.038   4.122   1.595  1.00  0.00     0.117 C 
ENDROOT
BRANCH   1   2
ATOM      2  N   UNL     1       0.677   2.966   2.118  1.00  0.00    -0.356 N 
ATOM      3  C   UNL     1       0.964   1.732   1.625  1.00  0.00     0.227 C 
ATOM      4  O   UNL     1       1.685   1.032   2.340  1.00  0.00    -0.274 OA
ATOM      5  H   UNL     1       1.029   3.109   3.027  1.00  0.00     0.163 HD
BRANCH   3   6
ATOM      6  C   UNL     1       0.444   1.213   0.272  1.00  0.00     0.061 C 
ATOM      7  C   UNL     1       1.148  -0.136  -0.038  1.00  0.00     0.023 C 
ATOM      8  C   UNL     1       0.906   2.123  -0.888  1.00  0.00     0.023 C 
BRANCH   6   9
ATOM      9  C   UNL     1      -1.112   1.057   0.302  1.00  0.00     0.140 C 
BRANCH   9  10
ATOM     10  N   UNL     1      -1.667   0.068   1.222  1.00  0.00    -0.328 N 
ATOM     11  C   UNL     1      -1.471  -1.289   1.116  1.00  0.00     0.108 A 
ATOM     12  C   UNL     1      -2.505   0.247   2.311  1.00  0.00     0.167 A 
ATOM     13  C   UNL     1      -1.875  -1.808   2.319  1.00  0.00     0.131 A 
ATOM     14  N   UNL     1      -2.483  -0.844   3.066  1.00  0.00    -0.235 NA
BRANCH  12  15
ATOM     15  C   UNL     1      -3.365   1.339   2.705  1.00  0.00     0.140 C 
ATOM     16  S   UNL     1      -4.326   2.166   1.622  1.00  0.00    -0.057 S 
BRANCH  15  17
ATOM     17  N   UNL     1      -3.445   1.571   4.052  1.00  0.00    -0.387 N 
ATOM     18  H   UNL     1      -2.867   1.071   4.673  1.00  0.00     0.157 HD
ATOM     19  H   UNL     1      -4.081   2.237   4.400  1.00  0.00     0.157 HD
ENDBRANCH  15  17
ENDBRANCH  12  15
ENDBRANCH   9  10
ENDBRANCH   6   9
ENDBRANCH   3   6
ENDBRANCH   1   2
BRANCH   1  20
ATOM     20  C   UNL     1      -1.358   4.385   2.304  1.00  0.00     0.042 C 
BRANCH  20  21
ATOM     21  C   UNL     1      -1.195   4.954   3.691  1.00  0.00     0.118 C 
BRANCH  21  22
ATOM     22  N   UNL     1      -0.778   6.355   3.699  1.00  0.00    -0.352 N 
ATOM     23  C   UNL     1      -0.770   7.224   4.781  1.00  0.00     0.251 C 
ATOM     24  H   UNL     1      -0.468   6.723   2.840  1.00  0.00     0.163 HD
ATOM     25  O   UNL     1      -0.705   8.429   4.617  1.00  0.00    -0.269 OA
BRANCH  23  26
ATOM     26  C   UNL     1      -0.841   6.638   6.136  1.00  0.00     0.039 A 
ATOM     27  C   UNL     1      -1.586   7.219   7.165  1.00  0.00     0.014 A 
ATOM     28  C   UNL     1      -0.172   5.437   6.340  1.00  0.00     0.014 A 
ATOM     29  C   UNL     1      -1.696   6.536   8.377  1.00  0.00     0.010 A 
ATOM     30  C   UNL     1      -0.473   4.669   7.425  1.00  0.00     0.010 A 
ATOM     31  C   UNL     1      -1.141   5.253   8.490  1.00  0.00    -0.014 A 
BRANCH  31  32
ATOM     32  C   UNL     1      -1.325   4.415   9.668  1.00  0.00     0.031 A 
ATOM     33  C   UNL     1      -2.752   4.101   9.949  1.00  0.00     0.074 A 
ATOM     34  C   UNL     1      -0.286   3.751  10.230  1.00  0.00     0.049 A 
ATOM     35  N   UNL     1      -3.471   4.501  10.944  1.00  0.00    -0.248 NA
ATOM     36  C   UNL     1      -3.529   3.417   8.896  1.00  0.00     0.031 C 
ATOM     37  C   UNL     1       1.114   3.715   9.775  1.00  0.00     0.029 A 
ATOM     38  N   UNL     1      -0.277   2.837  11.234  1.00  0.00    -0.354 N 
ATOM     39  C   UNL     1      -4.708   3.883  10.778  1.00  0.00     0.074 A 
ATOM     40  C   UNL     1      -4.762   3.465   9.402  1.00  0.00     0.031 C 
ATOM     41  C   UNL     1       1.738   2.639  10.305  1.00  0.00     0.029 A 
ATOM     42  C   UNL     1       0.847   2.010  11.262  1.00  0.00     0.049 A 
ATOM     43  H   UNL     1      -1.007   2.763  11.890  1.00  0.00     0.167 HD
ATOM     44  C   UNL     1      -5.441   3.470  11.851  1.00  0.00     0.031 A 
ATOM     45  C   UNL     1       1.006   0.864  11.978  1.00  0.00     0.031 A 
ATOM     46  C   UNL     1      -4.948   4.050  13.076  1.00  0.00     0.049 A 
ATOM     47  C   UNL     1      -0.044   0.868  13.028  1.00  0.00     0.074 A 
ATOM     48  C   UNL     1      -4.722   5.340  13.515  1.00  0.00     0.029 A 
ATOM     49  N   UNL     1      -4.196   3.235  13.891  1.00  0.00    -0.354 N 
ATOM     50  N   UNL     1      -0.084   1.736  14.001  1.00  0.00    -0.248 NA
ATOM     51  C   UNL     1      -1.313   0.235  12.703  1.00  0.00     0.031 C 
ATOM     52  C   UNL     1      -3.484   5.273  14.217  1.00  0.00     0.029 A 
ATOM     53  C   UNL     1      -3.080   3.937  14.264  1.00  0.00     0.049 A 
ATOM     54  H   UNL     1      -4.420   2.314  14.158  1.00  0.00     0.167 HD
ATOM     55  C   UNL     1      -1.423   2.088  14.105  1.00  0.00     0.074 A 
ATOM     56  C   UNL     1      -2.142   1.077  13.327  1.00  0.00     0.031 C 
ATOM     57  C   UNL     1      -1.801   3.323  14.554  1.00  0.00     0.031 A 
BRANCH  44  58
ATOM     58  C   UNL     1      -6.285   2.213  11.850  1.00  0.00    -0.014 A 
ATOM     59  C   UNL     1      -7.001   1.881  13.018  1.00  0.00     0.010 A 
ATOM     60  C   UNL     1      -6.185   1.210  10.863  1.00  0.00     0.010 A 
ATOM     61  C   UNL     1      -7.516   0.594  13.217  1.00  0.00     0.020 A 
ATOM     62  C   UNL     1      -6.735  -0.061  11.029  1.00  0.00     0.020 A 
ATOM     63  C   UNL     1      -7.368  -0.372  12.222  1.00  0.00     0.054 A 
BRANCH  63  64
ATOM     64  S   UNL     1      -7.963  -2.053  12.520  1.00  0.00     0.124 S 
ATOM     65  O   UNL     1      -7.080  -2.497  13.593  1.00  0.00    -0.237 OA
ATOM     66  O   UNL     1      -9.355  -1.823  12.896  1.00  0.00    -0.237 OA
ATOM     67  O   UNL     1      -7.772  -2.716  11.232  1.00  0.00    -0.744 OA
ENDBRANCH  63  64
ENDBRANCH  44  58
BRANCH  45  68
ATOM     68  C   UNL     1       1.756  -0.373  11.610  1.00  0.00    -0.014 A 
ATOM     69  C   UNL     1       1.989  -1.393  12.555  1.00  0.00     0.010 A 
ATOM     70  C   UNL     1       1.990  -0.684  10.255  1.00  0.00     0.010 A 
ATOM     71  C   UNL     1       2.374  -2.688  12.153  1.00  0.00     0.020 A 
ATOM     72  C   UNL     1       2.379  -1.969   9.847  1.00  0.00     0.020 A 
ATOM     73  C   UNL     1       2.543  -2.974  10.796  1.00  0.00     0.054 A 
BRANCH  73  74
ATOM     74  S   UNL     1       2.851  -4.689  10.267  1.00  0.00     0.124 S 
ATOM     75  O   UNL     1       4.213  -4.923  10.737  1.00  0.00    -0.237 OA
ATOM     76  O   UNL     1       1.806  -5.432  10.966  1.00  0.00    -0.237 OA
ATOM     77  O   UNL     1       2.699  -4.634   8.814  1.00  0.00    -0.744 OA
ENDBRANCH  73  74
ENDBRANCH  45  68
BRANCH  57  78
ATOM     78  C   UNL     1      -0.780   4.201  15.239  1.00  0.00    -0.014 A 
ATOM     79  C   UNL     1       0.424   4.647  14.659  1.00  0.00     0.010 A 
ATOM     80  C   UNL     1      -1.142   4.713  16.498  1.00  0.00     0.010 A 
ATOM     81  C   UNL     1       1.258   5.548  15.344  1.00  0.00     0.020 A 
ATOM     82  C   UNL     1      -0.331   5.623  17.174  1.00  0.00     0.020 A 
ATOM     83  C   UNL     1       0.875   6.025  16.602  1.00  0.00     0.054 A 
BRANCH  83  84
ATOM     84  S   UNL     1       1.948   7.185  17.495  1.00  0.00     0.124 S 
ATOM     85  O   UNL     1       3.122   6.368  17.788  1.00  0.00    -0.237 OA
ATOM     86  O   UNL     1       2.151   8.255  16.522  1.00  0.00    -0.237 OA
ATOM     87  O   UNL     1       1.154   7.566  18.663  1.00  0.00    -0.744 OA
ENDBRANCH  83  84
ENDBRANCH  57  78
ENDBRANCH  31  32
ENDBRANCH  23  26
ENDBRANCH  21  22
ENDBRANCH  20  21
ENDBRANCH   1  20
TORSDOF 17
