REMARK SMILES CN(C)S(=O)(=O)Nc1ccc(-n2nnc(C(=O)NCCCNC(=O)c3ccc(-c4c5nc(c(-c6ccc(S(=O)(=O)[O-])cc6)c6ccc([nH]6)c(-c6ccc(S(=O)(=O)[O-])cc6)c6nc(c(-c7ccc(S(=O)(=O)[O-])cc7)c7ccc4[nH]7)C=C6)C=C5)cc3)c2N)cc1
REMARK SMILES IDX 19 1 18 2 16 3 17 4 15 6 12 7 13 8 85 9 14 10 11 11 8 12
REMARK SMILES IDX 9 13 88 14 10 15 87 16 7 17 4 19 5 20 6 21 2 22 1 23 3 24
REMARK SMILES IDX 86 25 20 28 21 29 22 30 23 31 24 33 25 34 26 35 84 36 27 37
REMARK SMILES IDX 83 38 28 39 29 40 30 41 77 42 31 43 82 44 76 45 78 46 32 47
REMARK SMILES IDX 81 48 75 49 74 50 33 52 63 53 44 54 62 55 45 56 48 57 61 58
REMARK SMILES IDX 79 59 46 60 47 61 60 63 80 64 49 65 34 66 35 67 43 68 36 69
REMARK SMILES IDX 42 70 37 71 38 72 39 73 40 74 41 75 64 76 65 77 73 78 66 79
REMARK SMILES IDX 72 80 67 81 68 82 69 83 70 84 71 85 50 86 51 87 59 88 52 89
REMARK SMILES IDX 58 90 53 91 54 92 55 93 56 94 57 95
REMARK H PARENT 18 5 7 18 86 26 86 27 22 32 78 51 48 62
REMARK Flexibility Score: inf
ROOT
ATOM      1  C   UNL     1      -7.208   5.171  -3.780  1.00  0.00     0.118 C 
ENDROOT
BRANCH   1   2
ATOM      2  N   UNL     1      -6.902   5.280  -5.196  1.00  0.00    -0.350 N 
ATOM      3  C   UNL     1      -5.788   5.059  -5.976  1.00  0.00     0.275 C 
ATOM      4  O   UNL     1      -5.982   5.055  -7.193  1.00  0.00    -0.267 OA
ATOM      5  H   UNL     1      -7.674   5.585  -5.724  1.00  0.00     0.163 HD
BRANCH   3   6
ATOM      6  C   UNL     1      -4.443   4.923  -5.432  1.00  0.00     0.194 A 
ATOM      7  N   UNL     1      -2.606   4.759  -4.232  1.00  0.00    -0.197 N 
ATOM      8  N   UNL     1      -2.272   5.306  -5.421  1.00  0.00    -0.059 NA
ATOM      9  C   UNL     1      -3.972   4.432  -4.227  1.00  0.00     0.161 A 
ATOM     10  N   UNL     1      -3.364   5.378  -6.165  1.00  0.00    -0.122 NA
BRANCH   7  11
ATOM     11  C   UNL     1      -1.644   4.584  -3.200  1.00  0.00     0.069 A 
ATOM     12  C   UNL     1       0.191   4.197  -1.117  1.00  0.00     0.050 A 
ATOM     13  C   UNL     1       0.520   5.018  -2.201  1.00  0.00     0.029 A 
ATOM     14  C   UNL     1      -1.099   3.730  -1.004  1.00  0.00     0.029 A 
ATOM     15  C   UNL     1      -0.401   5.225  -3.243  1.00  0.00     0.031 A 
ATOM     16  C   UNL     1      -1.948   3.798  -2.090  1.00  0.00     0.031 A 
BRANCH  12  17
ATOM     17  N   UNL     1       1.187   3.898  -0.145  1.00  0.00    -0.271 N 
ATOM     18  H   UNL     1       1.949   4.514  -0.047  1.00  0.00     0.181 HD
BRANCH  17  19
ATOM     19  S   UNL     1       1.119   2.536   0.845  1.00  0.00     0.301 S 
ATOM     20  O   UNL     1      -0.008   2.667   1.732  1.00  0.00    -0.189 OA
ATOM     21  O   UNL     1       2.459   2.418   1.388  1.00  0.00    -0.189 OA
BRANCH  19  22
ATOM     22  N   UNL     1       0.853   1.229  -0.216  1.00  0.00    -0.191 NA
ATOM     23  C   UNL     1       1.733   0.066   0.013  1.00  0.00     0.125 C 
ATOM     24  C   UNL     1      -0.543   0.782  -0.460  1.00  0.00     0.125 C 
ENDBRANCH  19  22
ENDBRANCH  17  19
ENDBRANCH  12  17
ENDBRANCH   7  11
BRANCH   9  25
ATOM     25  N   UNL     1      -4.587   3.798  -3.200  1.00  0.00    -0.382 N 
ATOM     26  H   UNL     1      -4.068   3.521  -2.411  1.00  0.00     0.158 HD
ATOM     27  H   UNL     1      -5.554   3.615  -3.243  1.00  0.00     0.158 HD
ENDBRANCH   9  25
ENDBRANCH   3   6
ENDBRANCH   1   2
BRANCH   1  28
ATOM     28  C   UNL     1      -6.851   6.377  -2.907  1.00  0.00     0.042 C 
BRANCH  28  29
ATOM     29  C   UNL     1      -8.057   6.842  -2.088  1.00  0.00     0.118 C 
BRANCH  29  30
ATOM     30  N   UNL     1      -8.573   5.822  -1.158  1.00  0.00    -0.352 N 
ATOM     31  C   UNL     1      -9.856   5.691  -0.620  1.00  0.00     0.251 C 
ATOM     32  H   UNL     1      -7.923   5.137  -0.876  1.00  0.00     0.163 HD
ATOM     33  O   UNL     1     -10.066   5.011   0.357  1.00  0.00    -0.269 OA
BRANCH  31  34
ATOM     34  C   UNL     1     -10.947   6.412  -1.307  1.00  0.00     0.039 A 
ATOM     35  C   UNL     1     -11.800   7.295  -0.641  1.00  0.00     0.014 A 
ATOM     36  C   UNL     1     -10.925   6.336  -2.688  1.00  0.00     0.014 A 
ATOM     37  C   UNL     1     -12.513   8.224  -1.401  1.00  0.00     0.010 A 
ATOM     38  C   UNL     1     -11.414   7.402  -3.389  1.00  0.00     0.010 A 
ATOM     39  C   UNL     1     -12.266   8.315  -2.781  1.00  0.00    -0.014 A 
BRANCH  39  40
ATOM     40  C   UNL     1     -12.803   9.391  -3.608  1.00  0.00     0.031 A 
ATOM     41  C   UNL     1     -12.716  10.765  -3.045  1.00  0.00     0.074 A 
ATOM     42  C   UNL     1     -13.201   9.218  -4.888  1.00  0.00     0.049 A 
ATOM     43  N   UNL     1     -13.660  11.420  -2.458  1.00  0.00    -0.248 NA
ATOM     44  C   UNL     1     -11.414  11.447  -3.013  1.00  0.00     0.031 C 
ATOM     45  C   UNL     1     -13.105   8.027  -5.747  1.00  0.00     0.029 A 
ATOM     46  N   UNL     1     -13.714  10.145  -5.736  1.00  0.00    -0.354 N 
ATOM     47  C   UNL     1     -13.151  12.686  -2.191  1.00  0.00     0.074 A 
ATOM     48  C   UNL     1     -11.723  12.578  -2.371  1.00  0.00     0.031 C 
ATOM     49  C   UNL     1     -13.319   8.370  -7.035  1.00  0.00     0.029 A 
ATOM     50  C   UNL     1     -13.792   9.737  -7.058  1.00  0.00     0.049 A 
ATOM     51  H   UNL     1     -14.008  11.036  -5.436  1.00  0.00     0.167 HD
ATOM     52  C   UNL     1     -13.970  13.771  -2.073  1.00  0.00     0.031 A 
ATOM     53  C   UNL     1     -14.257  10.455  -8.105  1.00  0.00     0.031 A 
ATOM     54  C   UNL     1     -15.360  13.379  -2.044  1.00  0.00     0.049 A 
ATOM     55  C   UNL     1     -15.165  11.480  -7.540  1.00  0.00     0.074 A 
ATOM     56  C   UNL     1     -16.129  12.576  -1.225  1.00  0.00     0.029 A 
ATOM     57  N   UNL     1     -16.061  13.495  -3.224  1.00  0.00    -0.354 N 
ATOM     58  N   UNL     1     -16.283  11.183  -6.935  1.00  0.00    -0.248 NA
ATOM     59  C   UNL     1     -14.625  12.794  -7.233  1.00  0.00     0.031 C 
ATOM     60  C   UNL     1     -16.986  11.861  -2.115  1.00  0.00     0.029 A 
ATOM     61  C   UNL     1     -16.752  12.324  -3.413  1.00  0.00     0.049 A 
ATOM     62  H   UNL     1     -16.067  14.276  -3.823  1.00  0.00     0.167 HD
ATOM     63  C   UNL     1     -16.354  12.061  -5.862  1.00  0.00     0.074 A 
ATOM     64  C   UNL     1     -15.367  13.097  -6.163  1.00  0.00     0.031 C 
ATOM     65  C   UNL     1     -17.008  11.724  -4.709  1.00  0.00     0.031 A 
BRANCH  52  66
ATOM     66  C   UNL     1     -13.568  15.197  -2.369  1.00  0.00    -0.014 A 
ATOM     67  C   UNL     1     -14.511  16.226  -2.152  1.00  0.00     0.010 A 
ATOM     68  C   UNL     1     -12.407  15.542  -3.089  1.00  0.00     0.010 A 
ATOM     69  C   UNL     1     -14.338  17.505  -2.698  1.00  0.00     0.020 A 
ATOM     70  C   UNL     1     -12.203  16.826  -3.600  1.00  0.00     0.020 A 
ATOM     71  C   UNL     1     -13.189  17.790  -3.434  1.00  0.00     0.054 A 
BRANCH  71  72
ATOM     72  S   UNL     1     -13.028  19.404  -4.236  1.00  0.00     0.124 S 
ATOM     73  O   UNL     1     -14.090  19.348  -5.236  1.00  0.00    -0.237 OA
ATOM     74  O   UNL     1     -13.251  20.325  -3.125  1.00  0.00    -0.237 OA
ATOM     75  O   UNL     1     -11.666  19.389  -4.763  1.00  0.00    -0.744 OA
ENDBRANCH  71  72
ENDBRANCH  52  66
BRANCH  53  76
ATOM     76  C   UNL     1     -13.728  10.484  -9.486  1.00  0.00    -0.014 A 
ATOM     77  C   UNL     1     -14.444  11.123 -10.513  1.00  0.00     0.010 A 
ATOM     78  C   UNL     1     -12.380  10.144  -9.731  1.00  0.00     0.010 A 
ATOM     79  C   UNL     1     -13.809  11.493 -11.708  1.00  0.00     0.020 A 
ATOM     80  C   UNL     1     -11.742  10.505 -10.924  1.00  0.00     0.020 A 
ATOM     81  C   UNL     1     -12.453  11.207 -11.893  1.00  0.00     0.054 A 
BRANCH  81  82
ATOM     82  S   UNL     1     -11.591  11.889 -13.341  1.00  0.00     0.124 S 
ATOM     83  O   UNL     1     -12.127  11.078 -14.430  1.00  0.00    -0.237 OA
ATOM     84  O   UNL     1     -12.009  13.288 -13.329  1.00  0.00    -0.237 OA
ATOM     85  O   UNL     1     -10.179  11.666 -13.036  1.00  0.00    -0.744 OA
ENDBRANCH  81  82
ENDBRANCH  53  76
BRANCH  65  86
ATOM     86  C   UNL     1     -17.895  10.495  -4.715  1.00  0.00    -0.014 A 
ATOM     87  C   UNL     1     -17.429   9.190  -4.976  1.00  0.00     0.010 A 
ATOM     88  C   UNL     1     -19.226  10.651  -4.288  1.00  0.00     0.010 A 
ATOM     89  C   UNL     1     -18.279   8.080  -4.839  1.00  0.00     0.020 A 
ATOM     90  C   UNL     1     -20.072   9.549  -4.131  1.00  0.00     0.020 A 
ATOM     91  C   UNL     1     -19.598   8.269  -4.416  1.00  0.00     0.054 A 
BRANCH  91  92
ATOM     92  S   UNL     1     -20.682   6.828  -4.194  1.00  0.00     0.124 S 
ATOM     93  O   UNL     1     -20.897   6.378  -5.566  1.00  0.00    -0.237 OA
ATOM     94  O   UNL     1     -19.875   5.939  -3.361  1.00  0.00    -0.237 OA
ATOM     95  O   UNL     1     -21.863   7.380  -3.532  1.00  0.00    -0.744 OA
ENDBRANCH  91  92
ENDBRANCH  65  86
ENDBRANCH  39  40
ENDBRANCH  31  34
ENDBRANCH  29  30
ENDBRANCH  28  29
ENDBRANCH   1  28
TORSDOF 18
