REMARK SMILES O=C(NCCCNC(=O)[C@H]1CC(=O)N(Cc2ccc3cc[nH]c3c2)C1)c1ccc(-c2c3nc(c(-c4ccc(S(=O)(=O)[O-])cc4)c4ccc([nH]4)c(-c4ccc(S(=O)(=O)[O-])cc4)c4nc(c(-c5ccc(S(=O)(=O)[O-])cc5)c5ccc2[nH]5)C=C4)C=C3)cc1
REMARK SMILES IDX 4 1 3 2 1 3 2 4 26 6 27 7 85 8 28 9 84 10 29 11 30 12 31 13
REMARK SMILES IDX 78 14 32 15 83 16 77 17 79 18 33 19 82 20 76 21 75 22 34 24
REMARK SMILES IDX 64 25 45 26 63 27 46 28 49 29 62 30 80 31 47 32 48 33 61 35
REMARK SMILES IDX 81 36 50 37 35 38 36 39 44 40 37 41 43 42 38 43 39 44 40 45
REMARK SMILES IDX 41 46 42 47 65 48 66 49 74 50 67 51 73 52 68 53 69 54 70 55
REMARK SMILES IDX 71 56 72 57 51 58 52 59 60 60 53 61 59 62 54 63 55 64 56 65
REMARK SMILES IDX 57 66 58 67 5 68 6 69 7 70 8 71 9 73 10 74 11 75 25 76 12 77
REMARK SMILES IDX 14 78 13 79 15 80 16 81 17 82 24 83 18 84 23 85 19 86 22 87
REMARK SMILES IDX 20 88 21 89
REMARK H PARENT 3 5 79 23 49 34 7 72 22 90
REMARK Flexibility Score: inf
ROOT
ATOM      1  C   UNL     1       7.557  -6.715   1.920  1.00  0.00     0.118 C 
ENDROOT
BRANCH   1   2
ATOM      2  N   UNL     1       7.467  -8.069   2.448  1.00  0.00    -0.352 N 
ATOM      3  O   UNL     1       8.047  -9.863   3.679  1.00  0.00    -0.269 OA
ATOM      4  C   UNL     1       8.135  -8.652   3.500  1.00  0.00     0.251 C 
ATOM      5  H   UNL     1       6.831  -8.658   1.981  1.00  0.00     0.163 HD
BRANCH   4   6
ATOM      6  C   UNL     1       8.977  -7.826   4.394  1.00  0.00     0.039 A 
ATOM      7  C   UNL     1       8.537  -6.578   4.836  1.00  0.00     0.014 A 
ATOM      8  C   UNL     1      10.226  -8.307   4.796  1.00  0.00     0.014 A 
ATOM      9  C   UNL     1       9.412  -5.739   5.516  1.00  0.00     0.010 A 
ATOM     10  C   UNL     1      11.065  -7.502   5.574  1.00  0.00     0.010 A 
ATOM     11  C   UNL     1      10.685  -6.191   5.900  1.00  0.00    -0.014 A 
BRANCH  11  12
ATOM     12  C   UNL     1      11.579  -5.277   6.661  1.00  0.00     0.031 A 
ATOM     13  C   UNL     1      12.901  -4.828   6.093  1.00  0.00     0.074 A 
ATOM     14  C   UNL     1      11.167  -4.811   7.857  1.00  0.00     0.049 A 
ATOM     15  N   UNL     1      13.767  -3.984   6.596  1.00  0.00    -0.248 NA
ATOM     16  C   UNL     1      13.310  -5.402   4.801  1.00  0.00     0.031 C 
ATOM     17  C   UNL     1       9.909  -5.175   8.516  1.00  0.00     0.029 A 
ATOM     18  N   UNL     1      11.741  -3.910   8.718  1.00  0.00    -0.354 N 
ATOM     19  C   UNL     1      14.830  -3.944   5.700  1.00  0.00     0.074 A 
ATOM     20  C   UNL     1      14.514  -4.871   4.634  1.00  0.00     0.031 C 
ATOM     21  C   UNL     1       9.777  -4.458   9.641  1.00  0.00     0.029 A 
ATOM     22  C   UNL     1      10.967  -3.636   9.822  1.00  0.00     0.049 A 
ATOM     23  H   UNL     1      12.621  -3.500   8.561  1.00  0.00     0.167 HD
ATOM     24  C   UNL     1      15.963  -3.202   5.756  1.00  0.00     0.031 A 
ATOM     25  C   UNL     1      11.190  -2.822  10.870  1.00  0.00     0.031 A 
ATOM     26  C   UNL     1      16.271  -2.278   6.819  1.00  0.00     0.049 A 
ATOM     27  C   UNL     1      12.463  -2.028  10.918  1.00  0.00     0.074 A 
ATOM     28  C   UNL     1      17.375  -1.452   6.947  1.00  0.00     0.029 A 
ATOM     29  N   UNL     1      15.480  -2.061   7.938  1.00  0.00    -0.354 N 
ATOM     30  N   UNL     1      13.437  -1.977  10.040  1.00  0.00    -0.248 NA
ATOM     31  C   UNL     1      12.664  -1.175  12.096  1.00  0.00     0.031 C 
ATOM     32  C   UNL     1      17.282  -0.782   8.172  1.00  0.00     0.029 A 
ATOM     33  C   UNL     1      16.085  -1.135   8.773  1.00  0.00     0.049 A 
ATOM     34  H   UNL     1      14.617  -2.500   8.113  1.00  0.00     0.167 HD
ATOM     35  C   UNL     1      14.352  -1.061  10.545  1.00  0.00     0.074 A 
ATOM     36  C   UNL     1      13.807  -0.573  11.796  1.00  0.00     0.031 C 
ATOM     37  C   UNL     1      15.534  -0.658  10.018  1.00  0.00     0.031 A 
BRANCH  24  38
ATOM     38  C   UNL     1      16.978  -3.383   4.654  1.00  0.00    -0.014 A 
ATOM     39  C   UNL     1      16.731  -2.934   3.344  1.00  0.00     0.010 A 
ATOM     40  C   UNL     1      18.223  -3.971   4.948  1.00  0.00     0.010 A 
ATOM     41  C   UNL     1      17.690  -3.110   2.341  1.00  0.00     0.020 A 
ATOM     42  C   UNL     1      19.196  -4.122   3.956  1.00  0.00     0.020 A 
ATOM     43  C   UNL     1      18.916  -3.707   2.654  1.00  0.00     0.054 A 
BRANCH  43  44
ATOM     44  S   UNL     1      20.148  -3.909   1.337  1.00  0.00     0.124 S 
ATOM     45  O   UNL     1      19.556  -4.975   0.532  1.00  0.00    -0.237 OA
ATOM     46  O   UNL     1      20.168  -2.589   0.712  1.00  0.00    -0.237 OA
ATOM     47  O   UNL     1      21.367  -4.275   2.054  1.00  0.00    -0.744 OA
ENDBRANCH  43  44
ENDBRANCH  24  38
BRANCH  25  48
ATOM     48  C   UNL     1      10.177  -2.719  11.956  1.00  0.00    -0.014 A 
ATOM     49  C   UNL     1       9.449  -1.531  12.148  1.00  0.00     0.010 A 
ATOM     50  C   UNL     1       9.922  -3.820  12.796  1.00  0.00     0.010 A 
ATOM     51  C   UNL     1       8.502  -1.440  13.172  1.00  0.00     0.020 A 
ATOM     52  C   UNL     1       8.953  -3.743  13.798  1.00  0.00     0.020 A 
ATOM     53  C   UNL     1       8.258  -2.548  13.989  1.00  0.00     0.054 A 
BRANCH  53  54
ATOM     54  S   UNL     1       6.992  -2.421  15.281  1.00  0.00     0.124 S 
ATOM     55  O   UNL     1       7.645  -1.560  16.262  1.00  0.00    -0.237 OA
ATOM     56  O   UNL     1       5.868  -1.825  14.563  1.00  0.00    -0.237 OA
ATOM     57  O   UNL     1       6.790  -3.806  15.699  1.00  0.00    -0.744 OA
ENDBRANCH  53  54
ENDBRANCH  25  48
BRANCH  37  58
ATOM     58  C   UNL     1      16.296   0.404  10.767  1.00  0.00    -0.014 A 
ATOM     59  C   UNL     1      16.914   0.136  12.002  1.00  0.00     0.010 A 
ATOM     60  C   UNL     1      16.416   1.689  10.207  1.00  0.00     0.010 A 
ATOM     61  C   UNL     1      17.595   1.147  12.685  1.00  0.00     0.020 A 
ATOM     62  C   UNL     1      17.124   2.693  10.870  1.00  0.00     0.020 A 
ATOM     63  C   UNL     1      17.693   2.421  12.115  1.00  0.00     0.054 A 
BRANCH  63  64
ATOM     64  S   UNL     1      18.599   3.712  13.011  1.00  0.00     0.124 S 
ATOM     65  O   UNL     1      17.674   4.038  14.092  1.00  0.00    -0.237 OA
ATOM     66  O   UNL     1      19.822   3.022  13.415  1.00  0.00    -0.237 OA
ATOM     67  O   UNL     1      18.784   4.761  12.011  1.00  0.00    -0.744 OA
ENDBRANCH  63  64
ENDBRANCH  37  58
ENDBRANCH  11  12
ENDBRANCH   4   6
ENDBRANCH   1   2
BRANCH   1  68
ATOM     68  C   UNL     1       8.060  -6.672   0.481  1.00  0.00     0.042 C 
BRANCH  68  69
ATOM     69  C   UNL     1       7.069  -7.243  -0.526  1.00  0.00     0.117 C 
BRANCH  69  70
ATOM     70  N   UNL     1       5.865  -6.428  -0.590  1.00  0.00    -0.356 N 
ATOM     71  C   UNL     1       5.431  -5.521  -1.500  1.00  0.00     0.225 C 
ATOM     72  H   UNL     1       5.251  -6.561   0.168  1.00  0.00     0.163 HD
ATOM     73  O   UNL     1       4.391  -4.912  -1.232  1.00  0.00    -0.275 OA
BRANCH  71  74
ATOM     74  C   UNL     1       6.092  -5.314  -2.844  1.00  0.00     0.107 C 
ATOM     75  C   UNL     1       7.575  -4.969  -2.885  1.00  0.00     0.115 C 
ATOM     76  C   UNL     1       5.932  -6.561  -3.689  1.00  0.00     0.133 C 
ATOM     77  C   UNL     1       8.093  -5.734  -4.081  1.00  0.00     0.223 C 
ATOM     78  N   UNL     1       7.115  -6.612  -4.503  1.00  0.00    -0.338 N 
ATOM     79  O   UNL     1       9.198  -5.586  -4.579  1.00  0.00    -0.275 OA
BRANCH  78  80
ATOM     80  C   UNL     1       7.242  -7.496  -5.652  1.00  0.00     0.155 C 
BRANCH  80  81
ATOM     81  C   UNL     1       7.205  -8.968  -5.298  1.00  0.00    -0.026 A 
ATOM     82  C   UNL     1       6.014  -9.571  -4.864  1.00  0.00     0.006 A 
ATOM     83  C   UNL     1       8.369  -9.746  -5.417  1.00  0.00     0.032 A 
ATOM     84  C   UNL     1       5.966 -10.920  -4.493  1.00  0.00     0.010 A 
ATOM     85  C   UNL     1       8.294 -11.106  -5.081  1.00  0.00     0.046 A 
ATOM     86  C   UNL     1       7.127 -11.703  -4.608  1.00  0.00    -0.001 A 
ATOM     87  N   UNL     1       9.259 -12.088  -5.127  1.00  0.00    -0.361 N 
ATOM     88  C   UNL     1       7.429 -13.065  -4.338  1.00  0.00     0.028 A 
ATOM     89  C   UNL     1       8.745 -13.277  -4.679  1.00  0.00     0.083 A 
ATOM     90  H   UNL     1      10.184 -11.955  -5.436  1.00  0.00     0.166 HD
ENDBRANCH  80  81
ENDBRANCH  78  80
ENDBRANCH  71  74
ENDBRANCH  69  70
ENDBRANCH  68  69
ENDBRANCH   1  68
TORSDOF 15
