REMARK SMILES C[C@H]1[C@H](C(=O)NCCCNC(=O)c2ccc(-c3c4nc(c(-c5ccc(S(=O)(=O)[O-])cc5)c5ccc([nH]5)c(-c5ccc(S(=O)(=O)[O-])cc5)c5nc(c(-c6ccc(S(=O)(=O)[O-])cc6)c6ccc3[nH]6)C=C5)C=C4)cc2)CC[N@@H+]1Cc1ccc(Br)cc1F
REMARK SMILES IDX 8 1 7 2 6 3 4 4 5 5 3 7 1 8 2 9 75 10 73 11 74 12 76 14
REMARK SMILES IDX 77 15 78 16 83 17 79 18 82 19 84 20 80 21 81 22 9 23 10 24
REMARK SMILES IDX 11 25 12 27 13 28 14 29 72 30 15 31 71 32 16 33 17 34 18 35
REMARK SMILES IDX 65 36 19 37 70 38 64 39 66 40 20 41 69 42 63 43 62 44 21 46
REMARK SMILES IDX 51 47 32 48 50 49 33 50 36 51 49 52 67 53 34 54 35 55 48 57
REMARK SMILES IDX 68 58 37 59 22 60 23 61 31 62 24 63 30 64 25 65 26 66 27 67
REMARK SMILES IDX 28 68 29 69 52 70 53 71 61 72 54 73 60 74 55 75 56 76 57 77
REMARK SMILES IDX 58 78 59 79 38 80 39 81 47 82 40 83 46 84 41 85 42 86 43 87
REMARK SMILES IDX 44 88 45 89
REMARK H PARENT 6 6 75 13 10 26 66 45 36 56
REMARK Flexibility Score: inf
ROOT
ATOM      1  C   UNL     1       0.358   1.028   4.106  1.00  0.00     0.042 C 
ENDROOT
BRANCH   1   2
ATOM      2  C   UNL     1      -0.627   1.550   3.062  1.00  0.00     0.117 C 
BRANCH   2   3
ATOM      3  N   UNL     1      -0.037   2.562   2.217  1.00  0.00    -0.356 N 
ATOM      4  C   UNL     1       0.329   2.509   0.912  1.00  0.00     0.229 C 
ATOM      5  O   UNL     1       0.780   3.552   0.425  1.00  0.00    -0.275 OA
ATOM      6  H   UNL     1       0.124   3.427   2.658  1.00  0.00     0.163 HD
BRANCH   4   7
ATOM      7  C   UNL     1       0.157   1.281   0.024  1.00  0.00     0.142 C 
ATOM      8  C   UNL     1       2.046  -0.368  -0.135  1.00  0.00     0.076 C 
ATOM      9  C   UNL     1       0.685  -0.083   0.517  1.00  0.00     0.193 C 
ATOM     10  N   UNL     1      -0.280  -1.083   0.023  1.00  0.00    -0.328 N 
ATOM     11  C   UNL     1      -1.274   1.002  -0.415  1.00  0.00     0.081 C 
ATOM     12  C   UNL     1      -1.159  -0.422  -0.931  1.00  0.00     0.263 C 
ATOM     13  H   UNL     1       0.261  -1.805  -0.453  1.00  0.00     0.348 HD
BRANCH  10  14
ATOM     14  C   UNL     1      -0.887  -2.039   0.964  1.00  0.00     0.302 C 
BRANCH  14  15
ATOM     15  C   UNL     1      -1.921  -1.586   1.983  1.00  0.00     0.042 A 
ATOM     16  C   UNL     1      -1.667  -1.733   3.361  1.00  0.00     0.014 A 
ATOM     17  C   UNL     1      -3.178  -1.081   1.629  1.00  0.00     0.133 A 
ATOM     18  C   UNL     1      -2.578  -1.269   4.324  1.00  0.00     0.016 A 
ATOM     19  C   UNL     1      -4.080  -0.593   2.573  1.00  0.00     0.055 A 
ATOM     20  F   UNL     1      -3.576  -1.052   0.353  1.00  0.00    -0.206 F 
ATOM     21  C   UNL     1      -3.768  -0.673   3.921  1.00  0.00     0.020 A 
ATOM     22  Br  UNL     1      -4.981   0.018   5.192  1.00  0.00    -0.051 Br
ENDBRANCH  14  15
ENDBRANCH  10  14
ENDBRANCH   4   7
ENDBRANCH   2   3
ENDBRANCH   1   2
BRANCH   1  23
ATOM     23  C   UNL     1       0.317   1.797   5.420  1.00  0.00     0.118 C 
BRANCH  23  24
ATOM     24  N   UNL     1      -0.967   1.681   6.106  1.00  0.00    -0.352 N 
ATOM     25  C   UNL     1      -1.366   1.001   7.227  1.00  0.00     0.251 C 
ATOM     26  H   UNL     1      -1.690   2.194   5.678  1.00  0.00     0.163 HD
ATOM     27  O   UNL     1      -2.571   0.972   7.494  1.00  0.00    -0.269 OA
BRANCH  25  28
ATOM     28  C   UNL     1      -0.423   0.286   8.114  1.00  0.00     0.039 A 
ATOM     29  C   UNL     1      -0.867  -0.872   8.768  1.00  0.00     0.014 A 
ATOM     30  C   UNL     1       0.851   0.779   8.389  1.00  0.00     0.014 A 
ATOM     31  C   UNL     1      -0.024  -1.548   9.655  1.00  0.00     0.010 A 
ATOM     32  C   UNL     1       1.724   0.052   9.191  1.00  0.00     0.010 A 
ATOM     33  C   UNL     1       1.290  -1.105   9.855  1.00  0.00    -0.014 A 
BRANCH  33  34
ATOM     34  C   UNL     1       2.218  -1.780  10.799  1.00  0.00     0.031 A 
ATOM     35  C   UNL     1       2.772  -1.012  11.972  1.00  0.00     0.074 A 
ATOM     36  C   UNL     1       2.629  -3.040  10.558  1.00  0.00     0.049 A 
ATOM     37  N   UNL     1       3.724  -1.343  12.805  1.00  0.00    -0.248 NA
ATOM     38  C   UNL     1       2.205   0.327  12.212  1.00  0.00     0.031 C 
ATOM     39  C   UNL     1       2.187  -3.879   9.441  1.00  0.00     0.029 A 
ATOM     40  N   UNL     1       3.528  -3.829  11.229  1.00  0.00    -0.354 N 
ATOM     41  C   UNL     1       3.900  -0.241  13.635  1.00  0.00     0.074 A 
ATOM     42  C   UNL     1       2.989   0.784  13.177  1.00  0.00     0.031 C 
ATOM     43  C   UNL     1       2.807  -5.068   9.513  1.00  0.00     0.029 A 
ATOM     44  C   UNL     1       3.722  -5.060  10.649  1.00  0.00     0.049 A 
ATOM     45  H   UNL     1       3.991  -3.541  12.049  1.00  0.00     0.167 HD
ATOM     46  C   UNL     1       4.732  -0.100  14.695  1.00  0.00     0.031 A 
ATOM     47  C   UNL     1       4.556  -6.064  10.984  1.00  0.00     0.031 A 
ATOM     48  C   UNL     1       5.608  -1.139  15.168  1.00  0.00     0.049 A 
ATOM     49  C   UNL     1       5.447  -5.899  12.183  1.00  0.00     0.074 A 
ATOM     50  C   UNL     1       6.454  -1.123  16.262  1.00  0.00     0.029 A 
ATOM     51  N   UNL     1       5.737  -2.388  14.579  1.00  0.00    -0.354 N 
ATOM     52  N   UNL     1       5.584  -4.857  12.970  1.00  0.00    -0.248 NA
ATOM     53  C   UNL     1       6.287  -7.047  12.546  1.00  0.00     0.031 C 
ATOM     54  C   UNL     1       7.121  -2.352  16.314  1.00  0.00     0.029 A 
ATOM     55  C   UNL     1       6.653  -3.151  15.282  1.00  0.00     0.049 A 
ATOM     56  H   UNL     1       5.248  -2.689  13.779  1.00  0.00     0.167 HD
ATOM     57  C   UNL     1       6.513  -5.232  13.934  1.00  0.00     0.074 A 
ATOM     58  C   UNL     1       6.886  -6.602  13.643  1.00  0.00     0.031 C 
ATOM     59  C   UNL     1       7.013  -4.510  14.967  1.00  0.00     0.031 A 
BRANCH  46  60
ATOM     60  C   UNL     1       4.730   1.229  15.408  1.00  0.00    -0.014 A 
ATOM     61  C   UNL     1       3.617   1.651  16.160  1.00  0.00     0.010 A 
ATOM     62  C   UNL     1       5.860   2.064  15.338  1.00  0.00     0.010 A 
ATOM     63  C   UNL     1       3.612   2.904  16.779  1.00  0.00     0.020 A 
ATOM     64  C   UNL     1       5.872   3.305  15.983  1.00  0.00     0.020 A 
ATOM     65  C   UNL     1       4.738   3.726  16.681  1.00  0.00     0.054 A 
BRANCH  65  66
ATOM     66  S   UNL     1       4.708   5.345  17.500  1.00  0.00     0.124 S 
ATOM     67  O   UNL     1       3.835   6.112  16.615  1.00  0.00    -0.237 OA
ATOM     68  O   UNL     1       4.149   5.030  18.813  1.00  0.00    -0.237 OA
ATOM     69  O   UNL     1       6.108   5.757  17.505  1.00  0.00    -0.744 OA
ENDBRANCH  65  66
ENDBRANCH  46  60
BRANCH  47  70
ATOM     70  C   UNL     1       4.571  -7.313  10.176  1.00  0.00    -0.014 A 
ATOM     71  C   UNL     1       4.014  -8.499  10.688  1.00  0.00     0.010 A 
ATOM     72  C   UNL     1       5.108  -7.316   8.876  1.00  0.00     0.010 A 
ATOM     73  C   UNL     1       4.003  -9.666   9.919  1.00  0.00     0.020 A 
ATOM     74  C   UNL     1       5.074  -8.475   8.094  1.00  0.00     0.020 A 
ATOM     75  C   UNL     1       4.529  -9.645   8.624  1.00  0.00     0.054 A 
BRANCH  75  76
ATOM     76  S   UNL     1       4.437 -11.152   7.617  1.00  0.00     0.124 S 
ATOM     77  O   UNL     1       5.482 -11.979   8.211  1.00  0.00    -0.237 OA
ATOM     78  O   UNL     1       3.066 -11.602   7.846  1.00  0.00    -0.237 OA
ATOM     79  O   UNL     1       4.708 -10.674   6.263  1.00  0.00    -0.744 OA
ENDBRANCH  75  76
ENDBRANCH  47  70
BRANCH  59  80
ATOM     80  C   UNL     1       7.998  -5.201  15.871  1.00  0.00    -0.014 A 
ATOM     81  C   UNL     1       9.310  -5.470  15.446  1.00  0.00     0.010 A 
ATOM     82  C   UNL     1       7.611  -5.554  17.177  1.00  0.00     0.010 A 
ATOM     83  C   UNL     1      10.208  -6.117  16.298  1.00  0.00     0.020 A 
ATOM     84  C   UNL     1       8.514  -6.177  18.040  1.00  0.00     0.020 A 
ATOM     85  C   UNL     1       9.802  -6.471  17.588  1.00  0.00     0.054 A 
BRANCH  85  86
ATOM     86  S   UNL     1      10.992  -7.290  18.685  1.00  0.00     0.124 S 
ATOM     87  O   UNL     1      11.017  -8.646  18.145  1.00  0.00    -0.237 OA
ATOM     88  O   UNL     1      12.209  -6.509  18.480  1.00  0.00    -0.237 OA
ATOM     89  O   UNL     1      10.389  -7.157  20.009  1.00  0.00    -0.744 OA
ENDBRANCH  85  86
ENDBRANCH  59  80
ENDBRANCH  33  34
ENDBRANCH  25  28
ENDBRANCH  23  24
ENDBRANCH   1  23
TORSDOF 15
