REMARK SMILES CC1(C)CCC[C@H]1NC(=O)N[C@@H]1COC[C@@]1(C)C(=O)NCCCNC(=O)c1ccc(-c2c3nc(c(-c4ccc(S(=O)(=O)[O-])cc4)c4ccc([nH]4)c(-c4ccc(S(=O)(=O)[O-])cc4)c4nc(c(-c5ccc(S(=O)(=O)[O-])cc5)c5ccc2[nH]5)C=C4)C=C3)cc1
REMARK SMILES IDX 22 1 21 2 20 3 18 4 19 5 16 7 12 8 13 9 14 10 15 11 17 12
REMARK SMILES IDX 11 13 8 14 9 15 10 17 7 19 1 20 2 21 3 22 4 23 5 24 6 25
REMARK SMILES IDX 23 26 24 27 25 28 26 30 27 31 28 32 86 33 29 34 85 35 30 36
REMARK SMILES IDX 31 37 32 38 79 39 33 40 84 41 78 42 80 43 34 44 83 45 77 46
REMARK SMILES IDX 76 47 35 49 65 50 46 51 64 52 47 53 50 54 63 55 81 56 48 57
REMARK SMILES IDX 49 58 62 60 82 61 51 62 36 63 37 64 45 65 38 66 44 67 39 68
REMARK SMILES IDX 40 69 41 70 42 71 43 72 66 73 67 74 75 75 68 76 74 77 69 78
REMARK SMILES IDX 70 79 71 80 72 81 73 82 52 83 53 84 61 85 54 86 60 87 55 88
REMARK SMILES IDX 56 89 57 90 58 91 59 92
REMARK H PARENT 20 6 8 16 11 18 24 29 80 48 50 59
REMARK Flexibility Score: inf
ROOT
ATOM      1  C   UNL     1       3.774   2.341   2.572  1.00  0.00     0.042 C 
ENDROOT
BRANCH   1   2
ATOM      2  C   UNL     1       3.439   3.675   1.903  1.00  0.00     0.117 C 
BRANCH   2   3
ATOM      3  N   UNL     1       3.854   3.845   0.518  1.00  0.00    -0.355 N 
ATOM      4  C   UNL     1       3.162   3.764  -0.657  1.00  0.00     0.230 C 
ATOM      5  O   UNL     1       3.699   4.285  -1.639  1.00  0.00    -0.274 OA
ATOM      6  H   UNL     1       4.809   4.058   0.408  1.00  0.00     0.163 HD
BRANCH   4   7
ATOM      7  C   UNL     1       1.847   2.982  -0.788  1.00  0.00     0.092 C 
ATOM      8  C   UNL     1       0.603   3.660  -0.184  1.00  0.00     0.127 C 
ATOM      9  C   UNL     1      -0.496   3.597  -1.242  1.00  0.00     0.186 C 
ATOM     10  O   UNL     1       0.008   2.805  -2.317  1.00  0.00    -0.378 OA
ATOM     11  C   UNL     1       1.438   2.936  -2.279  1.00  0.00     0.179 C 
ATOM     12  C   UNL     1       2.141   1.563  -0.344  1.00  0.00     0.026 C 
BRANCH   8  13
ATOM     13  N   UNL     1       0.134   3.322   1.165  1.00  0.00    -0.332 N 
ATOM     14  N   UNL     1      -0.625   1.083   1.490  1.00  0.00    -0.335 N 
ATOM     15  C   UNL     1      -0.342   2.317   1.892  1.00  0.00     0.315 C 
ATOM     16  H   UNL     1      -0.728   0.472   2.255  1.00  0.00     0.165 HD
ATOM     17  O   UNL     1      -0.513   2.567   3.090  1.00  0.00    -0.249 OA
ATOM     18  H   UNL     1       0.192   4.124   1.732  1.00  0.00     0.165 HD
BRANCH  14  19
ATOM     19  C   UNL     1      -0.826   0.385   0.222  1.00  0.00     0.089 C 
ATOM     20  C   UNL     1       1.039  -1.282   1.089  1.00  0.00     0.013 C 
ATOM     21  C   UNL     1      -0.186  -1.050   0.189  1.00  0.00    -0.015 C 
ATOM     22  C   UNL     1       0.187  -1.451  -1.260  1.00  0.00     0.013 C 
ATOM     23  C   UNL     1      -1.339  -1.942   0.680  1.00  0.00     0.008 C 
ATOM     24  C   UNL     1      -2.564  -1.364   0.001  1.00  0.00     0.003 C 
ATOM     25  C   UNL     1      -2.345   0.146   0.027  1.00  0.00     0.025 C 
ENDBRANCH  14  19
ENDBRANCH   8  13
ENDBRANCH   4   7
ENDBRANCH   2   3
ENDBRANCH   1   2
BRANCH   1  26
ATOM     26  C   UNL     1       5.255   2.016   2.730  1.00  0.00     0.118 C 
BRANCH  26  27
ATOM     27  N   UNL     1       5.943   2.971   3.576  1.00  0.00    -0.352 N 
ATOM     28  C   UNL     1       6.459   2.867   4.842  1.00  0.00     0.251 C 
ATOM     29  H   UNL     1       6.061   3.859   3.166  1.00  0.00     0.163 HD
ATOM     30  O   UNL     1       6.749   3.912   5.426  1.00  0.00    -0.269 OA
BRANCH  28  31
ATOM     31  C   UNL     1       6.693   1.566   5.522  1.00  0.00     0.039 A 
ATOM     32  C   UNL     1       6.631   1.542   6.921  1.00  0.00     0.014 A 
ATOM     33  C   UNL     1       7.097   0.411   4.844  1.00  0.00     0.014 A 
ATOM     34  C   UNL     1       6.960   0.382   7.629  1.00  0.00     0.010 A 
ATOM     35  C   UNL     1       7.357  -0.771   5.548  1.00  0.00     0.010 A 
ATOM     36  C   UNL     1       7.319  -0.792   6.950  1.00  0.00    -0.014 A 
BRANCH  36  37
ATOM     37  C   UNL     1       7.663  -2.024   7.712  1.00  0.00     0.031 A 
ATOM     38  C   UNL     1       9.059  -2.594   7.684  1.00  0.00     0.074 A 
ATOM     39  C   UNL     1       6.708  -2.647   8.430  1.00  0.00     0.049 A 
ATOM     40  N   UNL     1       9.546  -3.619   8.339  1.00  0.00    -0.248 NA
ATOM     41  C   UNL     1      10.025  -1.945   6.786  1.00  0.00     0.031 C 
ATOM     42  C   UNL     1       5.303  -2.240   8.493  1.00  0.00     0.029 A 
ATOM     43  N   UNL     1       6.773  -3.750   9.243  1.00  0.00    -0.354 N 
ATOM     44  C   UNL     1      10.867  -3.746   7.923  1.00  0.00     0.074 A 
ATOM     45  C   UNL     1      11.089  -2.723   6.924  1.00  0.00     0.031 C 
ATOM     46  C   UNL     1       4.644  -3.065   9.321  1.00  0.00     0.029 A 
ATOM     47  C   UNL     1       5.572  -4.072   9.829  1.00  0.00     0.049 A 
ATOM     48  H   UNL     1       7.600  -4.263   9.392  1.00  0.00     0.167 HD
ATOM     49  C   UNL     1      11.814  -4.623   8.342  1.00  0.00     0.031 A 
ATOM     50  C   UNL     1       5.248  -5.059  10.686  1.00  0.00     0.031 A 
ATOM     51  C   UNL     1      11.592  -5.643   9.335  1.00  0.00     0.049 A 
ATOM     52  C   UNL     1       6.319  -5.991  11.175  1.00  0.00     0.074 A 
ATOM     53  C   UNL     1      12.504  -6.532   9.880  1.00  0.00     0.029 A 
ATOM     54  N   UNL     1      10.367  -5.919   9.926  1.00  0.00    -0.354 N 
ATOM     55  N   UNL     1       7.586  -6.035  10.841  1.00  0.00    -0.248 NA
ATOM     56  C   UNL     1       5.920  -6.989  12.176  1.00  0.00     0.031 C 
ATOM     57  C   UNL     1      11.819  -7.378  10.761  1.00  0.00     0.029 A 
ATOM     58  C   UNL     1      10.492  -6.982  10.807  1.00  0.00     0.049 A 
ATOM     59  H   UNL     1       9.532  -5.431   9.746  1.00  0.00     0.167 HD
ATOM     60  C   UNL     1       8.141  -7.062  11.595  1.00  0.00     0.074 A 
ATOM     61  C   UNL     1       7.075  -7.591  12.424  1.00  0.00     0.031 C 
ATOM     62  C   UNL     1       9.417  -7.525  11.600  1.00  0.00     0.031 A 
BRANCH  49  63
ATOM     63  C   UNL     1      13.176  -4.524   7.699  1.00  0.00    -0.014 A 
ATOM     64  C   UNL     1      14.017  -3.419   7.929  1.00  0.00     0.010 A 
ATOM     65  C   UNL     1      13.622  -5.551   6.846  1.00  0.00     0.010 A 
ATOM     66  C   UNL     1      15.243  -3.309   7.266  1.00  0.00     0.020 A 
ATOM     67  C   UNL     1      14.861  -5.459   6.204  1.00  0.00     0.020 A 
ATOM     68  C   UNL     1      15.651  -4.324   6.397  1.00  0.00     0.054 A 
BRANCH  68  69
ATOM     69  S   UNL     1      17.233  -4.144   5.525  1.00  0.00     0.124 S 
ATOM     70  O   UNL     1      16.898  -3.164   4.496  1.00  0.00    -0.237 OA
ATOM     71  O   UNL     1      18.129  -3.671   6.576  1.00  0.00    -0.237 OA
ATOM     72  O   UNL     1      17.512  -5.492   5.034  1.00  0.00    -0.744 OA
ENDBRANCH  68  69
ENDBRANCH  49  63
BRANCH  50  73
ATOM     73  C   UNL     1       3.839  -5.182  11.148  1.00  0.00    -0.014 A 
ATOM     74  C   UNL     1       3.469  -4.776  12.441  1.00  0.00     0.010 A 
ATOM     75  C   UNL     1       2.845  -5.633  10.259  1.00  0.00     0.010 A 
ATOM     76  C   UNL     1       2.128  -4.810  12.835  1.00  0.00     0.020 A 
ATOM     77  C   UNL     1       1.502  -5.646  10.642  1.00  0.00     0.020 A 
ATOM     78  C   UNL     1       1.151  -5.235  11.929  1.00  0.00     0.054 A 
BRANCH  78  79
ATOM     79  S   UNL     1      -0.594  -5.165  12.423  1.00  0.00     0.124 S 
ATOM     80  O   UNL     1      -0.705  -6.316  13.313  1.00  0.00    -0.237 OA
ATOM     81  O   UNL     1      -0.689  -3.856  13.065  1.00  0.00    -0.237 OA
ATOM     82  O   UNL     1      -1.312  -5.280  11.155  1.00  0.00    -0.744 OA
ENDBRANCH  78  79
ENDBRANCH  50  73
BRANCH  62  83
ATOM     83  C   UNL     1       9.721  -8.669  12.532  1.00  0.00    -0.014 A 
ATOM     84  C   UNL     1       9.225  -9.962  12.281  1.00  0.00     0.010 A 
ATOM     85  C   UNL     1      10.515  -8.450  13.672  1.00  0.00     0.010 A 
ATOM     86  C   UNL     1       9.469 -11.001  13.184  1.00  0.00     0.020 A 
ATOM     87  C   UNL     1      10.785  -9.494  14.562  1.00  0.00     0.020 A 
ATOM     88  C   UNL     1      10.239 -10.757  14.324  1.00  0.00     0.054 A 
BRANCH  88  89
ATOM     89  S   UNL     1      10.539 -12.117  15.486  1.00  0.00     0.124 S 
ATOM     90  O   UNL     1       9.263 -12.199  16.192  1.00  0.00    -0.237 OA
ATOM     91  O   UNL     1      10.840 -13.239  14.600  1.00  0.00    -0.237 OA
ATOM     92  O   UNL     1      11.666 -11.645  16.287  1.00  0.00    -0.744 OA
ENDBRANCH  88  89
ENDBRANCH  62  83
ENDBRANCH  36  37
ENDBRANCH  28  31
ENDBRANCH  26  27
ENDBRANCH   1  26
TORSDOF 15
