REMARK SMILES O=C(NCCCNC(=O)c1c(/C=C2/SC(=S)N=C2O)cnc2ccccc12)c1ccc(-c2c3nc(c(-c4ccc(S(=O)(=O)[O-])cc4)c4ccc([nH]4)c(-c4ccc(S(=O)(=O)[O-])cc4)c4nc(c(-c5ccc(S(=O)(=O)[O-])cc5)c5ccc2[nH]5)C=C4)C=C3)cc1
REMARK SMILES IDX 4 1 3 2 1 3 2 4 28 6 29 7 87 8 30 9 86 10 31 11 32 12 33 13
REMARK SMILES IDX 80 14 34 15 85 16 79 17 81 18 35 19 84 20 78 21 77 22 36 24
REMARK SMILES IDX 66 25 47 26 65 27 48 28 51 29 64 30 82 31 49 32 50 33 63 35
REMARK SMILES IDX 83 36 52 37 37 38 38 39 46 40 39 41 45 42 40 43 41 44 42 45
REMARK SMILES IDX 43 46 44 47 67 48 68 49 76 50 69 51 75 52 70 53 71 54 72 55
REMARK SMILES IDX 73 56 74 57 53 58 54 59 62 60 55 61 61 62 56 63 57 64 58 65
REMARK SMILES IDX 59 66 60 67 5 68 6 69 7 70 8 71 9 73 10 74 11 75 27 76 20 77
REMARK SMILES IDX 22 78 26 79 21 80 23 81 25 82 24 83 12 84 13 85 14 86 18 87
REMARK SMILES IDX 15 88 17 89 16 90 19 91
REMARK H PARENT 3 5 81 23 51 34 7 72 19 92
REMARK Flexibility Score: inf
ROOT
ATOM      1  C   UNL     1       4.676  -1.132   0.576  1.00  0.00     0.118 C 
ENDROOT
BRANCH   1   2
ATOM      2  N   UNL     1       3.233  -1.010   0.431  1.00  0.00    -0.352 N 
ATOM      3  O   UNL     1       1.238  -0.068   0.048  1.00  0.00    -0.269 OA
ATOM      4  C   UNL     1       2.454  -0.024  -0.122  1.00  0.00     0.251 C 
ATOM      5  H   UNL     1       2.724  -1.771   0.794  1.00  0.00     0.163 HD
BRANCH   4   6
ATOM      6  C   UNL     1       3.052   1.096  -0.882  1.00  0.00     0.039 A 
ATOM      7  C   UNL     1       4.104   0.898  -1.778  1.00  0.00     0.014 A 
ATOM      8  C   UNL     1       2.502   2.374  -0.735  1.00  0.00     0.014 A 
ATOM      9  C   UNL     1       4.706   1.988  -2.402  1.00  0.00     0.010 A 
ATOM     10  C   UNL     1       3.047   3.455  -1.432  1.00  0.00     0.010 A 
ATOM     11  C   UNL     1       4.178   3.277  -2.244  1.00  0.00    -0.014 A 
BRANCH  11  12
ATOM     12  C   UNL     1       4.783   4.427  -2.963  1.00  0.00     0.031 A 
ATOM     13  C   UNL     1       5.402   5.567  -2.203  1.00  0.00     0.074 A 
ATOM     14  C   UNL     1       4.755   4.451  -4.310  1.00  0.00     0.049 A 
ATOM     15  N   UNL     1       5.910   6.683  -2.660  1.00  0.00    -0.248 NA
ATOM     16  C   UNL     1       5.447   5.443  -0.738  1.00  0.00     0.031 C 
ATOM     17  C   UNL     1       4.187   3.403  -5.161  1.00  0.00     0.029 A 
ATOM     18  N   UNL     1       5.210   5.391  -5.199  1.00  0.00    -0.354 N 
ATOM     19  C   UNL     1       6.307   7.407  -1.542  1.00  0.00     0.074 A 
ATOM     20  C   UNL     1       5.963   6.611  -0.383  1.00  0.00     0.031 C 
ATOM     21  C   UNL     1       4.344   3.748  -6.447  1.00  0.00     0.029 A 
ATOM     22  C   UNL     1       4.962   5.068  -6.512  1.00  0.00     0.049 A 
ATOM     23  H   UNL     1       5.668   6.218  -4.924  1.00  0.00     0.167 HD
ATOM     24  C   UNL     1       6.902   8.624  -1.487  1.00  0.00     0.031 A 
ATOM     25  C   UNL     1       5.176   5.764  -7.644  1.00  0.00     0.031 A 
ATOM     26  C   UNL     1       7.237   9.411  -2.645  1.00  0.00     0.049 A 
ATOM     27  C   UNL     1       5.807   7.123  -7.561  1.00  0.00     0.074 A 
ATOM     28  C   UNL     1       7.865  10.643  -2.696  1.00  0.00     0.029 A 
ATOM     29  N   UNL     1       6.965   9.047  -3.956  1.00  0.00    -0.354 N 
ATOM     30  N   UNL     1       6.197   7.781  -6.496  1.00  0.00    -0.248 NA
ATOM     31  C   UNL     1       6.031   7.831  -8.828  1.00  0.00     0.031 C 
ATOM     32  C   UNL     1       7.928  11.046  -4.034  1.00  0.00     0.029 A 
ATOM     33  C   UNL     1       7.392  10.040  -4.822  1.00  0.00     0.049 A 
ATOM     34  H   UNL     1       6.531   8.207  -4.230  1.00  0.00     0.167 HD
ATOM     35  C   UNL     1       6.735   8.973  -6.965  1.00  0.00     0.074 A 
ATOM     36  C   UNL     1       6.623   8.943  -8.410  1.00  0.00     0.031 C 
ATOM     37  C   UNL     1       7.277   9.995  -6.259  1.00  0.00     0.031 A 
BRANCH  24  38
ATOM     38  C   UNL     1       7.184   9.194  -0.121  1.00  0.00    -0.014 A 
ATOM     39  C   UNL     1       8.186   8.654   0.706  1.00  0.00     0.010 A 
ATOM     40  C   UNL     1       6.434  10.291   0.341  1.00  0.00     0.010 A 
ATOM     41  C   UNL     1       8.388   9.160   1.994  1.00  0.00     0.020 A 
ATOM     42  C   UNL     1       6.652  10.817   1.617  1.00  0.00     0.020 A 
ATOM     43  C   UNL     1       7.609  10.230   2.446  1.00  0.00     0.054 A 
BRANCH  43  44
ATOM     44  S   UNL     1       7.869  10.848   4.132  1.00  0.00     0.124 S 
ATOM     45  O   UNL     1       7.220   9.811   4.932  1.00  0.00    -0.237 OA
ATOM     46  O   UNL     1       9.325  10.901   4.237  1.00  0.00    -0.237 OA
ATOM     47  O   UNL     1       7.199  12.146   4.133  1.00  0.00    -0.744 OA
ENDBRANCH  43  44
ENDBRANCH  24  38
BRANCH  25  48
ATOM     48  C   UNL     1       4.765   5.170  -8.944  1.00  0.00    -0.014 A 
ATOM     49  C   UNL     1       5.726   4.658  -9.832  1.00  0.00     0.010 A 
ATOM     50  C   UNL     1       3.399   5.033  -9.256  1.00  0.00     0.010 A 
ATOM     51  C   UNL     1       5.327   4.011 -11.005  1.00  0.00     0.020 A 
ATOM     52  C   UNL     1       2.997   4.365 -10.415  1.00  0.00     0.020 A 
ATOM     53  C   UNL     1       3.965   3.859 -11.284  1.00  0.00     0.054 A 
BRANCH  53  54
ATOM     54  S   UNL     1       3.471   2.925 -12.759  1.00  0.00     0.124 S 
ATOM     55  O   UNL     1       3.756   3.875 -13.829  1.00  0.00    -0.237 OA
ATOM     56  O   UNL     1       4.345   1.756 -12.700  1.00  0.00    -0.237 OA
ATOM     57  O   UNL     1       2.055   2.646 -12.528  1.00  0.00    -0.744 OA
ENDBRANCH  53  54
ENDBRANCH  25  48
BRANCH  37  58
ATOM     58  C   UNL     1       7.836  11.157  -7.033  1.00  0.00    -0.014 A 
ATOM     59  C   UNL     1       6.994  12.120  -7.614  1.00  0.00     0.010 A 
ATOM     60  C   UNL     1       9.231  11.332  -7.099  1.00  0.00     0.010 A 
ATOM     61  C   UNL     1       7.538  13.236  -8.257  1.00  0.00     0.020 A 
ATOM     62  C   UNL     1       9.778  12.457  -7.720  1.00  0.00     0.020 A 
ATOM     63  C   UNL     1       8.927  13.400  -8.300  1.00  0.00     0.054 A 
BRANCH  63  64
ATOM     64  S   UNL     1       9.607  14.897  -9.066  1.00  0.00     0.124 S 
ATOM     65  O   UNL     1       9.424  14.622 -10.488  1.00  0.00    -0.237 OA
ATOM     66  O   UNL     1       8.761  15.953  -8.516  1.00  0.00    -0.237 OA
ATOM     67  O   UNL     1      10.995  14.919  -8.609  1.00  0.00    -0.744 OA
ENDBRANCH  63  64
ENDBRANCH  37  58
ENDBRANCH  11  12
ENDBRANCH   4   6
ENDBRANCH   1   2
BRANCH   1  68
ATOM     68  C   UNL     1       5.168  -0.800   1.979  1.00  0.00     0.042 C 
BRANCH  68  69
ATOM     69  C   UNL     1       4.530  -1.620   3.089  1.00  0.00     0.118 C 
BRANCH  69  70
ATOM     70  N   UNL     1       4.585  -3.057   2.863  1.00  0.00    -0.352 N 
ATOM     71  C   UNL     1       4.964  -4.024   3.743  1.00  0.00     0.252 C 
ATOM     72  H   UNL     1       4.317  -3.367   1.967  1.00  0.00     0.163 HD
ATOM     73  O   UNL     1       4.724  -5.219   3.554  1.00  0.00    -0.269 OA
BRANCH  71  74
ATOM     74  C   UNL     1       5.684  -3.689   4.959  1.00  0.00     0.058 A 
ATOM     75  C   UNL     1       7.073  -3.847   5.004  1.00  0.00     0.007 A 
ATOM     76  C   UNL     1       4.918  -3.214   6.062  1.00  0.00     0.014 A 
ATOM     77  C   UNL     1       7.634  -3.490   6.229  1.00  0.00     0.120 A 
ATOM     78  C   UNL     1       5.636  -2.836   7.206  1.00  0.00     0.071 A 
ATOM     79  C   UNL     1       3.505  -3.058   6.062  1.00  0.00     0.011 A 
ATOM     80  N   UNL     1       6.963  -2.996   7.298  1.00  0.00    -0.256 NA
ATOM     81  C   UNL     1       4.953  -2.255   8.267  1.00  0.00     0.029 A 
ATOM     82  C   UNL     1       2.840  -2.477   7.138  1.00  0.00     0.001 A 
ATOM     83  C   UNL     1       3.570  -2.058   8.239  1.00  0.00     0.002 A 
BRANCH  75  84
ATOM     84  C   UNL     1       8.035  -4.084   3.895  1.00  0.00     0.031 C 
ATOM     85  C   UNL     1       8.152  -4.708   2.706  1.00  0.00     0.077 C 
ATOM     86  S   UNL     1       9.627  -4.346   1.788  1.00  0.00    -0.053 SA
ATOM     87  C   UNL     1       7.414  -5.618   1.795  1.00  0.00     0.227 C 
ATOM     88  C   UNL     1       8.953  -5.077   0.326  1.00  0.00     0.168 C 
ATOM     89  N   UNL     1       7.814  -5.796   0.577  1.00  0.00    -0.194 NA
ATOM     90  S   UNL     1       9.671  -4.873  -1.168  1.00  0.00    -0.050 S 
BRANCH  87  91
ATOM     91  O   UNL     1       6.394  -6.357   2.212  1.00  0.00    -0.492 OA
ATOM     92  H   UNL     1       6.072  -6.260   3.087  1.00  0.00     0.295 HD
ENDBRANCH  87  91
ENDBRANCH  75  84
ENDBRANCH  71  74
ENDBRANCH  69  70
ENDBRANCH  68  69
ENDBRANCH   1  68
TORSDOF 15
