REMARK SMILES O=C(NCCCNC(=O)c1ccc(N2C(=O)/C(=C/C3=c4ccccc4=NC3)SC2=S)cc1O)c1ccc(-c2c3nc(c(-c4ccc(S(=O)(=O)[O-])cc4)c4ccc([nH]4)c(-c4ccc(S(=O)(=O)[O-])cc4)c4nc(c(-c5ccc(S(=O)(=O)[O-])cc5)c5ccc2[nH]5)C=C4)C=C3)cc1
REMARK SMILES IDX 4 1 3 2 1 3 2 4 34 6 35 7 93 8 36 9 92 10 37 11 38 12 39 13
REMARK SMILES IDX 86 14 40 15 91 16 85 17 87 18 41 19 90 20 84 21 83 22 42 24
REMARK SMILES IDX 72 25 53 26 71 27 54 28 57 29 70 30 88 31 55 32 56 33 69 35
REMARK SMILES IDX 89 36 58 37 43 38 44 39 52 40 45 41 51 42 46 43 47 44 48 45
REMARK SMILES IDX 49 46 50 47 73 48 74 49 82 50 75 51 81 52 76 53 77 54 78 55
REMARK SMILES IDX 79 56 80 57 59 58 60 59 68 60 61 61 67 62 62 63 63 64 64 65
REMARK SMILES IDX 65 66 66 67 5 68 6 69 7 70 8 71 9 73 10 74 11 75 32 76 12 77
REMARK SMILES IDX 31 78 13 79 33 80 14 82 15 83 29 84 16 85 17 86 28 87 30 88
REMARK SMILES IDX 18 89 19 90 20 91 27 92 21 93 25 94 26 95 22 96 24 97 23 98
REMARK H PARENT 3 5 87 23 57 34 7 72 33 81
REMARK Flexibility Score: inf
ROOT
ATOM      1  C   UNL     1       4.624  -0.889  -0.907  1.00  0.00     0.118 C 
ENDROOT
BRANCH   1   2
ATOM      2  N   UNL     1       3.185  -0.679  -0.886  1.00  0.00    -0.352 N 
ATOM      3  O   UNL     1       1.182  -0.030  -0.119  1.00  0.00    -0.269 OA
ATOM      4  C   UNL     1       2.402   0.112  -0.083  1.00  0.00     0.251 C 
ATOM      5  H   UNL     1       2.687  -1.191  -1.564  1.00  0.00     0.163 HD
BRANCH   4   6
ATOM      6  C   UNL     1       3.001   1.118   0.826  1.00  0.00     0.039 A 
ATOM      7  C   UNL     1       2.358   1.403   2.034  1.00  0.00     0.014 A 
ATOM      8  C   UNL     1       4.144   1.837   0.473  1.00  0.00     0.014 A 
ATOM      9  C   UNL     1       2.869   2.391   2.881  1.00  0.00     0.010 A 
ATOM     10  C   UNL     1       4.728   2.719   1.375  1.00  0.00     0.010 A 
ATOM     11  C   UNL     1       4.065   3.054   2.560  1.00  0.00    -0.014 A 
BRANCH  11  12
ATOM     12  C   UNL     1       4.566   4.189   3.379  1.00  0.00     0.031 A 
ATOM     13  C   UNL     1       4.669   5.561   2.756  1.00  0.00     0.074 A 
ATOM     14  C   UNL     1       4.924   3.998   4.664  1.00  0.00     0.049 A 
ATOM     15  N   UNL     1       5.086   6.678   3.293  1.00  0.00    -0.248 NA
ATOM     16  C   UNL     1       4.277   5.697   1.340  1.00  0.00     0.031 C 
ATOM     17  C   UNL     1       4.882   2.718   5.373  1.00  0.00     0.029 A 
ATOM     18  N   UNL     1       5.374   4.886   5.612  1.00  0.00    -0.354 N 
ATOM     19  C   UNL     1       5.020   7.631   2.282  1.00  0.00     0.074 A 
ATOM     20  C   UNL     1       4.596   6.955   1.081  1.00  0.00     0.031 C 
ATOM     21  C   UNL     1       5.229   2.914   6.655  1.00  0.00     0.029 A 
ATOM     22  C   UNL     1       5.564   4.322   6.853  1.00  0.00     0.049 A 
ATOM     23  H   UNL     1       5.545   5.836   5.420  1.00  0.00     0.167 HD
ATOM     24  C   UNL     1       5.247   8.961   2.357  1.00  0.00     0.031 A 
ATOM     25  C   UNL     1       5.945   4.878   8.022  1.00  0.00     0.031 A 
ATOM     26  C   UNL     1       5.610   9.641   3.570  1.00  0.00     0.049 A 
ATOM     27  C   UNL     1       6.201   6.362   8.076  1.00  0.00     0.074 A 
ATOM     28  C   UNL     1       5.811  10.996   3.760  1.00  0.00     0.029 A 
ATOM     29  N   UNL     1       5.803   9.028   4.798  1.00  0.00    -0.354 N 
ATOM     30  N   UNL     1       6.089   7.253   7.119  1.00  0.00    -0.248 NA
ATOM     31  C   UNL     1       6.612   6.923   9.371  1.00  0.00     0.031 C 
ATOM     32  C   UNL     1       6.197  11.195   5.084  1.00  0.00     0.029 A 
ATOM     33  C   UNL     1       6.143   9.977   5.745  1.00  0.00     0.049 A 
ATOM     34  H   UNL     1       5.711   8.063   4.970  1.00  0.00     0.167 HD
ATOM     35  C   UNL     1       6.368   8.482   7.708  1.00  0.00     0.074 A 
ATOM     36  C   UNL     1       6.649   8.223   9.104  1.00  0.00     0.031 C 
ATOM     37  C   UNL     1       6.386   9.713   7.141  1.00  0.00     0.031 A 
BRANCH  24  38
ATOM     38  C   UNL     1       5.073   9.798   1.115  1.00  0.00    -0.014 A 
ATOM     39  C   UNL     1       6.178  10.482   0.576  1.00  0.00     0.010 A 
ATOM     40  C   UNL     1       3.795  10.032   0.576  1.00  0.00     0.010 A 
ATOM     41  C   UNL     1       6.002  11.428  -0.436  1.00  0.00     0.020 A 
ATOM     42  C   UNL     1       3.619  10.951  -0.462  1.00  0.00     0.020 A 
ATOM     43  C   UNL     1       4.719  11.669  -0.936  1.00  0.00     0.054 A 
BRANCH  43  44
ATOM     44  S   UNL     1       4.500  12.962  -2.188  1.00  0.00     0.124 S 
ATOM     45  O   UNL     1       4.699  14.181  -1.409  1.00  0.00    -0.237 OA
ATOM     46  O   UNL     1       5.551  12.650  -3.154  1.00  0.00    -0.237 OA
ATOM     47  O   UNL     1       3.138  12.745  -2.671  1.00  0.00    -0.744 OA
ENDBRANCH  43  44
ENDBRANCH  24  38
BRANCH  25  48
ATOM     48  C   UNL     1       6.026   4.034   9.249  1.00  0.00    -0.014 A 
ATOM     49  C   UNL     1       6.974   2.999   9.353  1.00  0.00     0.010 A 
ATOM     50  C   UNL     1       5.115   4.226  10.305  1.00  0.00     0.010 A 
ATOM     51  C   UNL     1       6.979   2.146  10.461  1.00  0.00     0.020 A 
ATOM     52  C   UNL     1       5.141   3.398  11.432  1.00  0.00     0.020 A 
ATOM     53  C   UNL     1       6.055   2.346  11.489  1.00  0.00     0.054 A 
BRANCH  53  54
ATOM     54  S   UNL     1       6.060   1.202  12.898  1.00  0.00     0.124 S 
ATOM     55  O   UNL     1       5.478  -0.001  12.308  1.00  0.00    -0.237 OA
ATOM     56  O   UNL     1       7.479   1.115  13.232  1.00  0.00    -0.237 OA
ATOM     57  O   UNL     1       5.229   1.877  13.891  1.00  0.00    -0.744 OA
ENDBRANCH  53  54
ENDBRANCH  25  48
BRANCH  37  58
ATOM     58  C   UNL     1       6.668  10.910   8.014  1.00  0.00    -0.014 A 
ATOM     59  C   UNL     1       5.669  11.892   8.176  1.00  0.00     0.010 A 
ATOM     60  C   UNL     1       7.949  11.147   8.538  1.00  0.00     0.010 A 
ATOM     61  C   UNL     1       5.958  13.104   8.805  1.00  0.00     0.020 A 
ATOM     62  C   UNL     1       8.232  12.344   9.204  1.00  0.00     0.020 A 
ATOM     63  C   UNL     1       7.242  13.326   9.306  1.00  0.00     0.054 A 
BRANCH  63  64
ATOM     64  S   UNL     1       7.609  14.922  10.085  1.00  0.00     0.124 S 
ATOM     65  O   UNL     1       7.704  15.812   8.932  1.00  0.00    -0.237 OA
ATOM     66  O   UNL     1       6.450  15.131  10.949  1.00  0.00    -0.237 OA
ATOM     67  O   UNL     1       8.866  14.678  10.790  1.00  0.00    -0.744 OA
ENDBRANCH  63  64
ENDBRANCH  37  58
ENDBRANCH  11  12
ENDBRANCH   4   6
ENDBRANCH   1   2
BRANCH   1  68
ATOM     68  C   UNL     1       5.023  -2.264  -0.402  1.00  0.00     0.042 C 
BRANCH  68  69
ATOM     69  C   UNL     1       4.511  -3.403  -1.264  1.00  0.00     0.118 C 
BRANCH  69  70
ATOM     70  N   UNL     1       5.014  -3.334  -2.627  1.00  0.00    -0.352 N 
ATOM     71  C   UNL     1       5.753  -4.255  -3.321  1.00  0.00     0.255 C 
ATOM     72  H   UNL     1       4.795  -2.510  -3.118  1.00  0.00     0.163 HD
ATOM     73  O   UNL     1       6.196  -3.981  -4.433  1.00  0.00    -0.269 OA
BRANCH  71  74
ATOM     74  C   UNL     1       6.067  -5.566  -2.721  1.00  0.00     0.081 A 
ATOM     75  C   UNL     1       7.410  -5.963  -2.697  1.00  0.00     0.020 A 
ATOM     76  C   UNL     1       5.082  -6.423  -2.224  1.00  0.00     0.130 A 
ATOM     77  C   UNL     1       7.766  -7.205  -2.161  1.00  0.00     0.028 A 
ATOM     78  C   UNL     1       5.439  -7.654  -1.683  1.00  0.00     0.073 A 
ATOM     79  C   UNL     1       6.779  -8.074  -1.679  1.00  0.00     0.054 A 
BRANCH  76  80
ATOM     80  O   UNL     1       3.760  -6.074  -2.264  1.00  0.00    -0.507 OA
ATOM     81  H   UNL     1       3.505  -5.248  -2.626  1.00  0.00     0.293 HD
ENDBRANCH  76  80
BRANCH  79  82
ATOM     82  N   UNL     1       7.109  -9.377  -1.205  1.00  0.00    -0.261 N 
ATOM     83  C   UNL     1       8.161  -9.553  -0.306  1.00  0.00     0.270 C 
ATOM     84  C   UNL     1       6.425 -10.525  -1.589  1.00  0.00     0.152 C 
ATOM     85  O   UNL     1       8.926  -8.707   0.130  1.00  0.00    -0.268 OA
ATOM     86  C   UNL     1       8.220 -10.980   0.125  1.00  0.00     0.081 C 
ATOM     87  S   UNL     1       6.998 -11.896  -0.658  1.00  0.00    -0.054 SA
ATOM     88  S   UNL     1       5.289 -10.752  -2.800  1.00  0.00    -0.051 S 
ATOM     89  C   UNL     1       9.088 -11.428   1.043  1.00  0.00     0.027 C 
BRANCH  89  90
ATOM     90  C   UNL     1       9.173 -12.790   1.514  1.00  0.00    -0.016 C 
ATOM     91  C   UNL     1       8.889 -13.228   2.738  1.00  0.00     0.005 A 
ATOM     92  C   UNL     1       9.577 -13.934   0.625  1.00  0.00     0.179 C 
ATOM     93  C   UNL     1       8.463 -12.630   3.963  1.00  0.00     0.011 A 
ATOM     94  C   UNL     1       9.081 -14.684   2.613  1.00  0.00     0.065 A 
ATOM     95  N   UNL     1       9.476 -15.152   1.468  1.00  0.00    -0.280 NA
ATOM     96  C   UNL     1       8.230 -13.424   5.021  1.00  0.00     0.001 A 
ATOM     97  C   UNL     1       8.792 -15.491   3.817  1.00  0.00     0.028 A 
ATOM     98  C   UNL     1       8.391 -14.867   4.937  1.00  0.00     0.002 A 
ENDBRANCH  89  90
ENDBRANCH  79  82
ENDBRANCH  71  74
ENDBRANCH  69  70
ENDBRANCH  68  69
ENDBRANCH   1  68
TORSDOF 16
