REMARK SMILES Cc1cc(C(=O)NCCCNC(=O)c2ccc(-c3c4nc(c(-c5ccc(S(=O)(=O)[O-])cc5)c5ccc([nH]5)c(-c5ccc(S(=O)(=O)[O-])cc5)c5nc(c(-c6ccc(S(=O)(=O)[O-])cc6)c6ccc3[nH]6)C=C5)C=C4)cc2)nc(N2CCN(c3ccccc3Cl)CC2)n1
REMARK SMILES IDX 9 1 8 2 7 3 5 4 6 5 4 7 1 8 2 9 3 10 89 11 75 12 74 13 76 14
REMARK SMILES IDX 77 15 88 16 78 17 87 18 79 19 80 20 81 21 85 22 82 23 84 24
REMARK SMILES IDX 86 25 83 26 10 27 11 28 12 29 13 31 14 32 15 33 73 34 16 35
REMARK SMILES IDX 72 36 17 37 18 38 19 39 66 40 20 41 71 42 65 43 67 44 21 45
REMARK SMILES IDX 70 46 64 47 63 48 22 50 52 51 33 52 51 53 34 54 37 55 50 56
REMARK SMILES IDX 68 57 35 58 36 59 49 61 69 62 38 63 23 64 24 65 32 66 25 67
REMARK SMILES IDX 31 68 26 69 27 70 28 71 29 72 30 73 53 74 54 75 62 76 55 77
REMARK SMILES IDX 61 78 56 79 57 80 58 81 59 82 60 83 39 84 40 85 48 86 41 87
REMARK SMILES IDX 47 88 42 89 43 90 44 91 45 92 46 93
REMARK H PARENT 7 6 11 30 67 49 37 60
REMARK Flexibility Score: inf
ROOT
ATOM      1  C   UNL     1      -0.598  -4.617  -0.728  1.00  0.00     0.042 C 
ENDROOT
BRANCH   1   2
ATOM      2  C   UNL     1       0.046  -4.011   0.516  1.00  0.00     0.118 C 
BRANCH   2   3
ATOM      3  N   UNL     1       1.357  -3.493   0.195  1.00  0.00    -0.351 N 
ATOM      4  C   UNL     1       1.806  -2.245  -0.152  1.00  0.00     0.270 C 
ATOM      5  O   UNL     1       3.006  -2.162  -0.426  1.00  0.00    -0.268 OA
ATOM      6  H   UNL     1       2.069  -4.172   0.232  1.00  0.00     0.163 HD
BRANCH   4   7
ATOM      7  C   UNL     1       0.950  -1.011  -0.146  1.00  0.00     0.133 A 
ATOM      8  C   UNL     1      -2.498   0.406  -0.064  1.00  0.00     0.067 C 
ATOM      9  C   UNL     1      -1.004   0.264  -0.052  1.00  0.00     0.044 A 
ATOM     10  C   UNL     1      -0.418  -0.970  -0.253  1.00  0.00     0.058 A 
ATOM     11  N   UNL     1      -0.282   1.390   0.132  1.00  0.00    -0.218 NA
ATOM     12  C   UNL     1       1.050   1.278   0.070  1.00  0.00     0.226 A 
ATOM     13  N   UNL     1       1.678   0.109  -0.021  1.00  0.00    -0.208 NA
BRANCH  12  14
ATOM     14  N   UNL     1       1.856   2.382   0.048  1.00  0.00    -0.337 N 
ATOM     15  C   UNL     1       1.426   3.645   0.634  1.00  0.00     0.141 C 
ATOM     16  C   UNL     1       2.680   2.482  -1.167  1.00  0.00     0.141 C 
ATOM     17  C   UNL     1       2.677   4.516   0.930  1.00  0.00     0.138 C 
ATOM     18  C   UNL     1       3.909   3.371  -0.914  1.00  0.00     0.138 C 
ATOM     19  N   UNL     1       3.504   4.633  -0.279  1.00  0.00    -0.367 N 
BRANCH  19  20
ATOM     20  C   UNL     1       4.024   5.838  -0.696  1.00  0.00     0.056 A 
ATOM     21  C   UNL     1       4.836   6.583   0.172  1.00  0.00     0.027 A 
ATOM     22  C   UNL     1       3.768   6.383  -1.973  1.00  0.00     0.064 A 
ATOM     23  C   UNL     1       5.376   7.814  -0.210  1.00  0.00     0.002 A 
ATOM     24  C   UNL     1       4.301   7.618  -2.354  1.00  0.00     0.023 A 
ATOM     25  Cl  UNL     1       2.718   5.602  -3.110  1.00  0.00    -0.082 Cl
ATOM     26  C   UNL     1       5.106   8.334  -1.472  1.00  0.00     0.002 A 
ENDBRANCH  19  20
ENDBRANCH  12  14
ENDBRANCH   4   7
ENDBRANCH   2   3
ENDBRANCH   1   2
BRANCH   1  27
ATOM     27  C   UNL     1       0.003  -5.974  -1.084  1.00  0.00     0.118 C 
BRANCH  27  28
ATOM     28  N   UNL     1      -0.328  -6.982  -0.082  1.00  0.00    -0.352 N 
ATOM     29  C   UNL     1      -1.061  -8.136  -0.212  1.00  0.00     0.251 C 
ATOM     30  H   UNL     1       0.026  -6.809   0.820  1.00  0.00     0.163 HD
ATOM     31  O   UNL     1      -1.466  -8.717   0.787  1.00  0.00    -0.269 OA
BRANCH  29  32
ATOM     32  C   UNL     1      -1.359  -8.661  -1.560  1.00  0.00     0.039 A 
ATOM     33  C   UNL     1      -2.642  -9.137  -1.838  1.00  0.00     0.014 A 
ATOM     34  C   UNL     1      -0.365  -8.690  -2.541  1.00  0.00     0.014 A 
ATOM     35  C   UNL     1      -2.947  -9.579  -3.127  1.00  0.00     0.010 A 
ATOM     36  C   UNL     1      -0.692  -9.056  -3.841  1.00  0.00     0.010 A 
ATOM     37  C   UNL     1      -1.985  -9.505  -4.147  1.00  0.00    -0.014 A 
BRANCH  37  38
ATOM     38  C   UNL     1      -2.299  -9.882  -5.548  1.00  0.00     0.031 A 
ATOM     39  C   UNL     1      -1.559 -11.016  -6.202  1.00  0.00     0.074 A 
ATOM     40  C   UNL     1      -3.175  -9.142  -6.255  1.00  0.00     0.049 A 
ATOM     41  N   UNL     1      -1.593 -11.413  -7.447  1.00  0.00    -0.248 NA
ATOM     42  C   UNL     1      -0.637 -11.787  -5.351  1.00  0.00     0.031 C 
ATOM     43  C   UNL     1      -3.932  -7.998  -5.739  1.00  0.00     0.029 A 
ATOM     44  N   UNL     1      -3.564  -9.229  -7.569  1.00  0.00    -0.354 N 
ATOM     45  C   UNL     1      -0.684 -12.460  -7.535  1.00  0.00     0.074 A 
ATOM     46  C   UNL     1      -0.080 -12.607  -6.229  1.00  0.00     0.031 C 
ATOM     47  C   UNL     1      -4.705  -7.503  -6.718  1.00  0.00     0.029 A 
ATOM     48  C   UNL     1      -4.461  -8.256  -7.944  1.00  0.00     0.049 A 
ATOM     49  H   UNL     1      -3.233  -9.922  -8.184  1.00  0.00     0.167 HD
ATOM     50  C   UNL     1      -0.390 -13.239  -8.603  1.00  0.00     0.031 A 
ATOM     51  C   UNL     1      -5.010  -7.986  -9.145  1.00  0.00     0.031 A 
ATOM     52  C   UNL     1      -1.003 -13.089  -9.897  1.00  0.00     0.049 A 
ATOM     53  C   UNL     1      -4.648  -8.847 -10.324  1.00  0.00     0.074 A 
ATOM     54  C   UNL     1      -0.816 -13.861 -11.030  1.00  0.00     0.029 A 
ATOM     55  N   UNL     1      -1.917 -12.101 -10.231  1.00  0.00    -0.354 N 
ATOM     56  N   UNL     1      -3.832  -9.873 -10.373  1.00  0.00    -0.248 NA
ATOM     57  C   UNL     1      -5.286  -8.522 -11.607  1.00  0.00     0.031 C 
ATOM     58  C   UNL     1      -1.569 -13.303 -12.066  1.00  0.00     0.029 A 
ATOM     59  C   UNL     1      -2.281 -12.226 -11.560  1.00  0.00     0.049 A 
ATOM     60  H   UNL     1      -2.256 -11.413  -9.614  1.00  0.00     0.167 HD
ATOM     61  C   UNL     1      -3.884 -10.336 -11.683  1.00  0.00     0.074 A 
ATOM     62  C   UNL     1      -4.817  -9.484 -12.391  1.00  0.00     0.031 C 
ATOM     63  C   UNL     1      -3.221 -11.375 -12.248  1.00  0.00     0.031 A 
BRANCH  50  64
ATOM     64  C   UNL     1       0.649 -14.315  -8.421  1.00  0.00    -0.014 A 
ATOM     65  C   UNL     1       0.401 -15.438  -7.611  1.00  0.00     0.010 A 
ATOM     66  C   UNL     1       1.874 -14.225  -9.107  1.00  0.00     0.010 A 
ATOM     67  C   UNL     1       1.375 -16.427  -7.454  1.00  0.00     0.020 A 
ATOM     68  C   UNL     1       2.839 -15.229  -8.979  1.00  0.00     0.020 A 
ATOM     69  C   UNL     1       2.589 -16.316  -8.139  1.00  0.00     0.054 A 
BRANCH  69  70
ATOM     70  S   UNL     1       3.823 -17.629  -7.936  1.00  0.00     0.124 S 
ATOM     71  O   UNL     1       4.278 -17.405  -6.566  1.00  0.00    -0.237 OA
ATOM     72  O   UNL     1       3.036 -18.842  -8.146  1.00  0.00    -0.237 OA
ATOM     73  O   UNL     1       4.810 -17.342  -8.974  1.00  0.00    -0.744 OA
ENDBRANCH  69  70
ENDBRANCH  50  64
BRANCH  51  74
ATOM     74  C   UNL     1      -5.962  -6.849  -9.289  1.00  0.00    -0.014 A 
ATOM     75  C   UNL     1      -7.326  -7.087  -9.533  1.00  0.00     0.010 A 
ATOM     76  C   UNL     1      -5.512  -5.521  -9.165  1.00  0.00     0.010 A 
ATOM     77  C   UNL     1      -8.218  -6.019  -9.670  1.00  0.00     0.020 A 
ATOM     78  C   UNL     1      -6.406  -4.452  -9.270  1.00  0.00     0.020 A 
ATOM     79  C   UNL     1      -7.753  -4.708  -9.533  1.00  0.00     0.054 A 
BRANCH  79  80
ATOM     80  S   UNL     1      -8.940  -3.342  -9.662  1.00  0.00     0.124 S 
ATOM     81  O   UNL     1      -9.247  -3.341 -11.089  1.00  0.00    -0.237 OA
ATOM     82  O   UNL     1     -10.020  -3.781  -8.782  1.00  0.00    -0.237 OA
ATOM     83  O   UNL     1      -8.185  -2.187  -9.182  1.00  0.00    -0.744 OA
ENDBRANCH  79  80
ENDBRANCH  51  74
BRANCH  63  84
ATOM     84  C   UNL     1      -3.509 -11.689 -13.692  1.00  0.00    -0.014 A 
ATOM     85  C   UNL     1      -3.038 -10.865 -14.729  1.00  0.00     0.010 A 
ATOM     86  C   UNL     1      -4.189 -12.879 -14.014  1.00  0.00     0.010 A 
ATOM     87  C   UNL     1      -3.255 -11.219 -16.063  1.00  0.00     0.020 A 
ATOM     88  C   UNL     1      -4.381 -13.251 -15.346  1.00  0.00     0.020 A 
ATOM     89  C   UNL     1      -3.919 -12.414 -16.363  1.00  0.00     0.054 A 
BRANCH  89  90
ATOM     90  S   UNL     1      -4.120 -12.886 -18.103  1.00  0.00     0.124 S 
ATOM     91  O   UNL     1      -5.122 -11.929 -18.564  1.00  0.00    -0.237 OA
ATOM     92  O   UNL     1      -2.776 -12.697 -18.642  1.00  0.00    -0.237 OA
ATOM     93  O   UNL     1      -4.570 -14.275 -18.036  1.00  0.00    -0.744 OA
ENDBRANCH  89  90
ENDBRANCH  63  84
ENDBRANCH  37  38
ENDBRANCH  29  32
ENDBRANCH  27  28
ENDBRANCH   1  27
TORSDOF 15
