REMARK SMILES O=C(NCCCNC(=O)[C@@]12CN(CC3CC3)C(=O)[C@@H]1CN(c1nc3ccccc3o1)C2)c1ccc(-c2c3nc(c(-c4ccc(S(=O)(=O)[O-])cc4)c4ccc([nH]4)c(-c4ccc(S(=O)(=O)[O-])cc4)c4nc(c(-c5ccc(S(=O)(=O)[O-])cc5)c5ccc2[nH]5)C=C4)C=C3)cc1
REMARK SMILES IDX 4 1 3 2 1 3 2 4 32 6 33 7 91 8 34 9 90 10 35 11 36 12 37 13
REMARK SMILES IDX 84 14 38 15 89 16 83 17 85 18 39 19 88 20 82 21 81 22 40 24
REMARK SMILES IDX 70 25 51 26 69 27 52 28 55 29 68 30 86 31 53 32 54 33 67 35
REMARK SMILES IDX 87 36 56 37 41 38 42 39 50 40 43 41 49 42 44 43 45 44 46 45
REMARK SMILES IDX 47 46 48 47 71 48 72 49 80 50 73 51 79 52 74 53 75 54 76 55
REMARK SMILES IDX 77 56 78 57 57 58 58 59 66 60 59 61 65 62 60 63 61 64 62 65
REMARK SMILES IDX 63 66 64 67 5 68 6 69 7 70 8 71 9 73 10 74 11 75 19 76 31 77
REMARK SMILES IDX 12 78 17 79 20 80 21 81 18 82 13 83 14 84 15 85 16 86 22 87
REMARK SMILES IDX 23 88 30 89 24 90 29 91 25 92 28 93 26 94 27 95
REMARK H PARENT 3 5 85 23 55 34 7 72
REMARK Flexibility Score: inf
ROOT
ATOM      1  C   UNL     1       4.491  -0.004  -1.132  1.00  0.00     0.118 C 
ENDROOT
BRANCH   1   2
ATOM      2  N   UNL     1       3.047   0.148  -0.978  1.00  0.00    -0.352 N 
ATOM      3  O   UNL     1       1.058   0.077   0.076  1.00  0.00    -0.269 OA
ATOM      4  C   UNL     1       2.279   0.157   0.162  1.00  0.00     0.251 C 
ATOM      5  H   UNL     1       2.548   0.262  -1.818  1.00  0.00     0.163 HD
BRANCH   4   6
ATOM      6  C   UNL     1       2.937   0.243   1.481  1.00  0.00     0.039 A 
ATOM      7  C   UNL     1       4.017   1.105   1.663  1.00  0.00     0.014 A 
ATOM      8  C   UNL     1       2.479  -0.544   2.541  1.00  0.00     0.014 A 
ATOM      9  C   UNL     1       4.761   1.037   2.828  1.00  0.00     0.010 A 
ATOM     10  C   UNL     1       3.155  -0.514   3.764  1.00  0.00     0.010 A 
ATOM     11  C   UNL     1       4.322   0.252   3.906  1.00  0.00    -0.014 A 
BRANCH  11  12
ATOM     12  C   UNL     1       5.066   0.331   5.186  1.00  0.00     0.031 A 
ATOM     13  C   UNL     1       5.749  -0.871   5.774  1.00  0.00     0.074 A 
ATOM     14  C   UNL     1       5.160   1.535   5.787  1.00  0.00     0.049 A 
ATOM     15  N   UNL     1       6.464  -0.950   6.867  1.00  0.00    -0.248 NA
ATOM     16  C   UNL     1       5.607  -2.148   5.058  1.00  0.00     0.031 C 
ATOM     17  C   UNL     1       4.528   2.769   5.305  1.00  0.00     0.029 A 
ATOM     18  N   UNL     1       5.844   1.932   6.905  1.00  0.00    -0.354 N 
ATOM     19  C   UNL     1       6.828  -2.285   6.990  1.00  0.00     0.074 A 
ATOM     20  C   UNL     1       6.248  -2.985   5.864  1.00  0.00     0.031 C 
ATOM     21  C   UNL     1       4.913   3.793   6.077  1.00  0.00     0.029 A 
ATOM     22  C   UNL     1       5.747   3.280   7.155  1.00  0.00     0.049 A 
ATOM     23  H   UNL     1       6.356   1.312   7.474  1.00  0.00     0.167 HD
ATOM     24  C   UNL     1       7.575  -2.870   7.957  1.00  0.00     0.031 A 
ATOM     25  C   UNL     1       6.254   4.026   8.153  1.00  0.00     0.031 A 
ATOM     26  C   UNL     1       8.159  -2.158   9.065  1.00  0.00     0.049 A 
ATOM     27  C   UNL     1       7.079   3.353   9.206  1.00  0.00     0.074 A 
ATOM     28  C   UNL     1       8.957  -2.654  10.082  1.00  0.00     0.029 A 
ATOM     29  N   UNL     1       8.009  -0.799   9.303  1.00  0.00    -0.354 N 
ATOM     30  N   UNL     1       7.420   2.090   9.296  1.00  0.00    -0.248 NA
ATOM     31  C   UNL     1       7.581   4.200  10.294  1.00  0.00     0.031 C 
ATOM     32  C   UNL     1       9.252  -1.604  10.958  1.00  0.00     0.029 A 
ATOM     33  C   UNL     1       8.681  -0.444  10.460  1.00  0.00     0.049 A 
ATOM     34  H   UNL     1       7.500  -0.179   8.732  1.00  0.00     0.167 HD
ATOM     35  C   UNL     1       8.180   1.989  10.453  1.00  0.00     0.074 A 
ATOM     36  C   UNL     1       8.271   3.324  11.012  1.00  0.00     0.031 C 
ATOM     37  C   UNL     1       8.746   0.888  11.006  1.00  0.00     0.031 A 
BRANCH  24  38
ATOM     38  C   UNL     1       7.777  -4.361   7.883  1.00  0.00    -0.014 A 
ATOM     39  C   UNL     1       8.642  -4.938   6.936  1.00  0.00     0.010 A 
ATOM     40  C   UNL     1       7.129  -5.193   8.814  1.00  0.00     0.010 A 
ATOM     41  C   UNL     1       8.830  -6.323   6.902  1.00  0.00     0.020 A 
ATOM     42  C   UNL     1       7.331  -6.577   8.798  1.00  0.00     0.020 A 
ATOM     43  C   UNL     1       8.170  -7.134   7.831  1.00  0.00     0.054 A 
BRANCH  43  44
ATOM     44  S   UNL     1       8.451  -8.927   7.783  1.00  0.00     0.124 S 
ATOM     45  O   UNL     1       7.669  -9.322   6.614  1.00  0.00    -0.237 OA
ATOM     46  O   UNL     1       9.901  -9.021   7.630  1.00  0.00    -0.237 OA
ATOM     47  O   UNL     1       7.933  -9.394   9.066  1.00  0.00    -0.744 OA
ENDBRANCH  43  44
ENDBRANCH  24  38
BRANCH  25  48
ATOM     48  C   UNL     1       5.960   5.482   8.198  1.00  0.00    -0.014 A 
ATOM     49  C   UNL     1       6.960   6.426   7.915  1.00  0.00     0.010 A 
ATOM     50  C   UNL     1       4.651   5.927   8.463  1.00  0.00     0.010 A 
ATOM     51  C   UNL     1       6.657   7.791   7.896  1.00  0.00     0.020 A 
ATOM     52  C   UNL     1       4.338   7.287   8.418  1.00  0.00     0.020 A 
ATOM     53  C   UNL     1       5.346   8.211   8.143  1.00  0.00     0.054 A 
BRANCH  53  54
ATOM     54  S   UNL     1       4.954   9.979   8.035  1.00  0.00     0.124 S 
ATOM     55  O   UNL     1       5.470  10.481   9.304  1.00  0.00    -0.237 OA
ATOM     56  O   UNL     1       5.689  10.396   6.843  1.00  0.00    -0.237 OA
ATOM     57  O   UNL     1       3.499   9.997   7.896  1.00  0.00    -0.744 OA
ENDBRANCH  53  54
ENDBRANCH  25  48
BRANCH  37  58
ATOM     58  C   UNL     1       9.521   1.092  12.276  1.00  0.00    -0.014 A 
ATOM     59  C   UNL     1       8.862   1.322  13.496  1.00  0.00     0.010 A 
ATOM     60  C   UNL     1      10.925   1.020  12.253  1.00  0.00     0.010 A 
ATOM     61  C   UNL     1       9.597   1.512  14.668  1.00  0.00     0.020 A 
ATOM     62  C   UNL     1      11.662   1.186  13.427  1.00  0.00     0.020 A 
ATOM     63  C   UNL     1      10.993   1.446  14.625  1.00  0.00     0.054 A 
BRANCH  63  64
ATOM     64  S   UNL     1      11.927   1.663  16.164  1.00  0.00     0.124 S 
ATOM     65  O   UNL     1      11.863   3.109  16.356  1.00  0.00    -0.237 OA
ATOM     66  O   UNL     1      11.161   0.868  17.121  1.00  0.00    -0.237 OA
ATOM     67  O   UNL     1      13.250   1.134  15.842  1.00  0.00    -0.744 OA
ENDBRANCH  63  64
ENDBRANCH  37  58
ENDBRANCH  11  12
ENDBRANCH   4   6
ENDBRANCH   1   2
BRANCH   1  68
ATOM     68  C   UNL     1       4.876  -1.352  -1.716  1.00  0.00     0.042 C 
BRANCH  68  69
ATOM     69  C   UNL     1       4.303  -1.577  -3.098  1.00  0.00     0.117 C 
BRANCH  69  70
ATOM     70  N   UNL     1       4.745  -0.573  -4.051  1.00  0.00    -0.355 N 
ATOM     71  C   UNL     1       5.463  -0.796  -5.199  1.00  0.00     0.230 C 
ATOM     72  H   UNL     1       4.506   0.361  -3.853  1.00  0.00     0.163 HD
ATOM     73  O   UNL     1       5.610   0.123  -6.005  1.00  0.00    -0.274 OA
BRANCH  71  74
ATOM     74  C   UNL     1       5.965  -2.232  -5.386  1.00  0.00     0.097 C 
ATOM     75  C   UNL     1       4.672  -2.397  -6.315  1.00  0.00     0.139 C 
ATOM     76  C   UNL     1       6.530  -3.516  -6.101  1.00  0.00     0.117 C 
ATOM     77  C   UNL     1       7.436  -1.603  -5.418  1.00  0.00     0.141 C 
ATOM     78  N   UNL     1       4.269  -3.768  -6.060  1.00  0.00    -0.341 N 
ATOM     79  C   UNL     1       5.428  -4.514  -5.908  1.00  0.00     0.228 C 
ATOM     80  C   UNL     1       7.814  -3.946  -5.425  1.00  0.00     0.136 C 
ATOM     81  N   UNL     1       8.299  -2.682  -4.967  1.00  0.00    -0.324 N 
ATOM     82  O   UNL     1       5.539  -5.689  -5.614  1.00  0.00    -0.274 OA
BRANCH  78  83
ATOM     83  C   UNL     1       3.047  -4.106  -5.343  1.00  0.00     0.123 C 
BRANCH  83  84
ATOM     84  C   UNL     1       2.090  -4.970  -6.097  1.00  0.00     0.008 C 
ATOM     85  C   UNL     1       2.393  -5.638  -7.415  1.00  0.00     0.006 C 
ATOM     86  C   UNL     1       2.326  -6.459  -6.159  1.00  0.00     0.006 C 
ENDBRANCH  83  84
ENDBRANCH  78  83
BRANCH  81  87
ATOM     87  C   UNL     1       9.575  -2.486  -4.612  1.00  0.00     0.298 A 
ATOM     88  N   UNL     1      10.675  -2.915  -5.192  1.00  0.00    -0.193 NA
ATOM     89  O   UNL     1       9.768  -1.812  -3.436  1.00  0.00    -0.423 OA
ATOM     90  C   UNL     1      11.672  -2.480  -4.355  1.00  0.00     0.111 A 
ATOM     91  C   UNL     1      11.119  -1.847  -3.255  1.00  0.00     0.156 A 
ATOM     92  C   UNL     1      13.066  -2.588  -4.443  1.00  0.00     0.032 A 
ATOM     93  C   UNL     1      11.843  -1.351  -2.178  1.00  0.00     0.049 A 
ATOM     94  C   UNL     1      13.837  -2.079  -3.386  1.00  0.00     0.003 A 
ATOM     95  C   UNL     1      13.234  -1.488  -2.268  1.00  0.00     0.004 A 
ENDBRANCH  81  87
ENDBRANCH  71  74
ENDBRANCH  69  70
ENDBRANCH  68  69
ENDBRANCH   1  68
TORSDOF 16
