REMARK SMILES O=C(CCN1C(=O)/C(=C2/C(=O)N(Cc3ccccc3)c3ccccc32)SC1=S)NCCCNC(=O)c1ccc(-c2c3nc(c(-c4ccc(S(=O)(=O)[O-])cc4)c4ccc([nH]4)c(-c4ccc(S(=O)(=O)[O-])cc4)c4nc(c(-c5ccc(S(=O)(=O)[O-])cc5)c5ccc2[nH]5)C=C4)C=C3)cc1
REMARK SMILES IDX 30 1 29 2 1 3 2 4 3 6 4 7 5 8 6 9 27 10 7 11 8 12 26 13
REMARK SMILES IDX 28 14 9 15 10 16 25 17 11 18 12 19 20 20 24 21 21 22 23 23
REMARK SMILES IDX 22 24 13 25 14 26 15 27 19 28 16 29 18 30 17 31 31 32 32 33
REMARK SMILES IDX 33 34 34 35 35 37 36 38 37 39 95 40 38 41 94 42 39 43 40 44
REMARK SMILES IDX 41 45 88 46 42 47 93 48 87 49 89 50 43 51 92 52 86 53 85 54
REMARK SMILES IDX 44 56 74 57 55 58 73 59 56 60 59 61 72 62 90 63 57 64 58 65
REMARK SMILES IDX 71 67 91 68 60 69 45 70 46 71 54 72 47 73 53 74 48 75 49 76
REMARK SMILES IDX 50 77 51 78 52 79 75 80 76 81 84 82 77 83 83 84 78 85 79 86
REMARK SMILES IDX 80 87 81 88 82 89 61 90 62 91 70 92 63 93 69 94 64 95 65 96
REMARK SMILES IDX 66 97 67 98 68 99
REMARK H PARENT 29 5 33 36 89 55 59 66
REMARK Flexibility Score: inf
ROOT
ATOM      1  C   UNL     1       1.931   1.684   1.606  1.00  0.00     0.117 C 
ENDROOT
BRANCH   1   2
ATOM      2  N   UNL     1       2.730   0.589   1.093  1.00  0.00    -0.356 N 
ATOM      3  O   UNL     1       1.228  -0.156  -0.484  1.00  0.00    -0.275 OA
ATOM      4  C   UNL     1       2.338  -0.191   0.035  1.00  0.00     0.221 C 
ATOM      5  H   UNL     1       3.594   0.396   1.524  1.00  0.00     0.163 HD
BRANCH   4   6
ATOM      6  C   UNL     1       3.447  -1.082  -0.488  1.00  0.00     0.122 C 
BRANCH   6   7
ATOM      7  C   UNL     1       4.123  -0.459  -1.706  1.00  0.00     0.137 C 
BRANCH   7   8
ATOM      8  N   UNL     1       5.282   0.413  -1.447  1.00  0.00    -0.292 N 
ATOM      9  C   UNL     1       5.073   1.741  -1.168  1.00  0.00     0.267 C 
ATOM     10  C   UNL     1       6.607   0.051  -1.505  1.00  0.00     0.148 C 
ATOM     11  O   UNL     1       4.102   2.180  -0.574  1.00  0.00    -0.268 OA
ATOM     12  C   UNL     1       6.250   2.558  -1.534  1.00  0.00     0.093 C 
ATOM     13  S   UNL     1       7.615   1.505  -1.501  1.00  0.00    -0.053 SA
ATOM     14  S   UNL     1       7.235  -1.490  -1.589  1.00  0.00    -0.052 S 
ATOM     15  C   UNL     1       6.173   3.859  -1.858  1.00  0.00     0.069 C 
ATOM     16  C   UNL     1       7.359   4.757  -2.120  1.00  0.00     0.260 C 
ATOM     17  C   UNL     1       4.975   4.720  -1.961  1.00  0.00     0.012 A 
ATOM     18  O   UNL     1       8.522   4.419  -2.267  1.00  0.00    -0.269 OA
ATOM     19  N   UNL     1       6.833   6.048  -2.185  1.00  0.00    -0.303 N 
ATOM     20  C   UNL     1       5.436   6.034  -2.028  1.00  0.00     0.052 A 
ATOM     21  C   UNL     1       3.614   4.473  -2.090  1.00  0.00     0.011 A 
ATOM     22  C   UNL     1       4.563   7.111  -2.008  1.00  0.00     0.027 A 
ATOM     23  C   UNL     1       2.721   5.548  -2.129  1.00  0.00     0.001 A 
ATOM     24  C   UNL     1       3.192   6.860  -2.056  1.00  0.00     0.002 A 
BRANCH  19  25
ATOM     25  C   UNL     1       7.609   7.216  -2.550  1.00  0.00     0.161 C 
BRANCH  25  26
ATOM     26  C   UNL     1       7.553   7.528  -4.037  1.00  0.00    -0.028 A 
ATOM     27  C   UNL     1       6.458   8.200  -4.606  1.00  0.00     0.005 A 
ATOM     28  C   UNL     1       8.596   7.134  -4.887  1.00  0.00     0.005 A 
ATOM     29  C   UNL     1       6.393   8.452  -5.977  1.00  0.00     0.000 A 
ATOM     30  C   UNL     1       8.544   7.408  -6.258  1.00  0.00     0.000 A 
ATOM     31  C   UNL     1       7.439   8.060  -6.804  1.00  0.00     0.000 A 
ENDBRANCH  25  26
ENDBRANCH  19  25
ENDBRANCH   7   8
ENDBRANCH   6   7
ENDBRANCH   4   6
ENDBRANCH   1   2
BRANCH   1  32
ATOM     32  C   UNL     1       2.276   2.029   3.048  1.00  0.00     0.042 C 
BRANCH  32  33
ATOM     33  C   UNL     1       3.755   2.255   3.347  1.00  0.00     0.118 C 
BRANCH  33  34
ATOM     34  N   UNL     1       4.328   3.463   2.772  1.00  0.00    -0.352 N 
ATOM     35  C   UNL     1       5.146   4.394   3.385  1.00  0.00     0.251 C 
ATOM     36  H   UNL     1       4.105   3.639   1.829  1.00  0.00     0.163 HD
ATOM     37  O   UNL     1       5.500   5.404   2.783  1.00  0.00    -0.269 OA
BRANCH  35  38
ATOM     38  C   UNL     1       5.552   4.188   4.799  1.00  0.00     0.039 A 
ATOM     39  C   UNL     1       6.038   2.952   5.229  1.00  0.00     0.014 A 
ATOM     40  C   UNL     1       5.370   5.222   5.722  1.00  0.00     0.014 A 
ATOM     41  C   UNL     1       6.137   2.687   6.593  1.00  0.00     0.010 A 
ATOM     42  C   UNL     1       5.564   4.979   7.088  1.00  0.00     0.010 A 
ATOM     43  C   UNL     1       5.883   3.690   7.544  1.00  0.00    -0.014 A 
BRANCH  43  44
ATOM     44  C   UNL     1       5.931   3.358   8.998  1.00  0.00     0.031 A 
ATOM     45  C   UNL     1       4.694   3.463   9.859  1.00  0.00     0.074 A 
ATOM     46  C   UNL     1       7.075   2.891   9.538  1.00  0.00     0.049 A 
ATOM     47  N   UNL     1       4.549   3.173  11.128  1.00  0.00    -0.248 NA
ATOM     48  C   UNL     1       3.462   3.954   9.220  1.00  0.00     0.031 C 
ATOM     49  C   UNL     1       8.334   2.716   8.813  1.00  0.00     0.029 A 
ATOM     50  N   UNL     1       7.359   2.447  10.807  1.00  0.00    -0.354 N 
ATOM     51  C   UNL     1       3.224   3.456  11.440  1.00  0.00     0.074 A 
ATOM     52  C   UNL     1       2.611   3.976  10.238  1.00  0.00     0.031 C 
ATOM     53  C   UNL     1       9.234   2.144   9.626  1.00  0.00     0.029 A 
ATOM     54  C   UNL     1       8.644   1.977  10.952  1.00  0.00     0.049 A 
ATOM     55  H   UNL     1       6.706   2.464  11.543  1.00  0.00     0.167 HD
ATOM     56  C   UNL     1       2.570   3.281  12.614  1.00  0.00     0.031 A 
ATOM     57  C   UNL     1       9.290   1.474  12.024  1.00  0.00     0.031 A 
ATOM     58  C   UNL     1       3.175   2.745  13.807  1.00  0.00     0.049 A 
ATOM     59  C   UNL     1       8.560   1.342  13.330  1.00  0.00     0.074 A 
ATOM     60  C   UNL     1       2.579   2.513  15.036  1.00  0.00     0.029 A 
ATOM     61  N   UNL     1       4.499   2.351  13.926  1.00  0.00    -0.354 N 
ATOM     62  N   UNL     1       7.305   1.608  13.598  1.00  0.00    -0.248 NA
ATOM     63  C   UNL     1       9.329   0.844  14.480  1.00  0.00     0.031 C 
ATOM     64  C   UNL     1       3.557   2.046  15.915  1.00  0.00     0.029 A 
ATOM     65  C   UNL     1       4.745   1.910  15.216  1.00  0.00     0.049 A 
ATOM     66  H   UNL     1       5.165   2.381  13.201  1.00  0.00     0.167 HD
ATOM     67  C   UNL     1       7.130   1.300  14.943  1.00  0.00     0.074 A 
ATOM     68  C   UNL     1       8.402   0.807  15.429  1.00  0.00     0.031 C 
ATOM     69  C   UNL     1       6.014   1.423  15.701  1.00  0.00     0.031 A 
BRANCH  56  70
ATOM     70  C   UNL     1       1.112   3.663  12.692  1.00  0.00    -0.014 A 
ATOM     71  C   UNL     1       0.712   4.729  13.520  1.00  0.00     0.010 A 
ATOM     72  C   UNL     1       0.126   2.888  12.056  1.00  0.00     0.010 A 
ATOM     73  C   UNL     1      -0.644   4.992  13.739  1.00  0.00     0.020 A 
ATOM     74  C   UNL     1      -1.231   3.165  12.249  1.00  0.00     0.020 A 
ATOM     75  C   UNL     1      -1.607   4.200  13.110  1.00  0.00     0.054 A 
BRANCH  75  76
ATOM     76  S   UNL     1      -3.362   4.535  13.429  1.00  0.00     0.124 S 
ATOM     77  O   UNL     1      -3.540   3.997  14.773  1.00  0.00    -0.237 OA
ATOM     78  O   UNL     1      -3.435   5.990  13.315  1.00  0.00    -0.237 OA
ATOM     79  O   UNL     1      -4.048   3.803  12.366  1.00  0.00    -0.744 OA
ENDBRANCH  75  76
ENDBRANCH  56  70
BRANCH  57  80
ATOM     80  C   UNL     1      10.708   1.042  11.875  1.00  0.00    -0.014 A 
ATOM     81  C   UNL     1      11.715   1.988  11.601  1.00  0.00     0.010 A 
ATOM     82  C   UNL     1      11.045  -0.323  11.910  1.00  0.00     0.010 A 
ATOM     83  C   UNL     1      13.013   1.575  11.295  1.00  0.00     0.020 A 
ATOM     84  C   UNL     1      12.353  -0.738  11.637  1.00  0.00     0.020 A 
ATOM     85  C   UNL     1      13.319   0.212  11.298  1.00  0.00     0.054 A 
BRANCH  85  86
ATOM     86  S   UNL     1      14.994  -0.304  10.829  1.00  0.00     0.124 S 
ATOM     87  O   UNL     1      14.962  -0.135   9.378  1.00  0.00    -0.237 OA
ATOM     88  O   UNL     1      15.835   0.644  11.554  1.00  0.00    -0.237 OA
ATOM     89  O   UNL     1      15.069  -1.685  11.297  1.00  0.00    -0.744 OA
ENDBRANCH  85  86
ENDBRANCH  57  80
BRANCH  69  90
ATOM     90  C   UNL     1       6.087   1.028  17.154  1.00  0.00    -0.014 A 
ATOM     91  C   UNL     1       5.346  -0.077  17.616  1.00  0.00     0.010 A 
ATOM     92  C   UNL     1       6.768   1.832  18.085  1.00  0.00     0.010 A 
ATOM     93  C   UNL     1       5.248  -0.345  18.983  1.00  0.00     0.020 A 
ATOM     94  C   UNL     1       6.696   1.549  19.452  1.00  0.00     0.020 A 
ATOM     95  C   UNL     1       5.913   0.480  19.894  1.00  0.00     0.054 A 
BRANCH  95  96
ATOM     96  S   UNL     1       5.732   0.147  21.669  1.00  0.00     0.124 S 
ATOM     97  O   UNL     1       4.385   0.642  21.938  1.00  0.00    -0.237 OA
ATOM     98  O   UNL     1       5.897  -1.302  21.742  1.00  0.00    -0.237 OA
ATOM     99  O   UNL     1       6.814   0.921  22.275  1.00  0.00    -0.744 OA
ENDBRANCH  95  96
ENDBRANCH  69  90
ENDBRANCH  43  44
ENDBRANCH  35  38
ENDBRANCH  33  34
ENDBRANCH  32  33
ENDBRANCH   1  32
TORSDOF 17
