REMARK SMILES Nc1cc(C(=O)NCCCNC(=O)c2ccc(-c3c4nc(c(-c5ccc(S(=O)(=O)[O-])cc5)c5ccc([nH]5)c(-c5ccc(S(=O)(=O)[O-])cc5)c5nc(c(-c6ccc(S(=O)(=O)[O-])cc6)c6ccc3[nH]6)C=C5)C=C4)cc2)ccc1N1CC2(CCOCC2)C1
REMARK SMILES IDX 10 1 9 2 8 3 7 4 5 5 6 6 4 8 2 9 3 10 76 11 75 12 74 13 1 14
REMARK SMILES IDX 77 17 78 18 85 19 79 20 80 21 84 22 81 23 83 24 82 25 11 26
REMARK SMILES IDX 12 27 13 29 14 30 15 31 73 32 16 33 72 34 17 35 18 36 19 37
REMARK SMILES IDX 66 38 20 39 71 40 65 41 67 42 21 43 70 44 64 45 63 46 22 48
REMARK SMILES IDX 52 49 33 50 51 51 34 52 37 53 50 54 68 55 35 56 36 57 49 59
REMARK SMILES IDX 69 60 38 61 23 62 24 63 32 64 25 65 31 66 26 67 27 68 28 69
REMARK SMILES IDX 29 70 30 71 53 72 54 73 62 74 55 75 61 76 56 77 57 78 58 79
REMARK SMILES IDX 59 80 60 81 39 82 40 83 48 84 41 85 47 86 42 87 43 88 44 89
REMARK SMILES IDX 45 90 46 91
REMARK H PARENT 7 7 1 15 1 16 11 28 67 47 37 58
REMARK Flexibility Score: inf
ROOT
ATOM      1  C   UNL     1      -6.004  -2.239  -1.102  1.00  0.00     0.118 C 
ENDROOT
BRANCH   1   2
ATOM      2  C   UNL     1      -5.064  -1.114  -0.668  1.00  0.00     0.042 C 
BRANCH   2   3
ATOM      3  C   UNL     1      -4.218  -1.477   0.552  1.00  0.00     0.118 C 
BRANCH   3   4
ATOM      4  N   UNL     1      -3.188  -2.433   0.201  1.00  0.00    -0.352 N 
ATOM      5  C   UNL     1      -1.871  -2.311  -0.146  1.00  0.00     0.251 C 
ATOM      6  O   UNL     1      -1.273  -3.361  -0.395  1.00  0.00    -0.269 OA
ATOM      7  H   UNL     1      -3.503  -3.366   0.214  1.00  0.00     0.163 HD
BRANCH   5   8
ATOM      8  C   UNL     1      -1.117  -1.023  -0.185  1.00  0.00     0.041 A 
ATOM      9  C   UNL     1       1.115  -0.016  -0.113  1.00  0.00     0.056 A 
ATOM     10  C   UNL     1       0.281  -1.138  -0.111  1.00  0.00     0.041 A 
ATOM     11  C   UNL     1       0.542   1.273  -0.112  1.00  0.00     0.060 A 
ATOM     12  C   UNL     1      -0.847   1.393  -0.213  1.00  0.00     0.029 A 
ATOM     13  C   UNL     1      -1.665   0.255  -0.292  1.00  0.00     0.016 A 
BRANCH   9  14
ATOM     14  N   UNL     1       2.485  -0.205   0.083  1.00  0.00    -0.397 N 
ATOM     15  H   UNL     1       2.863  -1.114   0.079  1.00  0.00     0.156 HD
ATOM     16  H   UNL     1       3.073   0.572   0.226  1.00  0.00     0.156 HD
ENDBRANCH   9  14
BRANCH  11  17
ATOM     17  N   UNL     1       1.357   2.404   0.023  1.00  0.00    -0.369 N 
ATOM     18  C   UNL     1       2.290   2.987  -0.883  1.00  0.00     0.125 C 
ATOM     19  C   UNL     1       1.233   3.585   0.812  1.00  0.00     0.125 C 
ATOM     20  C   UNL     1       2.648   3.951   0.283  1.00  0.00     0.010 C 
ATOM     21  C   UNL     1       2.886   5.413  -0.077  1.00  0.00     0.039 C 
ATOM     22  C   UNL     1       3.790   3.444   1.185  1.00  0.00     0.039 C 
ATOM     23  C   UNL     1       4.268   5.543  -0.713  1.00  0.00     0.161 C 
ATOM     24  C   UNL     1       5.115   3.671   0.469  1.00  0.00     0.161 C 
ATOM     25  O   UNL     1       5.282   5.060   0.175  1.00  0.00    -0.381 OA
ENDBRANCH  11  17
ENDBRANCH   5   8
ENDBRANCH   3   4
ENDBRANCH   2   3
ENDBRANCH   1   2
BRANCH   1  26
ATOM     26  N   UNL     1      -7.058  -2.470  -0.123  1.00  0.00    -0.352 N 
ATOM     27  C   UNL     1      -8.420  -2.369  -0.250  1.00  0.00     0.251 C 
ATOM     28  H   UNL     1      -6.742  -2.742   0.770  1.00  0.00     0.163 HD
ATOM     29  O   UNL     1      -9.116  -2.354   0.761  1.00  0.00    -0.269 OA
BRANCH  27  30
ATOM     30  C   UNL     1      -9.051  -2.277  -1.585  1.00  0.00     0.039 A 
ATOM     31  C   UNL     1     -10.141  -1.418  -1.757  1.00  0.00     0.014 A 
ATOM     32  C   UNL     1      -8.615  -3.074  -2.647  1.00  0.00     0.014 A 
ATOM     33  C   UNL     1     -10.762  -1.324  -3.004  1.00  0.00     0.010 A 
ATOM     34  C   UNL     1      -9.194  -2.932  -3.906  1.00  0.00     0.010 A 
ATOM     35  C   UNL     1     -10.278  -2.062  -4.096  1.00  0.00    -0.014 A 
BRANCH  35  36
ATOM     36  C   UNL     1     -10.893  -1.940  -5.442  1.00  0.00     0.031 A 
ATOM     37  C   UNL     1     -11.583  -3.121  -6.071  1.00  0.00     0.074 A 
ATOM     38  C   UNL     1     -10.775  -0.784  -6.124  1.00  0.00     0.049 A 
ATOM     39  N   UNL     1     -12.113  -3.229  -7.262  1.00  0.00    -0.248 NA
ATOM     40  C   UNL     1     -11.667  -4.349  -5.263  1.00  0.00     0.031 C 
ATOM     41  C   UNL     1     -10.101   0.422  -5.637  1.00  0.00     0.029 A 
ATOM     42  N   UNL     1     -11.211  -0.435  -7.378  1.00  0.00    -0.354 N 
ATOM     43  C   UNL     1     -12.576  -4.537  -7.355  1.00  0.00     0.074 A 
ATOM     44  C   UNL     1     -12.225  -5.197  -6.116  1.00  0.00     0.031 C 
ATOM     45  C   UNL     1     -10.189   1.383  -6.570  1.00  0.00     0.029 A 
ATOM     46  C   UNL     1     -10.888   0.852  -7.736  1.00  0.00     0.049 A 
ATOM     47  H   UNL     1     -11.708  -1.049  -7.965  1.00  0.00     0.167 HD
ATOM     48  C   UNL     1     -13.246  -5.130  -8.372  1.00  0.00     0.031 A 
ATOM     49  C   UNL     1     -11.120   1.528  -8.878  1.00  0.00     0.031 A 
ATOM     50  C   UNL     1     -13.604  -4.465  -9.597  1.00  0.00     0.049 A 
ATOM     51  C   UNL     1     -11.861   0.847  -9.995  1.00  0.00     0.074 A 
ATOM     52  C   UNL     1     -14.325  -4.964 -10.668  1.00  0.00     0.029 A 
ATOM     53  N   UNL     1     -13.268  -3.158  -9.915  1.00  0.00    -0.354 N 
ATOM     54  N   UNL     1     -12.335  -0.375 -10.043  1.00  0.00    -0.248 NA
ATOM     55  C   UNL     1     -12.107   1.639 -11.207  1.00  0.00     0.031 C 
ATOM     56  C   UNL     1     -14.388  -3.972 -11.652  1.00  0.00     0.029 A 
ATOM     57  C   UNL     1     -13.752  -2.838 -11.173  1.00  0.00     0.049 A 
ATOM     58  H   UNL     1     -12.761  -2.547  -9.333  1.00  0.00     0.167 HD
ATOM     59  C   UNL     1     -12.959  -0.490 -11.280  1.00  0.00     0.074 A 
ATOM     60  C   UNL     1     -12.812   0.790 -11.943  1.00  0.00     0.031 C 
ATOM     61  C   UNL     1     -13.597  -1.559 -11.818  1.00  0.00     0.031 A 
BRANCH  48  62
ATOM     62  C   UNL     1     -13.632  -6.576  -8.201  1.00  0.00    -0.014 A 
ATOM     63  C   UNL     1     -14.633  -6.957  -7.289  1.00  0.00     0.010 A 
ATOM     64  C   UNL     1     -13.012  -7.565  -8.987  1.00  0.00     0.010 A 
ATOM     65  C   UNL     1     -14.976  -8.303  -7.133  1.00  0.00     0.020 A 
ATOM     66  C   UNL     1     -13.372  -8.910  -8.854  1.00  0.00     0.020 A 
ATOM     67  C   UNL     1     -14.339  -9.272  -7.914  1.00  0.00     0.054 A 
BRANCH  67  68
ATOM     68  S   UNL     1     -14.815 -11.009  -7.704  1.00  0.00     0.124 S 
ATOM     69  O   UNL     1     -14.189 -11.340  -6.426  1.00  0.00    -0.237 OA
ATOM     70  O   UNL     1     -16.274 -10.944  -7.689  1.00  0.00    -0.237 OA
ATOM     71  O   UNL     1     -14.236 -11.672  -8.870  1.00  0.00    -0.744 OA
ENDBRANCH  67  68
ENDBRANCH  48  62
BRANCH  49  72
ATOM     72  C   UNL     1     -10.662   2.938  -9.011  1.00  0.00    -0.014 A 
ATOM     73  C   UNL     1     -11.591   3.992  -9.002  1.00  0.00     0.010 A 
ATOM     74  C   UNL     1      -9.291   3.234  -9.128  1.00  0.00     0.010 A 
ATOM     75  C   UNL     1     -11.161   5.317  -9.122  1.00  0.00     0.020 A 
ATOM     76  C   UNL     1      -8.855   4.559  -9.222  1.00  0.00     0.020 A 
ATOM     77  C   UNL     1      -9.795   5.592  -9.229  1.00  0.00     0.054 A 
BRANCH  77  78
ATOM     78  S   UNL     1      -9.255   7.321  -9.327  1.00  0.00     0.124 S 
ATOM     79  O   UNL     1      -9.609   7.673 -10.698  1.00  0.00    -0.237 OA
ATOM     80  O   UNL     1     -10.051   7.961  -8.282  1.00  0.00    -0.237 OA
ATOM     81  O   UNL     1      -7.822   7.247  -9.048  1.00  0.00    -0.744 OA
ENDBRANCH  77  78
ENDBRANCH  49  72
BRANCH  61  82
ATOM     82  C   UNL     1     -14.215  -1.381 -13.178  1.00  0.00    -0.014 A 
ATOM     83  C   UNL     1     -13.421  -1.314 -14.336  1.00  0.00     0.010 A 
ATOM     84  C   UNL     1     -15.616  -1.336 -13.301  1.00  0.00     0.010 A 
ATOM     85  C   UNL     1     -14.018  -1.175 -15.592  1.00  0.00     0.020 A 
ATOM     86  C   UNL     1     -16.216  -1.223 -14.557  1.00  0.00     0.020 A 
ATOM     87  C   UNL     1     -15.412  -1.129 -15.694  1.00  0.00     0.054 A 
BRANCH  87  88
ATOM     88  S   UNL     1     -16.163  -0.994 -17.340  1.00  0.00     0.124 S 
ATOM     89  O   UNL     1     -15.920   0.407 -17.670  1.00  0.00    -0.237 OA
ATOM     90  O   UNL     1     -15.402  -1.966 -18.122  1.00  0.00    -0.237 OA
ATOM     91  O   UNL     1     -17.563  -1.347 -17.111  1.00  0.00    -0.744 OA
ENDBRANCH  87  88
ENDBRANCH  61  82
ENDBRANCH  35  36
ENDBRANCH  27  30
ENDBRANCH   1  26
TORSDOF 15
