REMARK SMILES C[C@]12C(=O)N(c3ccc(C(=O)NCCCNC(=O)c4ccc(-c5c6nc(c(-c7ccc(S(=O)(=O)[O-])cc7)c7ccc([nH]7)c(-c7ccc(S(=O)(=O)[O-])cc7)c7nc(c(-c8ccc(S(=O)(=O)[O-])cc8)c8ccc5[nH]8)C=C7)C=C6)cc4)cc3)C(=O)[C@H]1[C@H]1c3ccccc3[C@@H]2c2ccccc21
REMARK SMILES IDX 15 1 14 2 13 3 12 4 10 5 11 6 9 8 6 9 7 10 80 11 8 12 79 13
REMARK SMILES IDX 5 14 1 15 2 16 3 17 83 18 91 19 4 20 81 21 84 22 90 23 92 24
REMARK SMILES IDX 82 25 85 26 97 27 89 28 93 29 86 30 96 31 88 32 94 33 87 34
REMARK SMILES IDX 95 35 16 36 17 37 18 39 19 40 20 41 78 42 21 43 77 44 22 45
REMARK SMILES IDX 23 46 24 47 71 48 25 49 76 50 70 51 72 52 26 53 75 54 69 55
REMARK SMILES IDX 68 56 27 58 57 59 38 60 56 61 39 62 42 63 55 64 73 65 40 66
REMARK SMILES IDX 41 67 54 69 74 70 43 71 28 72 29 73 37 74 30 75 36 76 31 77
REMARK SMILES IDX 32 78 33 79 34 80 35 81 58 82 59 83 67 84 60 85 66 86 61 87
REMARK SMILES IDX 62 88 63 89 64 90 65 91 44 92 45 93 53 94 46 95 52 96 47 97
REMARK SMILES IDX 48 98 49 99 50 100 51 101
REMARK H PARENT 12 7 16 38 72 57 42 68
REMARK Flexibility Score: inf
ROOT
ATOM      1  C   UNL     1      -1.360  -7.332  -9.532  1.00  0.00     0.118 C 
ENDROOT
BRANCH   1   2
ATOM      2  C   UNL     1      -1.617  -6.244  -8.496  1.00  0.00     0.042 C 
BRANCH   2   3
ATOM      3  C   UNL     1      -1.847  -6.786  -7.093  1.00  0.00     0.118 C 
BRANCH   3   4
ATOM      4  N   UNL     1      -0.654  -7.383  -6.513  1.00  0.00    -0.352 N 
ATOM      5  C   UNL     1       0.293  -6.912  -5.642  1.00  0.00     0.251 C 
ATOM      6  O   UNL     1       1.280  -7.619  -5.429  1.00  0.00    -0.269 OA
ATOM      7  H   UNL     1      -0.495  -8.309  -6.804  1.00  0.00     0.163 HD
BRANCH   5   8
ATOM      8  C   UNL     1       0.194  -5.596  -4.957  1.00  0.00     0.039 A 
ATOM      9  C   UNL     1       0.185  -3.180  -3.446  1.00  0.00     0.052 A 
ATOM     10  C   UNL     1       1.383  -3.754  -3.903  1.00  0.00     0.027 A 
ATOM     11  C   UNL     1      -1.010  -3.827  -3.792  1.00  0.00     0.027 A 
ATOM     12  C   UNL     1       1.389  -4.939  -4.651  1.00  0.00     0.016 A 
ATOM     13  C   UNL     1      -0.999  -5.046  -4.491  1.00  0.00     0.016 A 
BRANCH   9  14
ATOM     14  N   UNL     1       0.177  -2.152  -2.451  1.00  0.00    -0.250 N 
ATOM     15  C   UNL     1       1.037  -0.125   0.017  1.00  0.00     0.024 C 
ATOM     16  C   UNL     1       0.721  -1.608  -0.264  1.00  0.00     0.071 C 
ATOM     17  C   UNL     1       1.260  -1.931  -1.632  1.00  0.00     0.241 C 
ATOM     18  C   UNL     1      -0.829  -1.836  -0.369  1.00  0.00     0.107 C 
ATOM     19  C   UNL     1       1.349  -2.602   0.765  1.00  0.00     0.066 C 
ATOM     20  O   UNL     1       2.450  -1.957  -1.883  1.00  0.00    -0.273 OA
ATOM     21  C   UNL     1      -0.974  -1.615  -1.872  1.00  0.00     0.238 C 
ATOM     22  C   UNL     1      -1.291  -2.643   0.917  1.00  0.00     0.063 C 
ATOM     23  C   UNL     1       0.751  -3.995   0.495  1.00  0.00    -0.036 A 
ATOM     24  C   UNL     1       0.815  -2.163   2.120  1.00  0.00    -0.036 A 
ATOM     25  O   UNL     1      -1.963  -1.157  -2.424  1.00  0.00    -0.274 OA
ATOM     26  C   UNL     1      -0.663  -4.058   0.673  1.00  0.00    -0.036 A 
ATOM     27  C   UNL     1      -0.603  -2.132   2.186  1.00  0.00    -0.036 A 
ATOM     28  C   UNL     1       1.433  -5.075  -0.045  1.00  0.00     0.005 A 
ATOM     29  C   UNL     1       1.600  -1.863   3.225  1.00  0.00     0.005 A 
ATOM     30  C   UNL     1      -1.385  -5.191   0.315  1.00  0.00     0.004 A 
ATOM     31  C   UNL     1      -1.228  -1.812   3.382  1.00  0.00     0.004 A 
ATOM     32  C   UNL     1       0.704  -6.212  -0.409  1.00  0.00     0.000 A 
ATOM     33  C   UNL     1       0.964  -1.536   4.419  1.00  0.00     0.000 A 
ATOM     34  C   UNL     1      -0.688  -6.270  -0.228  1.00  0.00     0.000 A 
ATOM     35  C   UNL     1      -0.437  -1.512   4.497  1.00  0.00     0.000 A 
ENDBRANCH   9  14
ENDBRANCH   5   8
ENDBRANCH   3   4
ENDBRANCH   2   3
ENDBRANCH   1   2
BRANCH   1  36
ATOM     36  N   UNL     1      -2.509  -8.212  -9.727  1.00  0.00    -0.352 N 
ATOM     37  C   UNL     1      -3.541  -8.185 -10.635  1.00  0.00     0.251 C 
ATOM     38  H   UNL     1      -2.552  -8.963  -9.091  1.00  0.00     0.163 HD
ATOM     39  O   UNL     1      -4.511  -8.918 -10.453  1.00  0.00    -0.269 OA
BRANCH  37  40
ATOM     40  C   UNL     1      -3.518  -7.274 -11.803  1.00  0.00     0.039 A 
ATOM     41  C   UNL     1      -2.343  -7.034 -12.510  1.00  0.00     0.014 A 
ATOM     42  C   UNL     1      -4.710  -6.676 -12.229  1.00  0.00     0.014 A 
ATOM     43  C   UNL     1      -2.312  -6.053 -13.495  1.00  0.00     0.010 A 
ATOM     44  C   UNL     1      -4.700  -5.771 -13.298  1.00  0.00     0.010 A 
ATOM     45  C   UNL     1      -3.489  -5.407 -13.904  1.00  0.00    -0.014 A 
BRANCH  45  46
ATOM     46  C   UNL     1      -3.416  -4.360 -14.961  1.00  0.00     0.031 A 
ATOM     47  C   UNL     1      -3.793  -2.933 -14.658  1.00  0.00     0.074 A 
ATOM     48  C   UNL     1      -2.927  -4.681 -16.177  1.00  0.00     0.049 A 
ATOM     49  N   UNL     1      -3.735  -1.886 -15.442  1.00  0.00    -0.248 NA
ATOM     50  C   UNL     1      -4.300  -2.636 -13.307  1.00  0.00     0.031 C 
ATOM     51  C   UNL     1      -2.507  -6.024 -16.584  1.00  0.00     0.029 A 
ATOM     52  N   UNL     1      -2.655  -3.904 -17.275  1.00  0.00    -0.354 N 
ATOM     53  C   UNL     1      -4.209  -0.817 -14.690  1.00  0.00     0.074 A 
ATOM     54  C   UNL     1      -4.582  -1.343 -13.396  1.00  0.00     0.031 C 
ATOM     55  C   UNL     1      -1.957  -5.962 -17.805  1.00  0.00     0.029 A 
ATOM     56  C   UNL     1      -2.054  -4.593 -18.303  1.00  0.00     0.049 A 
ATOM     57  H   UNL     1      -2.871  -2.944 -17.323  1.00  0.00     0.167 HD
ATOM     58  C   UNL     1      -4.308   0.487 -15.039  1.00  0.00     0.031 A 
ATOM     59  C   UNL     1      -1.628  -4.182 -19.515  1.00  0.00     0.031 A 
ATOM     60  C   UNL     1      -3.913   1.011 -16.321  1.00  0.00     0.049 A 
ATOM     61  C   UNL     1      -1.789  -2.739 -19.895  1.00  0.00     0.074 A 
ATOM     62  C   UNL     1      -3.969   2.322 -16.761  1.00  0.00     0.029 A 
ATOM     63  N   UNL     1      -3.383   0.263 -17.360  1.00  0.00    -0.354 N 
ATOM     64  N   UNL     1      -2.251  -1.748 -19.170  1.00  0.00    -0.248 NA
ATOM     65  C   UNL     1      -1.381  -2.355 -21.253  1.00  0.00     0.031 C 
ATOM     66  C   UNL     1      -3.527   2.357 -18.085  1.00  0.00     0.029 A 
ATOM     67  C   UNL     1      -3.131   1.080 -18.449  1.00  0.00     0.049 A 
ATOM     68  H   UNL     1      -3.211  -0.706 -17.328  1.00  0.00     0.167 HD
ATOM     69  C   UNL     1      -2.187  -0.623 -19.983  1.00  0.00     0.074 A 
ATOM     70  C   UNL     1      -1.620  -1.049 -21.246  1.00  0.00     0.031 C 
ATOM     71  C   UNL     1      -2.572   0.646 -19.705  1.00  0.00     0.031 A 
BRANCH  58  72
ATOM     72  C   UNL     1      -4.863   1.460 -14.031  1.00  0.00    -0.014 A 
ATOM     73  C   UNL     1      -6.111   2.069 -14.263  1.00  0.00     0.010 A 
ATOM     74  C   UNL     1      -4.102   1.863 -12.919  1.00  0.00     0.010 A 
ATOM     75  C   UNL     1      -6.574   3.083 -13.422  1.00  0.00     0.020 A 
ATOM     76  C   UNL     1      -4.574   2.860 -12.059  1.00  0.00     0.020 A 
ATOM     77  C   UNL     1      -5.797   3.480 -12.330  1.00  0.00     0.054 A 
BRANCH  77  78
ATOM     78  S   UNL     1      -6.403   4.815 -11.262  1.00  0.00     0.124 S 
ATOM     79  O   UNL     1      -6.135   6.002 -12.068  1.00  0.00    -0.237 OA
ATOM     80  O   UNL     1      -7.813   4.473 -11.090  1.00  0.00    -0.237 OA
ATOM     81  O   UNL     1      -5.590   4.681 -10.055  1.00  0.00    -0.744 OA
ENDBRANCH  77  78
ENDBRANCH  58  72
BRANCH  59  82
ATOM     82  C   UNL     1      -0.998  -5.169 -20.434  1.00  0.00    -0.014 A 
ATOM     83  C   UNL     1      -1.758  -6.223 -20.975  1.00  0.00     0.010 A 
ATOM     84  C   UNL     1       0.383  -5.119 -20.697  1.00  0.00     0.010 A 
ATOM     85  C   UNL     1      -1.143  -7.244 -21.702  1.00  0.00     0.020 A 
ATOM     86  C   UNL     1       0.998  -6.124 -21.451  1.00  0.00     0.020 A 
ATOM     87  C   UNL     1       0.236  -7.197 -21.920  1.00  0.00     0.054 A 
BRANCH  87  88
ATOM     88  S   UNL     1       1.026  -8.565 -22.812  1.00  0.00     0.124 S 
ATOM     89  O   UNL     1       1.101  -9.591 -21.776  1.00  0.00    -0.237 OA
ATOM     90  O   UNL     1       0.081  -8.831 -23.894  1.00  0.00    -0.237 OA
ATOM     91  O   UNL     1       2.307  -8.003 -23.233  1.00  0.00    -0.744 OA
ENDBRANCH  87  88
ENDBRANCH  59  82
BRANCH  71  92
ATOM     92  C   UNL     1      -2.412   1.688 -20.778  1.00  0.00    -0.014 A 
ATOM     93  C   UNL     1      -1.470   2.721 -20.614  1.00  0.00     0.010 A 
ATOM     94  C   UNL     1      -3.288   1.726 -21.877  1.00  0.00     0.010 A 
ATOM     95  C   UNL     1      -1.432   3.794 -21.506  1.00  0.00     0.020 A 
ATOM     96  C   UNL     1      -3.235   2.786 -22.787  1.00  0.00     0.020 A 
ATOM     97  C   UNL     1      -2.325   3.826 -22.581  1.00  0.00     0.054 A 
BRANCH  97  98
ATOM     98  S   UNL     1      -2.292   5.248 -23.706  1.00  0.00     0.124 S 
ATOM     99  O   UNL     1      -2.986   6.271 -22.928  1.00  0.00    -0.237 OA
ATOM    100  O   UNL     1      -0.861   5.470 -23.902  1.00  0.00    -0.237 OA
ATOM    101  O   UNL     1      -3.007   4.768 -24.886  1.00  0.00    -0.744 OA
ENDBRANCH  97  98
ENDBRANCH  71  92
ENDBRANCH  45  46
ENDBRANCH  37  40
ENDBRANCH   1  36
TORSDOF 14
