REMARK SMILES C#CCN(CC(=O)NCCCNC(=O)c1ccc(-c2c3nc(c(-c4ccc(S(=O)(=O)[O-])cc4)c4ccc([nH]4)c(-c4ccc(S(=O)(=O)[O-])cc4)c4nc(c(-c5ccc(S(=O)(=O)[O-])cc5)c5ccc2[nH]5)C=C4)C=C3)cc1)C(=O)NCc1ccnc(C)n1
REMARK SMILES IDX 9 1 8 2 6 3 7 4 5 6 4 7 3 8 2 9 1 10 75 11 76 12 77 13 78 15
REMARK SMILES IDX 79 16 80 17 85 18 81 19 83 20 82 21 84 22 10 23 11 24 12 25
REMARK SMILES IDX 13 26 14 28 15 29 16 30 74 31 17 32 73 33 18 34 19 35 20 36
REMARK SMILES IDX 67 37 21 38 72 39 66 40 68 41 22 42 71 43 65 44 64 45 23 47
REMARK SMILES IDX 53 48 34 49 52 50 35 51 38 52 51 53 69 54 36 55 37 56 50 58
REMARK SMILES IDX 70 59 39 60 24 61 25 62 33 63 26 64 32 65 27 66 28 67 29 68
REMARK SMILES IDX 30 69 31 70 54 71 55 72 63 73 56 74 62 75 57 76 58 77 59 78
REMARK SMILES IDX 60 79 61 80 40 81 41 82 49 83 42 84 48 85 43 86 44 87 45 88
REMARK SMILES IDX 46 89 47 90
REMARK H PARENT 8 5 77 14 12 27 68 46 38 57
REMARK Flexibility Score: inf
ROOT
ATOM      1  C   UNL     1      -5.207  -0.316   0.000  1.00  0.00     0.117 C 
ENDROOT
BRANCH   1   2
ATOM      2  N   UNL     1      -5.476   1.081  -0.268  1.00  0.00    -0.354 N 
ATOM      3  C   UNL     1      -4.675   2.027  -0.838  1.00  0.00     0.239 C 
ATOM      4  O   UNL     1      -5.228   2.999  -1.368  1.00  0.00    -0.273 OA
ATOM      5  H   UNL     1      -6.369   1.395   0.002  1.00  0.00     0.163 HD
BRANCH   3   6
ATOM      6  C   UNL     1      -3.159   1.831  -0.999  1.00  0.00     0.222 C 
BRANCH   6   7
ATOM      7  N   UNL     1      -2.452   1.348   0.181  1.00  0.00    -0.304 N 
BRANCH   7   8
ATOM      8  C   UNL     1      -1.875   0.013   0.085  1.00  0.00     0.211 C 
BRANCH   8   9
ATOM      9  C   UNL     1      -0.355   0.013   0.085  1.00  0.00    -0.085 C 
ATOM     10  C   UNL     1       0.949   0.013   0.085  1.00  0.00     0.006 C 
ENDBRANCH   8   9
ENDBRANCH   7   8
BRANCH   7  11
ATOM     11  C   UNL     1      -2.293   1.993   1.372  1.00  0.00     0.318 C 
ATOM     12  O   UNL     1      -1.780   1.425   2.343  1.00  0.00    -0.249 OA
ATOM     13  N   UNL     1      -2.676   3.250   1.613  1.00  0.00    -0.332 N 
ATOM     14  H   UNL     1      -2.521   3.482   2.558  1.00  0.00     0.165 HD
BRANCH  13  15
ATOM     15  C   UNL     1      -3.252   4.379   0.904  1.00  0.00     0.174 C 
BRANCH  15  16
ATOM     16  C   UNL     1      -4.608   4.787   1.449  1.00  0.00     0.063 A 
ATOM     17  C   UNL     1      -4.961   6.124   1.465  1.00  0.00     0.046 A 
ATOM     18  N   UNL     1      -5.462   3.818   1.857  1.00  0.00    -0.236 NA
ATOM     19  C   UNL     1      -6.221   6.417   1.932  1.00  0.00     0.115 A 
ATOM     20  C   UNL     1      -6.679   4.210   2.281  1.00  0.00     0.125 A 
ATOM     21  N   UNL     1      -7.097   5.486   2.339  1.00  0.00    -0.242 NA
ATOM     22  C   UNL     1      -7.647   3.145   2.690  1.00  0.00     0.089 C 
ENDBRANCH  15  16
ENDBRANCH  13  15
ENDBRANCH   7  11
ENDBRANCH   6   7
ENDBRANCH   3   6
ENDBRANCH   1   2
BRANCH   1  23
ATOM     23  C   UNL     1      -4.994  -0.651   1.473  1.00  0.00     0.042 C 
BRANCH  23  24
ATOM     24  C   UNL     1      -6.220  -0.490   2.361  1.00  0.00     0.118 C 
BRANCH  24  25
ATOM     25  N   UNL     1      -7.358  -1.279   1.914  1.00  0.00    -0.352 N 
ATOM     26  C   UNL     1      -8.072  -2.261   2.545  1.00  0.00     0.251 C 
ATOM     27  H   UNL     1      -7.666  -1.071   1.003  1.00  0.00     0.163 HD
ATOM     28  O   UNL     1      -8.882  -2.917   1.885  1.00  0.00    -0.269 OA
BRANCH  26  29
ATOM     29  C   UNL     1      -7.891  -2.556   3.984  1.00  0.00     0.039 A 
ATOM     30  C   UNL     1      -7.963  -3.888   4.406  1.00  0.00     0.014 A 
ATOM     31  C   UNL     1      -7.720  -1.540   4.929  1.00  0.00     0.014 A 
ATOM     32  C   UNL     1      -7.815  -4.203   5.759  1.00  0.00     0.010 A 
ATOM     33  C   UNL     1      -7.501  -1.861   6.269  1.00  0.00     0.010 A 
ATOM     34  C   UNL     1      -7.556  -3.194   6.701  1.00  0.00    -0.014 A 
BRANCH  34  35
ATOM     35  C   UNL     1      -7.341  -3.525   8.134  1.00  0.00     0.031 A 
ATOM     36  C   UNL     1      -8.308  -3.045   9.184  1.00  0.00     0.074 A 
ATOM     37  C   UNL     1      -6.249  -4.227   8.496  1.00  0.00     0.049 A 
ATOM     38  N   UNL     1      -8.273  -3.224  10.480  1.00  0.00    -0.248 NA
ATOM     39  C   UNL     1      -9.453  -2.244   8.720  1.00  0.00     0.031 C 
ATOM     40  C   UNL     1      -5.215  -4.715   7.580  1.00  0.00     0.029 A 
ATOM     41  N   UNL     1      -5.825  -4.652   9.730  1.00  0.00    -0.354 N 
ATOM     42  C   UNL     1      -9.377  -2.548  10.988  1.00  0.00     0.074 A 
ATOM     43  C   UNL     1     -10.036  -1.917   9.865  1.00  0.00     0.031 C 
ATOM     44  C   UNL     1      -4.295  -5.399   8.279  1.00  0.00     0.029 A 
ATOM     45  C   UNL     1      -4.651  -5.368   9.694  1.00  0.00     0.049 A 
ATOM     46  H   UNL     1      -6.315  -4.463  10.562  1.00  0.00     0.167 HD
ATOM     47  C   UNL     1      -9.815  -2.474  12.268  1.00  0.00     0.031 A 
ATOM     48  C   UNL     1      -3.939  -5.936  10.686  1.00  0.00     0.031 A 
ATOM     49  C   UNL     1      -9.161  -3.108  13.383  1.00  0.00     0.049 A 
ATOM     50  C   UNL     1      -4.445  -5.840  12.099  1.00  0.00     0.074 A 
ATOM     51  C   UNL     1      -9.552  -3.131  14.711  1.00  0.00     0.029 A 
ATOM     52  N   UNL     1      -7.980  -3.830  13.303  1.00  0.00    -0.354 N 
ATOM     53  N   UNL     1      -5.525  -5.247  12.550  1.00  0.00    -0.248 NA
ATOM     54  C   UNL     1      -3.645  -6.507  13.135  1.00  0.00     0.031 C 
ATOM     55  C   UNL     1      -8.583  -3.829  15.441  1.00  0.00     0.029 A 
ATOM     56  C   UNL     1      -7.618  -4.288  14.559  1.00  0.00     0.049 A 
ATOM     57  H   UNL     1      -7.473  -3.993  12.475  1.00  0.00     0.167 HD
ATOM     58  C   UNL     1      -5.548  -5.493  13.918  1.00  0.00     0.074 A 
ATOM     59  C   UNL     1      -4.383  -6.302  14.217  1.00  0.00     0.031 C 
ATOM     60  C   UNL     1      -6.454  -5.089  14.843  1.00  0.00     0.031 A 
BRANCH  47  61
ATOM     61  C   UNL     1     -11.063  -1.671  12.530  1.00  0.00    -0.014 A 
ATOM     62  C   UNL     1     -12.322  -2.122  12.091  1.00  0.00     0.010 A 
ATOM     63  C   UNL     1     -10.984  -0.467  13.254  1.00  0.00     0.010 A 
ATOM     64  C   UNL     1     -13.470  -1.361  12.329  1.00  0.00     0.020 A 
ATOM     65  C   UNL     1     -12.135   0.282  13.519  1.00  0.00     0.020 A 
ATOM     66  C   UNL     1     -13.368  -0.161  13.038  1.00  0.00     0.054 A 
BRANCH  66  67
ATOM     67  S   UNL     1     -14.877   0.799  13.345  1.00  0.00     0.124 S 
ATOM     68  O   UNL     1     -15.149   1.361  12.024  1.00  0.00    -0.237 OA
ATOM     69  O   UNL     1     -15.819  -0.220  13.799  1.00  0.00    -0.237 OA
ATOM     70  O   UNL     1     -14.472   1.766  14.362  1.00  0.00    -0.744 OA
ENDBRANCH  66  67
ENDBRANCH  47  61
BRANCH  48  71
ATOM     71  C   UNL     1      -2.684  -6.672  10.372  1.00  0.00    -0.014 A 
ATOM     72  C   UNL     1      -2.637  -8.073  10.470  1.00  0.00     0.010 A 
ATOM     73  C   UNL     1      -1.535  -5.976   9.955  1.00  0.00     0.010 A 
ATOM     74  C   UNL     1      -1.458  -8.765  10.177  1.00  0.00     0.020 A 
ATOM     75  C   UNL     1      -0.362  -6.667   9.634  1.00  0.00     0.020 A 
ATOM     76  C   UNL     1      -0.328  -8.057   9.759  1.00  0.00     0.054 A 
BRANCH  76  77
ATOM     77  S   UNL     1       1.175  -8.980   9.333  1.00  0.00     0.124 S 
ATOM     78  O   UNL     1       1.675  -9.368  10.647  1.00  0.00    -0.237 OA
ATOM     79  O   UNL     1       0.654 -10.067   8.507  1.00  0.00    -0.237 OA
ATOM     80  O   UNL     1       1.986  -7.999   8.616  1.00  0.00    -0.744 OA
ENDBRANCH  76  77
ENDBRANCH  48  71
BRANCH  60  81
ATOM     81  C   UNL     1      -6.242  -5.549  16.261  1.00  0.00    -0.014 A 
ATOM     82  C   UNL     1      -5.205  -5.025  17.053  1.00  0.00     0.010 A 
ATOM     83  C   UNL     1      -7.118  -6.499  16.819  1.00  0.00     0.010 A 
ATOM     84  C   UNL     1      -5.022  -5.475  18.364  1.00  0.00     0.020 A 
ATOM     85  C   UNL     1      -6.955  -6.930  18.137  1.00  0.00     0.020 A 
ATOM     86  C   UNL     1      -5.896  -6.429  18.896  1.00  0.00     0.054 A 
BRANCH  86  87
ATOM     87  S   UNL     1      -5.653  -6.981  20.607  1.00  0.00     0.124 S 
ATOM     88  O   UNL     1      -4.496  -7.863  20.480  1.00  0.00    -0.237 OA
ATOM     89  O   UNL     1      -5.413  -5.728  21.318  1.00  0.00    -0.237 OA
ATOM     90  O   UNL     1      -6.911  -7.646  20.938  1.00  0.00    -0.744 OA
ENDBRANCH  86  87
ENDBRANCH  60  81
ENDBRANCH  34  35
ENDBRANCH  26  29
ENDBRANCH  24  25
ENDBRANCH  23  24
ENDBRANCH   1  23
TORSDOF 19
