REMARK SMILES O=C(NCCCNC(=O)c1ccc(-c2c3nc(c(-c4ccc(S(=O)(=O)[O-])cc4)c4ccc([nH]4)c(-c4ccc(S(=O)(=O)[O-])cc4)c4nc(c(-c5ccc(S(=O)(=O)[O-])cc5)c5ccc2[nH]5)C=C4)C=C3)cc1)C1=Cc2c(cc(Cl)c(Cl)c2Cl)O[C@H]1C(F)(F)F
REMARK SMILES IDX 6 1 5 2 4 3 3 4 1 5 2 6 70 8 71 9 82 10 72 11 81 12 73 13
REMARK SMILES IDX 79 14 74 15 77 16 80 17 75 18 78 19 76 20 83 21 84 22 85 23
REMARK SMILES IDX 86 24 7 25 8 26 9 28 10 29 11 30 69 31 12 32 68 33 13 34
REMARK SMILES IDX 14 35 15 36 62 37 16 38 67 39 61 40 63 41 17 42 66 43 60 44
REMARK SMILES IDX 59 45 18 47 48 48 29 49 47 50 30 51 33 52 46 53 64 54 31 55
REMARK SMILES IDX 32 56 45 58 65 59 34 60 19 61 20 62 28 63 21 64 27 65 22 66
REMARK SMILES IDX 23 67 24 68 25 69 26 70 49 71 50 72 58 73 51 74 57 75 52 76
REMARK SMILES IDX 53 77 54 78 55 79 56 80 35 81 36 82 44 83 37 84 43 85 38 86
REMARK SMILES IDX 39 87 40 88 41 89 42 90
REMARK H PARENT 3 7 7 27 63 46 33 57
REMARK Flexibility Score: inf
ROOT
ATOM      1  C   UNL     1       3.630  -3.134  -2.632  1.00  0.00     0.118 C 
ENDROOT
BRANCH   1   2
ATOM      2  C   UNL     1       3.922  -2.622  -1.234  1.00  0.00     0.042 C 
BRANCH   2   3
ATOM      3  C   UNL     1       3.662  -1.148  -1.020  1.00  0.00     0.118 C 
BRANCH   3   4
ATOM      4  N   UNL     1       2.333  -0.746  -0.617  1.00  0.00    -0.352 N 
ATOM      5  O   UNL     1       0.820   0.563   0.432  1.00  0.00    -0.270 OA
ATOM      6  C   UNL     1       1.991   0.352   0.132  1.00  0.00     0.251 C 
ATOM      7  H   UNL     1       1.592  -1.324  -0.912  1.00  0.00     0.163 HD
BRANCH   6   8
ATOM      8  C   UNL     1       3.047   1.272   0.645  1.00  0.00     0.067 C 
ATOM      9  C   UNL     1       3.699   2.083  -0.208  1.00  0.00     0.027 C 
ATOM     10  C   UNL     1       3.694   0.851   1.940  1.00  0.00     0.314 C 
ATOM     11  C   UNL     1       5.091   1.603  -0.434  1.00  0.00     0.037 A 
ATOM     12  O   UNL     1       5.141   0.664   1.822  1.00  0.00    -0.475 OA
ATOM     13  C   UNL     1       5.706   0.855   0.584  1.00  0.00     0.131 A 
ATOM     14  C   UNL     1       5.681   1.672  -1.712  1.00  0.00     0.072 A 
ATOM     15  C   UNL     1       6.852   0.113   0.308  1.00  0.00     0.069 A 
ATOM     16  C   UNL     1       6.812   0.889  -2.002  1.00  0.00     0.079 A 
ATOM     17  Cl  UNL     1       4.917   2.637  -2.942  1.00  0.00    -0.082 Cl
ATOM     18  C   UNL     1       7.370   0.088  -0.992  1.00  0.00     0.064 A 
ATOM     19  Cl  UNL     1       7.461   0.848  -3.611  1.00  0.00    -0.081 Cl
ATOM     20  Cl  UNL     1       8.648  -1.035  -1.304  1.00  0.00    -0.083 Cl
BRANCH  10  21
ATOM     21  C   UNL     1       3.369   1.824   3.090  1.00  0.00     0.429 C 
ATOM     22  F   UNL     1       2.408   2.720   2.766  1.00  0.00    -0.167 F 
ATOM     23  F   UNL     1       2.937   1.157   4.187  1.00  0.00    -0.167 F 
ATOM     24  F   UNL     1       4.455   2.545   3.462  1.00  0.00    -0.167 F 
ENDBRANCH  10  21
ENDBRANCH   6   8
ENDBRANCH   3   4
ENDBRANCH   2   3
ENDBRANCH   1   2
BRANCH   1  25
ATOM     25  N   UNL     1       4.380  -2.465  -3.693  1.00  0.00    -0.352 N 
ATOM     26  C   UNL     1       5.347  -2.910  -4.567  1.00  0.00     0.251 C 
ATOM     27  H   UNL     1       4.151  -1.514  -3.804  1.00  0.00     0.163 HD
ATOM     28  O   UNL     1       5.856  -2.104  -5.346  1.00  0.00    -0.269 OA
BRANCH  26  29
ATOM     29  C   UNL     1       5.808  -4.317  -4.567  1.00  0.00     0.039 A 
ATOM     30  C   UNL     1       7.157  -4.598  -4.815  1.00  0.00     0.014 A 
ATOM     31  C   UNL     1       4.928  -5.368  -4.328  1.00  0.00     0.014 A 
ATOM     32  C   UNL     1       7.627  -5.913  -4.716  1.00  0.00     0.010 A 
ATOM     33  C   UNL     1       5.418  -6.644  -4.084  1.00  0.00     0.010 A 
ATOM     34  C   UNL     1       6.772  -6.940  -4.288  1.00  0.00    -0.014 A 
BRANCH  34  35
ATOM     35  C   UNL     1       7.246  -8.332  -4.062  1.00  0.00     0.031 A 
ATOM     36  C   UNL     1       6.586  -9.478  -4.792  1.00  0.00     0.074 A 
ATOM     37  C   UNL     1       8.193  -8.578  -3.133  1.00  0.00     0.049 A 
ATOM     38  N   UNL     1       6.758 -10.765  -4.636  1.00  0.00    -0.248 NA
ATOM     39  C   UNL     1       5.564  -9.132  -5.797  1.00  0.00     0.031 C 
ATOM     40  C   UNL     1       8.868  -7.566  -2.316  1.00  0.00     0.029 A 
ATOM     41  N   UNL     1       8.745  -9.761  -2.708  1.00  0.00    -0.354 N 
ATOM     42  C   UNL     1       5.845 -11.376  -5.490  1.00  0.00     0.074 A 
ATOM     43  C   UNL     1       5.079 -10.323  -6.115  1.00  0.00     0.031 C 
ATOM     44  C   UNL     1       9.765  -8.166  -1.518  1.00  0.00     0.029 A 
ATOM     45  C   UNL     1       9.696  -9.608  -1.725  1.00  0.00     0.049 A 
ATOM     46  H   UNL     1       8.486 -10.638  -3.074  1.00  0.00     0.167 HD
ATOM     47  C   UNL     1       5.677 -12.693  -5.753  1.00  0.00     0.031 A 
ATOM     48  C   UNL     1      10.423 -10.525  -1.057  1.00  0.00     0.031 A 
ATOM     49  C   UNL     1       6.474 -13.734  -5.162  1.00  0.00     0.049 A 
ATOM     50  C   UNL     1      10.236 -11.982  -1.386  1.00  0.00     0.074 A 
ATOM     51  C   UNL     1       6.440 -15.093  -5.420  1.00  0.00     0.029 A 
ATOM     52  N   UNL     1       7.453 -13.531  -4.202  1.00  0.00    -0.354 N 
ATOM     53  N   UNL     1       9.415 -12.532  -2.249  1.00  0.00    -0.248 NA
ATOM     54  C   UNL     1      11.081 -12.940  -0.660  1.00  0.00     0.031 C 
ATOM     55  C   UNL     1       7.363 -15.718  -4.576  1.00  0.00     0.029 A 
ATOM     56  C   UNL     1       8.015 -14.742  -3.839  1.00  0.00     0.049 A 
ATOM     57  H   UNL     1       7.710 -12.655  -3.833  1.00  0.00     0.167 HD
ATOM     58  C   UNL     1       9.666 -13.898  -2.191  1.00  0.00     0.074 A 
ATOM     59  C   UNL     1      10.727 -14.087  -1.222  1.00  0.00     0.031 C 
ATOM     60  C   UNL     1       9.073 -14.907  -2.876  1.00  0.00     0.031 A 
BRANCH  47  61
ATOM     61  C   UNL     1       4.598 -13.083  -6.731  1.00  0.00    -0.014 A 
ATOM     62  C   UNL     1       4.706 -12.773  -8.099  1.00  0.00     0.010 A 
ATOM     63  C   UNL     1       3.483 -13.816  -6.284  1.00  0.00     0.010 A 
ATOM     64  C   UNL     1       3.703 -13.154  -8.994  1.00  0.00     0.020 A 
ATOM     65  C   UNL     1       2.493 -14.227  -7.182  1.00  0.00     0.020 A 
ATOM     66  C   UNL     1       2.603 -13.880  -8.530  1.00  0.00     0.054 A 
BRANCH  66  67
ATOM     67  S   UNL     1       1.338 -14.397  -9.723  1.00  0.00     0.124 S 
ATOM     68  O   UNL     1       0.684 -13.128 -10.035  1.00  0.00    -0.237 OA
ATOM     69  O   UNL     1       2.135 -14.974 -10.803  1.00  0.00    -0.237 OA
ATOM     70  O   UNL     1       0.523 -15.350  -8.975  1.00  0.00    -0.744 OA
ENDBRANCH  66  67
ENDBRANCH  47  61
BRANCH  48  71
ATOM     71  C   UNL     1      11.404 -10.094  -0.021  1.00  0.00    -0.014 A 
ATOM     72  C   UNL     1      12.786 -10.234  -0.241  1.00  0.00     0.010 A 
ATOM     73  C   UNL     1      10.962  -9.537   1.194  1.00  0.00     0.010 A 
ATOM     74  C   UNL     1      13.705  -9.852   0.742  1.00  0.00     0.020 A 
ATOM     75  C   UNL     1      11.878  -9.125   2.166  1.00  0.00     0.020 A 
ATOM     76  C   UNL     1      13.245  -9.299   1.939  1.00  0.00     0.054 A 
BRANCH  76  77
ATOM     77  S   UNL     1      14.456  -8.775   3.185  1.00  0.00     0.124 S 
ATOM     78  O   UNL     1      14.930 -10.054   3.704  1.00  0.00    -0.237 OA
ATOM     79  O   UNL     1      15.419  -8.018   2.389  1.00  0.00    -0.237 OA
ATOM     80  O   UNL     1      13.663  -7.976   4.117  1.00  0.00    -0.744 OA
ENDBRANCH  76  77
ENDBRANCH  48  71
BRANCH  60  81
ATOM     81  C   UNL     1       9.582 -16.302  -2.633  1.00  0.00    -0.014 A 
ATOM     82  C   UNL     1       9.324 -16.974  -1.425  1.00  0.00     0.010 A 
ATOM     83  C   UNL     1      10.280 -16.971  -3.656  1.00  0.00     0.010 A 
ATOM     84  C   UNL     1       9.786 -18.279  -1.232  1.00  0.00     0.020 A 
ATOM     85  C   UNL     1      10.716 -18.285  -3.478  1.00  0.00     0.020 A 
ATOM     86  C   UNL     1      10.478 -18.926  -2.261  1.00  0.00     0.054 A 
BRANCH  86  87
ATOM     87  S   UNL     1      11.030 -20.633  -2.000  1.00  0.00     0.124 S 
ATOM     88  O   UNL     1      12.139 -20.454  -1.066  1.00  0.00    -0.237 OA
ATOM     89  O   UNL     1       9.839 -21.273  -1.446  1.00  0.00    -0.237 OA
ATOM     90  O   UNL     1      11.408 -21.084  -3.337  1.00  0.00    -0.744 OA
ENDBRANCH  86  87
ENDBRANCH  60  81
ENDBRANCH  34  35
ENDBRANCH  26  29
ENDBRANCH   1  25
TORSDOF 14
