REMARK SMILES Cc1ccc(OCC(=O)NNC(=O)[C@H]2CCCC[C@@H]2C(=O)NCCCNC(=O)c2ccc(-c3c4nc(c(-c5ccc(S(=O)(=O)[O-])cc5)c5ccc([nH]5)c(-c5ccc(S(=O)(=O)[O-])cc5)c5nc(c(-c6ccc(S(=O)(=O)[O-])cc6)c6ccc3[nH]6)C=C5)C=C4)cc2)cc1
REMARK SMILES IDX 23 1 22 2 20 3 21 4 19 6 14 7 15 8 16 9 18 10 17 11 12 12
REMARK SMILES IDX 11 13 13 15 10 16 8 17 9 18 7 20 6 21 5 22 1 23 2 24 3 25
REMARK SMILES IDX 90 26 4 27 89 28 24 29 25 30 26 31 27 32 28 34 29 35 30 36
REMARK SMILES IDX 88 37 31 38 87 39 32 40 33 41 34 42 81 43 35 44 86 45 80 46
REMARK SMILES IDX 82 47 36 48 85 49 79 50 78 51 37 53 67 54 48 55 66 56 49 57
REMARK SMILES IDX 52 58 65 59 83 60 50 61 51 62 64 64 84 65 53 66 38 67 39 68
REMARK SMILES IDX 47 69 40 70 46 71 41 72 42 73 43 74 44 75 45 76 68 77 69 78
REMARK SMILES IDX 77 79 70 80 76 81 71 82 72 83 73 84 74 85 75 86 54 87 55 88
REMARK SMILES IDX 63 89 56 90 62 91 57 92 58 93 59 94 60 95 61 96
REMARK H PARENT 22 5 11 14 10 19 26 33 82 52 52 63
REMARK Flexibility Score: inf
ROOT
ATOM      1  C   UNL     1      -6.814   3.834   5.993  1.00  0.00     0.117 C 
ENDROOT
BRANCH   1   2
ATOM      2  N   UNL     1      -6.409   3.064   4.825  1.00  0.00    -0.356 N 
ATOM      3  C   UNL     1      -5.394   2.225   4.537  1.00  0.00     0.223 C 
ATOM      4  O   UNL     1      -5.370   1.792   3.373  1.00  0.00    -0.275 OA
ATOM      5  H   UNL     1      -7.022   3.186   4.064  1.00  0.00     0.163 HD
BRANCH   3   6
ATOM      6  C   UNL     1      -4.263   1.788   5.477  1.00  0.00     0.091 C 
ATOM      7  C   UNL     1      -4.152   0.242   5.400  1.00  0.00     0.092 C 
ATOM      8  C   UNL     1      -5.155  -0.409   6.367  1.00  0.00     0.014 C 
ATOM      9  C   UNL     1      -4.969   0.034   7.814  1.00  0.00     0.001 C 
ATOM     10  C   UNL     1      -4.136   2.283   6.917  1.00  0.00     0.014 C 
ATOM     11  C   UNL     1      -4.963   1.544   7.967  1.00  0.00     0.001 C 
BRANCH   7  12
ATOM     12  C   UNL     1      -2.726  -0.263   5.636  1.00  0.00     0.242 C 
ATOM     13  N   UNL     1      -1.731   0.044   4.750  1.00  0.00    -0.267 N 
ATOM     14  H   UNL     1      -0.816  -0.222   5.000  1.00  0.00     0.191 HD
ATOM     15  O   UNL     1      -2.417  -0.979   6.591  1.00  0.00    -0.273 OA
BRANCH  13  16
ATOM     16  N   UNL     1      -1.885   0.693   3.534  1.00  0.00    -0.265 N 
ATOM     17  C   UNL     1      -0.827   1.240   2.843  1.00  0.00     0.276 C 
ATOM     18  O   UNL     1      -0.989   1.698   1.711  1.00  0.00    -0.269 OA
ATOM     19  H   UNL     1      -2.788   0.765   3.148  1.00  0.00     0.191 HD
BRANCH  17  20
ATOM     20  C   UNL     1       0.565   1.206   3.491  1.00  0.00     0.331 C 
BRANCH  20  21
ATOM     21  O   UNL     1       0.669   1.802   4.776  1.00  0.00    -0.484 OA
BRANCH  21  22
ATOM     22  C   UNL     1       0.665   3.169   4.843  1.00  0.00     0.120 A 
ATOM     23  C   UNL     1       0.655   7.438   5.495  1.00  0.00     0.044 C 
ATOM     24  C   UNL     1       0.662   5.956   5.266  1.00  0.00    -0.051 A 
ATOM     25  C   UNL     1       0.798   5.076   6.344  1.00  0.00     0.007 A 
ATOM     26  C   UNL     1       0.539   5.430   3.978  1.00  0.00     0.007 A 
ATOM     27  C   UNL     1       0.796   3.693   6.132  1.00  0.00     0.047 A 
ATOM     28  C   UNL     1       0.541   4.046   3.767  1.00  0.00     0.047 A 
ENDBRANCH  21  22
ENDBRANCH  20  21
ENDBRANCH  17  20
ENDBRANCH  13  16
ENDBRANCH   7  12
ENDBRANCH   3   6
ENDBRANCH   1   2
BRANCH   1  29
ATOM     29  C   UNL     1      -6.093   5.174   6.073  1.00  0.00     0.042 C 
BRANCH  29  30
ATOM     30  C   UNL     1      -7.067   6.336   6.015  1.00  0.00     0.118 C 
BRANCH  30  31
ATOM     31  N   UNL     1      -7.483   6.854   7.312  1.00  0.00    -0.352 N 
ATOM     32  C   UNL     1      -8.305   7.952   7.548  1.00  0.00     0.251 C 
ATOM     33  H   UNL     1      -7.146   6.378   8.105  1.00  0.00     0.163 HD
ATOM     34  O   UNL     1      -8.417   8.474   8.636  1.00  0.00    -0.269 OA
BRANCH  32  35
ATOM     35  C   UNL     1      -9.144   8.379   6.406  1.00  0.00     0.039 A 
ATOM     36  C   UNL     1     -10.495   8.014   6.455  1.00  0.00     0.014 A 
ATOM     37  C   UNL     1      -8.526   8.719   5.208  1.00  0.00     0.014 A 
ATOM     38  C   UNL     1     -11.178   7.782   5.266  1.00  0.00     0.010 A 
ATOM     39  C   UNL     1      -9.165   8.366   4.039  1.00  0.00     0.010 A 
ATOM     40  C   UNL     1     -10.474   7.856   4.067  1.00  0.00    -0.014 A 
BRANCH  40  41
ATOM     41  C   UNL     1     -10.992   7.398   2.784  1.00  0.00     0.031 A 
ATOM     42  C   UNL     1     -11.272   8.408   1.735  1.00  0.00     0.074 A 
ATOM     43  C   UNL     1     -11.142   6.083   2.504  1.00  0.00     0.049 A 
ATOM     44  N   UNL     1     -11.960   8.184   0.668  1.00  0.00    -0.248 NA
ATOM     45  C   UNL     1     -10.815   9.794   1.833  1.00  0.00     0.031 C 
ATOM     46  C   UNL     1     -11.319   5.479   1.182  1.00  0.00     0.029 A 
ATOM     47  N   UNL     1     -11.296   4.997   3.345  1.00  0.00    -0.354 N 
ATOM     48  C   UNL     1     -11.785   9.256  -0.172  1.00  0.00     0.074 A 
ATOM     49  C   UNL     1     -11.102  10.254   0.615  1.00  0.00     0.031 C 
ATOM     50  C   UNL     1     -11.832   4.247   1.331  1.00  0.00     0.029 A 
ATOM     51  C   UNL     1     -12.158   4.081   2.734  1.00  0.00     0.049 A 
ATOM     52  H   UNL     1     -10.870   4.887   4.225  1.00  0.00     0.167 HD
ATOM     53  C   UNL     1     -12.134   9.145  -1.483  1.00  0.00     0.031 A 
ATOM     54  C   UNL     1     -13.420   3.828   3.205  1.00  0.00     0.031 A 
ATOM     55  C   UNL     1     -12.820   7.886  -1.765  1.00  0.00     0.049 A 
ATOM     56  C   UNL     1     -14.539   4.278   2.266  1.00  0.00     0.074 A 
ATOM     57  C   UNL     1     -12.475   6.688  -2.368  1.00  0.00     0.029 A 
ATOM     58  N   UNL     1     -14.011   7.644  -1.100  1.00  0.00    -0.354 N 
ATOM     59  N   UNL     1     -14.355   4.811   1.087  1.00  0.00    -0.248 NA
ATOM     60  C   UNL     1     -15.960   4.237   2.627  1.00  0.00     0.031 C 
ATOM     61  C   UNL     1     -13.472   5.719  -2.034  1.00  0.00     0.029 A 
ATOM     62  C   UNL     1     -14.429   6.336  -1.251  1.00  0.00     0.049 A 
ATOM     63  H   UNL     1     -14.502   8.322  -0.583  1.00  0.00     0.167 HD
ATOM     64  C   UNL     1     -15.553   5.236   0.575  1.00  0.00     0.074 A 
ATOM     65  C   UNL     1     -16.534   4.834   1.567  1.00  0.00     0.031 C 
ATOM     66  C   UNL     1     -15.663   5.934  -0.595  1.00  0.00     0.031 A 
BRANCH  53  67
ATOM     67  C   UNL     1     -11.634  10.113  -2.523  1.00  0.00    -0.014 A 
ATOM     68  C   UNL     1     -11.323   9.650  -3.815  1.00  0.00     0.010 A 
ATOM     69  C   UNL     1     -11.389  11.477  -2.268  1.00  0.00     0.010 A 
ATOM     70  C   UNL     1     -10.706  10.476  -4.766  1.00  0.00     0.020 A 
ATOM     71  C   UNL     1     -10.727  12.300  -3.189  1.00  0.00     0.020 A 
ATOM     72  C   UNL     1     -10.382  11.791  -4.435  1.00  0.00     0.054 A 
BRANCH  72  73
ATOM     73  S   UNL     1      -9.498  12.815  -5.640  1.00  0.00     0.124 S 
ATOM     74  O   UNL     1      -8.358  11.974  -5.997  1.00  0.00    -0.237 OA
ATOM     75  O   UNL     1     -10.499  12.999  -6.685  1.00  0.00    -0.237 OA
ATOM     76  O   UNL     1      -9.157  14.021  -4.885  1.00  0.00    -0.744 OA
ENDBRANCH  72  73
ENDBRANCH  53  67
BRANCH  54  77
ATOM     77  C   UNL     1     -13.488   3.797   4.696  1.00  0.00    -0.014 A 
ATOM     78  C   UNL     1     -12.798   2.745   5.339  1.00  0.00     0.010 A 
ATOM     79  C   UNL     1     -13.779   4.963   5.423  1.00  0.00     0.010 A 
ATOM     80  C   UNL     1     -12.209   2.945   6.589  1.00  0.00     0.020 A 
ATOM     81  C   UNL     1     -13.204   5.157   6.688  1.00  0.00     0.020 A 
ATOM     82  C   UNL     1     -12.352   4.182   7.216  1.00  0.00     0.054 A 
BRANCH  82  83
ATOM     83  S   UNL     1     -11.230   4.570   8.594  1.00  0.00     0.124 S 
ATOM     84  O   UNL     1     -11.492   3.481   9.530  1.00  0.00    -0.237 OA
ATOM     85  O   UNL     1      -9.923   4.531   7.935  1.00  0.00    -0.237 OA
ATOM     86  O   UNL     1     -11.672   5.891   9.026  1.00  0.00    -0.744 OA
ENDBRANCH  82  83
ENDBRANCH  54  77
BRANCH  66  87
ATOM     87  C   UNL     1     -16.979   6.362  -1.196  1.00  0.00    -0.014 A 
ATOM     88  C   UNL     1     -18.111   5.531  -1.201  1.00  0.00     0.010 A 
ATOM     89  C   UNL     1     -17.076   7.587  -1.896  1.00  0.00     0.010 A 
ATOM     90  C   UNL     1     -19.307   5.940  -1.808  1.00  0.00     0.020 A 
ATOM     91  C   UNL     1     -18.256   7.996  -2.521  1.00  0.00     0.020 A 
ATOM     92  C   UNL     1     -19.376   7.177  -2.452  1.00  0.00     0.054 A 
BRANCH  92  93
ATOM     93  S   UNL     1     -20.924   7.685  -3.242  1.00  0.00     0.124 S 
ATOM     94  O   UNL     1     -21.359   6.462  -3.912  1.00  0.00    -0.237 OA
ATOM     95  O   UNL     1     -21.728   8.091  -2.092  1.00  0.00    -0.237 OA
ATOM     96  O   UNL     1     -20.521   8.768  -4.135  1.00  0.00    -0.744 OA
ENDBRANCH  92  93
ENDBRANCH  66  87
ENDBRANCH  40  41
ENDBRANCH  32  35
ENDBRANCH  30  31
ENDBRANCH  29  30
ENDBRANCH   1  29
TORSDOF 18
