REMARK SMILES O=C(NCCCNC(=O)c1ccc2c(c1)[C@@H]1C=CC[C@@H]1[C@H](c1ccncc1)N2)c1ccc(-c2c3nc(c(-c4ccc(S(=O)(=O)[O-])cc4)c4ccc([nH]4)c(-c4ccc(S(=O)(=O)[O-])cc4)c4nc(c(-c5ccc(S(=O)(=O)[O-])cc5)c5ccc2[nH]5)C=C4)C=C3)cc1
REMARK SMILES IDX 4 1 3 2 1 3 2 4 29 6 30 7 88 8 31 9 87 10 32 11 33 12 34 13
REMARK SMILES IDX 81 14 35 15 86 16 80 17 82 18 36 19 85 20 79 21 78 22 37 24
REMARK SMILES IDX 67 25 48 26 66 27 49 28 52 29 65 30 83 31 50 32 51 33 64 35
REMARK SMILES IDX 84 36 53 37 38 38 39 39 47 40 40 41 46 42 41 43 42 44 43 45
REMARK SMILES IDX 44 46 45 47 68 48 69 49 77 50 70 51 76 52 71 53 72 54 73 55
REMARK SMILES IDX 74 56 75 57 54 58 55 59 63 60 56 61 62 62 57 63 58 64 59 65
REMARK SMILES IDX 60 66 61 67 5 68 6 69 7 70 8 71 9 73 10 74 11 75 15 76 12 77
REMARK SMILES IDX 14 78 13 79 16 80 28 81 17 82 20 83 21 84 18 86 19 87 22 88
REMARK SMILES IDX 23 89 27 90 24 91 26 92 25 93
REMARK H PARENT 3 5 82 23 52 34 7 72 28 85
REMARK Flexibility Score: inf
ROOT
ATOM      1  C   UNL     1       4.580   0.942  -1.084  1.00  0.00     0.118 C 
ENDROOT
BRANCH   1   2
ATOM      2  N   UNL     1       3.161   0.827  -0.762  1.00  0.00    -0.352 N 
ATOM      3  O   UNL     1       1.273  -0.073   0.065  1.00  0.00    -0.269 OA
ATOM      4  C   UNL     1       2.502  -0.028   0.089  1.00  0.00     0.251 C 
ATOM      5  H   UNL     1       2.580   1.468  -1.232  1.00  0.00     0.163 HD
BRANCH   4   6
ATOM      6  C   UNL     1       3.258  -0.902   1.012  1.00  0.00     0.039 A 
ATOM      7  C   UNL     1       4.399  -0.432   1.658  1.00  0.00     0.014 A 
ATOM      8  C   UNL     1       2.810  -2.205   1.257  1.00  0.00     0.014 A 
ATOM      9  C   UNL     1       5.194  -1.309   2.382  1.00  0.00     0.010 A 
ATOM     10  C   UNL     1       3.548  -3.053   2.093  1.00  0.00     0.010 A 
ATOM     11  C   UNL     1       4.768  -2.624   2.633  1.00  0.00    -0.014 A 
BRANCH  11  12
ATOM     12  C   UNL     1       5.600  -3.473   3.525  1.00  0.00     0.031 A 
ATOM     13  C   UNL     1       6.256  -4.733   3.031  1.00  0.00     0.074 A 
ATOM     14  C   UNL     1       5.831  -3.036   4.780  1.00  0.00     0.049 A 
ATOM     15  N   UNL     1       7.100  -5.515   3.659  1.00  0.00    -0.248 NA
ATOM     16  C   UNL     1       5.924  -5.184   1.671  1.00  0.00     0.031 C 
ATOM     17  C   UNL     1       5.229  -1.839   5.379  1.00  0.00     0.029 A 
ATOM     18  N   UNL     1       6.665  -3.508   5.760  1.00  0.00    -0.354 N 
ATOM     19  C   UNL     1       7.390  -6.551   2.779  1.00  0.00     0.074 A 
ATOM     20  C   UNL     1       6.610  -6.316   1.583  1.00  0.00     0.031 C 
ATOM     21  C   UNL     1       5.774  -1.626   6.584  1.00  0.00     0.029 A 
ATOM     22  C   UNL     1       6.709  -2.705   6.875  1.00  0.00     0.049 A 
ATOM     23  H   UNL     1       7.182  -4.342   5.673  1.00  0.00     0.167 HD
ATOM     24  C   UNL     1       8.234  -7.598   2.951  1.00  0.00     0.031 A 
ATOM     25  C   UNL     1       7.417  -2.821   8.014  1.00  0.00     0.031 A 
ATOM     26  C   UNL     1       9.008  -7.827   4.145  1.00  0.00     0.049 A 
ATOM     27  C   UNL     1       8.351  -3.982   8.171  1.00  0.00     0.074 A 
ATOM     28  C   UNL     1       9.891  -8.860   4.414  1.00  0.00     0.029 A 
ATOM     29  N   UNL     1       8.998  -7.011   5.266  1.00  0.00    -0.354 N 
ATOM     30  N   UNL     1       8.614  -4.945   7.320  1.00  0.00    -0.248 NA
ATOM     31  C   UNL     1       9.082  -4.075   9.440  1.00  0.00     0.031 C 
ATOM     32  C   UNL     1      10.386  -8.688   5.712  1.00  0.00     0.029 A 
ATOM     33  C   UNL     1       9.849  -7.522   6.233  1.00  0.00     0.049 A 
ATOM     34  H   UNL     1       8.464  -6.189   5.361  1.00  0.00     0.167 HD
ATOM     35  C   UNL     1       9.540  -5.762   7.954  1.00  0.00     0.074 A 
ATOM     36  C   UNL     1       9.821  -5.157   9.241  1.00  0.00     0.031 C 
ATOM     37  C   UNL     1      10.099  -6.917   7.516  1.00  0.00     0.031 A 
BRANCH  24  38
ATOM     38  C   UNL     1       8.360  -8.589   1.823  1.00  0.00    -0.014 A 
ATOM     39  C   UNL     1       9.064  -8.264   0.650  1.00  0.00     0.010 A 
ATOM     40  C   UNL     1       7.824  -9.882   1.963  1.00  0.00     0.010 A 
ATOM     41  C   UNL     1       9.207  -9.205  -0.374  1.00  0.00     0.020 A 
ATOM     42  C   UNL     1       7.984 -10.834   0.951  1.00  0.00     0.020 A 
ATOM     43  C   UNL     1       8.665 -10.485  -0.218  1.00  0.00     0.054 A 
BRANCH  43  44
ATOM     44  S   UNL     1       8.897 -11.698  -1.547  1.00  0.00     0.124 S 
ATOM     45  O   UNL     1       7.968 -11.211  -2.564  1.00  0.00    -0.237 OA
ATOM     46  O   UNL     1      10.314 -11.552  -1.871  1.00  0.00    -0.237 OA
ATOM     47  O   UNL     1       8.531 -12.968  -0.926  1.00  0.00    -0.744 OA
ENDBRANCH  43  44
ENDBRANCH  24  38
BRANCH  25  48
ATOM     48  C   UNL     1       7.239  -1.817   9.097  1.00  0.00    -0.014 A 
ATOM     49  C   UNL     1       8.264  -0.913   9.422  1.00  0.00     0.010 A 
ATOM     50  C   UNL     1       6.019  -1.750   9.795  1.00  0.00     0.010 A 
ATOM     51  C   UNL     1       8.078   0.029  10.439  1.00  0.00     0.020 A 
ATOM     52  C   UNL     1       5.818  -0.792  10.790  1.00  0.00     0.020 A 
ATOM     53  C   UNL     1       6.856   0.082  11.117  1.00  0.00     0.054 A 
BRANCH  53  54
ATOM     54  S   UNL     1       6.610   1.342  12.399  1.00  0.00     0.124 S 
ATOM     55  O   UNL     1       7.310   0.754  13.536  1.00  0.00    -0.237 OA
ATOM     56  O   UNL     1       7.237   2.523  11.811  1.00  0.00    -0.237 OA
ATOM     57  O   UNL     1       5.156   1.417  12.525  1.00  0.00    -0.744 OA
ENDBRANCH  53  54
ENDBRANCH  25  48
BRANCH  37  58
ATOM     58  C   UNL     1      11.069  -7.592   8.446  1.00  0.00    -0.014 A 
ATOM     59  C   UNL     1      10.619  -8.248   9.606  1.00  0.00     0.010 A 
ATOM     60  C   UNL     1      12.444  -7.571   8.156  1.00  0.00     0.010 A 
ATOM     61  C   UNL     1      11.534  -8.828  10.487  1.00  0.00     0.020 A 
ATOM     62  C   UNL     1      13.360  -8.173   9.022  1.00  0.00     0.020 A 
ATOM     63  C   UNL     1      12.900  -8.779  10.194  1.00  0.00     0.054 A 
BRANCH  63  64
ATOM     64  S   UNL     1      14.071  -9.544  11.348  1.00  0.00     0.124 S 
ATOM     65  O   UNL     1      14.132  -8.551  12.418  1.00  0.00    -0.237 OA
ATOM     66  O   UNL     1      13.411 -10.800  11.695  1.00  0.00    -0.237 OA
ATOM     67  O   UNL     1      15.291  -9.686  10.558  1.00  0.00    -0.744 OA
ENDBRANCH  63  64
ENDBRANCH  37  58
ENDBRANCH  11  12
ENDBRANCH   4   6
ENDBRANCH   1   2
BRANCH   1  68
ATOM     68  C   UNL     1       4.897   0.512  -2.507  1.00  0.00     0.042 C 
BRANCH  68  69
ATOM     69  C   UNL     1       4.266   1.407  -3.561  1.00  0.00     0.118 C 
BRANCH  69  70
ATOM     70  N   UNL     1       4.790   2.768  -3.523  1.00  0.00    -0.352 N 
ATOM     71  C   UNL     1       5.753   3.370  -4.296  1.00  0.00     0.251 C 
ATOM     72  H   UNL     1       4.389   3.347  -2.835  1.00  0.00     0.163 HD
ATOM     73  O   UNL     1       6.205   4.465  -3.975  1.00  0.00    -0.269 OA
BRANCH  71  74
ATOM     74  C   UNL     1       6.253   2.702  -5.515  1.00  0.00     0.040 A 
ATOM     75  C   UNL     1       7.624   2.650  -5.757  1.00  0.00     0.016 A 
ATOM     76  C   UNL     1       5.366   2.126  -6.421  1.00  0.00     0.020 A 
ATOM     77  C   UNL     1       8.098   1.981  -6.889  1.00  0.00     0.027 A 
ATOM     78  C   UNL     1       5.843   1.361  -7.494  1.00  0.00    -0.017 A 
ATOM     79  C   UNL     1       7.217   1.348  -7.778  1.00  0.00     0.038 A 
ATOM     80  C   UNL     1       4.868   0.530  -8.296  1.00  0.00     0.049 C 
ATOM     81  N   UNL     1       7.724   0.651  -8.868  1.00  0.00    -0.378 N 
ATOM     82  C   UNL     1       4.124  -0.469  -7.439  1.00  0.00    -0.023 C 
ATOM     83  C   UNL     1       5.546  -0.416  -9.301  1.00  0.00     0.031 C 
ATOM     84  C   UNL     1       6.805   0.206  -9.907  1.00  0.00     0.114 C 
ATOM     85  H   UNL     1       8.687   0.460  -8.936  1.00  0.00     0.161 HD
ATOM     86  C   UNL     1       4.611  -1.709  -7.573  1.00  0.00    -0.030 C 
ATOM     87  C   UNL     1       5.743  -1.745  -8.550  1.00  0.00     0.034 C 
BRANCH  84  88
ATOM     88  C   UNL     1       7.468  -0.709 -10.926  1.00  0.00    -0.022 A 
ATOM     89  C   UNL     1       6.781  -1.024 -12.108  1.00  0.00     0.026 A 
ATOM     90  C   UNL     1       8.739  -1.268 -10.751  1.00  0.00     0.026 A 
ATOM     91  C   UNL     1       7.382  -1.851 -13.043  1.00  0.00     0.111 A 
ATOM     92  C   UNL     1       9.265  -2.071 -11.753  1.00  0.00     0.111 A 
ATOM     93  N   UNL     1       8.617  -2.370 -12.898  1.00  0.00    -0.265 NA
ENDBRANCH  84  88
ENDBRANCH  71  74
ENDBRANCH  69  70
ENDBRANCH  68  69
ENDBRANCH   1  68
TORSDOF 14
