REMARK SMILES C[C@@H](C(=O)NCCCNC(=O)c1ccc(-c2c3nc(c(-c4ccc(S(=O)(=O)[O-])cc4)c4ccc([nH]4)c(-c4ccc(S(=O)(=O)[O-])cc4)c4nc(c(-c5ccc(S(=O)(=O)[O-])cc5)c5ccc2[nH]5)C=C4)C=C3)cc1)c1ccc(-c2cccc(OC(=O)Nc3ccccc3)c2)c(F)c1
REMARK SMILES IDX 6 1 5 2 3 3 4 4 2 6 1 7 72 8 73 9 94 10 74 11 92 12 75 13
REMARK SMILES IDX 93 14 76 15 77 16 91 17 78 18 80 19 79 20 81 21 82 22 83 23
REMARK SMILES IDX 84 24 85 26 86 27 90 28 87 29 89 30 88 31 7 32 8 33 9 34
REMARK SMILES IDX 10 35 11 37 12 38 13 39 71 40 14 41 70 42 15 43 16 44 17 45
REMARK SMILES IDX 64 46 18 47 69 48 63 49 65 50 19 51 68 52 62 53 61 54 20 56
REMARK SMILES IDX 50 57 31 58 49 59 32 60 35 61 48 62 66 63 33 64 34 65 47 67
REMARK SMILES IDX 67 68 36 69 21 70 22 71 30 72 23 73 29 74 24 75 25 76 26 77
REMARK SMILES IDX 27 78 28 79 51 80 52 81 60 82 53 83 59 84 54 85 55 86 56 87
REMARK SMILES IDX 57 88 58 89 37 90 38 91 46 92 39 93 45 94 40 95 41 96 42 97
REMARK SMILES IDX 43 98 44 99
REMARK H PARENT 5 5 84 25 9 36 65 55 35 66
REMARK Flexibility Score: inf
ROOT
ATOM      1  C   UNL     1       3.438   2.067  -0.127  1.00  0.00     0.117 C 
ENDROOT
BRANCH   1   2
ATOM      2  N   UNL     1       2.350   2.442  -1.011  1.00  0.00    -0.356 N 
ATOM      3  C   UNL     1       1.050   2.029  -1.051  1.00  0.00     0.227 C 
ATOM      4  O   UNL     1       0.380   2.420  -2.010  1.00  0.00    -0.274 OA
ATOM      5  H   UNL     1       2.591   3.104  -1.699  1.00  0.00     0.163 HD
BRANCH   3   6
ATOM      6  C   UNL     1       0.467   1.171   0.087  1.00  0.00     0.105 C 
ATOM      7  C   UNL     1       1.024  -0.257   0.024  1.00  0.00     0.023 C 
BRANCH   6   8
ATOM      8  C   UNL     1      -1.065   1.221   0.115  1.00  0.00    -0.033 A 
ATOM      9  C   UNL     1      -1.720   2.457   0.271  1.00  0.00     0.005 A 
ATOM     10  C   UNL     1      -1.860   0.073   0.006  1.00  0.00     0.044 A 
ATOM     11  C   UNL     1      -3.120   2.539   0.323  1.00  0.00     0.012 A 
ATOM     12  C   UNL     1      -3.247   0.160   0.073  1.00  0.00     0.131 A 
ATOM     13  C   UNL     1      -3.906   1.383   0.243  1.00  0.00     0.018 A 
ATOM     14  F   UNL     1      -3.952  -0.981  -0.011  1.00  0.00    -0.206 F 
BRANCH  13  15
ATOM     15  C   UNL     1      -5.362   1.425   0.412  1.00  0.00    -0.012 A 
ATOM     16  C   UNL     1      -6.200   2.125  -0.467  1.00  0.00     0.009 A 
ATOM     17  C   UNL     1      -5.944   0.728   1.485  1.00  0.00     0.056 A 
ATOM     18  C   UNL     1      -7.587   2.115  -0.286  1.00  0.00     0.004 A 
ATOM     19  C   UNL     1      -7.320   0.733   1.676  1.00  0.00     0.133 A 
ATOM     20  C   UNL     1      -8.148   1.418   0.786  1.00  0.00     0.047 A 
BRANCH  19  21
ATOM     21  O   UNL     1      -7.976   0.078   2.746  1.00  0.00    -0.410 OA
BRANCH  21  22
ATOM     22  C   UNL     1      -7.357  -0.472   3.869  1.00  0.00     0.417 C 
ATOM     23  O   UNL     1      -6.147  -0.545   4.064  1.00  0.00    -0.224 OA
ATOM     24  N   UNL     1      -8.211  -0.854   4.871  1.00  0.00    -0.291 N 
ATOM     25  H   UNL     1      -7.768  -1.117   5.709  1.00  0.00     0.173 HD
BRANCH  24  26
ATOM     26  C   UNL     1      -9.610  -0.932   4.901  1.00  0.00     0.044 A 
ATOM     27  C   UNL     1     -10.215  -0.920   6.163  1.00  0.00     0.026 A 
ATOM     28  C   UNL     1     -10.410  -1.050   3.764  1.00  0.00     0.026 A 
ATOM     29  C   UNL     1     -11.604  -0.974   6.285  1.00  0.00     0.002 A 
ATOM     30  C   UNL     1     -11.800  -1.124   3.888  1.00  0.00     0.002 A 
ATOM     31  C   UNL     1     -12.397  -1.074   5.146  1.00  0.00     0.000 A 
ENDBRANCH  24  26
ENDBRANCH  21  22
ENDBRANCH  19  21
ENDBRANCH  13  15
ENDBRANCH   6   8
ENDBRANCH   3   6
ENDBRANCH   1   2
BRANCH   1  32
ATOM     32  C   UNL     1       4.375   1.053  -0.784  1.00  0.00     0.042 C 
BRANCH  32  33
ATOM     33  C   UNL     1       5.080   1.566  -2.037  1.00  0.00     0.118 C 
BRANCH  33  34
ATOM     34  N   UNL     1       6.038   2.622  -1.749  1.00  0.00    -0.352 N 
ATOM     35  C   UNL     1       7.399   2.652  -1.933  1.00  0.00     0.251 C 
ATOM     36  H   UNL     1       5.652   3.441  -1.362  1.00  0.00     0.163 HD
ATOM     37  O   UNL     1       8.053   3.573  -1.450  1.00  0.00    -0.269 OA
BRANCH  35  38
ATOM     38  C   UNL     1       8.084   1.573  -2.681  1.00  0.00     0.039 A 
ATOM     39  C   UNL     1       9.260   1.032  -2.153  1.00  0.00     0.014 A 
ATOM     40  C   UNL     1       7.584   1.101  -3.898  1.00  0.00     0.014 A 
ATOM     41  C   UNL     1       9.886  -0.037  -2.800  1.00  0.00     0.010 A 
ATOM     42  C   UNL     1       8.176  -0.004  -4.511  1.00  0.00     0.010 A 
ATOM     43  C   UNL     1       9.323  -0.595  -3.959  1.00  0.00    -0.014 A 
BRANCH  43  44
ATOM     44  C   UNL     1       9.877  -1.834  -4.564  1.00  0.00     0.031 A 
ATOM     45  C   UNL     1      10.477  -1.817  -5.944  1.00  0.00     0.074 A 
ATOM     46  C   UNL     1       9.758  -3.000  -3.896  1.00  0.00     0.049 A 
ATOM     47  N   UNL     1      10.927  -2.818  -6.655  1.00  0.00    -0.248 NA
ATOM     48  C   UNL     1      10.569  -0.512  -6.619  1.00  0.00     0.031 C 
ATOM     49  C   UNL     1       9.154  -3.158  -2.569  1.00  0.00     0.029 A 
ATOM     50  N   UNL     1      10.119  -4.277  -4.246  1.00  0.00    -0.354 N 
ATOM     51  C   UNL     1      11.337  -2.272  -7.866  1.00  0.00     0.074 A 
ATOM     52  C   UNL     1      11.060  -0.853  -7.803  1.00  0.00     0.031 C 
ATOM     53  C   UNL     1       9.194  -4.453  -2.217  1.00  0.00     0.029 A 
ATOM     54  C   UNL     1       9.785  -5.224  -3.306  1.00  0.00     0.049 A 
ATOM     55  H   UNL     1      10.575  -4.495  -5.091  1.00  0.00     0.167 HD
ATOM     56  C   UNL     1      11.901  -2.896  -8.927  1.00  0.00     0.031 A 
ATOM     57  C   UNL     1       9.914  -6.565  -3.323  1.00  0.00     0.031 A 
ATOM     58  C   UNL     1      12.197  -4.304  -8.979  1.00  0.00     0.049 A 
ATOM     59  C   UNL     1      10.526  -7.231  -4.525  1.00  0.00     0.074 A 
ATOM     60  C   UNL     1      12.852  -5.006  -9.977  1.00  0.00     0.029 A 
ATOM     61  N   UNL     1      11.849  -5.225  -8.005  1.00  0.00    -0.354 N 
ATOM     62  N   UNL     1      10.993  -6.681  -5.620  1.00  0.00    -0.248 NA
ATOM     63  C   UNL     1      10.627  -8.697  -4.493  1.00  0.00     0.031 C 
ATOM     64  C   UNL     1      12.851  -6.361  -9.632  1.00  0.00     0.029 A 
ATOM     65  C   UNL     1      12.238  -6.495  -8.396  1.00  0.00     0.049 A 
ATOM     66  H   UNL     1      11.392  -5.010  -7.160  1.00  0.00     0.167 HD
ATOM     67  C   UNL     1      11.455  -7.734  -6.401  1.00  0.00     0.074 A 
ATOM     68  C   UNL     1      11.235  -8.949  -5.645  1.00  0.00     0.031 C 
ATOM     69  C   UNL     1      12.008  -7.697  -7.638  1.00  0.00     0.031 A 
BRANCH  56  70
ATOM     70  C   UNL     1      12.244  -2.069 -10.137  1.00  0.00    -0.014 A 
ATOM     71  C   UNL     1      13.355  -1.208 -10.134  1.00  0.00     0.010 A 
ATOM     72  C   UNL     1      11.508  -2.236 -11.325  1.00  0.00     0.010 A 
ATOM     73  C   UNL     1      13.717  -0.519 -11.294  1.00  0.00     0.020 A 
ATOM     74  C   UNL     1      11.878  -1.563 -12.492  1.00  0.00     0.020 A 
ATOM     75  C   UNL     1      12.978  -0.703 -12.468  1.00  0.00     0.054 A 
BRANCH  75  76
ATOM     76  S   UNL     1      13.512   0.153 -13.976  1.00  0.00     0.124 S 
ATOM     77  O   UNL     1      13.121   1.532 -13.694  1.00  0.00    -0.237 OA
ATOM     78  O   UNL     1      14.951  -0.099 -13.994  1.00  0.00    -0.237 OA
ATOM     79  O   UNL     1      12.754  -0.505 -15.036  1.00  0.00    -0.744 OA
ENDBRANCH  75  76
ENDBRANCH  56  70
BRANCH  57  80
ATOM     80  C   UNL     1       9.427  -7.380  -2.177  1.00  0.00    -0.014 A 
ATOM     81  C   UNL     1      10.334  -8.040  -1.330  1.00  0.00     0.010 A 
ATOM     82  C   UNL     1       8.046  -7.520  -1.944  1.00  0.00     0.010 A 
ATOM     83  C   UNL     1       9.869  -8.850  -0.290  1.00  0.00     0.020 A 
ATOM     84  C   UNL     1       7.579  -8.307  -0.889  1.00  0.00     0.020 A 
ATOM     85  C   UNL     1       8.494  -8.982  -0.079  1.00  0.00     0.054 A 
BRANCH  85  86
ATOM     86  S   UNL     1       7.909 -10.020   1.289  1.00  0.00     0.124 S 
ATOM     87  O   UNL     1       8.072 -11.362   0.741  1.00  0.00    -0.237 OA
ATOM     88  O   UNL     1       8.821  -9.662   2.373  1.00  0.00    -0.237 OA
ATOM     89  O   UNL     1       6.528  -9.582   1.480  1.00  0.00    -0.744 OA
ENDBRANCH  85  86
ENDBRANCH  57  80
BRANCH  69  90
ATOM     90  C   UNL     1      12.421  -9.007  -8.250  1.00  0.00    -0.014 A 
ATOM     91  C   UNL     1      11.460  -9.904  -8.748  1.00  0.00     0.010 A 
ATOM     92  C   UNL     1      13.786  -9.320  -8.378  1.00  0.00     0.010 A 
ATOM     93  C   UNL     1      11.857 -11.104  -9.344  1.00  0.00     0.020 A 
ATOM     94  C   UNL     1      14.188 -10.507  -8.996  1.00  0.00     0.020 A 
ATOM     95  C   UNL     1      13.219 -11.398  -9.464  1.00  0.00     0.054 A 
BRANCH  95  96
ATOM     96  S   UNL     1      13.710 -12.937 -10.289  1.00  0.00     0.124 S 
ATOM     97  O   UNL     1      13.412 -13.937  -9.268  1.00  0.00    -0.237 OA
ATOM     98  O   UNL     1      12.844 -12.963 -11.466  1.00  0.00    -0.237 OA
ATOM     99  O   UNL     1      15.130 -12.739 -10.573  1.00  0.00    -0.744 OA
ENDBRANCH  95  96
ENDBRANCH  69  90
ENDBRANCH  43  44
ENDBRANCH  35  38
ENDBRANCH  33  34
ENDBRANCH  32  33
ENDBRANCH   1  32
TORSDOF 18
