REMARK SMILES O=C(C[C@H]1C[C@H]2CC[C@@H](C1)N2C(=O)[C@H]1CCCCO1)NCCCNC(=O)c1ccc(-c2c3nc(c(-c4ccc(S(=O)(=O)[O-])cc4)c4ccc([nH]4)c(-c4ccc(S(=O)(=O)[O-])cc4)c4nc(c(-c5ccc(S(=O)(=O)[O-])cc5)c5ccc2[nH]5)C=C4)C=C3)cc1
REMARK SMILES IDX 22 1 21 2 20 3 1 4 2 5 3 7 4 8 5 9 10 10 6 11 9 12 7 13
REMARK SMILES IDX 11 14 8 15 12 16 13 17 14 18 15 19 19 20 16 21 18 22 17 23
REMARK SMILES IDX 23 24 24 25 25 26 26 28 27 29 28 30 86 31 29 32 85 33 30 34
REMARK SMILES IDX 31 35 32 36 79 37 33 38 84 39 78 40 80 41 34 42 83 43 77 44
REMARK SMILES IDX 76 45 35 47 65 48 46 49 64 50 47 51 50 52 63 53 81 54 48 55
REMARK SMILES IDX 49 56 62 58 82 59 51 60 36 61 37 62 45 63 38 64 44 65 39 66
REMARK SMILES IDX 40 67 41 68 42 69 43 70 66 71 67 72 75 73 68 74 74 75 69 76
REMARK SMILES IDX 70 77 71 78 72 79 73 80 52 81 53 82 61 83 54 84 60 85 55 86
REMARK SMILES IDX 56 87 57 88 58 89 59 90
REMARK H PARENT 20 6 24 27 80 46 50 57
REMARK Flexibility Score: inf
ROOT
ATOM      1  C   UNL     1       4.616   7.600   3.267  1.00  0.00     0.042 C 
ENDROOT
BRANCH   1   2
ATOM      2  C   UNL     1       4.423   6.963   4.631  1.00  0.00     0.117 C 
BRANCH   2   3
ATOM      3  N   UNL     1       5.652   6.756   5.376  1.00  0.00    -0.356 N 
ATOM      4  O   UNL     1       4.736   6.977   7.476  1.00  0.00    -0.275 OA
ATOM      5  C   UNL     1       5.652   6.611   6.749  1.00  0.00     0.220 C 
ATOM      6  H   UNL     1       6.507   6.718   4.890  1.00  0.00     0.163 HD
BRANCH   5   7
ATOM      7  C   UNL     1       6.856   5.861   7.287  1.00  0.00     0.103 C 
BRANCH   7   8
ATOM      8  C   UNL     1       6.808   4.313   7.188  1.00  0.00     0.002 C 
ATOM      9  C   UNL     1       6.358   3.575   8.483  1.00  0.00     0.029 C 
ATOM     10  C   UNL     1       6.149   3.732   5.917  1.00  0.00     0.029 C 
ATOM     11  C   UNL     1       4.987   2.873   8.407  1.00  0.00     0.085 C 
ATOM     12  C   UNL     1       4.753   3.115   6.114  1.00  0.00     0.085 C 
ATOM     13  C   UNL     1       3.866   3.901   8.247  1.00  0.00     0.027 C 
ATOM     14  N   UNL     1       4.891   2.126   7.161  1.00  0.00    -0.334 N 
ATOM     15  C   UNL     1       3.671   4.006   6.728  1.00  0.00     0.027 C 
BRANCH  14  16
ATOM     16  C   UNL     1       4.676   0.762   7.091  1.00  0.00     0.252 C 
ATOM     17  O   UNL     1       4.697   0.067   8.109  1.00  0.00    -0.272 OA
BRANCH  16  18
ATOM     18  C   UNL     1       4.393   0.158   5.684  1.00  0.00     0.207 C 
ATOM     19  C   UNL     1       5.686   0.116   4.860  1.00  0.00     0.042 C 
ATOM     20  O   UNL     1       3.837  -1.159   5.775  1.00  0.00    -0.368 OA
ATOM     21  C   UNL     1       5.468  -0.536   3.499  1.00  0.00     0.006 C 
ATOM     22  C   UNL     1       3.506  -1.704   4.500  1.00  0.00     0.161 C 
ATOM     23  C   UNL     1       4.761  -1.873   3.656  1.00  0.00     0.029 C 
ENDBRANCH  16  18
ENDBRANCH  14  16
ENDBRANCH   7   8
ENDBRANCH   5   7
ENDBRANCH   2   3
ENDBRANCH   1   2
BRANCH   1  24
ATOM     24  C   UNL     1       5.505   6.820   2.303  1.00  0.00     0.118 C 
BRANCH  24  25
ATOM     25  N   UNL     1       4.966   5.534   1.873  1.00  0.00    -0.352 N 
ATOM     26  C   UNL     1       4.750   5.055   0.595  1.00  0.00     0.251 C 
ATOM     27  H   UNL     1       4.719   4.918   2.600  1.00  0.00     0.163 HD
ATOM     28  O   UNL     1       4.245   3.953   0.431  1.00  0.00    -0.269 OA
BRANCH  26  29
ATOM     29  C   UNL     1       5.083   5.908  -0.570  1.00  0.00     0.039 A 
ATOM     30  C   UNL     1       4.105   6.138  -1.542  1.00  0.00     0.014 A 
ATOM     31  C   UNL     1       6.318   6.552  -0.653  1.00  0.00     0.014 A 
ATOM     32  C   UNL     1       4.318   7.117  -2.517  1.00  0.00     0.010 A 
ATOM     33  C   UNL     1       6.491   7.588  -1.566  1.00  0.00     0.010 A 
ATOM     34  C   UNL     1       5.482   7.902  -2.490  1.00  0.00    -0.014 A 
BRANCH  34  35
ATOM     35  C   UNL     1       5.647   9.093  -3.367  1.00  0.00     0.031 A 
ATOM     36  C   UNL     1       6.803   9.177  -4.326  1.00  0.00     0.074 A 
ATOM     37  C   UNL     1       4.822  10.151  -3.219  1.00  0.00     0.049 A 
ATOM     38  N   UNL     1       7.189  10.185  -5.065  1.00  0.00    -0.248 NA
ATOM     39  C   UNL     1       7.654   7.982  -4.445  1.00  0.00     0.031 C 
ATOM     40  C   UNL     1       3.693  10.229  -2.286  1.00  0.00     0.029 A 
ATOM     41  N   UNL     1       4.816  11.376  -3.841  1.00  0.00    -0.354 N 
ATOM     42  C   UNL     1       8.344   9.759  -5.710  1.00  0.00     0.074 A 
ATOM     43  C   UNL     1       8.617   8.416  -5.245  1.00  0.00     0.031 C 
ATOM     44  C   UNL     1       3.092  11.423  -2.417  1.00  0.00     0.029 A 
ATOM     45  C   UNL     1       3.815  12.214  -3.406  1.00  0.00     0.049 A 
ATOM     46  H   UNL     1       5.467  11.630  -4.535  1.00  0.00     0.167 HD
ATOM     47  C   UNL     1       9.102  10.418  -6.620  1.00  0.00     0.031 A 
ATOM     48  C   UNL     1       3.517  13.482  -3.751  1.00  0.00     0.031 A 
ATOM     49  C   UNL     1       8.817  11.740  -7.107  1.00  0.00     0.049 A 
ATOM     50  C   UNL     1       4.362  14.186  -4.775  1.00  0.00     0.074 A 
ATOM     51  C   UNL     1       9.487  12.461  -8.081  1.00  0.00     0.029 A 
ATOM     52  N   UNL     1       7.777  12.541  -6.662  1.00  0.00    -0.354 N 
ATOM     53  N   UNL     1       5.418  13.743  -5.414  1.00  0.00    -0.248 NA
ATOM     54  C   UNL     1       3.975  15.560  -5.125  1.00  0.00     0.031 C 
ATOM     55  C   UNL     1       8.873  13.713  -8.199  1.00  0.00     0.029 A 
ATOM     56  C   UNL     1       7.796  13.755  -7.328  1.00  0.00     0.049 A 
ATOM     57  H   UNL     1       7.121  12.284  -5.974  1.00  0.00     0.167 HD
ATOM     58  C   UNL     1       5.811  14.778  -6.255  1.00  0.00     0.074 A 
ATOM     59  C   UNL     1       4.871  15.863  -6.054  1.00  0.00     0.031 C 
ATOM     60  C   UNL     1       6.857  14.826  -7.114  1.00  0.00     0.031 A 
BRANCH  47  61
ATOM     61  C   UNL     1      10.318   9.706  -7.149  1.00  0.00    -0.014 A 
ATOM     62  C   UNL     1      10.192   8.617  -8.030  1.00  0.00     0.010 A 
ATOM     63  C   UNL     1      11.601  10.143  -6.776  1.00  0.00     0.010 A 
ATOM     64  C   UNL     1      11.328   7.946  -8.490  1.00  0.00     0.020 A 
ATOM     65  C   UNL     1      12.741   9.490  -7.255  1.00  0.00     0.020 A 
ATOM     66  C   UNL     1      12.595   8.382  -8.092  1.00  0.00     0.054 A 
BRANCH  66  67
ATOM     67  S   UNL     1      14.054   7.496  -8.706  1.00  0.00     0.124 S 
ATOM     68  O   UNL     1      14.044   6.294  -7.875  1.00  0.00    -0.237 OA
ATOM     69  O   UNL     1      13.735   7.286 -10.116  1.00  0.00    -0.237 OA
ATOM     70  O   UNL     1      15.154   8.422  -8.450  1.00  0.00    -0.744 OA
ENDBRANCH  66  67
ENDBRANCH  47  61
BRANCH  48  71
ATOM     71  C   UNL     1       2.352  14.167  -3.129  1.00  0.00    -0.014 A 
ATOM     72  C   UNL     1       1.175  14.375  -3.869  1.00  0.00     0.010 A 
ATOM     73  C   UNL     1       2.407  14.600  -1.792  1.00  0.00     0.010 A 
ATOM     74  C   UNL     1       0.078  15.017  -3.288  1.00  0.00     0.020 A 
ATOM     75  C   UNL     1       1.303  15.221  -1.201  1.00  0.00     0.020 A 
ATOM     76  C   UNL     1       0.148  15.435  -1.957  1.00  0.00     0.054 A 
BRANCH  76  77
ATOM     77  S   UNL     1      -1.308  16.212  -1.203  1.00  0.00     0.124 S 
ATOM     78  O   UNL     1      -1.251  17.562  -1.755  1.00  0.00    -0.237 OA
ATOM     79  O   UNL     1      -2.402  15.374  -1.689  1.00  0.00    -0.237 OA
ATOM     80  O   UNL     1      -1.044  16.107   0.230  1.00  0.00    -0.744 OA
ENDBRANCH  76  77
ENDBRANCH  48  71
BRANCH  60  81
ATOM     81  C   UNL     1       7.033  16.084  -7.919  1.00  0.00    -0.014 A 
ATOM     82  C   UNL     1       7.545  17.253  -7.331  1.00  0.00     0.010 A 
ATOM     83  C   UNL     1       6.732  16.078  -9.293  1.00  0.00     0.010 A 
ATOM     84  C   UNL     1       7.731  18.405  -8.099  1.00  0.00     0.020 A 
ATOM     85  C   UNL     1       6.939  17.222 -10.069  1.00  0.00     0.020 A 
ATOM     86  C   UNL     1       7.426  18.382  -9.464  1.00  0.00     0.054 A 
BRANCH  86  87
ATOM     87  S   UNL     1       7.724  19.873 -10.453  1.00  0.00     0.124 S 
ATOM     88  O   UNL     1       6.590  20.715 -10.082  1.00  0.00    -0.237 OA
ATOM     89  O   UNL     1       9.027  20.326  -9.970  1.00  0.00    -0.237 OA
ATOM     90  O   UNL     1       7.714  19.382 -11.829  1.00  0.00    -0.744 OA
ENDBRANCH  86  87
ENDBRANCH  60  81
ENDBRANCH  34  35
ENDBRANCH  26  29
ENDBRANCH  24  25
ENDBRANCH   1  24
TORSDOF 16
