REMARK SMILES Cc1ccc(-c2c(C(=O)NCCCNC(=O)c3ccc(-c4c5nc(c(-c6ccc(S(=O)(=O)[O-])cc6)c6ccc([nH]6)c(-c6ccc(S(=O)(=O)[O-])cc6)c6nc(c(-c7ccc(S(=O)(=O)[O-])cc7)c7ccc4[nH]7)C=C6)C=C5)cc3)nnn2Cc2c(F)cccc2Cl)cc1
REMARK SMILES IDX 12 1 11 2 10 3 8 4 9 5 7 7 6 8 79 9 77 10 78 11 5 12 1 13
REMARK SMILES IDX 2 14 3 15 90 16 4 17 89 18 80 19 81 20 82 21 87 22 83 23
REMARK SMILES IDX 84 24 86 25 88 26 85 27 13 28 14 29 15 30 16 32 17 33 18 34
REMARK SMILES IDX 76 35 19 36 75 37 20 38 21 39 22 40 69 41 23 42 74 43 68 44
REMARK SMILES IDX 70 45 24 46 73 47 67 48 66 49 25 51 55 52 36 53 54 54 37 55
REMARK SMILES IDX 40 56 53 57 71 58 38 59 39 60 52 62 72 63 41 64 26 65 27 66
REMARK SMILES IDX 35 67 28 68 34 69 29 70 30 71 31 72 32 73 33 74 56 75 57 76
REMARK SMILES IDX 65 77 58 78 64 79 59 80 60 81 61 82 62 83 63 84 42 85 43 86
REMARK SMILES IDX 51 87 44 88 50 89 45 90 46 91 47 92 48 93 49 94
REMARK H PARENT 10 6 14 31 70 50 40 61
REMARK Flexibility Score: inf
ROOT
ATOM      1  C   UNL     1      -1.020  -0.600   2.707  1.00  0.00     0.042 C 
ENDROOT
BRANCH   1   2
ATOM      2  C   UNL     1      -1.826  -1.857   2.427  1.00  0.00     0.118 C 
BRANCH   2   3
ATOM      3  N   UNL     1      -3.222  -1.646   2.735  1.00  0.00    -0.351 N 
ATOM      4  C   UNL     1      -4.273  -1.042   2.102  1.00  0.00     0.274 C 
ATOM      5  O   UNL     1      -5.319  -1.075   2.766  1.00  0.00    -0.267 OA
ATOM      6  H   UNL     1      -3.476  -2.028   3.606  1.00  0.00     0.163 HD
BRANCH   4   7
ATOM      7  C   UNL     1      -4.286  -0.422   0.766  1.00  0.00     0.178 A 
ATOM      8  C   UNL     1      -3.373   0.003  -0.211  1.00  0.00     0.102 A 
ATOM      9  N   UNL     1      -4.195   0.440  -1.239  1.00  0.00    -0.239 N 
ATOM     10  N   UNL     1      -5.562  -0.097   0.306  1.00  0.00    -0.124 NA
ATOM     11  N   UNL     1      -5.484   0.452  -0.885  1.00  0.00    -0.066 NA
BRANCH   8  12
ATOM     12  C   UNL     1      -1.922   0.080  -0.346  1.00  0.00     0.002 A 
ATOM     13  C   UNL     1       2.393   0.248  -0.410  1.00  0.00     0.044 C 
ATOM     14  C   UNL     1       0.894   0.231  -0.511  1.00  0.00    -0.051 A 
ATOM     15  C   UNL     1       0.229  -0.971  -0.780  1.00  0.00     0.004 A 
ATOM     16  C   UNL     1       0.138   1.374  -0.223  1.00  0.00     0.004 A 
ATOM     17  C   UNL     1      -1.168  -1.039  -0.720  1.00  0.00     0.011 A 
ATOM     18  C   UNL     1      -1.260   1.301  -0.147  1.00  0.00     0.011 A 
ENDBRANCH   8  12
BRANCH   9  19
ATOM     19  C   UNL     1      -3.865   0.950  -2.565  1.00  0.00     0.187 C 
BRANCH  19  20
ATOM     20  C   UNL     1      -2.983   0.070  -3.414  1.00  0.00     0.028 A 
ATOM     21  C   UNL     1      -2.017   0.713  -4.202  1.00  0.00     0.129 A 
ATOM     22  C   UNL     1      -3.074  -1.325  -3.526  1.00  0.00     0.049 A 
ATOM     23  F   UNL     1      -1.955   2.054  -4.212  1.00  0.00    -0.207 F 
ATOM     24  C   UNL     1      -1.120   0.011  -5.002  1.00  0.00     0.040 A 
ATOM     25  C   UNL     1      -2.148  -2.042  -4.297  1.00  0.00     0.021 A 
ATOM     26  Cl  UNL     1      -4.313  -2.255  -2.764  1.00  0.00    -0.084 Cl
ATOM     27  C   UNL     1      -1.167  -1.377  -5.028  1.00  0.00     0.005 A 
ENDBRANCH  19  20
ENDBRANCH   9  19
ENDBRANCH   4   7
ENDBRANCH   2   3
ENDBRANCH   1   2
BRANCH   1  28
ATOM     28  C   UNL     1       0.043  -0.757   3.775  1.00  0.00     0.118 C 
BRANCH  28  29
ATOM     29  N   UNL     1       1.403  -0.619   3.248  1.00  0.00    -0.352 N 
ATOM     30  C   UNL     1       2.582  -0.519   3.969  1.00  0.00     0.251 C 
ATOM     31  H   UNL     1       1.489  -0.593   2.268  1.00  0.00     0.163 HD
ATOM     32  O   UNL     1       3.660  -0.298   3.451  1.00  0.00    -0.269 OA
BRANCH  30  33
ATOM     33  C   UNL     1       2.458  -0.759   5.420  1.00  0.00     0.039 A 
ATOM     34  C   UNL     1       2.808  -2.032   5.882  1.00  0.00     0.014 A 
ATOM     35  C   UNL     1       1.610   0.074   6.142  1.00  0.00     0.014 A 
ATOM     36  C   UNL     1       2.134  -2.560   6.977  1.00  0.00     0.010 A 
ATOM     37  C   UNL     1       0.857  -0.500   7.147  1.00  0.00     0.010 A 
ATOM     38  C   UNL     1       1.082  -1.833   7.531  1.00  0.00    -0.014 A 
BRANCH  38  39
ATOM     39  C   UNL     1       0.109  -2.398   8.462  1.00  0.00     0.031 A 
ATOM     40  C   UNL     1       0.092  -1.923   9.867  1.00  0.00     0.074 A 
ATOM     41  C   UNL     1      -0.820  -3.296   8.057  1.00  0.00     0.049 A 
ATOM     42  N   UNL     1      -0.424  -2.574  10.856  1.00  0.00    -0.248 NA
ATOM     43  C   UNL     1       0.752  -0.688  10.282  1.00  0.00     0.031 C 
ATOM     44  C   UNL     1      -2.031  -3.674   8.784  1.00  0.00     0.029 A 
ATOM     45  N   UNL     1      -0.760  -4.219   7.010  1.00  0.00    -0.354 N 
ATOM     46  C   UNL     1      -0.457  -1.722  11.937  1.00  0.00     0.074 A 
ATOM     47  C   UNL     1       0.396  -0.620  11.566  1.00  0.00     0.031 C 
ATOM     48  C   UNL     1      -2.414  -4.893   8.378  1.00  0.00     0.029 A 
ATOM     49  C   UNL     1      -1.389  -5.387   7.477  1.00  0.00     0.049 A 
ATOM     50  H   UNL     1      -0.357  -4.080   6.122  1.00  0.00     0.167 HD
ATOM     51  C   UNL     1      -1.324  -1.967  12.960  1.00  0.00     0.031 A 
ATOM     52  C   UNL     1      -0.797  -6.615   7.557  1.00  0.00     0.031 A 
ATOM     53  C   UNL     1      -1.956  -3.280  12.829  1.00  0.00     0.049 A 
ATOM     54  C   UNL     1      -0.840  -7.210   8.948  1.00  0.00     0.074 A 
ATOM     55  C   UNL     1      -3.220  -3.692  12.442  1.00  0.00     0.029 A 
ATOM     56  N   UNL     1      -1.165  -4.423  12.868  1.00  0.00    -0.354 N 
ATOM     57  N   UNL     1      -1.141  -6.528  10.017  1.00  0.00    -0.248 NA
ATOM     58  C   UNL     1      -0.495  -8.595   9.256  1.00  0.00     0.031 C 
ATOM     59  C   UNL     1      -3.166  -5.087  12.181  1.00  0.00     0.029 A 
ATOM     60  C   UNL     1      -1.878  -5.524  12.438  1.00  0.00     0.049 A 
ATOM     61  H   UNL     1      -0.225  -4.443  13.162  1.00  0.00     0.167 HD
ATOM     62  C   UNL     1      -1.022  -7.324  11.126  1.00  0.00     0.074 A 
ATOM     63  C   UNL     1      -0.630  -8.617  10.595  1.00  0.00     0.031 C 
ATOM     64  C   UNL     1      -1.244  -6.837  12.383  1.00  0.00     0.031 A 
BRANCH  51  65
ATOM     65  C   UNL     1      -1.812  -0.902  13.928  1.00  0.00    -0.014 A 
ATOM     66  C   UNL     1      -3.006  -1.113  14.651  1.00  0.00     0.010 A 
ATOM     67  C   UNL     1      -1.211   0.358  14.107  1.00  0.00     0.010 A 
ATOM     68  C   UNL     1      -3.605  -0.100  15.422  1.00  0.00     0.020 A 
ATOM     69  C   UNL     1      -1.802   1.385  14.856  1.00  0.00     0.020 A 
ATOM     70  C   UNL     1      -3.010   1.155  15.497  1.00  0.00     0.054 A 
BRANCH  70  71
ATOM     71  S   UNL     1      -3.823   2.483  16.421  1.00  0.00     0.124 S 
ATOM     72  O   UNL     1      -5.102   2.610  15.727  1.00  0.00    -0.237 OA
ATOM     73  O   UNL     1      -3.887   1.933  17.771  1.00  0.00    -0.237 OA
ATOM     74  O   UNL     1      -2.920   3.622  16.259  1.00  0.00    -0.744 OA
ENDBRANCH  70  71
ENDBRANCH  51  65
BRANCH  52  75
ATOM     75  C   UNL     1       0.278  -6.849   6.558  1.00  0.00    -0.014 A 
ATOM     76  C   UNL     1      -0.121  -7.019   5.216  1.00  0.00     0.010 A 
ATOM     77  C   UNL     1       1.599  -6.457   6.836  1.00  0.00     0.010 A 
ATOM     78  C   UNL     1       0.716  -6.618   4.174  1.00  0.00     0.020 A 
ATOM     79  C   UNL     1       2.442  -6.055   5.790  1.00  0.00     0.020 A 
ATOM     80  C   UNL     1       1.964  -6.071   4.475  1.00  0.00     0.054 A 
BRANCH  80  81
ATOM     81  S   UNL     1       2.834  -5.173   3.155  1.00  0.00     0.124 S 
ATOM     82  O   UNL     1       3.044  -6.213   2.153  1.00  0.00    -0.237 OA
ATOM     83  O   UNL     1       1.856  -4.144   2.800  1.00  0.00    -0.237 OA
ATOM     84  O   UNL     1       4.038  -4.684   3.818  1.00  0.00    -0.744 OA
ENDBRANCH  80  81
ENDBRANCH  52  75
BRANCH  64  85
ATOM     85  C   UNL     1      -0.962  -7.545  13.690  1.00  0.00    -0.014 A 
ATOM     86  C   UNL     1      -0.083  -8.629  13.838  1.00  0.00     0.010 A 
ATOM     87  C   UNL     1      -1.524  -7.017  14.880  1.00  0.00     0.010 A 
ATOM     88  C   UNL     1       0.179  -9.192  15.097  1.00  0.00     0.020 A 
ATOM     89  C   UNL     1      -1.236  -7.541  16.144  1.00  0.00     0.020 A 
ATOM     90  C   UNL     1      -0.401  -8.646  16.243  1.00  0.00     0.054 A 
BRANCH  90  91
ATOM     91  S   UNL     1      -0.003  -9.332  17.871  1.00  0.00     0.124 S 
ATOM     92  O   UNL     1      -1.010 -10.380  18.011  1.00  0.00    -0.237 OA
ATOM     93  O   UNL     1       1.371  -9.802  17.703  1.00  0.00    -0.237 OA
ATOM     94  O   UNL     1      -0.155  -8.190  18.769  1.00  0.00    -0.744 OA
ENDBRANCH  90  91
ENDBRANCH  64  85
ENDBRANCH  38  39
ENDBRANCH  30  33
ENDBRANCH  28  29
ENDBRANCH   1  28
TORSDOF 16
