REMARK SMILES CC(C)(CCc1ccc(Cl)c2ccccc12)C(=O)NCCCNC(=O)c1ccc(-c2c3nc(c(-c4ccc(S(=O)(=O)[O-])cc4)c4ccc([nH]4)c(-c4ccc(S(=O)(=O)[O-])cc4)c4nc(c(-c5ccc(S(=O)(=O)[O-])cc5)c5ccc2[nH]5)C=C4)C=C3)cc1
REMARK SMILES IDX 21 1 20 2 19 3 17 4 18 5 2 7 1 8 3 9 4 10 5 11 6 12 7 13
REMARK SMILES IDX 16 14 8 15 11 16 15 17 9 18 12 19 14 20 10 21 13 22 22 23
REMARK SMILES IDX 23 24 24 25 25 27 26 28 27 29 85 30 28 31 84 32 29 33 30 34
REMARK SMILES IDX 31 35 78 36 32 37 83 38 77 39 79 40 33 41 82 42 76 43 75 44
REMARK SMILES IDX 34 46 64 47 45 48 63 49 46 50 49 51 62 52 80 53 47 54 48 55
REMARK SMILES IDX 61 57 81 58 50 59 35 60 36 61 44 62 37 63 43 64 38 65 39 66
REMARK SMILES IDX 40 67 41 68 42 69 65 70 66 71 74 72 67 73 73 74 68 75 69 76
REMARK SMILES IDX 70 77 71 78 72 79 51 80 52 81 60 82 53 83 59 84 54 85 55 86
REMARK SMILES IDX 56 87 57 88 58 89
REMARK H PARENT 19 6 23 26 79 45 49 56
REMARK Flexibility Score: inf
ROOT
ATOM      1  C   UNL     1      -1.258   3.581   3.860  1.00  0.00     0.042 C 
ENDROOT
BRANCH   1   2
ATOM      2  C   UNL     1       0.016   3.600   3.013  1.00  0.00     0.117 C 
BRANCH   2   3
ATOM      3  N   UNL     1       0.861   2.413   3.098  1.00  0.00    -0.356 N 
ATOM      4  C   UNL     1       1.203   1.411   2.237  1.00  0.00     0.225 C 
ATOM      5  O   UNL     1       2.111   0.668   2.627  1.00  0.00    -0.275 OA
ATOM      6  H   UNL     1       1.282   2.312   3.982  1.00  0.00     0.163 HD
BRANCH   4   7
ATOM      7  C   UNL     1       0.529   1.179   0.866  1.00  0.00     0.044 C 
ATOM      8  C   UNL     1       1.196  -0.032   0.166  1.00  0.00     0.021 C 
ATOM      9  C   UNL     1       0.842   2.381  -0.055  1.00  0.00     0.021 C 
BRANCH   7  10
ATOM     10  C   UNL     1      -1.006   0.933   0.987  1.00  0.00     0.021 C 
BRANCH  10  11
ATOM     11  C   UNL     1      -1.514  -0.478   1.430  1.00  0.00     0.037 C 
BRANCH  11  12
ATOM     12  C   UNL     1      -1.177  -1.031   2.810  1.00  0.00    -0.040 A 
ATOM     13  C   UNL     1      -0.955  -0.141   3.861  1.00  0.00     0.006 A 
ATOM     14  C   UNL     1      -1.155  -2.427   3.107  1.00  0.00    -0.014 A 
ATOM     15  C   UNL     1      -0.516  -0.562   5.109  1.00  0.00     0.021 A 
ATOM     16  C   UNL     1      -0.744  -2.871   4.403  1.00  0.00     0.001 A 
ATOM     17  C   UNL     1      -1.561  -3.416   2.181  1.00  0.00     0.009 A 
ATOM     18  C   UNL     1      -0.377  -1.915   5.370  1.00  0.00     0.048 A 
ATOM     19  C   UNL     1      -0.741  -4.254   4.691  1.00  0.00     0.010 A 
ATOM     20  C   UNL     1      -1.574  -4.776   2.504  1.00  0.00     0.001 A 
ATOM     21  Cl  UNL     1       0.222  -2.335   6.943  1.00  0.00    -0.084 Cl
ATOM     22  C   UNL     1      -1.161  -5.195   3.758  1.00  0.00     0.001 A 
ENDBRANCH  11  12
ENDBRANCH  10  11
ENDBRANCH   7  10
ENDBRANCH   4   7
ENDBRANCH   2   3
ENDBRANCH   1   2
BRANCH   1  23
ATOM     23  C   UNL     1      -1.078   3.250   5.336  1.00  0.00     0.118 C 
BRANCH  23  24
ATOM     24  N   UNL     1      -0.428   4.303   6.088  1.00  0.00    -0.352 N 
ATOM     25  C   UNL     1      -0.849   4.946   7.226  1.00  0.00     0.251 C 
ATOM     26  H   UNL     1       0.440   4.601   5.732  1.00  0.00     0.163 HD
ATOM     27  O   UNL     1      -0.202   5.902   7.650  1.00  0.00    -0.269 OA
BRANCH  25  28
ATOM     28  C   UNL     1      -2.089   4.528   7.920  1.00  0.00     0.039 A 
ATOM     29  C   UNL     1      -2.995   5.518   8.310  1.00  0.00     0.014 A 
ATOM     30  C   UNL     1      -2.355   3.186   8.215  1.00  0.00     0.014 A 
ATOM     31  C   UNL     1      -4.185   5.162   8.950  1.00  0.00     0.010 A 
ATOM     32  C   UNL     1      -3.574   2.828   8.797  1.00  0.00     0.010 A 
ATOM     33  C   UNL     1      -4.499   3.812   9.179  1.00  0.00    -0.014 A 
BRANCH  33  34
ATOM     34  C   UNL     1      -5.789   3.433   9.819  1.00  0.00     0.031 A 
ATOM     35  C   UNL     1      -5.808   2.782  11.176  1.00  0.00     0.074 A 
ATOM     36  C   UNL     1      -6.949   3.661   9.171  1.00  0.00     0.049 A 
ATOM     37  N   UNL     1      -6.835   2.404  11.895  1.00  0.00    -0.248 NA
ATOM     38  C   UNL     1      -4.505   2.505  11.800  1.00  0.00     0.031 C 
ATOM     39  C   UNL     1      -7.070   4.262   7.841  1.00  0.00     0.029 A 
ATOM     40  N   UNL     1      -8.248   3.421   9.545  1.00  0.00    -0.354 N 
ATOM     41  C   UNL     1      -6.304   1.839  13.050  1.00  0.00     0.074 A 
ATOM     42  C   UNL     1      -4.864   1.875  12.909  1.00  0.00     0.031 C 
ATOM     43  C   UNL     1      -8.370   4.379   7.528  1.00  0.00     0.029 A 
ATOM     44  C   UNL     1      -9.175   3.825   8.613  1.00  0.00     0.049 A 
ATOM     45  H   UNL     1      -8.493   2.999  10.400  1.00  0.00     0.167 HD
ATOM     46  C   UNL     1      -6.951   1.353  14.137  1.00  0.00     0.031 A 
ATOM     47  C   UNL     1     -10.522   3.760   8.625  1.00  0.00     0.031 A 
ATOM     48  C   UNL     1      -8.384   1.308  14.272  1.00  0.00     0.049 A 
ATOM     49  C   UNL     1     -11.220   3.183   9.826  1.00  0.00     0.074 A 
ATOM     50  C   UNL     1      -9.134   0.871  15.350  1.00  0.00     0.029 A 
ATOM     51  N   UNL     1      -9.286   1.703  13.294  1.00  0.00    -0.354 N 
ATOM     52  N   UNL     1     -10.700   2.712  10.934  1.00  0.00    -0.248 NA
ATOM     53  C   UNL     1     -12.688   3.140   9.782  1.00  0.00     0.031 C 
ATOM     54  C   UNL     1     -10.487   0.945  15.001  1.00  0.00     0.029 A 
ATOM     55  C   UNL     1     -10.583   1.492  13.732  1.00  0.00     0.049 A 
ATOM     56  H   UNL     1      -9.039   2.077  12.418  1.00  0.00     0.167 HD
ATOM     57  C   UNL     1     -11.778   2.344  11.732  1.00  0.00     0.074 A 
ATOM     58  C   UNL     1     -12.978   2.659  10.984  1.00  0.00     0.031 C 
ATOM     59  C   UNL     1     -11.773   1.800  12.975  1.00  0.00     0.031 A 
BRANCH  46  60
ATOM     60  C   UNL     1      -6.103   0.811  15.262  1.00  0.00    -0.014 A 
ATOM     61  C   UNL     1      -5.292   1.659  16.038  1.00  0.00     0.010 A 
ATOM     62  C   UNL     1      -6.127  -0.565  15.556  1.00  0.00     0.010 A 
ATOM     63  C   UNL     1      -4.475   1.135  17.044  1.00  0.00     0.020 A 
ATOM     64  C   UNL     1      -5.338  -1.089  16.585  1.00  0.00     0.020 A 
ATOM     65  C   UNL     1      -4.498  -0.238  17.306  1.00  0.00     0.054 A 
BRANCH  65  66
ATOM     66  S   UNL     1      -3.422  -0.892  18.611  1.00  0.00     0.124 S 
ATOM     67  O   UNL     1      -2.102  -0.788  17.993  1.00  0.00    -0.237 OA
ATOM     68  O   UNL     1      -3.668   0.026  19.720  1.00  0.00    -0.237 OA
ATOM     69  O   UNL     1      -3.909  -2.254  18.814  1.00  0.00    -0.744 OA
ENDBRANCH  65  66
ENDBRANCH  46  60
BRANCH  47  70
ATOM     70  C   UNL     1     -11.297   4.285   7.466  1.00  0.00    -0.014 A 
ATOM     71  C   UNL     1     -12.052   5.465   7.588  1.00  0.00     0.010 A 
ATOM     72  C   UNL     1     -11.258   3.624   6.225  1.00  0.00     0.010 A 
ATOM     73  C   UNL     1     -12.756   5.972   6.492  1.00  0.00     0.020 A 
ATOM     74  C   UNL     1     -11.938   4.143   5.119  1.00  0.00     0.020 A 
ATOM     75  C   UNL     1     -12.688   5.312   5.262  1.00  0.00     0.054 A 
BRANCH  75  76
ATOM     76  S   UNL     1     -13.548   6.031   3.835  1.00  0.00     0.124 S 
ATOM     77  O   UNL     1     -14.947   5.780   4.164  1.00  0.00    -0.237 OA
ATOM     78  O   UNL     1     -13.126   7.429   3.887  1.00  0.00    -0.237 OA
ATOM     79  O   UNL     1     -13.024   5.272   2.702  1.00  0.00    -0.744 OA
ENDBRANCH  75  76
ENDBRANCH  47  70
BRANCH  59  80
ATOM     80  C   UNL     1     -13.107   1.537  13.624  1.00  0.00    -0.014 A 
ATOM     81  C   UNL     1     -13.954   0.510  13.171  1.00  0.00     0.010 A 
ATOM     82  C   UNL     1     -13.496   2.301  14.741  1.00  0.00     0.010 A 
ATOM     83  C   UNL     1     -15.180   0.274  13.802  1.00  0.00     0.020 A 
ATOM     84  C   UNL     1     -14.706   2.048  15.393  1.00  0.00     0.020 A 
ATOM     85  C   UNL     1     -15.547   1.045  14.909  1.00  0.00     0.054 A 
BRANCH  85  86
ATOM     86  S   UNL     1     -17.124   0.691  15.735  1.00  0.00     0.124 S 
ATOM     87  O   UNL     1     -18.094   1.203  14.770  1.00  0.00    -0.237 OA
ATOM     88  O   UNL     1     -17.090  -0.762  15.881  1.00  0.00    -0.237 OA
ATOM     89  O   UNL     1     -17.036   1.440  16.986  1.00  0.00    -0.744 OA
ENDBRANCH  85  86
ENDBRANCH  59  80
ENDBRANCH  33  34
ENDBRANCH  25  28
ENDBRANCH  23  24
ENDBRANCH   1  23
TORSDOF 16
