REMARK SMILES C[C@H]1[C@H](C(=O)NCCCNC(=O)c2ccc(-c3c4nc(c(-c5ccc(S(=O)(=O)[O-])cc5)c5ccc([nH]5)c(-c5ccc(S(=O)(=O)[O-])cc5)c5nc(c(-c6ccc(S(=O)(=O)[O-])cc6)c6ccc3[nH]6)C=C5)C=C4)cc2)CCN1S(=O)(=O)N(C)Cc1ccccc1
REMARK SMILES IDX 7 1 6 2 4 3 5 4 3 6 1 7 2 8 75 9 73 10 74 11 76 12 77 13
REMARK SMILES IDX 78 14 79 15 80 16 81 17 82 18 83 19 87 20 84 21 86 22 85 23
REMARK SMILES IDX 8 24 9 25 10 26 11 27 12 29 13 30 14 31 72 32 15 33 71 34
REMARK SMILES IDX 16 35 17 36 18 37 65 38 19 39 70 40 64 41 66 42 20 43 69 44
REMARK SMILES IDX 63 45 62 46 21 48 51 49 32 50 50 51 33 52 36 53 49 54 67 55
REMARK SMILES IDX 34 56 35 57 48 59 68 60 37 61 22 62 23 63 31 64 24 65 30 66
REMARK SMILES IDX 25 67 26 68 27 69 28 70 29 71 52 72 53 73 61 74 54 75 60 76
REMARK SMILES IDX 55 77 56 78 57 79 58 80 59 81 38 82 39 83 47 84 40 85 46 86
REMARK SMILES IDX 41 87 42 88 43 89 44 90 45 91
REMARK H PARENT 6 5 10 28 66 47 36 58
REMARK Flexibility Score: inf
ROOT
ATOM      1  C   UNL     1      -1.500   1.484   3.161  1.00  0.00     0.117 C 
ENDROOT
BRANCH   1   2
ATOM      2  N   UNL     1      -0.740   2.432   2.354  1.00  0.00    -0.356 N 
ATOM      3  C   UNL     1      -0.270   2.419   1.081  1.00  0.00     0.224 C 
ATOM      4  O   UNL     1       0.299   3.457   0.714  1.00  0.00    -0.275 OA
ATOM      5  H   UNL     1      -0.520   3.261   2.837  1.00  0.00     0.163 HD
BRANCH   3   6
ATOM      6  C   UNL     1      -0.322   1.246   0.103  1.00  0.00     0.098 C 
ATOM      7  C   UNL     1       1.903   0.297  -0.545  1.00  0.00     0.026 C 
ATOM      8  C   UNL     1       0.714   0.155   0.416  1.00  0.00     0.083 C 
ATOM      9  N   UNL     1       0.062  -1.177   0.145  1.00  0.00    -0.185 NA
ATOM     10  C   UNL     1      -1.629   0.535  -0.161  1.00  0.00     0.032 C 
ATOM     11  C   UNL     1      -1.215  -0.871  -0.573  1.00  0.00     0.105 C 
BRANCH   9  12
ATOM     12  S   UNL     1      -0.156  -2.234   1.463  1.00  0.00     0.282 S 
ATOM     13  O   UNL     1      -0.623  -1.408   2.546  1.00  0.00    -0.195 OA
ATOM     14  O   UNL     1      -0.963  -3.342   0.998  1.00  0.00    -0.195 OA
BRANCH  12  15
ATOM     15  N   UNL     1       1.359  -2.874   1.837  1.00  0.00    -0.188 NA
ATOM     16  C   UNL     1       2.537  -2.010   1.943  1.00  0.00     0.126 C 
BRANCH  15  17
ATOM     17  C   UNL     1       1.317  -3.883   2.953  1.00  0.00     0.138 C 
BRANCH  17  18
ATOM     18  C   UNL     1       0.905  -3.306   4.290  1.00  0.00    -0.033 A 
ATOM     19  C   UNL     1       1.724  -2.385   4.965  1.00  0.00     0.005 A 
ATOM     20  C   UNL     1      -0.372  -3.592   4.798  1.00  0.00     0.005 A 
ATOM     21  C   UNL     1       1.236  -1.680   6.053  1.00  0.00     0.000 A 
ATOM     22  C   UNL     1      -0.851  -2.907   5.902  1.00  0.00     0.000 A 
ATOM     23  C   UNL     1      -0.053  -1.941   6.497  1.00  0.00     0.000 A 
ENDBRANCH  17  18
ENDBRANCH  15  17
ENDBRANCH  12  15
ENDBRANCH   9  12
ENDBRANCH   3   6
ENDBRANCH   1   2
BRANCH   1  24
ATOM     24  C   UNL     1      -0.737   0.969   4.385  1.00  0.00     0.042 C 
BRANCH  24  25
ATOM     25  C   UNL     1      -0.705   1.901   5.599  1.00  0.00     0.118 C 
BRANCH  25  26
ATOM     26  N   UNL     1      -1.869   1.784   6.477  1.00  0.00    -0.352 N 
ATOM     27  C   UNL     1      -2.067   1.296   7.753  1.00  0.00     0.251 C 
ATOM     28  H   UNL     1      -2.695   2.129   6.067  1.00  0.00     0.163 HD
ATOM     29  O   UNL     1      -3.220   1.309   8.190  1.00  0.00    -0.269 OA
BRANCH  27  30
ATOM     30  C   UNL     1      -0.996   0.688   8.599  1.00  0.00     0.039 A 
ATOM     31  C   UNL     1      -1.345  -0.405   9.419  1.00  0.00     0.014 A 
ATOM     32  C   UNL     1       0.335   1.101   8.589  1.00  0.00     0.014 A 
ATOM     33  C   UNL     1      -0.364  -1.139  10.114  1.00  0.00     0.010 A 
ATOM     34  C   UNL     1       1.320   0.342   9.245  1.00  0.00     0.010 A 
ATOM     35  C   UNL     1       0.988  -0.792  10.011  1.00  0.00    -0.014 A 
BRANCH  35  36
ATOM     36  C   UNL     1       2.041  -1.502  10.804  1.00  0.00     0.031 A 
ATOM     37  C   UNL     1       2.700  -0.772  11.948  1.00  0.00     0.074 A 
ATOM     38  C   UNL     1       2.443  -2.763  10.528  1.00  0.00     0.049 A 
ATOM     39  N   UNL     1       3.646  -1.176  12.759  1.00  0.00    -0.248 NA
ATOM     40  C   UNL     1       2.247   0.606  12.192  1.00  0.00     0.031 C 
ATOM     41  C   UNL     1       1.936  -3.610   9.451  1.00  0.00     0.029 A 
ATOM     42  N   UNL     1       3.394  -3.551  11.144  1.00  0.00    -0.354 N 
ATOM     43  C   UNL     1       3.900  -0.102  13.604  1.00  0.00     0.074 A 
ATOM     44  C   UNL     1       3.064   0.991  13.158  1.00  0.00     0.031 C 
ATOM     45  C   UNL     1       2.574  -4.796   9.482  1.00  0.00     0.029 A 
ATOM     46  C   UNL     1       3.547  -4.797  10.575  1.00  0.00     0.049 A 
ATOM     47  H   UNL     1       3.918  -3.250  11.921  1.00  0.00     0.167 HD
ATOM     48  C   UNL     1       4.721  -0.027  14.678  1.00  0.00     0.031 A 
ATOM     49  C   UNL     1       4.368  -5.823  10.892  1.00  0.00     0.031 A 
ATOM     50  C   UNL     1       5.559  -1.094  15.149  1.00  0.00     0.049 A 
ATOM     51  C   UNL     1       5.305  -5.709  12.074  1.00  0.00     0.074 A 
ATOM     52  C   UNL     1       6.394  -1.107  16.253  1.00  0.00     0.029 A 
ATOM     53  N   UNL     1       5.674  -2.336  14.546  1.00  0.00    -0.354 N 
ATOM     54  N   UNL     1       5.475  -4.707  12.903  1.00  0.00    -0.248 NA
ATOM     55  C   UNL     1       6.150  -6.878  12.372  1.00  0.00     0.031 C 
ATOM     56  C   UNL     1       7.052  -2.341  16.291  1.00  0.00     0.029 A 
ATOM     57  C   UNL     1       6.582  -3.116  15.244  1.00  0.00     0.049 A 
ATOM     58  H   UNL     1       5.184  -2.621  13.742  1.00  0.00     0.167 HD
ATOM     59  C   UNL     1       6.416  -5.139  13.836  1.00  0.00     0.074 A 
ATOM     60  C   UNL     1       6.771  -6.495  13.479  1.00  0.00     0.031 C 
ATOM     61  C   UNL     1       6.934  -4.469  14.896  1.00  0.00     0.031 A 
BRANCH  48  62
ATOM     62  C   UNL     1       4.740   1.281  15.422  1.00  0.00    -0.014 A 
ATOM     63  C   UNL     1       3.625   1.697  16.173  1.00  0.00     0.010 A 
ATOM     64  C   UNL     1       5.878   2.104  15.365  1.00  0.00     0.010 A 
ATOM     65  C   UNL     1       3.623   2.943  16.802  1.00  0.00     0.020 A 
ATOM     66  C   UNL     1       5.892   3.337  16.022  1.00  0.00     0.020 A 
ATOM     67  C   UNL     1       4.755   3.758  16.715  1.00  0.00     0.054 A 
BRANCH  67  68
ATOM     68  S   UNL     1       4.723   5.374  17.536  1.00  0.00     0.124 S 
ATOM     69  O   UNL     1       3.849   6.141  16.652  1.00  0.00    -0.237 OA
ATOM     70  O   UNL     1       4.166   5.056  18.849  1.00  0.00    -0.237 OA
ATOM     71  O   UNL     1       6.124   5.788  17.540  1.00  0.00    -0.744 OA
ENDBRANCH  67  68
ENDBRANCH  48  62
BRANCH  49  72
ATOM     72  C   UNL     1       4.349  -7.083  10.091  1.00  0.00    -0.014 A 
ATOM     73  C   UNL     1       3.842  -8.276  10.641  1.00  0.00     0.010 A 
ATOM     74  C   UNL     1       4.884  -7.109   8.791  1.00  0.00     0.010 A 
ATOM     75  C   UNL     1       3.894  -9.473   9.917  1.00  0.00     0.020 A 
ATOM     76  C   UNL     1       4.913  -8.298   8.053  1.00  0.00     0.020 A 
ATOM     77  C   UNL     1       4.429  -9.476   8.626  1.00  0.00     0.054 A 
BRANCH  77  78
ATOM     78  S   UNL     1       4.448 -11.030   7.688  1.00  0.00     0.124 S 
ATOM     79  O   UNL     1       5.514 -11.774   8.351  1.00  0.00    -0.237 OA
ATOM     80  O   UNL     1       3.095 -11.541   7.896  1.00  0.00    -0.237 OA
ATOM     81  O   UNL     1       4.740 -10.600   6.322  1.00  0.00    -0.744 OA
ENDBRANCH  77  78
ENDBRANCH  49  72
BRANCH  61  82
ATOM     82  C   UNL     1       7.915  -5.194  15.786  1.00  0.00    -0.014 A 
ATOM     83  C   UNL     1       9.218  -5.495  15.353  1.00  0.00     0.010 A 
ATOM     84  C   UNL     1       7.544  -5.521  17.104  1.00  0.00     0.010 A 
ATOM     85  C   UNL     1      10.120  -6.137  16.208  1.00  0.00     0.020 A 
ATOM     86  C   UNL     1       8.451  -6.138  17.972  1.00  0.00     0.020 A 
ATOM     87  C   UNL     1       9.730  -6.456  17.513  1.00  0.00     0.054 A 
BRANCH  87  88
ATOM     88  S   UNL     1      10.930  -7.253  18.617  1.00  0.00     0.124 S 
ATOM     89  O   UNL     1      10.972  -8.614  18.091  1.00  0.00    -0.237 OA
ATOM     90  O   UNL     1      12.139  -6.460  18.405  1.00  0.00    -0.237 OA
ATOM     91  O   UNL     1      10.328  -7.115  19.942  1.00  0.00    -0.744 OA
ENDBRANCH  87  88
ENDBRANCH  61  82
ENDBRANCH  35  36
ENDBRANCH  27  30
ENDBRANCH  25  26
ENDBRANCH  24  25
ENDBRANCH   1  24
TORSDOF 17
