REMARK SMILES CC(C)(C)c1ccc(CSc2ccnc(C(=O)NCCCNC(=O)c3ccc(-c4c5nc(c(-c6ccc(S(=O)(=O)[O-])cc6)c6ccc([nH]6)c(-c6ccc(S(=O)(=O)[O-])cc6)c6nc(c(-c7ccc(S(=O)(=O)[O-])cc7)c7ccc4[nH]7)C=C6)C=C5)cc3)c2)cc1
REMARK SMILES IDX 19 1 18 2 16 3 17 4 15 6 11 7 12 8 85 9 13 10 14 11 10 12
REMARK SMILES IDX 9 13 8 14 5 15 6 16 87 17 7 18 86 19 2 20 1 21 3 22 4 23
REMARK SMILES IDX 20 24 21 25 22 26 23 27 24 29 25 30 26 31 84 32 27 33 83 34
REMARK SMILES IDX 28 35 29 36 30 37 77 38 31 39 82 40 76 41 78 42 32 43 81 44
REMARK SMILES IDX 75 45 74 46 33 48 63 49 44 50 62 51 45 52 48 53 61 54 79 55
REMARK SMILES IDX 46 56 47 57 60 59 80 60 49 61 34 62 35 63 43 64 36 65 42 66
REMARK SMILES IDX 37 67 38 68 39 69 40 70 41 71 64 72 65 73 73 74 66 75 72 76
REMARK SMILES IDX 67 77 68 78 69 79 70 80 71 81 50 82 51 83 59 84 52 85 58 86
REMARK SMILES IDX 53 87 54 88 55 89 56 90 57 91
REMARK H PARENT 18 5 22 28 78 47 48 58
REMARK Flexibility Score: inf
ROOT
ATOM      1  C   UNL     1       4.573   2.951  -6.117  1.00  0.00     0.118 C 
ENDROOT
BRANCH   1   2
ATOM      2  N   UNL     1       5.451   3.110  -4.975  1.00  0.00    -0.351 N 
ATOM      3  C   UNL     1       6.130   2.244  -4.149  1.00  0.00     0.269 C 
ATOM      4  O   UNL     1       6.814   2.791  -3.277  1.00  0.00    -0.268 OA
ATOM      5  H   UNL     1       5.596   4.054  -4.736  1.00  0.00     0.163 HD
BRANCH   3   6
ATOM      6  C   UNL     1       6.118   0.735  -4.246  1.00  0.00     0.129 A 
ATOM      7  C   UNL     1       5.364  -1.410  -5.031  1.00  0.00     0.011 A 
ATOM      8  C   UNL     1       6.359  -2.010  -4.263  1.00  0.00     0.035 A 
ATOM      9  C   UNL     1       5.230  -0.019  -5.004  1.00  0.00     0.049 A 
ATOM     10  C   UNL     1       7.180  -1.200  -3.507  1.00  0.00     0.113 A 
ATOM     11  N   UNL     1       7.089   0.143  -3.497  1.00  0.00    -0.251 NA
BRANCH   7  12
ATOM     12  S   UNL     1       4.392  -2.485  -6.085  1.00  0.00    -0.121 SA
BRANCH  12  13
ATOM     13  C   UNL     1       2.727  -1.725  -6.080  1.00  0.00     0.110 C 
BRANCH  13  14
ATOM     14  C   UNL     1       2.112  -1.622  -4.710  1.00  0.00    -0.038 A 
ATOM     15  C   UNL     1       1.027  -1.393  -2.087  1.00  0.00    -0.043 A 
ATOM     16  C   UNL     1       1.316  -2.645  -2.655  1.00  0.00     0.004 A 
ATOM     17  C   UNL     1       1.229  -0.263  -2.896  1.00  0.00     0.004 A 
ATOM     18  C   UNL     1       1.854  -2.759  -3.942  1.00  0.00     0.005 A 
ATOM     19  C   UNL     1       1.755  -0.378  -4.185  1.00  0.00     0.005 A 
BRANCH  15  20
ATOM     20  C   UNL     1       0.458  -1.261  -0.664  1.00  0.00    -0.013 C 
ATOM     21  C   UNL     1       0.943   0.029   0.040  1.00  0.00     0.016 C 
ATOM     22  C   UNL     1       0.876  -2.437   0.249  1.00  0.00     0.016 C 
ATOM     23  C   UNL     1      -1.079  -1.229  -0.754  1.00  0.00     0.016 C 
ENDBRANCH  15  20
ENDBRANCH  13  14
ENDBRANCH  12  13
ENDBRANCH   7  12
ENDBRANCH   3   6
ENDBRANCH   1   2
BRANCH   1  24
ATOM     24  C   UNL     1       3.107   2.960  -5.688  1.00  0.00     0.042 C 
BRANCH  24  25
ATOM     25  C   UNL     1       2.531   4.364  -5.508  1.00  0.00     0.118 C 
BRANCH  25  26
ATOM     26  N   UNL     1       2.397   5.062  -6.779  1.00  0.00    -0.352 N 
ATOM     27  C   UNL     1       1.284   5.468  -7.473  1.00  0.00     0.251 C 
ATOM     28  H   UNL     1       3.252   5.280  -7.216  1.00  0.00     0.163 HD
ATOM     29  O   UNL     1       1.415   5.806  -8.647  1.00  0.00    -0.269 OA
BRANCH  27  30
ATOM     30  C   UNL     1      -0.057   5.504  -6.844  1.00  0.00     0.039 A 
ATOM     31  C   UNL     1      -1.175   5.206  -7.631  1.00  0.00     0.014 A 
ATOM     32  C   UNL     1      -0.236   5.905  -5.518  1.00  0.00     0.014 A 
ATOM     33  C   UNL     1      -2.459   5.265  -7.079  1.00  0.00     0.010 A 
ATOM     34  C   UNL     1      -1.509   5.888  -4.947  1.00  0.00     0.010 A 
ATOM     35  C   UNL     1      -2.636   5.581  -5.723  1.00  0.00    -0.014 A 
BRANCH  35  36
ATOM     36  C   UNL     1      -3.988   5.612  -5.104  1.00  0.00     0.031 A 
ATOM     37  C   UNL     1      -4.535   6.897  -4.537  1.00  0.00     0.074 A 
ATOM     38  C   UNL     1      -4.697   4.472  -4.991  1.00  0.00     0.049 A 
ATOM     39  N   UNL     1      -5.652   7.103  -3.886  1.00  0.00    -0.248 NA
ATOM     40  C   UNL     1      -3.705   8.102  -4.699  1.00  0.00     0.031 C 
ATOM     41  C   UNL     1      -4.263   3.154  -5.460  1.00  0.00     0.029 A 
ATOM     42  N   UNL     1      -5.929   4.234  -4.433  1.00  0.00    -0.354 N 
ATOM     43  C   UNL     1      -5.646   8.449  -3.537  1.00  0.00     0.074 A 
ATOM     44  C   UNL     1      -4.394   9.000  -4.010  1.00  0.00     0.031 C 
ATOM     45  C   UNL     1      -5.220   2.252  -5.189  1.00  0.00     0.029 A 
ATOM     46  C   UNL     1      -6.317   2.917  -4.491  1.00  0.00     0.049 A 
ATOM     47  H   UNL     1      -6.482   4.941  -4.029  1.00  0.00     0.167 HD
ATOM     48  C   UNL     1      -6.600   9.167  -2.897  1.00  0.00     0.031 A 
ATOM     49  C   UNL     1      -7.424   2.306  -4.027  1.00  0.00     0.031 A 
ATOM     50  C   UNL     1      -7.853   8.621  -2.446  1.00  0.00     0.049 A 
ATOM     51  C   UNL     1      -8.477   3.124  -3.333  1.00  0.00     0.074 A 
ATOM     52  C   UNL     1      -8.910   9.278  -1.840  1.00  0.00     0.029 A 
ATOM     53  N   UNL     1      -8.218   7.288  -2.552  1.00  0.00    -0.354 N 
ATOM     54  N   UNL     1      -8.477   4.408  -3.065  1.00  0.00    -0.248 NA
ATOM     55  C   UNL     1      -9.685   2.414  -2.889  1.00  0.00     0.031 C 
ATOM     56  C   UNL     1      -9.898   8.332  -1.541  1.00  0.00     0.029 A 
ATOM     57  C   UNL     1      -9.477   7.097  -2.008  1.00  0.00     0.049 A 
ATOM     58  H   UNL     1      -7.664   6.581  -2.955  1.00  0.00     0.167 HD
ATOM     59  C   UNL     1      -9.694   4.664  -2.442  1.00  0.00     0.074 A 
ATOM     60  C   UNL     1     -10.409   3.405  -2.387  1.00  0.00     0.031 C 
ATOM     61  C   UNL     1     -10.175   5.837  -1.959  1.00  0.00     0.031 A 
BRANCH  48  62
ATOM     62  C   UNL     1      -6.319  10.626  -2.644  1.00  0.00    -0.014 A 
ATOM     63  C   UNL     1      -6.278  11.554  -3.702  1.00  0.00     0.010 A 
ATOM     64  C   UNL     1      -6.115  11.082  -1.329  1.00  0.00     0.010 A 
ATOM     65  C   UNL     1      -5.986  12.898  -3.455  1.00  0.00     0.020 A 
ATOM     66  C   UNL     1      -5.852  12.432  -1.075  1.00  0.00     0.020 A 
ATOM     67  C   UNL     1      -5.768  13.327  -2.143  1.00  0.00     0.054 A 
BRANCH  67  68
ATOM     68  S   UNL     1      -5.394  15.078  -1.851  1.00  0.00     0.124 S 
ATOM     69  O   UNL     1      -4.012  15.171  -2.316  1.00  0.00    -0.237 OA
ATOM     70  O   UNL     1      -6.382  15.761  -2.683  1.00  0.00    -0.237 OA
ATOM     71  O   UNL     1      -5.580  15.237  -0.411  1.00  0.00    -0.744 OA
ENDBRANCH  67  68
ENDBRANCH  48  62
BRANCH  49  72
ATOM     72  C   UNL     1      -7.595   0.840  -4.220  1.00  0.00    -0.014 A 
ATOM     73  C   UNL     1      -8.529   0.346  -5.147  1.00  0.00     0.010 A 
ATOM     74  C   UNL     1      -6.800  -0.070  -3.499  1.00  0.00     0.010 A 
ATOM     75  C   UNL     1      -8.674  -1.031  -5.340  1.00  0.00     0.020 A 
ATOM     76  C   UNL     1      -6.923  -1.446  -3.709  1.00  0.00     0.020 A 
ATOM     77  C   UNL     1      -7.868  -1.919  -4.623  1.00  0.00     0.054 A 
BRANCH  77  78
ATOM     78  S   UNL     1      -8.028  -3.699  -4.938  1.00  0.00     0.124 S 
ATOM     79  O   UNL     1      -9.281  -4.015  -4.260  1.00  0.00    -0.237 OA
ATOM     80  O   UNL     1      -8.064  -3.759  -6.397  1.00  0.00    -0.237 OA
ATOM     81  O   UNL     1      -6.825  -4.262  -4.329  1.00  0.00    -0.744 OA
ENDBRANCH  77  78
ENDBRANCH  49  72
BRANCH  61  82
ATOM     82  C   UNL     1     -11.553   5.822  -1.355  1.00  0.00    -0.014 A 
ATOM     83  C   UNL     1     -11.790   5.242  -0.096  1.00  0.00     0.010 A 
ATOM     84  C   UNL     1     -12.615   6.447  -2.034  1.00  0.00     0.010 A 
ATOM     85  C   UNL     1     -13.072   5.263   0.460  1.00  0.00     0.020 A 
ATOM     86  C   UNL     1     -13.892   6.492  -1.470  1.00  0.00     0.020 A 
ATOM     87  C   UNL     1     -14.115   5.887  -0.232  1.00  0.00     0.054 A 
BRANCH  87  88
ATOM     88  S   UNL     1     -15.760   5.939   0.531  1.00  0.00     0.124 S 
ATOM     89  O   UNL     1     -16.225   4.568   0.344  1.00  0.00    -0.237 OA
ATOM     90  O   UNL     1     -15.463   6.321   1.909  1.00  0.00    -0.237 OA
ATOM     91  O   UNL     1     -16.471   6.950  -0.249  1.00  0.00    -0.744 OA
ENDBRANCH  87  88
ENDBRANCH  61  82
ENDBRANCH  35  36
ENDBRANCH  27  30
ENDBRANCH  25  26
ENDBRANCH  24  25
ENDBRANCH   1  24
TORSDOF 17
