REMARK SMILES Cc1ccc(S(=O)(=O)n2cc(C(=O)C(=O)N[C@@H](Cc3c[nH]c4ccccc34)C(=O)NCC(=O)NCCCNC(=O)c3ccc(-c4c5nc(c(-c6ccc(S(=O)(=O)[O-])cc6)c6ccc([nH]6)c(-c6ccc(S(=O)(=O)[O-])cc6)c6nc(c(-c7ccc(S(=O)(=O)[O-])cc7)c7ccc4[nH]7)C=C6)C=C5)cc3)c3ccccc32)cc1
REMARK SMILES IDX 32 1 33 2 34 3 31 5 30 6 28 7 29 8 17 10 16 11 14 12 15 13
REMARK SMILES IDX 12 15 13 16 11 17 9 18 10 19 106 20 101 21 105 22 102 23
REMARK SMILES IDX 104 24 103 25 6 26 7 27 8 28 5 29 1 30 2 31 3 32 108 33 4 34
REMARK SMILES IDX 107 35 18 36 19 37 20 38 27 39 21 40 22 41 26 42 23 44 25 45
REMARK SMILES IDX 24 46 35 47 36 48 37 49 38 50 39 51 40 53 41 54 42 55 100 56
REMARK SMILES IDX 43 57 99 58 44 59 45 60 46 61 93 62 47 63 98 64 92 65 94 66
REMARK SMILES IDX 48 67 97 68 91 69 90 70 49 72 79 73 60 74 78 75 61 76 64 77
REMARK SMILES IDX 77 78 95 79 62 80 63 81 76 83 96 84 65 85 50 86 51 87 59 88
REMARK SMILES IDX 52 89 58 90 53 91 54 92 55 93 56 94 57 95 80 96 81 97 89 98
REMARK SMILES IDX 82 99 88 100 83 101 84 102 85 103 86 104 87 105 66 106
REMARK SMILES IDX 67 107 75 108 68 109 74 110 69 111 70 112 71 113 72 114
REMARK SMILES IDX 73 115
REMARK H PARENT 34 4 30 9 16 14 21 43 38 52 94 71 64 82
REMARK Flexibility Score: inf
ROOT
ATOM      1  C   UNL     1     -12.128   5.322  -2.386  1.00  0.00     0.239 C 
ATOM      2  O   UNL     1     -13.087   5.968  -2.811  1.00  0.00    -0.273 OA
ATOM      3  N   UNL     1     -10.857   5.630  -2.787  1.00  0.00    -0.355 N 
ATOM      4  H   UNL     1     -10.756   6.405  -3.386  1.00  0.00     0.163 HD
ENDROOT
BRANCH   1   5
ATOM      5  C   UNL     1     -12.317   4.193  -1.370  1.00  0.00     0.216 C 
BRANCH   5   6
ATOM      6  N   UNL     1     -12.164   2.829  -1.837  1.00  0.00    -0.345 N 
ATOM      7  C   UNL     1     -11.728   1.721  -1.172  1.00  0.00     0.243 C 
ATOM      8  O   UNL     1     -12.159   0.636  -1.588  1.00  0.00    -0.273 OA
ATOM      9  H   UNL     1     -12.413   2.679  -2.778  1.00  0.00     0.164 HD
BRANCH   7  10
ATOM     10  C   UNL     1     -10.889   1.755   0.141  1.00  0.00     0.176 C 
BRANCH  10  11
ATOM     11  N   UNL     1      -9.744   2.677   0.217  1.00  0.00    -0.337 N 
ATOM     12  C   UNL     1      -8.378   2.462   0.057  1.00  0.00     0.293 C 
ATOM     13  O   UNL     1      -7.601   3.259   0.567  1.00  0.00    -0.265 OA
ATOM     14  H   UNL     1      -9.987   3.610   0.416  1.00  0.00     0.164 HD
BRANCH  12  15
ATOM     15  C   UNL     1      -7.861   1.242  -0.727  1.00  0.00     0.252 C 
ATOM     16  O   UNL     1      -8.606   0.819  -1.613  1.00  0.00    -0.283 OA
BRANCH  15  17
ATOM     17  C   UNL     1      -6.687   0.459  -0.300  1.00  0.00     0.054 A 
ATOM     18  N   UNL     1      -4.709  -0.321   0.443  1.00  0.00    -0.240 N 
ATOM     19  C   UNL     1      -5.354   0.812  -0.032  1.00  0.00     0.117 A 
ATOM     20  C   UNL     1      -5.650  -1.355   0.565  1.00  0.00     0.065 A 
ATOM     21  C   UNL     1      -6.748  -0.964  -0.185  1.00  0.00     0.012 A 
ATOM     22  C   UNL     1      -5.529  -2.671   1.061  1.00  0.00     0.028 A 
ATOM     23  C   UNL     1      -7.660  -1.955  -0.611  1.00  0.00     0.011 A 
ATOM     24  C   UNL     1      -6.417  -3.637   0.596  1.00  0.00     0.002 A 
ATOM     25  C   UNL     1      -7.444  -3.293  -0.269  1.00  0.00     0.001 A 
BRANCH  18  26
ATOM     26  S   UNL     1      -3.117  -0.921   0.176  1.00  0.00     0.268 S 
ATOM     27  O   UNL     1      -3.278  -1.702  -1.045  1.00  0.00    -0.201 OA
ATOM     28  O   UNL     1      -2.844  -1.606   1.438  1.00  0.00    -0.201 OA
BRANCH  26  29
ATOM     29  C   UNL     1      -1.617  -0.051  -0.072  1.00  0.00     0.088 A 
ATOM     30  C   UNL     1       2.548   1.103  -0.095  1.00  0.00     0.044 C 
ATOM     31  C   UNL     1       1.091   0.744  -0.145  1.00  0.00    -0.051 A 
ATOM     32  C   UNL     1       0.768  -0.589  -0.356  1.00  0.00     0.005 A 
ATOM     33  C   UNL     1       0.048   1.675   0.063  1.00  0.00     0.005 A 
ATOM     34  C   UNL     1      -0.562  -0.970  -0.328  1.00  0.00     0.022 A 
ATOM     35  C   UNL     1      -1.317   1.286   0.105  1.00  0.00     0.022 A 
ENDBRANCH  26  29
ENDBRANCH  18  26
ENDBRANCH  15  17
ENDBRANCH  12  15
ENDBRANCH  10  11
BRANCH  10  36
ATOM     36  C   UNL     1     -11.791   1.831   1.418  1.00  0.00     0.072 C 
BRANCH  36  37
ATOM     37  C   UNL     1     -12.574   3.105   1.653  1.00  0.00    -0.020 A 
ATOM     38  C   UNL     1     -13.948   3.236   1.530  1.00  0.00     0.087 A 
ATOM     39  C   UNL     1     -12.075   4.418   1.972  1.00  0.00     0.003 A 
ATOM     40  N   UNL     1     -14.269   4.567   1.614  1.00  0.00    -0.361 N 
ATOM     41  C   UNL     1     -13.126   5.315   1.764  1.00  0.00     0.046 A 
ATOM     42  C   UNL     1     -10.802   4.951   2.268  1.00  0.00     0.010 A 
ATOM     43  H   UNL     1     -15.182   4.932   1.573  1.00  0.00     0.166 HD
ATOM     44  C   UNL     1     -12.939   6.702   1.687  1.00  0.00     0.026 A 
ATOM     45  C   UNL     1     -10.590   6.331   2.160  1.00  0.00     0.001 A 
ATOM     46  C   UNL     1     -11.639   7.188   1.844  1.00  0.00     0.002 A 
ENDBRANCH  36  37
ENDBRANCH  10  36
ENDBRANCH   7  10
ENDBRANCH   5   6
ENDBRANCH   1   5
BRANCH   3  47
ATOM     47  C   UNL     1      -9.641   4.926  -2.416  1.00  0.00     0.117 C 
BRANCH  47  48
ATOM     48  C   UNL     1      -9.435   3.686  -3.277  1.00  0.00     0.042 C 
BRANCH  48  49
ATOM     49  C   UNL     1      -8.579   3.985  -4.487  1.00  0.00     0.118 C 
BRANCH  49  50
ATOM     50  N   UNL     1      -7.283   3.315  -4.495  1.00  0.00    -0.352 N 
ATOM     51  C   UNL     1      -6.329   3.364  -5.502  1.00  0.00     0.251 C 
ATOM     52  H   UNL     1      -7.062   2.772  -3.704  1.00  0.00     0.163 HD
ATOM     53  O   UNL     1      -5.341   2.661  -5.540  1.00  0.00    -0.269 OA
BRANCH  51  54
ATOM     54  C   UNL     1      -6.491   4.475  -6.466  1.00  0.00     0.039 A 
ATOM     55  C   UNL     1      -5.671   5.584  -6.229  1.00  0.00     0.014 A 
ATOM     56  C   UNL     1      -7.687   4.584  -7.172  1.00  0.00     0.014 A 
ATOM     57  C   UNL     1      -6.171   6.851  -6.487  1.00  0.00     0.010 A 
ATOM     58  C   UNL     1      -8.227   5.847  -7.320  1.00  0.00     0.010 A 
ATOM     59  C   UNL     1      -7.495   6.970  -6.909  1.00  0.00    -0.014 A 
BRANCH  59  60
ATOM     60  C   UNL     1      -8.188   8.252  -6.940  1.00  0.00     0.031 A 
ATOM     61  C   UNL     1      -8.330   8.909  -8.260  1.00  0.00     0.074 A 
ATOM     62  C   UNL     1      -8.647   8.834  -5.806  1.00  0.00     0.049 A 
ATOM     63  N   UNL     1      -8.473  10.176  -8.449  1.00  0.00    -0.248 NA
ATOM     64  C   UNL     1      -8.223   8.154  -9.508  1.00  0.00     0.031 C 
ATOM     65  C   UNL     1      -9.450  10.053  -5.723  1.00  0.00     0.029 A 
ATOM     66  N   UNL     1      -8.288   8.588  -4.473  1.00  0.00    -0.354 N 
ATOM     67  C   UNL     1      -8.768  10.363  -9.783  1.00  0.00     0.074 A 
ATOM     68  C   UNL     1      -8.496   9.096 -10.410  1.00  0.00     0.031 C 
ATOM     69  C   UNL     1      -9.237  10.620  -4.524  1.00  0.00     0.029 A 
ATOM     70  C   UNL     1      -8.188   9.853  -3.871  1.00  0.00     0.049 A 
ATOM     71  H   UNL     1      -8.139   7.712  -4.049  1.00  0.00     0.167 HD
ATOM     72  C   UNL     1      -9.354  11.527 -10.183  1.00  0.00     0.031 A 
ATOM     73  C   UNL     1      -7.020  10.383  -3.399  1.00  0.00     0.031 A 
ATOM     74  C   UNL     1      -9.335  12.517  -9.106  1.00  0.00     0.049 A 
ATOM     75  C   UNL     1      -6.653  11.698  -4.081  1.00  0.00     0.074 A 
ATOM     76  C   UNL     1     -10.280  12.942  -8.187  1.00  0.00     0.029 A 
ATOM     77  N   UNL     1      -8.103  12.964  -8.633  1.00  0.00    -0.354 N 
ATOM     78  N   UNL     1      -7.164  12.100  -5.217  1.00  0.00    -0.248 NA
ATOM     79  C   UNL     1      -5.690  12.659  -3.546  1.00  0.00     0.031 C 
ATOM     80  C   UNL     1      -9.588  13.532  -7.091  1.00  0.00     0.029 A 
ATOM     81  C   UNL     1      -8.231  13.510  -7.368  1.00  0.00     0.049 A 
ATOM     82  H   UNL     1      -7.256  12.901  -9.131  1.00  0.00     0.167 HD
ATOM     83  C   UNL     1      -6.667  13.337  -5.545  1.00  0.00     0.074 A 
ATOM     84  C   UNL     1      -5.745  13.643  -4.464  1.00  0.00     0.031 C 
ATOM     85  C   UNL     1      -7.057  14.022  -6.665  1.00  0.00     0.031 A 
BRANCH  72  86
ATOM     86  C   UNL     1     -10.220  11.602 -11.430  1.00  0.00    -0.014 A 
ATOM     87  C   UNL     1     -11.303  12.502 -11.483  1.00  0.00     0.010 A 
ATOM     88  C   UNL     1     -10.092  10.736 -12.534  1.00  0.00     0.010 A 
ATOM     89  C   UNL     1     -12.259  12.458 -12.516  1.00  0.00     0.020 A 
ATOM     90  C   UNL     1     -11.059  10.648 -13.547  1.00  0.00     0.020 A 
ATOM     91  C   UNL     1     -12.148  11.505 -13.527  1.00  0.00     0.054 A 
BRANCH  91  92
ATOM     92  S   UNL     1     -13.432  11.384 -14.800  1.00  0.00     0.124 S 
ATOM     93  O   UNL     1     -14.648  11.210 -14.011  1.00  0.00    -0.237 OA
ATOM     94  O   UNL     1     -13.305  12.662 -15.493  1.00  0.00    -0.237 OA
ATOM     95  O   UNL     1     -13.035  10.214 -15.583  1.00  0.00    -0.744 OA
ENDBRANCH  91  92
ENDBRANCH  72  86
BRANCH  73  96
ATOM     96  C   UNL     1      -6.075   9.394  -2.803  1.00  0.00    -0.014 A 
ATOM     97  C   UNL     1      -6.453   8.786  -1.584  1.00  0.00     0.010 A 
ATOM     98  C   UNL     1      -5.065   8.783  -3.563  1.00  0.00     0.010 A 
ATOM     99  C   UNL     1      -5.965   7.524  -1.220  1.00  0.00     0.020 A 
ATOM    100  C   UNL     1      -4.571   7.515  -3.200  1.00  0.00     0.020 A 
ATOM    101  C   UNL     1      -5.076   6.866  -2.067  1.00  0.00     0.054 A 
BRANCH 101 102
ATOM    102  S   UNL     1      -4.695   5.114  -1.739  1.00  0.00     0.124 S 
ATOM    103  O   UNL     1      -4.355   5.108  -0.319  1.00  0.00    -0.237 OA
ATOM    104  O   UNL     1      -5.953   4.451  -2.086  1.00  0.00    -0.237 OA
ATOM    105  O   UNL     1      -3.577   4.839  -2.634  1.00  0.00    -0.744 OA
ENDBRANCH 101 102
ENDBRANCH  73  96
BRANCH  85 106
ATOM    106  C   UNL     1      -6.433  15.299  -7.192  1.00  0.00    -0.014 A 
ATOM    107  C   UNL     1      -5.118  15.709  -6.924  1.00  0.00     0.010 A 
ATOM    108  C   UNL     1      -7.162  16.076  -8.129  1.00  0.00     0.010 A 
ATOM    109  C   UNL     1      -4.577  16.862  -7.516  1.00  0.00     0.020 A 
ATOM    110  C   UNL     1      -6.617  17.197  -8.761  1.00  0.00     0.020 A 
ATOM    111  C   UNL     1      -5.329  17.599  -8.431  1.00  0.00     0.054 A 
BRANCH 111 112
ATOM    112  S   UNL     1      -4.596  19.034  -9.259  1.00  0.00     0.124 S 
ATOM    113  O   UNL     1      -4.940  20.118  -8.343  1.00  0.00    -0.237 OA
ATOM    114  O   UNL     1      -3.176  18.691  -9.318  1.00  0.00    -0.237 OA
ATOM    115  O   UNL     1      -5.274  19.064 -10.552  1.00  0.00    -0.744 OA
ENDBRANCH 111 112
ENDBRANCH  85 106
ENDBRANCH  59  60
ENDBRANCH  51  54
ENDBRANCH  49  50
ENDBRANCH  48  49
ENDBRANCH  47  48
ENDBRANCH   3  47
TORSDOF 22
